#------------------------------------------------------------------------------
#$Date: 2019-11-22 02:18:40 +0200 (Fri, 22 Nov 2019) $
#$Revision: 231167 $
#$URL: file:///home/coder/svn-repositories/cod/cif/4/12/92/4129204.cif $
#------------------------------------------------------------------------------
#
# This file is available in the Crystallography Open Database (COD),
# http://www.crystallography.net/
#
# All data on this site have been placed in the public domain by the
# contributors.
#
data_4129204
loop_
_publ_author_name
'Mao, Lingling'
'Teicher, Samuel M. L.'
'Stoumpos, Constantinos C.'
'Kennard, Rhys M.'
'DeCrescent, Ryan A.'
'Wu, Guang'
'Schuller, Jon A.'
'Chabinyc, Michael L.'
'Cheetham, Anthony K.'
'Seshadri, Ram'
_publ_section_title
;
 Chemical and Structural Diversity of Hybrid Layered Double Perovskite
 Halides.
;
_journal_name_full               'Journal of the American Chemical Society'
_journal_paper_doi               10.1021/jacs.9b09945
_journal_year                    2019
_chemical_formula_moiety         '0.5(Ag2 Bi2 Br14 Cs2), C6 H20 N2'
_chemical_formula_sum            'C6 H20 Ag Bi Br7 Cs N2'
_chemical_formula_weight         1129.37
_space_group_crystal_system      monoclinic
_space_group_IT_number           11
_space_group_name_Hall           '-P 2yb'
_space_group_name_H-M_alt        'P 1 21/m 1'
_atom_sites_solution_hydrogens   geom
_atom_sites_solution_primary     direct
_audit_creation_date             2019-03-15
_audit_creation_method
;
Olex2 1.2
(compiled 2018.05.29 svn.r3508 for OlexSys, GUI svn.r5506)
;
_cell_angle_alpha                90
_cell_angle_beta                 102.503(11)
_cell_angle_gamma                90
_cell_formula_units_Z            2
_cell_length_a                   8.053(4)
_cell_length_b                   7.997(3)
_cell_length_c                   18.536(8)
_cell_measurement_reflns_used    1238
_cell_measurement_temperature    298(2)
_cell_measurement_theta_max      24.09
_cell_measurement_theta_min      2.59
_cell_volume                     1165.4(9)
_computing_molecular_graphics    'Olex2 (Dolomanov et al., 2009)'
_computing_publication_material  'Olex2 (Dolomanov et al., 2009)'
_computing_structure_refinement  'XL (Sheldrick, 2008)'
_computing_structure_solution    'XS (Sheldrick, 2008)'
_diffrn_ambient_temperature      298.0
_diffrn_measured_fraction_theta_full 0.924
_diffrn_measured_fraction_theta_max 0.900
_diffrn_measurement_device_type  'Bruker APEX-II CCD'
_diffrn_measurement_method       '\f and \w scans'
_diffrn_radiation_type           MoK\a
_diffrn_radiation_wavelength     0.71073
_diffrn_reflns_av_R_equivalents  0.1009
_diffrn_reflns_av_unetI/netI     0.1371
_diffrn_reflns_Laue_measured_fraction_full 0.924
_diffrn_reflns_Laue_measured_fraction_max 0.900
_diffrn_reflns_limit_h_max       4
_diffrn_reflns_limit_h_min       -9
_diffrn_reflns_limit_k_max       9
_diffrn_reflns_limit_k_min       -9
_diffrn_reflns_limit_l_max       22
_diffrn_reflns_limit_l_min       -20
_diffrn_reflns_number            4810
_diffrn_reflns_point_group_measured_fraction_full 0.924
_diffrn_reflns_point_group_measured_fraction_max 0.900
_diffrn_reflns_theta_full        25.242
_diffrn_reflns_theta_max         25.678
_diffrn_reflns_theta_min         1.125
_diffrn_standards_number         0
_exptl_absorpt_coefficient_mu    21.907
_exptl_absorpt_correction_type   none
_exptl_crystal_colour            yellow
_exptl_crystal_density_diffrn    3.218
_exptl_crystal_description       plate
_exptl_crystal_F_000             1000
_refine_diff_density_max         5.786
_refine_diff_density_min         -4.368
_refine_diff_density_rms         0.517
_refine_ls_extinction_coef       0.00051(16)
_refine_ls_extinction_expression Fc^*^=kFc[1+0.001xFc^2^\l^3^/sin(2\q)]^-1/4^
_refine_ls_extinction_method     'SHELXL-2014/7 (Sheldrick 2014'
_refine_ls_goodness_of_fit_ref   1.048
_refine_ls_hydrogen_treatment    constr
_refine_ls_matrix_type           full
_refine_ls_number_parameters     78
_refine_ls_number_reflns         2138
_refine_ls_number_restraints     13
_refine_ls_restrained_S_all      1.045
_refine_ls_R_factor_all          0.2065
_refine_ls_R_factor_gt           0.1304
_refine_ls_shift/su_max          0.297
_refine_ls_shift/su_mean         0.006
_refine_ls_structure_factor_coef Fsqd
_refine_ls_weighting_details
'w=1/[\s^2^(Fo^2^)+(0.0001P)^2^+373.8861P] where P=(Fo^2^+2Fc^2^)/3'
_refine_ls_weighting_scheme      calc
_refine_ls_wR_factor_gt          0.2742
_refine_ls_wR_factor_ref         0.3171
_reflns_Friedel_coverage         0.000
_reflns_number_gt                1272
_reflns_number_total             2138
_reflns_threshold_expression     'I > 2\s(I)'
_cod_data_source_file            ja9b09945_si_004.cif
_cod_data_source_block           p21m
_cod_original_cell_volume        1165.5(9)
_cod_database_code               4129204
_shelx_shelxl_version_number     2014/7
_shelx_space_group_comment
;
The symmetry employed for this shelxl refinement is uniquely defined
by the following loop, which should always be used as a source of
symmetry information in preference to the above space-group names.
They are only intended as comments.
;
_olex2_refinement_description
;
1. Fixed Uiso
 At 1.2 times of:
  All C(H,H) groups, All N(H,H,H) groups
 At 1.5 times of:
  All C(H,H,H) groups
2. Restrained distances
 N2-C4 = C4-C5
 1.5 with sigma of 0.02
 C4-C5
 1.5 with sigma of 0.02
 N1-C1
 1.5 with sigma of 0.02
 C2-C3
 1.5 with sigma of 0.02
 C1-C2
 1.5 with sigma of 0.02
 N1-C1 = C1-C2
 1.5 with sigma of 0.02
 C1-C2 = C2-C3
 1.5 with sigma of 0.02
 N2-C5
 2.719 with sigma of 0.04
 N1-C2
 2.719 with sigma of 0.04
 C1-C3
 2.719 with sigma of 0.04
3. Uiso/Uaniso restraints and constraints
Uiso(N2) = Uiso(C4) = Uiso(C5)
Uiso(N2) = Uiso(C4) = Uiso(C5) = Uiso(C6)
Uiso(C1) = Uiso(C3)
Uiso(N1) = Uiso(C1) = Uiso(C3)
Uiso(N1) = Uiso(C1) = Uiso(C2) = Uiso(C3)
4. Others
 Fixed Sof: H2A(0.5) H2B(0.5) H2C(0.5) H5A(0.5) H5B(0.5) H4A(0.5) H4B(0.5)
 H6A(0.5) H6B(0.5) H6C(0.5) H1A(0.5) H1B(0.5) H1C(0.5) H1D(0.5) H1E(0.5)
 H3A(0.5) H3B(0.5) H3C(0.5) H2D(0.5) H2E(0.5)
5.a Secondary CH2 refined with riding coordinates:
 C5(H5A,H5B), C4(H4A,H4B), C1(H1D,H1E), C2(H2D,H2E)
5.b Idealised Me refined as rotating group:
 N2(H2A,H2B,H2C), C6(H6A,H6B,H6C), N1(H1A,H1B,H1C), C3(H3A,H3B,H3C)
;
_shelx_res_file
;
    p21m.res created by SHELXL-2014/7

TITL p21m in P21/m #11
REM reset to P21/m #11
CELL 0.71073 8.0534 7.9972 18.536 90 102.503 90
ZERR 2 0.0035 0.0034 0.0082 0 0.0107 0
LATT 1
SYMM -X,0.5+Y,-Z
SFAC C H Ag Bi Br Cs N
UNIT 12 40 2 2 14 2 4
DFIX 1.5 N2 C4 C4 C5
DFIX 1.5 C4 C5
DFIX 1.5 N1 C1
DFIX 1.5 C2 C3
DFIX 1.5 C1 C2
DFIX 1.5 N1 C1 C1 C2
DFIX 1.5 C1 C2 C2 C3
DANG 2.719 N2 C5
DANG 2.719 N1 C2
DANG 2.719 C1 C3
EADP N2 C4 C5
EADP N2 C4 C5 C6
EADP C1 C3
EADP N1 C1 C3
EADP N1 C1 C2 C3

L.S. 20
PLAN  99
TEMP 24.85
fmap 2 53
ACTA
REM <olex2.extras>
REM <HklSrc "%.\\p21.hkl">
REM </olex2.extras>

WGHT    0.000100  373.886078
EXTI    0.000510
FVAR       0.04928
BI1   4   -0.173363    0.250000    0.151457    10.50000    0.02890    0.03730 =
         0.03607    0.00000    0.00736    0.00000
CS2   6    0.251254    0.250000   -0.000202    10.50000    0.05676    0.06487 =
         0.06292    0.00000    0.01361    0.00000
AG3   3    0.335212    0.750000    0.171856    10.50000    0.05337    0.05305 =
         0.13437    0.00000    0.02902    0.00000
BR5   5    0.074176    0.499657    0.148426    11.00000    0.03885    0.05138 =
         0.15213   -0.00594    0.02188   -0.01675
BR6   5   -0.422458    0.500032    0.151912    11.00000    0.04990    0.05273 =
         0.15111   -0.00085    0.04613    0.01700
BR9   5   -0.254026    0.250000   -0.004238    10.50000    0.13226    0.10347 =
         0.02054    0.00000    0.00558    0.00000
BR1   5   -0.080878    0.250000    0.307822    10.50000    0.30196    0.18689 =
         0.05337    0.00000    0.00632    0.00000
BR0A  5    0.395719    0.750000    0.313783    10.50000    0.21519    0.21937 =
         0.06936    0.00000    0.01519    0.00000
N2    7    0.411565    0.250000    0.271000    10.50000    0.22802
PART -1
AFIX 137
H2A   2    0.499117    0.313885    0.266329    10.50000   -1.20000
H2B   2    0.316510    0.290139    0.242570    10.50000   -1.20000
H2C   2    0.428655    0.145975    0.257161    10.50000   -1.20000
AFIX   0
PART 0
C5    1    0.528245    0.250000    0.420279    10.50000    0.22802
AFIX  23
H5A   2    0.597770    0.153634    0.414977    10.50000   -1.20000
H5B   2    0.597770    0.346366    0.414977    10.50000   -1.20000
AFIX   0
C4    1    0.395452    0.250000    0.349903    10.50000    0.22802
AFIX  23
H4A   2    0.325269    0.153347    0.353949    10.50000   -1.20000
H4B   2    0.325269    0.346653    0.353949    10.50000   -1.20000
AFIX   0
C6    1    0.526850    0.250000    0.493446    10.50000    0.22802
PART -1
AFIX 137
H6A   2    0.558145    0.358822    0.513761    10.50000   -1.50000
H6B   2    0.606565    0.168663    0.518481    10.50000   -1.50000
H6C   2    0.414854    0.222515    0.499792    10.50000   -1.50000
AFIX   0

PART 0
N1    7    0.123063    0.250000   -0.285988    10.50000    0.24933
PART -1
AFIX 137
H1A   2    0.216677    0.311864   -0.273147    10.50000   -1.20000
H1B   2    0.145467    0.145676   -0.270126    10.50000   -1.20000
H1C   2    0.041718    0.292461   -0.265724    10.50000   -1.20000
AFIX   0
PART 0
C1    1    0.064622    0.250000   -0.368526    10.50000    0.24933
AFIX  23
H1D   2   -0.009138    0.346760   -0.379575    10.50000   -1.20000
H1E   2   -0.009138    0.153240   -0.379575    10.50000   -1.20000
AFIX   0
C3    1    0.120785    0.250000   -0.509472    10.50000    0.24933
PART -1
AFIX 137
H3A   2    0.221963    0.258412   -0.528718    10.50000   -1.50000
H3B   2    0.047928    0.343537   -0.526259    10.50000   -1.50000
H3C   2    0.062287    0.148051   -0.526462    10.50000   -1.50000
AFIX   0
PART 0
C2    1    0.167864    0.250000   -0.426747    10.50000    0.24933
AFIX  23
H2D   2    0.241604    0.153477   -0.414717    10.50000   -1.20000
H2E   2    0.241605    0.346523   -0.414717    10.50000   -1.20000
AFIX   0
HKLF 4

REM  p21m in P21/m #11
REM R1 =  0.1304 for    1272 Fo > 4sig(Fo)  and  0.2065 for all    2138 data
REM     78 parameters refined using     13 restraints

END

WGHT      0.0001    372.6837

REM Highest difference peak  5.786,  deepest hole -4.368,  1-sigma level  0.517
Q1    1  -0.1443  0.2500  0.1985  10.50000  0.05    5.79
Q2    1  -0.2000  0.2500  0.1044  10.50000  0.05    5.34
Q3    1   0.1682  0.2500 -0.1534  10.50000  0.05    4.72
Q4    1   0.0622  0.5167  0.0260  11.00000  0.05    3.56
Q5    1  -0.5455  0.5057  0.0280  11.00000  0.05    3.40
Q6    1  -0.0270  0.2500  0.3074  10.50000  0.05    3.31
Q7    1  -0.1801  0.2500  0.3026  10.50000  0.05    3.04
Q8    1   0.2717 -0.0038 -0.3311  11.00000  0.05    2.55
Q9    1   0.1886  0.5159  0.2772  11.00000  0.05    2.52
Q10   1   0.5923  0.5170  0.2789  11.00000  0.05    2.51
Q11   1   0.1422  0.2500 -0.2481  10.50000  0.05    2.37
Q12   1   0.3649  0.7500  0.2538  10.50000  0.05    2.36
Q13   1  -0.1139 -0.0194 -0.3341  11.00000  0.05    2.31
Q14   1  -0.1900  0.2500  0.0411  10.50000  0.05    2.30
Q15   1   0.2970  0.2500  0.0995  10.50000  0.05    2.05
Q16   1  -0.2586  0.2905  0.0390  11.00000  0.05    1.97
Q17   1  -0.0983  0.1930  0.2601  11.00000  0.05    1.94
Q18   1   0.2023  0.2500 -0.0608  10.50000  0.05    1.92
Q19   1   0.3776  0.2500  0.1150  10.50000  0.05    1.69
Q20   1   0.1832  0.7500  0.1375  10.50000  0.05    1.68
Q21   1  -0.0602  0.2500  0.3695  10.50000  0.05    1.67
Q22   1   0.4199  0.7500  0.3793  10.50000  0.05    1.63
Q23   1   0.2113  0.7500  0.0913  10.50000  0.05    1.62
Q24   1   0.3522  0.2500  0.1993  10.50000  0.05    1.59
Q25   1  -0.2259  0.2500 -0.0690  10.50000  0.05    1.54
Q26   1   0.2844  0.2500  0.0519  10.50000  0.05    1.53
Q27   1  -0.3023  0.2500  0.0011  10.50000  0.05    1.48
Q28   1   0.4588  0.7500  0.1486  10.50000  0.05    1.43
Q29   1  -0.2839  0.3925  0.1179  11.00000  0.05    1.43
Q30   1  -0.0635  0.3923  0.1834  11.00000  0.05    1.40
Q31   1  -0.1040  0.2500  0.0781  10.50000  0.05    1.39
Q32   1  -0.0363  0.3757  0.1178  11.00000  0.05    1.37
Q33   1  -0.3481  0.2500  0.1818  10.50000  0.05    1.36
Q34   1   0.3391  0.7500  0.3219  10.50000  0.05    1.32
Q35   1  -0.0049  0.2500  0.1210  10.50000  0.05    1.31
Q36   1   0.2030  0.6410  0.1436  11.00000  0.05    1.28
Q37   1   0.3593  0.2500  0.2641  10.50000  0.05    1.24
Q38   1  -0.0086  0.2500  0.2184  10.50000  0.05    1.23
Q39   1  -0.3180  0.3691  0.1811  11.00000  0.05    1.21
Q40   1   0.3977  0.7500  0.0984  10.50000  0.05    1.21
Q41   1  -0.3068  0.2500 -0.0382  10.50000  0.05    1.19
Q42   1   0.1032  0.2500 -0.4591  10.50000  0.05    1.15
Q43   1  -0.3102  0.2500  0.0754  10.50000  0.05    1.12
Q44   1   0.5419  0.2500  0.3369  10.50000  0.05    1.11
Q45   1   0.5140  0.2500  0.3760  10.50000  0.05    1.11
Q46   1  -0.3029  0.1930  0.2017  11.00000  0.05    1.10
Q47   1   0.4826  0.7500  0.3251  10.50000  0.05    1.09
Q48   1   0.1724  0.2500 -0.2954  10.50000  0.05    1.08
Q49   1  -0.0641  0.2082 -0.4604  11.00000  0.05    1.06
Q50   1   0.3130  0.6183  0.0994  11.00000  0.05    1.05
Q51   1   0.2976  0.9011  0.1337  11.00000  0.05    1.03
Q52   1   0.4133  0.2500  0.2935  10.50000  0.05    1.03
Q53   1   0.3648  0.4837 -0.3778  11.00000  0.05    1.03
Q54   1   0.2472 -0.0013  0.3809  11.00000  0.05    1.03
Q55   1   0.4228  0.2500  0.1649  10.50000  0.05    1.03
Q56   1   0.2203  0.1483 -0.0937  11.00000  0.05    1.02
Q57   1  -0.3333  0.7500  0.1339  10.50000  0.05    1.00
Q58   1   0.4533  0.8529  0.1571  11.00000  0.05    1.00
Q59   1   0.2708  0.2500  0.1873  10.50000  0.05    0.98
Q60   1  -0.1348  0.0017 -0.4218  11.00000  0.05    0.98
Q61   1  -0.3827  0.3314  0.1239  11.00000  0.05    0.96
Q62   1   0.0654  0.3100 -0.4048  11.00000  0.05    0.93
Q63   1  -0.6457  0.3507  0.1248  11.00000  0.05    0.92
Q64   1   0.4132  0.1676  0.1627  11.00000  0.05    0.91
Q65   1   0.1210 -0.0192 -0.3410  11.00000  0.05    0.90
Q66   1  -0.4728  0.2500  0.0887  10.50000  0.05    0.89
Q67   1   0.0008  0.2739 -0.3136  11.00000  0.05    0.87
Q68   1   0.0242  0.3307  0.1782  11.00000  0.05    0.87
Q69   1  -0.4220  0.4110  0.0781  11.00000  0.05    0.86
Q70   1  -0.2868  0.6685  0.1691  11.00000  0.05    0.86
Q71   1   0.5901  0.2500  0.5628  10.50000  0.05    0.83
Q72   1   0.1159 -0.0435 -0.5386  11.00000  0.05    0.81
Q73   1   0.1851  0.0020 -0.4434  11.00000  0.05    0.80
Q74   1   0.5403  0.1755  0.4620  11.00000  0.05    0.79
Q75   1  -0.0028  0.4216  0.0767  11.00000  0.05    0.79
Q76   1  -0.4812  0.3545  0.1398  11.00000  0.05    0.79
Q77   1  -0.0376  0.2500  0.0364  10.50000  0.05    0.78
Q78   1   0.7942  0.0508  0.4725  11.00000  0.05    0.78
Q79   1   0.3686  0.2500  0.3758  10.50000  0.05    0.78
Q80   1   0.1106  0.1346 -0.3329  11.00000  0.05    0.77
Q81   1   0.0034  0.2500 -0.1666  10.50000  0.05    0.77
Q82   1  -0.2661  0.2500  0.2220  10.50000  0.05    0.76
Q83   1   0.4558  0.3600  0.3959  11.00000  0.05    0.76
Q84   1   0.6538  0.4020  0.2376  11.00000  0.05    0.74
Q85   1   0.4772  0.8794  0.3631  11.00000  0.05    0.74
Q86   1   0.1437  0.3774  0.1612  11.00000  0.05    0.73
Q87   1   0.2393  0.8088  0.2600  11.00000  0.05    0.73
Q88   1   0.4645  0.3186  0.4391  11.00000  0.05    0.71
Q89   1  -0.1468  0.2500 -0.5367  10.50000  0.05    0.70
Q90   1   0.5065  0.0141  0.3816  11.00000  0.05    0.70
Q91   1  -0.1267  0.2500 -0.4192  10.50000  0.05    0.69
Q92   1   0.3281 -0.0330  0.2795  11.00000  0.05    0.69
Q93   1  -0.0114  0.6049  0.0761  11.00000  0.05    0.69
Q94   1  -0.0009  0.3854  0.0642  11.00000  0.05    0.68
Q95   1   0.1643  0.0611 -0.4749  11.00000  0.05    0.67
Q96   1   0.3039  0.3779  0.1616  11.00000  0.05    0.67
Q97   1  -0.0982  0.1114  0.0237  11.00000  0.05    0.67
Q98   1   0.0531  0.4979  0.1258  11.00000  0.05    0.66
Q99   1   0.0867  0.5880  0.0764  11.00000  0.05    0.66
;
_shelx_res_checksum              254
_shelx_hkl_file
;
  -1   0   0    2.42    0.52
   1   0   0    2.69    0.58
  -2   0   0   12.10    1.48
  -3   0   0   33.71    2.17
  -4   0   0   14.05    2.02
  -5   0   0    7.02    1.49
  -6   0   0    2.02    0.79
  -6   0   0    1.74    1.63
  -7   0   0    0.86    1.93
  -7   0   0    0.60    0.96
  -8   0   0   16.45    1.87
  -8   0   0   10.22    2.52
  -9   0   0    4.56    1.35
  -9   0   0    3.11    2.60
  -9   1   0    2.23    1.27
  -9   1   0    0.25    2.40
  -8   1   0    0.46    2.09
  -8   1   0    1.20    1.10
  -7   1   0   30.88    3.58
  -7   1   0   34.51    2.04
  -6   1   0    2.19    1.70
  -5   1   0   33.84    1.51
  -5   1   0   31.48    2.78
  -4   1   0    9.72    1.59
  -4   1   0   10.25    0.84
  -3   1   0    4.67    0.64
   2  -1   0    6.17    0.51
  -2   1   0    6.66    0.54
   1  -1   0   71.52    2.37
  -1   1   0   73.01    2.37
   0  -1   0   -0.13    0.15
   0  -1   0   -0.02    0.29
   0   1   0   -0.04    0.15
   0   1   0    0.08    0.26
  -1  -1   0   94.02    3.00
  -1  -1   0   89.06    3.13
   1   1   0   96.43    3.00
   1   1   0   89.78    3.11
  -2  -1   0    6.98    0.66
  -2  -1   0    9.54    1.22
   2   1   0    9.00    1.20
  -3  -1   0    8.03    0.82
  -3  -1   0   12.11    1.49
   3   1   0    9.12    1.58
  -4  -1   0   11.87    1.03
  -4  -1   0   13.09    1.87
  -5  -1   0   36.60    1.80
  -5  -1   0   41.95    2.79
  -6  -1   0    2.98    1.61
  -6  -1   0    1.50    0.82
  -7  -1   0   35.54    3.62
  -7  -1   0   35.02    2.10
  -8  -1   0    0.36    2.18
  -8  -1   0    1.43    1.11
  -9  -1   0    0.14    1.42
  -9  -1   0   -1.38    2.58
  -9   2   0   -0.57    2.29
  -9   2   0    1.63    1.22
  -8   2   0    0.71    2.10
  -8   2   0   -0.60    1.13
  -8   2   0    0.67    1.11
  -7   2   0    1.06    1.90
  -7   2   0    1.92    1.05
  -6   2   0   52.03    3.79
  -6   2   0   53.89    2.33
  -5   2   0    7.34    1.04
  -4   2   0    4.69    0.82
   3  -2   0   11.28    0.75
  -3   2   0   11.69    0.83
   2  -2   0  189.10    6.08
  -2   2   0  188.84    6.09
   1  -2   0    0.58    0.32
  -1   2   0    0.33    0.53
  -1   2   0    0.69    0.31
   0  -2   0  179.80    5.80
   0  -2   0  169.80    5.63
   0   2   0  168.11    5.63
   0   2   0  188.12    5.79
  -1  -2   0    0.98    0.34
   1   2   0    0.42    0.34
   1   2   0    1.57    0.58
  -2  -2   0  253.78    8.20
  -2  -2   0  252.09    7.98
   2   2   0  244.55    8.17
  -3  -2   0   13.26    0.98
  -3  -2   0   15.30    1.58
  -4  -2   0    5.81    1.18
  -4  -2   0    5.38    0.71
  -5  -2   0    7.80    1.20
  -5  -2   0    8.90    1.55
  -6  -2   0   63.06    3.86
  -6  -2   0   62.16    2.67
  -7  -2   0    0.51    2.03
  -7  -2   0    1.71    1.01
  -8  -2   0   -0.98    2.30
  -8  -2   0    0.45    1.10
  -9  -2   0   -3.85    3.60
  -9   3   0    3.72    1.64
  -9   3   0   -0.88    1.54
  -8   3   0    1.78    1.12
  -8   3   0    0.22    1.28
  -8   3   0    1.39    2.18
  -7   3   0   16.90    1.85
  -7   3   0   16.90    2.64
  -6   3   0    1.18    0.92
  -5   3   0   34.24    1.77
  -4   3   0    9.75    1.04
  -3   3   0    5.05    0.81
  -2   3   0    4.94    0.79
  -2   3   0    4.87    0.70
   1  -3   0   49.41    2.10
   1  -3   0   50.27    1.80
  -1   3   0   49.51    1.81
  -1   3   0   49.12    2.26
   0  -3   0    0.62    0.70
   0  -3   0   -0.16    0.33
   0   3   0    0.13    0.40
   0   3   0    0.10    0.63
  -1  -3   0   59.02    2.12
  -1  -3   0   57.70    2.54
   1   3   0   62.95    2.47
   1   3   0   66.23    2.14
  -2  -3   0    6.96    1.44
  -2  -3   0    4.45    0.74
   2   3   0    3.40    0.51
  -3  -3   0    5.82    1.11
  -3  -3   0    5.01    0.64
  -4  -3   0   11.07    2.09
  -4  -3   0   10.32    1.17
  -5  -3   0   41.83    2.01
  -5  -3   0   38.88    2.98
  -6  -3   0    1.94    1.74
  -6  -3   0    0.95    0.93
  -7  -3   0   17.33    1.85
  -7  -3   0   17.12    3.46
  -8  -3   0    0.44    1.15
  -8  -3   0   -1.36    2.35
  -8   4   0    7.30    1.67
  -8   4   0   11.24    2.70
  -7   4   0    0.67    1.26
  -6   4   0    0.78    1.08
  -5   4   0    3.93    0.99
  -4   4   0    4.77    0.86
  -3   4   0   10.32    1.05
  -2   4   0    8.71    0.93
   1  -4   0    0.83    0.92
   0  -4   0  449.62   14.11
   0  -4   0  441.84   14.33
   0   4   0  445.96   14.13
  -1  -4   0    3.82    0.99
  -2  -4   0   10.81    0.95
  -2  -4   0   11.48    1.86
  -3  -4   0   12.10    1.14
  -3  -4   0   13.87    2.06
  -4  -4   0    8.72    1.25
  -4  -4   0    6.61    1.54
  -5  -4   0    3.87    0.93
  -5  -4   0    5.04    1.78
  -6  -4   0    0.60    0.99
  -6  -4   0    0.14    1.98
  -7  -4   0    0.28    1.10
  -7  -4   0   -2.08    2.30
  -8  -4   0    7.85    1.66
  -8  -4   0    6.79    2.92
  -7   5   0   20.27    2.33
  -6   5   0    1.15    1.23
  -5   5   0   12.17    1.72
  -4   5   0    5.85    1.09
  -3   5   0    1.99    0.88
  -2   5   0    6.24    1.16
   1  -5   0   17.26    1.98
  -1   5   0   18.71    1.31
   0  -5   0    0.23    1.12
   0   5   0    0.16    0.74
  -1  -5   0   17.99    2.02
  -2  -5   0    3.51    1.30
  -2  -5   0    2.21    0.66
  -3  -5   0    1.20    0.75
  -3  -5   0    1.39    1.41
  -4  -5   0    3.63    0.94
  -4  -5   0    3.07    1.63
  -5  -5   0   10.20    2.07
  -5  -5   0   11.98    1.67
  -6  -5   0    0.38    2.22
  -6  -5   0    1.21    1.15
  -7  -5   0   19.53    2.19
  -7  -5   0   15.12    3.00
  -6   6   0   21.11    2.39
  -5   6   0    2.83    1.28
  -4   6   0    1.33    1.12
  -3   6   0    4.34    1.11
  -2   6   0   54.85    2.51
   1  -6   0    0.94    1.44
  -1   6   0    1.36    0.98
   0  -6   0   11.38    1.69
  -1  -6   0    0.57    1.42
  -2  -6   0   52.26    3.17
  -3  -6   0    3.14    1.68
  -3  -6   0    2.39    0.88
  -4  -6   0    0.88    1.89
  -4  -6   0    0.30    0.96
  -5  -6   0    2.09    1.12
  -5  -6   0    0.87    2.12
  -6  -6   0   15.20    2.70
  -6  -6   0   22.39    2.26
  -7  -6   0   -0.53    1.73
  -5   7   0   11.96    1.79
  -4   7   0    1.93    1.40
  -3   7   0    0.36    1.29
  -2   7   0    1.97    1.26
   1  -7   0   13.79    2.89
  -1   7   0    9.08    1.43
   0  -7   0   -0.09    1.69
  -1  -7   0   10.51    2.00
  -2  -7   0    1.83    1.77
  -3  -7   0   -1.18    0.98
  -3  -7   0    0.65    1.84
  -4  -7   0    0.66    1.07
  -4  -7   0   -0.05    2.07
  -5  -7   0    9.15    1.38
  -5  -7   0    6.31    2.48
  -6  -7   0   -1.74    1.31
  -4   8   0    1.48    1.64
  -3   8   0    0.46    1.55
  -2   8   0    0.09    1.52
   1  -8   0    3.92    2.20
  -1   8   0   -1.56    1.48
   0  -8   0   54.43    3.89
  -1  -8   0    2.51    2.10
  -2  -8   0    2.52    2.12
  -3  -8   0    1.84    2.05
  -4  -8   0   -2.74    1.23
  -4  -8   0   -0.75    2.29
  -1   9   0   -2.07    1.83
   0  -9   0    6.89    2.47
  -1  -9   0    7.00    2.67
  -1  -9   1    5.59    3.20
   0  -9   1    6.82    2.46
  -2   9  -1   -2.87    1.78
  -4  -8   1    8.35    2.40
  -4  -8   1    6.38    1.38
  -3  -8   1    0.84    2.06
  -2  -8   1    3.10    2.09
  -1  -8   1    2.07    2.03
   0   8  -1   16.99    2.47
  -1   8  -1   -0.14    1.51
  -2   8  -1   -0.65    1.51
  -3   8  -1   -0.30    1.54
  -4   8  -1   11.74    1.92
  -6  -7   1   -1.53    1.29
  -5  -7   1   -1.81    2.16
  -5  -7   1   -2.25    1.17
  -4  -7   1    0.53    1.08
  -4  -7   1    0.59    1.91
  -3  -7   1    2.99    1.89
  -3  -7   1    1.06    1.02
  -2  -7   1   -0.15    1.71
  -1  -7   1   10.40    1.97
   0   7  -1    1.53    1.31
   0  -7   1    2.97    1.70
  -1   7  -1    0.16    1.24
   1  -7   1    3.65    1.83
  -2   7  -1    2.36    1.23
  -3   7  -1    7.47    1.42
  -4   7  -1    0.24    1.33
  -5   7  -1   16.37    2.28
  -7  -6   1    0.74    1.45
  -6  -6   1    1.95    1.26
  -6  -6   1    0.33    2.18
  -5  -6   1    2.81    1.12
  -5  -6   1    2.24    2.03
  -4  -6   1    2.68    1.84
  -4  -6   1    2.29    0.96
  -3  -6   1    0.84    0.85
  -3  -6   1    0.85    1.52
  -2  -6   1  121.24    4.91
  -2  -6   1  122.22    4.23
  -1  -6   1    0.29    1.40
   0   6  -1    5.84    1.09
   0  -6   1    4.28    1.45
  -1   6  -1    4.10    1.03
   1  -6   1    4.06    1.48
  -2   6  -1    3.40    1.06
  -3   6  -1    2.67    1.12
  -4   6  -1    0.96    1.15
  -5   6  -1   -0.40    1.24
  -6   6  -1   11.82    1.74
  -7  -5   1    7.82    2.65
  -6  -5   1    2.88    1.16
  -6  -5   1    0.91    2.07
  -5  -5   1    1.24    1.03
  -5  -5   1    0.84    1.77
  -4  -5   1    2.26    1.56
  -4  -5   1    1.69    0.87
  -3  -5   1   21.86    1.42
  -3  -5   1   22.26    2.47
  -2  -5   1    0.95    0.64
  -2  -5   1    0.68    1.17
  -1  -5   1   17.28    1.99
   0   5  -1    4.45    0.86
   0  -5   1    3.17    1.17
  -1   5  -1    2.75    0.81
   1  -5   1    2.42    1.06
  -2   5  -1    7.71    1.21
  -3   5  -1   29.18    1.71
  -4   5  -1    1.23    0.92
  -5   5  -1   14.98    1.80
  -6   5  -1    0.78    1.27
  -7   5  -1    2.64    1.50
  -8  -4   1   16.66    3.05
  -8  -4   1   21.52    2.18
  -7  -4   1    2.45    1.11
  -7  -4   1    0.89    2.27
  -6  -4   1    1.45    0.98
  -6  -4   1    1.20    1.93
  -5  -4   1    6.71    1.74
  -5  -4   1    7.04    1.01
  -4  -4   1   92.49    3.30
  -4  -4   1   84.68    3.93
  -3  -4   1    1.81    1.16
  -3  -4   1    1.23    0.62
  -2  -4   1   33.31    1.47
  -2  -4   1   33.10    2.21
  -1  -4   1    3.69    1.03
  -1  -4   1    2.33    0.52
   0   4  -1  129.55    4.44
   0  -4   1  132.79    4.75
   0  -4   1  137.88    4.43
  -1   4  -1    7.26    0.95
   1  -4   1    4.75    0.94
  -2   4  -1    3.43    0.66
  -3   4  -1    5.85    1.06
  -4   4  -1   48.96    2.20
  -5   4  -1    1.03    0.92
  -6   4  -1    2.40    1.15
  -7   4  -1    1.74    1.31
  -8   4  -1    1.66    1.55
  -8   4  -1    5.86    2.61
  -8  -3   1   -1.47    2.20
  -8  -3   1    0.78    1.16
  -7  -3   1   13.30    1.77
  -7  -3   1   12.82    2.26
  -6  -3   1    5.71    1.75
  -6  -3   1    4.10    0.99
  -5  -3   1    1.76    0.80
  -5  -3   1    3.23    1.40
  -4  -3   1    2.99    0.70
  -4  -3   1    3.72    1.21
  -3  -3   1   29.39    1.39
  -3  -3   1   29.80    1.98
   2   3  -1    3.30    0.50
  -2  -3   1    4.60    0.92
  -2  -3   1    3.59    0.50
   1   3  -1   60.96    2.01
   1   3  -1   58.45    2.34
  -1  -3   1   56.54    2.02
  -1  -3   1   54.27    2.39
   0   3  -1    5.51    0.71
  -1   3  -1    7.62    0.75
  -1   3  -1    6.71    0.89
   1  -3   1    6.71    0.67
  -2   3  -1    7.92    0.84
  -3   3  -1   35.56    1.59
  -4   3  -1    3.38    0.74
  -5   3  -1   44.53    2.09
  -6   3  -1    2.64    0.99
  -7   3  -1    3.20    2.21
  -7   3  -1    1.70    1.14
  -8   3  -1    2.95    2.27
  -8   3  -1    1.07    1.34
  -9   3  -1   -1.62    1.80
  -9   3  -1    4.14    1.48
  -8  -2   1   -0.55    2.18
  -8  -2   1    1.36    1.09
  -7  -2   1    2.43    1.94
  -7  -2   1    4.04    1.04
  -6  -2   1    6.18    0.97
  -6  -2   1    7.88    1.73
  -5  -2   1   17.09    1.34
  -5  -2   1   18.43    2.27
  -4  -2   1   11.84    1.07
  -4  -2   1   12.97    1.86
   3   2  -1    2.19    0.83
  -3  -2   1    3.16    0.86
  -3  -2   1    2.10    0.51
   2   2  -1 1000.00   30.18
   2   2  -1  940.46   30.32
  -2  -2   1  938.07   30.29
  -2  -2   1  969.79   30.59
   1   2  -1    1.99    0.58
   1   2  -1    1.03    0.32
  -1  -2   1    1.21    0.33
   0   2  -1   20.08    0.88
   0  -2   1   14.83    0.83
  -1   2  -1    9.90    0.67
  -1   2  -1    8.94    1.03
   1  -2   1    9.34    0.63
  -2   2  -1   12.94    0.79
   2  -2   1   13.22    0.76
  -3   2  -1    6.25    0.73
  -4   2  -1   16.90    1.08
  -5   2  -1    0.61    0.68
  -6   2  -1   20.99    1.57
  -6   2  -1   19.53    3.20
  -7   2  -1   11.14    1.63
  -7   2  -1   12.37    2.38
  -8   2  -1    2.32    2.26
  -8   2  -1    3.93    1.31
  -8   2  -1    6.05    1.28
  -9   2  -1    2.39    1.30
  -9  -1   1   10.52    1.47
  -9  -1   1    8.04    2.73
  -8  -1   1   -0.30    2.09
  -8  -1   1    0.13    1.07
  -7  -1   1   24.10    1.82
  -7  -1   1   23.42    3.28
  -6  -1   1    6.52    0.92
  -6  -1   1    6.43    1.64
  -5  -1   1    1.89    0.66
  -5  -1   1    3.04    1.27
  -4  -1   1    4.95    0.63
  -4  -1   1    4.59    1.09
   3   1  -1   62.88    2.74
  -3  -1   1   61.08    2.21
  -3  -1   1   61.52    2.62
   2   1  -1   13.18    0.76
   2   1  -1   13.15    1.18
  -2  -1   1   12.66    0.75
  -2  -1   1   13.47    1.10
   1   1  -1   90.74    2.98
   1   1  -1   92.27    3.09
  -1  -1   1   91.06    2.98
  -1  -1   1   94.01    3.10
   0   1  -1    4.31    0.63
   0   1  -1    4.40    0.38
   0   1  -1    4.75    0.38
   0  -1   1    4.73    0.40
   0  -1   1    4.59    0.38
   0  -1   1    3.10    0.55
  -1   1  -1    8.98    0.54
  -1   1  -1    8.51    0.69
   1  -1   1    9.06    0.51
  -2   1  -1    8.31    0.59
   2  -1   1    7.45    0.55
  -3   1  -1   56.56    1.97
   3  -1   1   54.69    1.95
  -4   1  -1    5.10    0.74
  -4   1  -1    3.24    1.35
   4  -1   1    3.81    0.62
  -5   1  -1   40.12    3.00
  -6   1  -1    2.25    1.73
  -7   1  -1    3.19    2.00
  -8   1  -1    1.50    2.21
  -8   1  -1    3.70    1.20
  -9   1  -1   -1.08    2.48
  -9   1  -1    1.40    1.29
  -9   0   1    1.05    1.23
  -9   0   1   -1.69    2.31
  -8   0   1   36.20    2.29
  -8   0   1   37.66    3.97
  -7   0   1    4.42    0.99
  -7   0   1    4.10    1.96
  -6   0   1    4.04    1.64
  -6   0   1    4.44    0.85
  -5   0   1   14.57    2.23
  -5   0   1   13.32    1.14
  -4   0   1  183.91    6.42
  -4   0   1  172.72    5.81
  -3   0   1    0.93    0.40
  -3   0   1    0.96    0.86
  -2   0   1  202.68    6.68
  -2   0   1  198.89    6.40
   1   0  -1    1.71    0.21
  -1   0   1    1.86    0.20
   0   0  -1  206.18    6.60
   0   0   1  185.08    6.58
   0   0   1  230.65    6.61
  -1   0  -1    8.67    1.10
  -2   0  -1    6.05    0.99
  -3   0  -1   12.74    1.83
  -4   0  -1   74.43    3.52
  -5   0  -1    0.65    1.31
  -6   0  -1    4.74    1.71
  -7   0  -1    2.76    2.01
  -7   0  -1    3.27    1.08
  -8   0  -1    4.16    2.32
  -8   0  -1    6.82    1.30
  -9   0  -1    2.61    1.38
  -9   0  -1   -0.46    2.51
  -9   1   1    8.77    2.60
  -9   1   1   12.51    1.96
  -8   1   1    0.75    2.10
  -8   1   1    0.45    1.05
  -7   1   1   25.05    1.78
  -7   1   1   23.13    3.33
  -6   1   1    7.33    0.90
  -6   1   1    5.05    1.73
  -5   1   1    1.88    1.37
  -5   1   1    2.71    0.64
  -4   1   1    1.84    1.33
  -3   1   1   53.39    1.95
  -2   1   1   10.61    0.68
  -1   1   1   82.93    2.72
   0  -1  -1    4.76    0.60
   0   1   1    5.00    0.53
  -1  -1  -1   12.64    1.00
   1   1   1   11.60    0.91
  -2  -1  -1   14.28    1.36
   2   1   1   12.03    1.31
  -3  -1  -1   74.47    3.13
   3   1   1   71.88    3.16
  -4  -1  -1    6.39    1.28
  -5  -1  -1   46.19    2.06
  -5  -1  -1   49.79    3.12
  -6  -1  -1    2.38    1.70
  -6  -1  -1    1.26    0.89
  -7  -1  -1    3.69    1.07
  -7  -1  -1    2.19    2.01
  -8  -1  -1    0.54    2.29
  -8  -1  -1    3.50    1.21
  -9  -1  -1   -2.72    2.87
  -9   2   1    0.31    1.22
  -9   2   1   -1.94    2.23
  -8   2   1    0.88    2.11
  -8   2   1    0.35    1.02
  -8   2   1   -0.33    1.15
  -7   2   1    4.65    0.98
  -7   2   1    4.74    2.03
  -7   2   1    4.08    1.10
  -6   2   1    5.56    1.89
  -6   2   1    4.99    0.96
  -5   2   1   15.52    1.20
  -4   2   1   10.28    0.94
  -3   2   1    1.63    0.49
   2  -2  -1  802.29   25.72
  -2   2   1  828.96   25.83
   1  -2  -1    0.01    0.50
   1  -2  -1    0.84    0.33
  -1   2   1    0.72    0.37
  -1   2   1    0.50    0.56
   0  -2  -1   18.40    1.40
  -1  -2  -1   10.67    0.70
   1   2   1   12.90    1.03
  -2  -2  -1   18.23    0.97
   2   2   1   18.62    1.35
  -3  -2  -1    9.32    1.61
  -3  -2  -1    5.54    0.85
  -4  -2  -1   20.67    2.20
  -4  -2  -1   18.42    1.25
  -5  -2  -1    0.91    1.40
  -5  -2  -1    0.56    0.71
  -6  -2  -1   27.03    3.26
  -6  -2  -1   23.41    1.74
  -7  -2  -1   13.76    1.77
  -7  -2  -1   13.89    2.54
  -8  -2  -1    4.82    1.24
  -8  -2  -1    2.69    2.55
  -9   3   1   11.03    2.72
  -9   3   1    9.97    1.76
  -8   3   1    1.38    1.02
  -8   3   1    0.88    1.33
  -8   3   1    1.34    2.12
  -7   3   1   10.29    2.39
  -7   3   1   14.33    1.52
  -7   3   1   12.44    1.70
  -6   3   1    4.63    1.06
  -5   3   1    1.83    0.79
  -4   3   1    3.83    0.69
  -3   3   1   24.41    1.24
  -2   3   1    3.02    0.73
  -2   3   1    2.87    0.51
   1  -3  -1   48.72    2.17
   1  -3  -1   51.69    1.82
  -1   3   1   49.10    2.15
  -1   3   1   51.14    1.83
   0  -3  -1    6.39    1.21
   0   3   1    3.70    0.58
   0   3   1    5.72    1.08
  -1  -3  -1   12.55    1.46
   1   3   1    8.82    1.20
  -2  -3  -1   10.71    1.52
  -2  -3  -1    9.18    0.87
  -3  -3  -1   41.45    2.49
  -3  -3  -1   42.52    1.77
  -4  -3  -1    2.56    0.72
  -4  -3  -1    4.13    1.36
  -5  -3  -1   52.34    2.30
  -5  -3  -1   49.94    3.33
  -6  -3  -1    2.67    0.99
  -6  -3  -1    3.10    1.89
  -7  -3  -1    2.16    1.08
  -7  -3  -1    1.77    2.19
  -8  -3  -1    2.94    1.23
  -8  -3  -1   -0.32    2.49
  -8   4   1   20.09    2.40
  -8   4   1   24.18    4.13
  -7   4   1    3.09    1.34
  -6   4   1    0.59    1.08
  -5   4   1    6.99    1.09
  -4   4   1   74.61    2.91
  -3   4   1    1.09    0.62
  -2   4   1   29.22    1.40
   1  -4  -1    0.19    0.92
  -1   4   1    1.68    0.53
   0  -4  -1  138.91    4.98
   0  -4  -1  141.88    4.65
   0   4   1  144.57    4.68
  -1  -4  -1   11.27    1.72
  -2  -4  -1    5.33    0.88
  -2  -4  -1    5.01    1.17
  -3  -4  -1    7.10    1.05
  -3  -4  -1    5.57    1.31
  -4  -4  -1   62.37    2.53
  -4  -4  -1   60.13    3.47
  -5  -4  -1    1.87    1.79
  -5  -4  -1    0.96    0.91
  -6  -4  -1    2.67    1.09
  -6  -4  -1    2.96    2.14
  -7  -4  -1    0.22    2.35
  -7  -4  -1    1.63    1.17
  -8  -4  -1    1.82    3.22
  -7   5   1   13.99    2.23
  -6   5   1    3.31    1.29
  -5   5   1    2.03    1.05
  -4   5   1    2.68    0.93
  -3   5   1   20.53    1.47
  -2   5   1    0.63    0.70
   1  -5  -1   18.28    2.02
  -1   5   1   19.53    1.34
   0  -5  -1    2.65    1.17
  -1  -5  -1    3.64    1.28
  -2  -5  -1    5.82    1.44
  -3  -5  -1   35.05    1.77
  -3  -5  -1   33.44    2.88
  -4  -5  -1    2.00    1.70
  -4  -5  -1   -0.04    0.89
  -5  -5  -1   17.22    1.75
  -5  -5  -1   12.75    2.31
  -6  -5  -1    1.43    1.13
  -6  -5  -1   -0.93    2.33
  -7  -5  -1    2.36    1.30
  -7  -5  -1   -0.77    2.75
  -6   6   1    2.12    1.43
  -5   6   1    3.17    1.30
  -4   6   1    3.14    1.22
  -3   6   1    1.68    1.09
  -2   6   1  132.26    4.80
   1  -6  -1    0.83    1.45
  -1   6   1    1.31    0.95
   0  -6  -1    5.45    1.54
   0   6   1    5.44    1.09
  -1  -6  -1    2.83    1.52
  -2  -6  -1    4.24    1.62
  -3  -6  -1    1.45    0.85
  -3  -6  -1    2.06    1.78
  -4  -6  -1    1.01    0.97
  -4  -6  -1    0.42    1.94
  -5  -6  -1   -1.59    2.12
  -5  -6  -1   -0.14    1.16
  -6  -6  -1    9.59    1.53
  -6  -6  -1    4.20    2.58
  -5   7   1    0.58    1.42
  -4   7   1    1.21    1.35
  -3   7   1    3.38    1.34
  -2   7   1   -0.10    1.24
   1  -7  -1   11.78    2.01
  -1   7   1    9.81    1.81
   0  -7  -1    3.44    1.81
  -1  -7  -1    1.52    1.77
  -2  -7  -1    2.16    1.83
  -3  -7  -1    6.78    2.11
  -3  -7  -1    4.41    1.06
  -4  -7  -1   -1.05    2.17
  -4  -7  -1   -0.78    1.04
  -5  -7  -1   12.75    2.00
  -5  -7  -1    9.08    2.62
  -6  -7  -1   -1.16    1.40
  -4   8   1   13.08    1.98
  -3   8   1   -1.48    1.50
  -2   8   1    0.92    1.54
   1  -8  -1    5.56    2.21
  -1   8   1   -0.37    1.48
   0  -8  -1   29.99    3.48
  -1  -8  -1    3.83    2.17
  -2  -8  -1    1.01    2.14
  -3  -8  -1    0.82    2.21
  -4  -8  -1    9.63    3.14
  -4  -8  -1    7.89    1.49
  -1   9   1   -2.62    1.86
   0  -9  -1    5.87    2.51
  -1  -9  -1    2.90    2.66
  -1  -9   2    6.90    3.62
   0  -9   2    7.68    2.75
  -1   9  -2   -0.91    2.02
  -4  -8   2   20.82    2.24
  -4  -8   2   23.37    3.50
  -3  -8   2    0.80    2.05
  -2  -8   2    2.40    2.06
  -1  -8   2    3.11    2.01
   0   8  -2   -0.48    1.69
   0  -8   2    5.56    2.08
  -1   8  -2   -0.47    1.57
  -2   8  -2   -0.77    1.48
  -3   8  -2   -1.28    1.58
  -4   8  -2    4.98    2.08
  -6  -7   2   -1.14    1.31
  -5  -7   2    4.94    1.33
  -5  -7   2    3.00    2.17
  -4  -7   2   -0.33    1.89
  -4  -7   2   -1.16    1.07
  -3  -7   2    4.16    1.85
  -3  -7   2    2.70    1.10
  -2  -7   2    2.11    1.74
  -2  -7   2    0.04    1.03
  -1  -7   2    0.48    1.75
   0   7  -2    2.61    1.38
   0  -7   2    4.42    1.75
  -1   7  -2   13.88    1.80
  -2   7  -2    0.60    1.26
  -3   7  -2   11.43    1.99
  -4   7  -2   -0.22    1.32
  -5   7  -2    1.68    1.46
  -7  -6   2    0.27    1.36
  -7  -6   2   -3.58    2.51
  -6  -6   2   12.37    2.45
  -6  -6   2   17.39    2.02
  -5  -6   2   -1.59    1.85
  -5  -6   2   -0.29    1.02
  -4  -6   2    3.26    1.79
  -4  -6   2    3.52    1.01
  -3  -6   2    0.11    0.86
  -3  -6   2    0.62    1.52
  -2  -6   2   51.65    3.05
  -2  -6   2   50.82    2.26
  -1  -6   2    3.58    1.45
   0   6  -2    1.98    1.05
   0  -6   2    1.41    1.37
  -1   6  -2    2.36    1.03
  -2   6  -2   35.26    2.01
  -3   6  -2   -0.01    1.03
  -4   6  -2    1.95    1.16
  -5   6  -2    1.06    1.25
  -6   6  -2    2.98    1.48
  -7  -5   2   -1.95    2.26
  -7  -5   2    1.12    1.24
  -6  -5   2    0.98    1.10
  -6  -5   2   -0.24    1.97
  -5  -5   2    2.73    1.71
  -5  -5   2    3.34    1.05
  -4  -5   2    0.35    0.83
  -4  -5   2    1.75    1.49
  -3  -5   2   20.99    2.40
  -3  -5   2   21.82    1.44
  -2  -5   2    3.61    1.26
  -2  -5   2    3.63    0.70
  -1  -5   2    2.11    1.14
  -1  -5   2    2.41    0.68
   0   5  -2    4.84    0.86
   0  -5   2    4.22    1.15
  -1   5  -2   26.64    1.57
  -2   5  -2    1.35    0.82
  -3   5  -2   35.29    1.88
  -4   5  -2    2.95    1.00
  -5   5  -2    1.75    1.13
  -6   5  -2    2.46    1.30
  -7   5  -2    1.99    1.48
  -8  -4   2    2.66    1.27
  -8  -4   2   -0.83    2.51
  -7  -4   2    1.17    2.13
  -7  -4   2    3.06    1.17
  -6  -4   2    3.46    1.07
  -6  -4   2    1.53    1.85
  -5  -4   2    1.16    0.88
  -5  -4   2    1.50    1.53
  -4  -4   2  208.32    7.59
  -4  -4   2  225.51    7.19
  -3  -4   2    1.19    0.61
  -3  -4   2    1.95    1.16
  -2  -4   2   11.10    0.98
  -2  -4   2   10.13    1.70
   1   4  -2    7.65    0.80
  -1  -4   2    9.18    0.91
  -1  -4   2    9.33    1.63
   0   4  -2    8.67    0.98
   0  -4   2    6.48    1.05
   0  -4   2    6.00    1.02
  -1   4  -2    5.53    0.93
  -2   4  -2   19.83    1.27
  -3   4  -2    0.93    0.72
  -4   4  -2   23.68    1.59
  -5   4  -2   13.78    1.55
  -6   4  -2    6.31    1.24
  -7   4  -2    1.17    1.27
  -8   4  -2   22.58    4.53
  -8   4  -2   11.83    2.22
  -9  -3   2    6.15    3.18
  -8  -3   2    1.51    1.11
  -8  -3   2   -1.45    2.09
  -7  -3   2    0.88    1.02
  -7  -3   2   -0.36    1.79
  -6  -3   2    1.20    1.56
  -6  -3   2    2.45    0.92
  -5  -3   2   23.08    1.54
  -5  -3   2   22.54    2.47
  -4  -3   2    6.84    1.28
  -4  -3   2    5.22    0.76
  -3  -3   2   31.40    2.01
  -3  -3   2   31.03    1.46
   2   3  -2    5.83    0.71
   2   3  -2    4.31    1.02
  -2  -3   2    8.32    1.42
  -2  -3   2    5.87    0.77
   1   3  -2    7.49    0.69
   1   3  -2    9.14    1.23
  -1  -3   2    9.08    1.26
  -1  -3   2    8.61    0.78
   0   3  -2   10.04    1.24
   0   3  -2    8.49    0.81
   0  -3   2    8.47    1.23
   0  -3   2    7.73    0.78
  -1   3  -2   53.49    2.01
  -1   3  -2   53.44    2.38
   1  -3   2   56.76    2.00
  -2   3  -2    4.59    0.84
  -3   3  -2   35.08    1.59
  -4   3  -2    2.40    0.71
  -5   3  -2    8.14    1.27
  -6   3  -2    7.19    1.14
  -7   3  -2    0.85    1.13
  -7   3  -2    2.73    2.17
  -8   3  -2    0.04    1.34
  -8   3  -2    1.27    2.23
  -9  -2   2   -3.49    2.45
  -8  -2   2   -1.22    2.11
  -8  -2   2    0.45    1.09
  -7  -2   2    4.20    1.03
  -7  -2   2    4.00    1.86
  -6  -2   2   67.79    2.80
  -6  -2   2   68.36    3.65
  -5  -2   2    0.82    1.18
  -5  -2   2    0.20    0.65
  -4  -2   2   30.36    1.47
  -4  -2   2   29.52    2.03
   3   2  -2    1.40    0.81
  -3  -2   2    1.50    0.48
  -3  -2   2    2.78    0.85
   2   2  -2  244.06    7.72
   2   2  -2  240.06    7.89
  -2  -2   2  243.92    7.88
  -2  -2   2  239.92    7.72
   1   2  -2   16.62    0.81
   1   2  -2   17.89    1.14
  -1  -2   2   19.16    1.18
  -1  -2   2   16.40    0.84
   0  -2   2    3.32    0.51
   0  -2   2    2.76    0.70
  -1   2  -2    6.11    1.02
  -1   2  -2    7.02    0.68
  -1   2  -2    7.55    1.15
   1  -2   2    7.42    0.71
   1  -2   2    7.40    0.65
  -2   2  -2   54.98    2.07
  -2   2  -2   59.97    2.22
   2  -2   2   56.30    2.04
  -3   2  -2    0.66    0.49
  -4   2  -2   15.26    1.11
  -5   2  -2    6.02    1.10
  -6   2  -2   11.94    1.43
  -6   2  -2   11.71    2.10
  -7   2  -2    8.35    2.27
  -7   2  -2    6.98    1.19
  -8   2  -2    0.65    1.22
  -8   2  -2    1.94    2.18
  -9   2  -2    1.62    1.35
  -9  -1   2    8.54    1.43
  -9  -1   2    4.72    2.59
  -8  -1   2    0.57    2.13
  -8  -1   2    1.67    1.09
  -7  -1   2    2.04    1.76
  -7  -1   2    2.00    0.93
  -6  -1   2    2.96    1.45
  -6  -1   2    1.85    0.78
  -5  -1   2   21.04    2.11
  -5  -1   2   18.97    1.31
  -4  -1   2    8.92    0.92
  -4  -1   2    8.03    1.64
   3   1  -2   64.27    2.73
   3   1  -2   62.97    2.22
  -3  -1   2   59.19    2.52
  -3  -1   2   62.72    2.21
   2   1  -2   12.37    1.12
   2   1  -2   10.78    0.72
  -2  -1   2   12.97    1.00
  -2  -1   2   11.08    0.71
   1   1  -2    9.50    0.55
  -1  -1   2    9.58    0.54
   0   1  -2   15.13    0.73
   0   1  -2   14.55    0.72
   0  -1   2   12.67    0.70
   0  -1   2   10.56    0.82
  -1   1  -2   91.53    3.13
  -1   1  -2   89.28    3.05
   1  -1   2   93.27    3.06
   1  -1   2   98.29    3.12
  -2   1  -2    4.25    0.48
   2  -1   2    3.29    0.53
  -3   1  -2   53.47    1.91
   3  -1   2   51.51    1.88
  -4   1  -2    2.84    1.34
  -5   1  -2    7.05    1.64
  -6   1  -2    5.81    1.86
  -7   1  -2    2.95    0.99
  -7   1  -2    3.26    2.05
  -8   1  -2    2.75    1.22
  -8   1  -2    0.75    2.21
  -9   1  -2    1.82    1.46
  -9   0   2   -0.47    2.26
  -9   0   2    2.04    1.21
  -8   0   2    5.05    1.14
  -8   0   2    4.70    2.09
  -7   0   2    7.19    2.00
  -7   0   2    6.76    1.02
  -6   0   2    7.28    1.66
  -6   0   2    6.91    0.88
  -5   0   2    2.07    1.24
  -5   0   2    1.56    0.62
  -4   0   2  542.36   17.38
  -4   0   2  531.33   16.96
  -3   0   2    0.63    0.39
   2   0  -2   10.01    0.65
  -2   0   2    9.79    0.63
   1   0  -2    9.82    0.47
  -1   0   2    9.09    0.45
   0   0  -2   25.07    1.09
   0   0  -2   23.12    0.96
   0   0   2   24.40    1.06
   0   0   2   23.74    0.97
  -1   0  -2    6.32    0.85
  -2   0  -2  123.60    4.55
  -3   0  -2    2.69    1.07
  -4   0  -2   33.97    2.55
  -5   0  -2   27.81    2.75
  -6   0  -2   11.10    2.01
  -7   0  -2    2.48    2.03
  -8   0  -2   20.23    4.09
  -8   0  -2   26.30    2.15
  -9   1   2    7.69    1.33
  -9   1   2    4.26    2.44
  -8   1   2    2.12    1.03
  -8   1   2    1.41    2.01
  -7   1   2    1.97    1.78
  -7   1   2    1.47    0.88
  -6   1   2    3.13    1.57
  -6   1   2    1.78    0.78
  -6   1   2    2.30    0.73
  -5   1   2   18.29    1.23
  -5   1   2   18.52    1.19
  -4   1   2    6.66    1.46
  -4   1   2    7.22    0.88
  -4   1   2    7.08    0.83
  -3   1   2   62.27    2.14
  -3   1   2   60.93    2.22
  -1  -1  -2  112.82    3.83
   1   1   2  109.20    3.76
  -2  -1  -2    5.41    0.88
   2   1   2    6.16    1.26
  -3  -1  -2   69.42    3.14
   3   1   2   70.67    3.29
  -4  -1  -2    4.65    1.32
  -5  -1  -2    7.74    1.61
  -6  -1  -2    6.66    1.07
  -6  -1  -2    7.00    1.91
  -7  -1  -2    3.80    1.13
  -7  -1  -2    4.20    2.17
  -8  -1  -2   -3.13    2.21
  -8  -1  -2    1.41    1.20
  -9   2   2    2.15    1.22
  -9   2   2    0.49    2.24
  -8   2   2   -0.45    1.98
  -8   2   2    1.59    1.01
  -8   2   2   -0.35    1.19
  -7   2   2    3.69    1.95
  -7   2   2    4.73    1.12
  -7   2   2    4.82    0.95
  -6   2   2   64.71    2.73
  -6   2   2   60.24    3.87
  -6   2   2   68.89    2.57
  -5   2   2    0.70    0.57
  -5   2   2    0.75    0.68
  -4   2   2   28.46    1.43
  -3   2   2    1.63    0.52
  -2   2   2  222.29    7.15
  -1   2   2   13.97    0.78
  -1  -2  -2    7.20    0.66
   1   2   2    8.34    0.94
  -2  -2  -2   65.83    2.70
   2   2   2   64.17    2.58
  -3  -2  -2    1.59    0.97
  -4  -2  -2   17.61    2.32
  -4  -2  -2   18.04    1.28
  -5  -2  -2    7.13    0.93
  -5  -2  -2    8.13    1.73
  -6  -2  -2   12.72    2.21
  -6  -2  -2   13.20    1.59
  -7  -2  -2    8.39    1.28
  -7  -2  -2    6.39    2.45
  -8  -2  -2   -2.32    2.48
  -8  -2  -2    1.64    1.22
  -9   3   2    7.56    2.56
  -9   3   2    7.27    1.75
  -8   3   2    1.42    1.33
  -8   3   2    2.70    1.06
  -7   3   2    1.77    1.17
  -7   3   2    0.81    0.84
  -6   3   2    1.98    0.95
  -5   3   2   21.62    1.50
  -4   3   2    4.64    0.74
  -3   3   2   26.87    1.33
  -2   3   2    6.71    1.27
  -2   3   2    4.97    0.78
   1  -3  -2    5.70    0.84
  -1   3   2    6.79    0.72
  -1   3   2    6.19    0.75
   0  -3  -2   12.85    1.32
   0   3   2   11.23    1.16
  -1  -3  -2   66.36    2.73
   1   3   2   64.75    2.57
  -2  -3  -2    4.22    1.01
  -2  -3  -2    3.24    0.54
  -3  -3  -2   42.60    1.81
  -3  -3  -2   42.54    2.62
  -4  -3  -2    2.35    0.76
  -4  -3  -2    3.33    1.36
  -5  -3  -2    8.54    1.39
  -5  -3  -2    8.07    1.78
  -6  -3  -2    7.96    1.20
  -6  -3  -2    5.97    2.11
  -7  -3  -2    0.20    2.28
  -7  -3  -2    1.82    1.12
  -8  -3  -2   -0.91    2.64
  -8  -3  -2    0.76    1.21
  -8   4   2    3.03    1.53
  -8   4   2    5.27    2.44
  -7   4   2    3.65    1.40
  -6   4   2    3.89    1.17
  -5   4   2    0.69    0.89
  -4   4   2  200.39    6.74
  -3   4   2    0.90    0.62
  -2   4   2    9.40    0.95
   1  -4  -2    4.68    1.02
  -1   4   2    6.99    0.82
   0  -4  -2   11.93    1.68
  -1  -4  -2    9.24    1.85
  -2  -4  -2   23.03    1.25
  -2  -4  -2   23.10    2.16
  -3  -4  -2    1.20    1.31
  -3  -4  -2    0.43    0.64
  -4  -4  -2   27.73    2.94
  -4  -4  -2   29.22    1.72
  -5  -4  -2   18.79    3.31
  -5  -4  -2   18.63    1.72
  -6  -4  -2    3.94    2.26
  -6  -4  -2    5.34    1.19
  -7  -4  -2    0.86    2.46
  -7  -4  -2    2.27    1.21
  -7   5   2    1.66    1.42
  -6   5   2    1.82    1.25
  -5   5   2    5.30    1.18
  -4   5   2    0.75    0.90
  -3   5   2   21.19    1.50
  -2   5   2    4.44    0.81
   1  -5  -2    3.22    1.17
  -1   5   2    2.39    0.74
   0  -5  -2    4.34    1.20
  -1  -5  -2   26.92    2.32
  -2  -5  -2    2.04    1.41
  -3  -5  -2   43.05    1.95
  -3  -5  -2   40.57    3.11
  -4  -5  -2    1.23    0.91
  -4  -5  -2    2.94    1.86
  -5  -5  -2    1.88    1.06
  -5  -5  -2    1.87    2.16
  -6  -5  -2    2.89    1.23
  -6  -5  -2    0.90    2.51
  -7  -5  -2   -2.36    2.92
  -7  -5  -2    3.29    1.38
  -6   6   2   22.16    2.40
  -5   6   2    0.08    1.18
  -4   6   2    4.02    1.19
  -3   6   2    1.48    1.04
  -2   6   2   61.71    2.68
   1  -6  -2    5.87    1.54
  -1   6   2    5.42    1.08
   0  -6  -2    2.33    1.45
  -1  -6  -2    1.62    1.50
  -2  -6  -2   38.96    3.14
  -3  -6  -2    0.67    1.86
  -3  -6  -2    0.32    0.85
  -4  -6  -2    1.57    1.03
  -4  -6  -2    0.58    2.05
  -5  -6  -2    1.51    1.18
  -5  -6  -2    0.57    2.30
  -6  -6  -2    2.52    1.40
  -6  -6  -2   -1.52    2.70
  -5   7   2    7.72    1.66
  -4   7   2   -0.45    1.35
  -3   7   2    4.81    1.40
  -2   7   2    1.66    1.25
   1  -7  -2    2.25    1.86
  -1   7   2    0.07    1.22
   0  -7  -2    3.35    1.90
  -1  -7  -2   17.51    3.03
  -2  -7  -2    0.05    1.90
  -3  -7  -2    7.22    2.19
  -4  -7  -2   -1.42    2.32
  -4  -7  -2   -1.15    1.05
  -5  -7  -2    0.87    1.28
  -5  -7  -2   -1.69    2.55
  -6  -7  -2   -0.11    1.46
  -4   8   2   30.23    2.77
  -3   8   2   -0.78    1.56
  -2   8   2    0.90    1.53
   1  -8  -2    6.46    2.22
  -1   8   2   -0.94    1.50
   0  -8  -2    5.50    2.20
  -1  -8  -2    3.04    2.20
  -2  -8  -2    0.87    2.22
  -3  -8  -2   -2.13    2.27
  -5  -8  -2   -2.15    1.74
  -2   9   2   -3.15    1.78
   0  -9  -2    7.00    2.60
  -1  -9  -2    6.41    2.96
  -1   9  -3   -1.16    2.06
  -2   9  -3   -3.53    1.86
  -4  -8   3    8.16    1.54
  -4  -8   3   10.63    2.29
  -3  -8   3    1.05    2.06
  -2  -8   3    2.10    2.07
  -1  -8   3    3.56    1.96
   0   8  -3   12.12    1.98
  -1   8  -3   -2.64    1.56
  -2   8  -3   -0.94    1.56
  -3   8  -3   -0.89    1.52
  -6  -7   3   -3.98    2.73
  -6  -7   3   -1.75    1.31
  -5  -7   3    3.50    2.02
  -5  -7   3    4.72    1.33
  -4  -7   3   -0.74    1.10
  -4  -7   3    0.63    1.82
  -3  -7   3   -0.02    1.08
  -3  -7   3    0.66    1.70
  -2  -7   3    0.19    1.10
  -2  -7   3    2.73    1.74
   1   7  -3   12.62    2.37
  -1  -7   3   18.13    2.74
   0   7  -3   -0.42    1.39
   0  -7   3    1.80    1.70
  -1   7  -3   18.66    2.07
  -2   7  -3    1.64    1.24
  -3   7  -3    1.18    1.32
  -4   7  -3    1.67    1.41
  -5   7  -3    1.47    1.52
  -7  -6   3   -0.82    1.32
  -6  -6   3   28.63    3.69
  -6  -6   3   40.60    2.41
  -5  -6   3    0.45    1.06
  -5  -6   3   -0.21    1.80
  -4  -6   3    2.63    1.62
  -4  -6   3    2.46    1.01
  -3  -6   3    3.53    0.96
  -3  -6   3    3.97    1.59
  -2  -6   3    1.53    0.91
  -2  -6   3    3.11    1.45
  -1  -6   3    2.22    1.47
   0   6  -3    3.49    1.19
   0  -6   3    4.97    1.51
  -1   6  -3   -0.04    1.03
  -2   6  -3   16.86    1.66
  -3   6  -3    7.27    1.24
  -4   6  -3    5.08    1.29
  -5   6  -3    2.09    1.33
  -6   6  -3   18.36    2.37
  -7  -5   3    5.59    1.34
  -7  -5   3    2.59    2.21
  -6  -5   3    0.49    1.10
  -6  -5   3   -1.06    1.83
  -5  -5   3    4.01    1.02
  -5  -5   3    3.77    1.71
  -4  -5   3    2.72    0.87
  -4  -5   3    2.46    1.46
  -3  -5   3    0.95    0.74
  -3  -5   3    1.12    1.28
  -2  -5   3    6.71    1.30
  -2  -5   3    5.99    0.81
  -1  -5   3   26.43    2.09
  -1  -5   3   25.05    1.50
   0   5  -3    1.26    0.87
   0  -5   3    0.82    1.09
  -1   5  -3   29.60    1.64
  -2   5  -3    1.53    0.84
  -3   5  -3    8.47    1.35
  -4   5  -3    9.12    1.51
  -5   5  -3    1.54    1.13
  -6   5  -3    2.04    1.29
  -7   5  -3    4.82    1.58
  -8  -4   3   12.80    2.04
  -8  -4   3   10.06    2.61
  -7  -4   3   -1.07    2.02
  -7  -4   3    0.58    1.11
  -6  -4   3    2.54    1.03
  -6  -4   3    2.42    1.76
  -5  -4   3    0.99    1.45
  -5  -4   3    1.04    0.87
  -4  -4   3   90.52    3.30
  -4  -4   3   86.75    3.81
  -3  -4   3   16.29    1.21
  -3  -4   3   16.01    1.95
  -2  -4   3    3.56    0.60
  -2  -4   3    3.50    1.02
   1   4  -3    3.41    0.82
   1   4  -3    2.99    0.52
  -1  -4   3    3.67    0.98
  -1  -4   3    2.68    0.65
   0   4  -3   50.95    1.92
   0   4  -3   53.87    2.12
   0  -4   3   51.81    2.43
  -1   4  -3    1.03    0.62
  -2   4  -3   15.98    1.24
  -3   4  -3    3.79    0.79
  -4   4  -3   11.50    1.32
  -5   4  -3   10.35    1.46
  -6   4  -3    4.04    1.17
  -7   4  -3   -0.08    1.25
  -8   4  -3   10.54    1.79
  -8  -3   3    1.98    1.19
  -8  -3   3   -0.72    2.01
  -7  -3   3    1.75    1.78
  -7  -3   3    2.31    1.06
  -6  -3   3    1.73    0.95
  -6  -3   3    1.07    1.53
  -5  -3   3   24.67    1.62
  -5  -3   3   24.16    2.41
  -4  -3   3    5.17    1.16
  -4  -3   3    4.76    0.73
  -3  -3   3    3.88    0.60
  -3  -3   3    5.08    1.02
   2   3  -3    9.48    0.78
   2   3  -3    8.98    1.34
  -2  -3   3   11.54    1.49
  -2  -3   3   10.13    0.86
   1   3  -3   59.56    2.38
   1   3  -3   57.38    2.21
   1   3  -3   58.09    2.02
  -1  -3   3   57.13    2.11
  -1  -3   3   56.34    2.06
  -1  -3   3   56.22    2.39
   0   3  -3    2.23    0.46
   0   3  -3    2.29    0.62
   0   3  -3    2.41    0.82
   0  -3   3    1.51    0.52
   0  -3   3    2.91    0.59
   0  -3   3    1.75    0.74
  -1   3  -3   46.65    1.92
  -1   3  -3   52.32    2.56
  -1   3  -3   46.13    1.86
   1  -3   3   43.59    2.21
   1  -3   3   52.01    1.88
  -2   3  -3    3.76    0.88
  -3   3  -3   12.35    1.10
  -4   3  -3   10.54    1.18
  -5   3  -3    7.16    1.27
  -6   3  -3    2.27    1.02
  -7   3  -3    4.08    2.28
  -7   3  -3    1.92    1.18
  -8   3  -3   -2.15    1.33
  -8   3  -3    1.37    2.27
  -8  -2   3    1.63    1.08
  -8  -2   3   -0.96    2.04
  -7  -2   3    0.32    0.95
  -7  -2   3   -0.05    1.70
  -6  -2   3  140.86    5.58
  -6  -2   3  143.70    4.98
  -5  -2   3    1.12    1.10
  -5  -2   3    0.49    0.65
  -4  -2   3   13.96    1.73
  -4  -2   3   12.00    1.06
   3   2  -3   19.92    1.68
  -3  -2   3   18.56    1.09
  -3  -2   3   22.60    1.59
   2   2  -3   12.74    0.81
   2   2  -3   13.96    1.22
  -2  -2   3   13.67    0.85
  -2  -2   3   16.69    1.25
   1   2  -3    9.48    1.11
   1   2  -3   10.36    0.68
   1   2  -3   11.25    1.04
  -1  -2   3   10.69    0.68
  -1  -2   3   10.42    1.05
  -1  -2   3   10.68    0.89
   0   2  -3  125.00    4.02
   0   2  -3  118.09    4.06
   0   2  -3  127.46    4.21
   0  -2   3  123.09    4.05
   0  -2   3  122.19    4.13
   0  -2   3  121.06    4.06
  -1   2  -3    2.38    0.77
  -1   2  -3    1.41    0.47
   1  -2   3    1.08    0.46
   1  -2   3    1.00    0.66
  -2   2  -3   41.38    1.84
  -2   2  -3   37.15    1.59
   2  -2   3   39.81    1.55
  -3   2  -3   30.41    1.36
  -3   2  -3   26.51    1.53
  -4   2  -3   14.74    1.15
  -5   2  -3    4.85    0.83
  -6   2  -3   63.34    4.16
  -6   2  -3   58.57    2.59
  -7   2  -3    0.23    1.95
  -7   2  -3   -0.64    1.07
  -8   2  -3    0.02    2.17
  -8   2  -3   -2.22    1.26
  -9  -1   3   -0.21    1.21
  -8  -1   3    0.17    1.99
  -8  -1   3    1.53    1.10
  -7  -1   3    9.39    1.53
  -7  -1   3    7.47    1.85
  -6  -1   3    3.12    0.80
  -6  -1   3    3.94    1.41
  -5  -1   3   20.44    2.03
  -5  -1   3   20.25    1.32
  -4  -1   3    6.58    0.90
   3   1  -3    6.89    0.74
  -3  -1   3    7.32    0.75
   2   1  -3   12.92    0.75
  -2  -1   3   14.19    0.76
   1   1  -3   86.32    3.28
   1   1  -3   93.22    2.93
  -1  -1   3   88.65    3.23
  -1  -1   3   90.34    2.93
   0   1  -3    1.93    0.50
   0  -1   3    3.32    0.52
  -1   1  -3   41.88    1.57
   1  -1   3   39.81    1.72
   1  -1   3   41.91    1.54
  -2   1  -3    2.22    0.46
   2  -1   3    2.09    0.44
  -3   1  -3   24.63    1.19
   3  -1   3   24.00    1.10
  -4   1  -3   18.53    1.12
  -4   1  -3   15.08    2.35
  -5   1  -3    4.82    1.61
  -6   1  -3    3.67    1.80
  -7   1  -3    3.64    2.12
  -8   1  -3   -1.84    2.15
  -9   0   3   -1.28    2.20
  -9   0   3    1.63    1.21
  -8   0   3   27.52    2.01
  -8   0   3   27.44    3.45
  -7   0   3    0.14    1.67
  -7   0   3    1.05    0.86
  -6   0   3    7.48    1.19
  -5   0   3    1.89    1.16
  -5   0   3    1.24    0.58
  -4   0   3  188.05    6.12
   3   0  -3   42.13    1.55
  -3   0   3   38.96    1.55
   2   0  -3    5.14    0.55
  -2   0   3    4.93    0.53
   1   0  -3    6.28    0.46
  -1   0   3    6.47    0.44
   0   0  -3   49.50    2.30
   0   0  -3   61.39    2.11
   0   0   3   58.86    2.11
   0   0   3   59.50    2.25
  -1   0  -3    0.12    0.81
  -2   0  -3   52.97    2.61
  -3   0  -3    7.16    1.27
  -4   0  -3   18.03    2.27
  -5   0  -3   18.24    2.65
  -6   0  -3    5.94    1.84
  -7   0  -3    0.02    2.00
  -8   0  -3   27.65    2.24
  -9   1   3   -1.44    2.24
  -9   1   3    0.91    1.15
  -8   1   3    1.67    1.01
  -7   1   3    9.27    1.41
  -7   1   3    8.30    1.94
  -6   1   3    3.49    0.88
  -6   1   3    3.65    0.76
  -5   1   3   18.90    1.30
  -5   1   3   20.76    1.21
  -4   1   3    5.60    0.91
  -4   1   3    4.91    0.80
  -1  -1  -3   53.92    2.28
   1   1   3   53.54    2.15
  -2  -1  -3    2.91    0.89
   2   1   3    2.80    0.85
  -3  -1  -3   29.45    2.23
  -4  -1  -3   20.24    2.39
  -5  -1  -3    6.08    1.68
  -6  -1  -3    3.23    1.87
  -7  -1  -3    3.54    2.21
  -7  -1  -3    5.28    1.17
  -8  -1  -3   -0.90    2.29
  -8  -1  -3    0.65    1.22
  -9   2   3    0.02    1.46
  -9   2   3    0.49    1.13
  -8   2   3    1.25    1.22
  -8   2   3    1.69    0.99
  -8   2   3    1.19    2.01
  -7   2   3    0.26    0.82
  -7   2   3    0.35    1.04
  -6   2   3  146.42    5.17
  -5   2   3    0.75    0.74
  -4   2   3   10.78    1.03
  -3   2   3   17.72    1.09
   0  -2  -3  131.43    4.42
  -1  -2  -3    2.24    0.78
   1   2   3    1.20    0.59
  -2  -2  -3   49.06    2.37
   2   2   3   47.28    2.18
  -3  -2  -3   40.49    2.49
  -4  -2  -3   18.08    2.50
  -5  -2  -3    6.18    1.74
  -6  -2  -3   69.96    2.96
  -6  -2  -3   68.57    4.44
  -7  -2  -3    0.64    1.13
  -7  -2  -3   -0.93    2.26
  -8  -2  -3   -0.73    2.68
  -8  -2  -3    1.42    1.24
  -9   3   3    0.55    1.56
  -8   3   3    0.89    0.98
  -8   3   3    0.35    1.34
  -7   3   3    2.94    1.18
  -7   3   3    3.26    0.87
  -6   3   3    1.59    0.98
  -5   3   3   22.41    1.54
  -4   3   3    4.19    0.80
  -3   3   3    4.15    0.71
  -2   3   3   10.00    0.89
   1  -3  -3   52.85    2.30
  -1   3   3   56.75    2.00
  -1   3   3   53.00    2.15
   0  -3  -3    2.90    0.78
   0   3   3    2.65    0.69
  -1  -3  -3   58.16    2.53
   1   3   3   52.90    2.26
  -2  -3  -3    2.13    1.07
  -2  -3  -3    1.74    0.53
  -3  -3  -3   16.35    1.21
  -3  -3  -3   17.89    2.19
  -4  -3  -3    9.76    1.29
  -4  -3  -3   13.66    2.43
  -5  -3  -3    7.64    1.89
  -5  -3  -3    7.86    1.08
  -6  -3  -3    2.68    1.07
  -6  -3  -3    2.98    2.13
  -7  -3  -3    0.82    2.42
  -7  -3  -3    2.01    1.19
  -8  -3  -3   -4.26    2.81
  -8  -3  -3   -0.26    1.35
  -8   4   3   17.20    2.35
  -7   4   3   -0.35    1.22
  -6   4   3    3.12    1.14
  -5   4   3    0.59    0.89
  -4   4   3   83.50    3.20
  -3   4   3   13.61    1.16
  -2   4   3    2.95    0.63
   1  -4  -3    3.30    1.01
  -1   4   3    4.88    0.83
   0  -4  -3   49.78    2.47
  -1  -4  -3    1.11    1.12
  -2  -4  -3   20.16    2.24
  -2  -4  -3   19.57    1.20
  -3  -4  -3    4.25    0.76
  -3  -4  -3    3.75    1.48
  -4  -4  -3   14.46    2.91
  -4  -4  -3   13.06    1.45
  -5  -4  -3   12.71    2.27
  -5  -4  -3   11.91    1.63
  -6  -4  -3    4.46    1.19
  -6  -4  -3    3.81    2.29
  -7  -4  -3    0.14    1.24
  -7  -4  -3   -0.68    2.53
  -7   5   3    9.20    1.70
  -6   5   3    0.37    1.22
  -5   5   3    5.04    1.18
  -4   5   3    2.47    0.95
  -3   5   3    1.63    0.83
  -2   5   3    8.58    1.17
   1  -5  -3   26.96    2.21
  -1   5   3   27.36    1.50
   0  -5  -3    1.53    1.22
  -1  -5  -3   31.97    2.50
  -2  -5  -3    1.60    1.47
  -3  -5  -3    9.35    1.28
  -3  -5  -3    8.01    1.81
  -4  -5  -3    6.66    2.10
  -4  -5  -3    7.96    1.10
  -5  -5  -3    3.57    1.15
  -5  -5  -3    1.27    2.27
  -6  -5  -3   -2.41    2.57
  -6  -5  -3    2.01    1.26
  -7  -5  -3    4.70    1.49
  -7  -5  -3    0.63    3.60
  -6   6   3   46.06    2.88
  -5   6   3    0.87    1.23
  -4   6   3    3.68    1.19
  -3   6   3    4.90    1.17
  -2   6   3    3.39    1.04
   1  -6  -3    3.76    1.50
  -1   6   3    4.02    1.01
   0  -6  -3    5.36    1.58
  -1  -6  -3    0.55    1.59
  -2  -6  -3   19.66    3.04
  -3  -6  -3    8.14    1.08
  -3  -6  -3    5.79    2.07
  -4  -6  -3    4.94    1.14
  -4  -6  -3    3.78    2.20
  -5  -6  -3    0.14    2.43
  -5  -6  -3    1.68    1.22
  -6  -6  -3   22.29    2.32
  -6  -6  -3   15.72    3.27
  -5   7   3    7.96    1.67
  -4   7   3    1.44    1.35
  -3   7   3    0.34    1.26
  -2   7   3    1.55    1.29
   1  -7  -3   18.50    3.00
  -1   7   3   15.11    1.99
   0  -7  -3    1.14    1.90
  -1  -7  -3   20.76    3.17
  -2  -7  -3    0.33    2.01
  -3  -7  -3    1.01    2.23
  -4  -7  -3   -0.36    2.42
  -4  -7  -3    1.52    1.14
  -5  -7  -3   -2.68    2.70
  -5  -7  -3    1.23    1.37
  -6  -7  -3   -2.61    1.49
  -4   8   3   13.65    2.47
  -3   8   3    1.80    1.57
  -2   8   3    0.02    1.53
   1  -8  -3    6.84    2.29
  -1   8   3   -0.73    1.52
   0  -8  -3   28.73    3.71
  -1  -8  -3    0.71    2.21
  -2  -8  -3    0.15    2.22
  -3  -8  -3   -0.98    2.43
  -3   9   3   -3.35    2.27
  -2   9   3   -2.76    1.83
   0  -9  -3    6.29    2.56
  -1  -9  -3   10.39    3.06
  -5  -8   4   -2.57    1.44
  -4  -8   4   -1.89    1.42
  -4  -8   4    2.70    2.08
  -3  -8   4    1.19    2.09
  -2  -8   4    3.17    2.05
  -1  -8   4    3.15    2.01
   0  -8   4   18.81    3.33
  -1   8  -4   -1.26    1.63
  -2   8  -4    0.16    1.63
  -3   8  -4   -1.66    1.59
  -6  -7   4   -1.46    1.30
  -6  -7   4   -2.83    2.17
  -5  -7   4   -1.16    1.22
  -5  -7   4   -1.90    1.88
  -4  -7   4    0.90    1.20
  -4  -7   4    2.84    1.84
  -3  -7   4    5.69    1.24
  -3  -7   4    7.45    1.87
  -2  -7   4    0.34    1.72
  -2  -7   4   -1.28    1.14
   1   7  -4   15.35    2.43
  -1  -7   4   22.17    2.74
  -1  -7   4   15.03    1.96
   0   7  -4   -1.62    1.50
   0  -7   4    2.00    1.74
  -1   7  -4    2.71    1.38
  -2   7  -4    3.66    1.35
  -3   7  -4    0.44    1.30
  -4   7  -4    0.21    1.34
  -7  -6   4   -1.55    1.36
  -6  -6   4   15.36    2.33
  -6  -6   4   18.42    2.07
  -5  -6   4    1.66    1.83
  -5  -6   4    4.09    1.17
  -4  -6   4    0.70    1.00
  -4  -6   4    0.38    1.55
  -3  -6   4    2.37    1.51
  -3  -6   4    1.69    0.95
  -2  -6   4   33.76    1.98
  -2  -6   4   38.89    2.73
   1   6  -4   -0.25    1.37
  -1  -6   4    0.37    1.40
  -1  -6   4   -1.44    0.98
   0   6  -4    4.62    1.27
   0  -6   4    5.47    1.51
  -1   6  -4    2.15    1.08
  -2   6  -4    9.41    1.52
  -3   6  -4    6.96    1.19
  -4   6  -4    5.10    1.29
  -5   6  -4    0.51    1.32
  -6   6  -4   17.37    2.31
  -7  -5   4    5.75    1.31
  -7  -5   4    4.59    2.15
  -6  -5   4    0.77    1.06
  -6  -5   4   -0.59    1.74
  -5  -5   4    1.67    1.63
  -5  -5   4    0.71    0.97
  -4  -5   4    4.77    0.95
  -4  -5   4    4.36    1.51
  -3  -5   4   26.65    2.34
  -3  -5   4   30.89    1.66
  -2  -5   4    1.08    0.75
  -2  -5   4    1.03    1.17
  -1  -5   4   30.55    2.24
  -1  -5   4   29.70    1.67
   0   5  -4    3.70    1.00
   0  -5   4    2.15    1.13
  -1   5  -4    8.97    1.31
  -2   5  -4    6.03    0.95
  -3   5  -4    5.95    1.01
  -4   5  -4    2.53    1.04
  -5   5  -4    3.44    1.22
  -6   5  -4   -0.55    1.27
  -7   5  -4   -0.45    1.48
  -8  -4   4   27.69    2.30
  -8  -4   4   22.82    3.90
  -7  -4   4   -1.93    1.88
  -7  -4   4    0.17    1.08
  -6  -4   4    1.59    1.69
  -6  -4   4    2.62    1.05
  -5  -4   4    8.75    1.43
  -5  -4   4    8.65    1.58
  -4  -4   4    5.24    1.33
  -4  -4   4    3.26    0.81
  -3  -4   4    7.63    1.09
  -3  -4   4    9.67    1.83
  -2  -4   4   18.65    1.81
  -2  -4   4   19.85    1.23
   1   4  -4    0.99    0.91
  -1  -4   4    1.06    0.62
  -1  -4   4   -0.09    0.91
   0   4  -4   30.28    1.61
   0   4  -4   27.34    1.34
   0  -4   4   30.62    1.67
   0  -4   4   28.82    1.87
  -1   4  -4   12.58    1.17
  -1   4  -4    7.43    1.12
   1  -4   4   10.33    1.71
  -2   4  -4   13.01    1.17
   2  -4   4   12.93    1.77
  -3   4  -4    7.24    1.24
  -4   4  -4   80.90    3.15
  -5   4  -4    0.95    0.98
  -6   4  -4    1.29    1.20
  -7   4  -4   -0.03    1.33
  -8   4  -4    0.31    1.53
  -9  -3   4   -2.03    2.30
  -8  -3   4   -1.37    1.97
  -8  -3   4    0.14    1.15
  -7  -3   4    3.79    1.12
  -7  -3   4    1.23    1.77
  -6  -3   4    2.35    0.99
  -6  -3   4    1.51    1.51
  -5  -3   4    1.42    1.30
  -5  -3   4    1.80    0.79
  -4  -3   4   13.75    1.85
  -4  -3   4   13.17    1.21
  -3  -3   4   38.83    1.68
  -3  -3   4   39.98    2.18
   2   3  -4    1.61    0.84
  -2  -3   4    2.41    0.52
  -2  -3   4    2.71    0.86
   1   3  -4   50.66    2.11
   1   3  -4   50.66    1.83
   1   3  -4   50.84    2.22
  -1  -3   4   48.18    1.94
  -1  -3   4   48.69    1.90
  -1  -3   4   47.89    2.18
   0   3  -4    1.64    0.82
   0   3  -4    1.38    0.65
   0   3  -4    0.71    0.50
   0  -3   4    0.18    0.64
   0  -3   4    0.58    0.53
   0  -3   4    1.64    0.62
  -1   3  -4   25.66    1.33
  -1   3  -4   24.73    1.44
   1  -3   4   22.95    1.79
  -2   3  -4   13.36    1.59
  -2   3  -4   15.41    1.09
   2  -3   4   12.38    1.55
  -3   3  -4    6.83    1.09
  -4   3  -4    6.57    0.91
  -5   3  -4   14.92    1.48
  -6   3  -4    0.26    1.03
  -7   3  -4   -0.15    1.22
  -7   3  -4    1.58    2.25
  -8   3  -4   -1.38    1.39
  -9  -2   4   -0.10    1.32
  -8  -2   4    0.23    1.07
  -8  -2   4   -0.28    1.86
  -7  -2   4    0.47    0.95
  -7  -2   4   -0.79    1.57
  -6  -2   4   73.71    2.95
  -6  -2   4   70.88    3.51
  -5  -2   4   21.41    1.47
  -5  -2   4   22.75    2.02
  -4  -2   4    4.67    0.65
  -3  -2   4    7.07    0.85
   2   2  -4   62.84    2.17
  -2  -2   4   60.32    2.17
   1   2  -4    1.15    0.38
   1   2  -4    1.26    0.87
   1   2  -4    1.48    0.59
  -1  -2   4    1.42    0.66
  -1  -2   4    1.43    0.42
  -1  -2   4    0.60    0.58
   0   2  -4   53.68    2.13
   0   2  -4   59.96    2.30
   0   2  -4   59.03    2.08
   0  -2   4   57.04    2.14
   0  -2   4   55.84    2.09
  -1   2  -4    4.55    0.95
   1  -2   4    1.75    0.78
   1  -2   4    3.64    0.55
  -2   2  -4   16.17    1.05
  -2   2  -4   16.30    1.44
   2  -2   4   16.60    1.04
  -3   2  -4   28.19    1.39
  -4   2  -4   21.04    1.37
  -5   2  -4    3.54    0.88
  -6   2  -4   51.44    2.51
  -6   2  -4   60.31    4.08
  -7   2  -4    1.46    1.99
  -7   2  -4   -0.43    1.10
  -8   2  -4   -0.37    2.29
  -8   2  -4   -0.99    1.64
  -9  -1   4    1.15    1.19
  -8  -1   4   -0.52    1.02
  -7  -1   4    9.01    1.48
  -6  -1   4    2.58    0.80
  -5  -1   4    2.05    0.64
  -4  -1   4   16.46    1.09
   3   1  -4   68.54    2.40
  -3  -1   4   68.55    2.40
   2   1  -4    3.64    0.43
  -2  -1   4    3.75    0.42
  -2  -1   4    3.10    0.94
   1   1  -4   43.50    1.59
  -1  -1   4   44.77    1.61
  -1   1  -4   50.64    2.08
  -1   1  -4   48.73    1.87
   1  -1   4   48.81    1.85
   1  -1   4   53.40    2.04
  -2   1  -4   16.42    1.06
  -2   1  -4   15.69    1.05
   2  -1   4   14.94    0.93
  -3   1  -4   11.55    0.97
   3  -1   4    9.16    0.82
  -4   1  -4    9.30    1.04
  -4   1  -4    7.77    1.62
  -5   1  -4   16.89    2.65
  -6   1  -4    0.19    1.76
  -7   1  -4    2.30    2.08
  -8   1  -4    0.59    2.25
  -9   0   4   -0.17    1.14
  -8   0   4   55.02    2.66
  -7   0   4    0.32    0.85
  -6   0   4    6.92    0.87
  -5   0   4   19.07    1.24
  -4   0   4    6.60    0.85
   3   0  -4   17.71    0.91
  -3   0   4   14.53    0.91
   2   0  -4  135.58    4.31
  -2   0   4  130.88    4.29
   1   0  -4    0.76    0.31
  -1   0   4    1.25    0.32
  -1   0   4   -0.78    0.59
   0   0  -4   50.88    2.39
   0   0  -4   61.42    2.19
   0   0   4   55.85    2.33
   0   0   4   55.78    2.15
  -1   0  -4   21.86    1.12
  -1   0  -4   20.18    1.75
   1   0   4   24.07    1.12
  -2   0  -4   13.78    1.77
  -3   0  -4    8.52    1.33
  -4   0  -4  173.39    6.54
  -5   0  -4    1.64    1.52
  -6   0  -4    4.30    1.88
  -7   0  -4    1.22    2.07
  -8   0  -4    1.95    2.34
  -9   1   4    1.05    1.15
  -8   1   4    0.72    0.98
  -7   1   4    9.18    1.40
  -6   1   4    2.27    0.87
  -6   1   4    2.17    0.71
  -5   1   4    2.36    0.59
  -5   1   4    2.07    0.75
  -4   1   4   15.93    0.99
  -1  -1  -4   62.87    2.61
   1   1   4   63.40    2.48
  -2  -1  -4   20.01    1.84
   2   1   4   20.96    1.71
  -3  -1  -4   13.47    2.01
  -4  -1  -4    8.53    1.53
  -5  -1  -4   14.74    2.78
  -6  -1  -4   -0.01    1.84
  -7  -1  -4   -0.43    2.10
  -8  -1  -4   -1.13    2.36
  -8  -1  -4    2.50    1.27
  -9   2   4   -1.09    1.41
  -9   2   4   -0.16    1.14
  -8   2   4    0.86    0.97
  -8   2   4    1.16    1.23
  -7   2   4    0.55    0.81
  -7   2   4    0.68    1.08
  -6   2   4   73.88    2.78
  -6   2   4   73.15    3.06
  -5   2   4   19.97    1.43
  -4   2   4    5.29    0.81
  -1  -2  -4    8.04    1.43
   1   2   4    4.89    1.03
  -2  -2  -4   21.22    1.86
   2   2   4   19.45    1.54
  -3  -2  -4   34.83    2.52
  -4  -2  -4   25.38    2.77
  -5  -2  -4    3.69    1.70
  -6  -2  -4   59.47    4.34
  -7  -2  -4    1.49    1.17
  -7  -2  -4   -1.18    2.32
  -8  -2  -4    0.57    1.26
  -8  -2  -4   -4.41    2.64
  -9   3   4    3.02    1.62
  -8   3   4    0.26    1.32
  -8   3   4    0.45    1.07
  -7   3   4    3.45    0.88
  -7   3   4    4.88    1.28
  -6   3   4    2.31    0.70
  -6   3   4    2.76    1.03
  -5   3   4    1.40    0.86
  -4   3   4   11.21    1.18
  -3   3   4   35.42    1.63
  -2   3   4    2.60    0.61
   0  -3  -4    2.50    0.86
   0   3   4    0.88    0.67
  -1  -3  -4   33.27    2.05
   1   3   4   30.05    1.66
  -2  -3  -4   20.36    2.15
  -3  -3  -4    7.51    1.42
  -4  -3  -4    6.46    0.95
  -4  -3  -4    7.41    1.66
  -5  -3  -4   19.16    3.31
  -5  -3  -4   19.66    1.69
  -6  -3  -4    0.18    1.07
  -6  -3  -4    0.28    2.17
  -7  -3  -4   -2.09    2.45
  -7  -3  -4    0.60    1.18
  -8   4   4   33.33    2.69
  -7   4   4    0.63    1.27
  -6   4   4    3.22    1.16
  -5   4   4    7.72    1.14
  -4   4   4    4.78    0.92
  -3   4   4    8.27    1.12
  -2   4   4   19.67    1.27
   1  -4  -4   -0.32    0.97
  -1   4   4    0.37    0.60
   0  -4  -4   30.74    2.06
  -1  -4  -4   14.19    2.09
  -2  -4  -4   14.44    1.16
  -2  -4  -4   17.82    2.36
  -3  -4  -4    7.29    1.70
  -3  -4  -4    9.27    1.23
  -4  -4  -4  111.24    4.04
  -4  -4  -4  109.59    5.20
  -5  -4  -4    1.46    1.05
  -5  -4  -4    1.81    2.05
  -6  -4  -4    2.68    1.19
  -6  -4  -4    0.35    2.33
  -7  -4  -4   -2.37    2.60
  -7  -4  -4    1.25    1.31
  -7   5   4    9.07    1.67
  -6   5   4    1.76    1.23
  -5   5   4    1.05    1.07
  -4   5   4    5.57    1.07
  -3   5   4   31.36    1.80
  -2   5   4    1.97    0.77
   1  -5  -4   32.44    2.41
  -1   5   4   33.14    1.67
   0  -5  -4    2.47    1.24
  -1  -5  -4   11.28    2.32
  -2  -5  -4    6.98    1.73
  -3  -5  -4    8.01    1.31
  -3  -5  -4    6.54    1.90
  -4  -5  -4    3.09    1.02
  -4  -5  -4    2.19    2.10
  -5  -5  -4    4.10    1.20
  -5  -5  -4    1.89    2.46
  -6  -5  -4   -2.42    2.68
  -6  -5  -4    0.30    1.26
  -7  -5  -4    2.10    1.47
  -6   6   4   22.46    2.29
  -5   6   4    4.26    1.33
  -4   6   4    1.62    1.12
  -3   6   4    2.82    1.06
   2  -6  -4   40.04    3.05
  -2   6   4   41.02    2.19
   1  -6  -4    0.32    1.50
  -1   6   4    0.93    0.95
   0  -6  -4    5.47    1.61
  -1  -6  -4    2.45    1.67
  -2  -6  -4    6.05    2.01
  -3  -6  -4    7.61    1.07
  -3  -6  -4    7.07    2.27
  -4  -6  -4    3.66    2.37
  -4  -6  -4    5.00    1.13
  -5  -6  -4   -2.81    2.57
  -5  -6  -4    0.89    1.22
  -6  -6  -4   18.46    2.32
  -6  -6  -4   12.28    3.47
  -5   7   4    1.10    1.43
  -4   7   4    2.80    1.40
  -3   7   4    9.03    1.50
  -2   7   4    1.02    1.26
   1  -7  -4   26.36    3.10
  -1   7   4   24.20    2.10
   0  -7  -4    1.43    1.88
  -1  -7  -4    3.77    1.97
  -2  -7  -4    2.37    2.14
  -3  -7  -4   -0.66    2.37
  -4  -7  -4   -2.11    2.57
  -4  -7  -4    0.84    1.18
  -5  -7  -4    0.69    3.54
  -6  -7  -4   -2.16    1.51
  -4   8   4    1.72    1.73
  -3   8   4    0.50    1.65
  -2   8   4   -0.47    1.57
   1  -8  -4    4.70    2.26
  -1   8   4   -1.95    1.48
   0  -8  -4   17.65    3.70
  -1  -8  -4    2.94    2.30
  -2  -8  -4    2.75    2.42
  -3  -8  -4   -1.47    2.61
  -3   9   4    3.68    2.41
   0  -9  -4    4.55    2.61
  -1  -9  -4    1.75    3.09
  -1   9  -5   -4.33    2.17
  -5  -8   5   -3.06    1.51
  -4  -8   5   11.37    2.23
  -4  -8   5    6.06    1.59
  -3  -8   5    2.44    2.07
  -2  -8   5    2.05    1.98
   1   8  -5   -1.97    2.20
  -1  -8   5    4.87    2.08
   0   8  -5   -0.65    1.93
  -1   8  -5   -0.40    1.83
  -2   8  -5   -0.17    1.67
  -3   8  -5   -2.04    1.62
  -6  -7   5   -2.05    2.00
  -6  -7   5   -0.72    1.37
  -5  -7   5    8.26    1.47
  -5  -7   5    8.23    2.03
  -4  -7   5    1.06    1.75
  -4  -7   5   -0.74    1.21
  -3  -7   5    9.17    1.87
  -3  -7   5    7.61    1.33
  -2  -7   5    2.59    1.78
  -2  -7   5   -0.46    1.22
   1   7  -5    0.69    1.86
  -1  -7   5    2.78    1.72
  -1  -7   5   -0.45    1.30
   0   7  -5    1.17    1.60
   0  -7   5    5.16    1.81
  -1   7  -5    1.74    1.45
  -2   7  -5    0.98    1.39
  -3   7  -5    2.17    1.38
  -4   7  -5   -0.56    1.36
  -7  -6   5   -3.45    2.10
  -6  -6   5   -1.02    1.89
  -6  -6   5    0.80    1.25
  -5  -6   5    2.39    1.17
  -5  -6   5    1.56    1.69
  -4  -6   5    1.07    1.51
  -4  -6   5    0.48    1.03
  -3  -6   5    0.28    1.00
  -3  -6   5    0.83    1.44
  -2  -6   5   18.37    2.39
  -2  -6   5   15.61    1.70
   1   6  -5    1.57    1.51
  -1  -6   5    0.71    1.07
  -1  -6   5    3.31    1.41
   0   6  -5    6.18    1.37
   0  -6   5    7.59    1.52
   0  -6   5    5.17    1.28
  -1   6  -5    5.16    1.24
  -2   6  -5   53.84    2.61
  -3   6  -5    0.92    1.14
  -4   6  -5    1.73    1.22
  -5   6  -5   -0.24    1.29
  -6   6  -5    1.39    2.03
  -7  -5   5   -2.63    1.96
  -7  -5   5    0.10    1.16
  -6  -5   5    2.10    1.77
  -6  -5   5    4.17    1.15
  -5  -5   5   11.38    1.63
  -5  -5   5    8.06    1.71
  -4  -5   5    1.14    0.89
  -4  -5   5    1.81    1.38
  -3  -5   5   37.66    1.89
  -3  -5   5   34.95    2.47
  -2  -5   5    0.66    1.16
  -2  -5   5    0.34    0.80
   1   5  -5    8.81    1.37
  -1  -5   5    8.03    0.97
  -1  -5   5    8.38    1.32
   0   5  -5   10.56    1.54
   0  -5   5   10.34    1.79
  -1   5  -5    4.55    1.01
   1  -5   5    3.77    1.22
  -2   5  -5    4.64    0.97
   2  -5   5    3.59    1.30
  -3   5  -5   15.23    1.53
  -4   5  -5    0.33    0.99
  -5   5  -5    0.16    1.12
  -6   5  -5    0.37    1.30
  -7   5  -5   -0.86    1.49
  -8  -4   5   11.27    2.46
  -8  -4   5   13.62    2.08
  -7  -4   5    1.60    1.91
  -7  -4   5    4.12    1.16
  -6  -4   5    0.74    1.60
  -6  -4   5    1.50    0.97
  -5  -4   5    4.89    0.95
  -5  -4   5    5.05    1.46
  -4  -4   5   53.44    2.82
  -4  -4   5   52.07    2.28
  -3  -4   5    0.62    0.63
  -3  -4   5    0.56    1.02
  -2  -4   5   17.58    1.79
  -2  -4   5   17.80    1.24
   1   4  -5   10.17    1.53
  -1  -4   5    9.91    1.17
  -1  -4   5    8.47    1.57
   0   4  -5   13.34    1.32
   0  -4   5   12.32    1.53
   0  -4   5   13.94    1.48
  -1   4  -5   18.39    1.42
   1  -4   5   16.11    1.93
  -2   4  -5   22.01    1.49
   2  -4   5   22.39    2.04
  -3   4  -5    3.21    0.84
  -4   4  -5   65.60    2.73
  -5   4  -5    0.58    0.98
  -6   4  -5   -0.03    1.13
  -7   4  -5    3.52    1.44
  -8   4  -5   -0.28    1.57
  -8  -3   5    0.46    1.16
  -7  -3   5    0.25    1.04
  -7  -3   5    0.99    1.71
  -6  -3   5    6.20    1.06
  -6  -3   5    5.12    1.59
  -5  -3   5   37.49    1.92
  -5  -3   5   37.85    2.55
  -4  -3   5    2.71    0.68
  -4  -3   5    3.30    1.11
  -3  -3   5   39.56    2.15
  -3  -3   5   37.93    1.68
   2   3  -5    0.83    0.83
  -2  -3   5    1.68    0.49
  -2  -3   5    1.78    0.86
   1   3  -5   25.61    1.20
   1   3  -5   27.13    1.75
   1   3  -5   25.63    1.68
  -1  -3   5   24.90    1.42
  -1  -3   5   25.20    1.62
  -1  -3   5   27.48    1.34
   0   3  -5    9.98    1.18
   0   3  -5    8.30    1.34
   0   3  -5    7.95    1.04
   0  -3   5    9.94    1.22
  -1   3  -5   11.04    1.14
  -1   3  -5    8.56    1.36
   1  -3   5    9.99    1.14
  -2   3  -5   10.65    1.16
   2  -3   5    7.62    1.09
  -3   3  -5   23.73    1.45
  -4   3  -5    1.31    0.78
  -5   3  -5    2.00    0.94
  -6   3  -5    1.86    1.10
  -7   3  -5    0.35    1.28
  -7   3  -5    3.87    2.29
  -8   3  -5   -0.08    1.53
  -9  -2   5   -0.60    1.29
  -8  -2   5   -0.51    1.78
  -8  -2   5    1.21    1.14
  -7  -2   5    7.17    1.18
  -6  -2   5    3.46    0.95
  -5  -2   5   12.09    1.28
  -4  -2   5   18.70    1.24
  -3  -2   5    0.58    0.46
   2   2  -5   42.02    1.58
   2   2  -5   39.98    2.31
  -2  -2   5   40.94    1.60
  -2  -2   5   41.81    2.44
   1   2  -5    5.53    0.72
   1   2  -5    5.86    1.11
  -1  -2   5    7.13    0.85
  -1  -2   5    4.74    0.87
   0   2  -5   14.63    1.24
   0   2  -5   14.13    1.07
   0   2  -5   12.23    1.31
   0  -2   5   13.45    1.10
   0  -2   5   12.95    1.21
  -1   2  -5   14.40    1.84
  -1   2  -5   15.45    1.07
   1  -2   5   10.39    1.49
   1  -2   5   14.02    1.04
  -2   2  -5  268.31    8.65
  -3   2  -5    4.43    0.76
  -4   2  -5   11.58    1.25
  -5   2  -5    6.68    0.99
  -6   2  -5    7.52    1.18
  -6   2  -5   11.39    2.19
  -7   2  -5    2.94    2.01
  -7   2  -5    0.95    1.23
  -8   2  -5    1.24    2.62
  -9  -1   5    1.32    1.22
  -8  -1   5    0.76    1.08
  -7  -1   5    1.40    0.93
  -6  -1   5   10.09    1.37
  -5  -1   5   39.37    1.83
  -4  -1   5    4.25    0.61
   3   1  -5   61.84    2.20
  -3  -1   5   61.88    2.22
  -3  -1   5   61.79    2.58
   2   1  -5    1.38    0.38
  -2  -1   5    2.19    0.42
  -2  -1   5    1.35    1.03
   1   1  -5   51.04    2.41
   1   1  -5   52.13    1.84
  -1  -1   5   50.93    1.85
  -1  -1   5   50.05    2.42
   0   1  -5   15.78    1.49
   0   1  -5   15.27    1.48
   0  -1   5   11.01    1.35
   0  -1   5   15.51    1.44
  -1   1  -5   13.99    1.14
  -1   1  -5   16.37    1.40
   1  -1   5   12.86    1.28
   1  -1   5   14.24    1.00
  -2   1  -5   13.47    1.04
  -2   1  -5   12.80    1.09
   2  -1   5   11.91    0.93
  -3   1  -5   52.38    2.10
   3  -1   5   52.83    2.05
  -4   1  -5    1.08    1.36
  -5   1  -5    1.68    1.54
  -6   1  -5    4.20    1.89
  -7   1  -5    3.17    2.04
  -8   1  -5    1.79    2.38
  -9   0   5   -1.38    1.16
  -8   0   5   30.10    2.05
  -7   0   5    9.05    1.44
  -6   0   5    5.04    0.83
  -5   0   5    8.98    1.07
  -4   0   5   83.05    2.90
   3   0  -5    2.42    0.46
  -3   0   5    2.06    0.42
   2   0  -5   60.12    2.05
  -2   0   5   59.43    2.05
   1   0  -5   21.43    1.02
  -1   0   5   24.10    1.03
  -1   0   5   19.45    1.45
   0   0  -5    9.93    1.39
  -1   0  -5   26.90    1.93
  -1   0  -5   32.54    1.73
  -1   0  -5   30.76    1.36
   1   0   5   27.52    1.49
  -2   0  -5   66.37    3.05
  -3   0  -5    7.13    1.32
  -4   0  -5  152.61    5.97
  -5   0  -5    0.22    1.50
  -6   0  -5    0.51    1.83
  -7   0  -5    6.02    2.27
  -8   0  -5    2.10    2.41
  -9   1   5    1.46    1.16
  -8   1   5    0.82    0.98
  -7   1   5    2.22    1.07
  -7   1   5    1.94    0.87
  -6   1   5    8.07    1.38
  -6   1   5    7.68    1.18
  -5   1   5   38.26    1.67
   0  -1  -5   12.44    1.05
   0   1   5   11.06    1.03
  -1  -1  -5   18.60    1.65
   1   1   5   18.22    1.46
  -2  -1  -5   17.57    1.90
   2   1   5   15.71    1.74
  -3  -1  -5   58.44    3.13
  -4  -1  -5    0.24    1.34
  -5  -1  -5    0.85    1.62
  -6  -1  -5    2.73    1.93
  -7  -1  -5   -0.01    2.20
  -8  -1  -5    3.04    1.36
  -8  -1  -5   -1.33    2.37
  -9   2   5   -1.48    1.14
  -9   2   5   -1.01    1.44
  -8   2   5    1.00    0.97
  -8   2   5    1.77    1.29
  -7   2   5    6.32    0.93
  -7   2   5    5.91    1.28
  -6   2   5    5.63    1.08
  -6   2   5    4.29    0.76
  -5   2   5   10.45    1.30
  -1  -2  -5   21.05    1.73
   1   2   5   17.62    1.32
  -2  -2  -5  347.36   11.48
  -3  -2  -5    4.24    1.34
  -4  -2  -5   14.77    2.70
  -5  -2  -5    6.78    1.89
  -6  -2  -5    6.34    2.17
  -7  -2  -5   -0.29    2.39
  -7  -2  -5    3.96    1.25
  -9   3   5    3.60    1.64
  -8   3   5    0.65    1.35
  -7   3   5    1.46    1.21
  -7   3   5    0.57    0.81
  -6   3   5    6.13    1.17
  -5   3   5   33.40    1.88
  -4   3   5    2.58    0.77
  -3   3   5   38.69    1.77
   1   3   5    9.79    1.31
  -2  -3  -5   12.77    2.19
  -3  -3  -5   32.23    2.71
  -4  -3  -5    1.33    1.65
  -5  -3  -5    1.70    1.96
  -6  -3  -5    1.53    2.25
  -6  -3  -5    3.52    1.22
  -7  -3  -5    2.39    1.32
  -7  -3  -5   -0.41    2.58
  -8   4   5   18.67    2.33
  -7   4   5    4.74    1.41
  -6   4   5    1.95    1.15
  -5   4   5    5.35    1.10
  -4   4   5   52.07    2.34
  -3   4   5    0.44    0.74
  -2   4   5   16.81    1.23
  -1   4   5    9.88    1.04
   0  -4  -5   14.44    1.88
  -1  -4  -5   23.09    2.35
  -2  -4  -5   30.38    1.56
  -2  -4  -5   32.47    2.78
  -3  -4  -5    4.11    1.73
  -3  -4  -5    3.65    0.88
  -4  -4  -5  100.76    3.78
  -4  -4  -5   98.14    5.08
  -5  -4  -5    1.17    2.17
  -5  -4  -5    1.60    1.11
  -6  -4  -5    0.32    1.23
  -6  -4  -5    0.65    2.42
  -7  -4  -5    1.31    2.78
  -7  -4  -5    5.00    1.50
  -7   5   5    0.79    1.41
  -6   5   5    3.98    1.31
  -5   5   5   11.33    1.71
  -4   5   5    1.53    0.98
  -3   5   5   40.35    2.08
  -2   5   5    0.47    0.82
   1  -5  -5   10.00    2.07
  -1   5   5    9.46    1.24
  -1  -5  -5    4.88    1.59
  -2  -5  -5    4.83    1.76
  -3  -5  -5   22.33    1.62
  -3  -5  -5   21.32    3.43
  -4  -5  -5    0.83    1.04
  -4  -5  -5    1.23    2.25
  -5  -5  -5    0.26    1.17
  -5  -5  -5   -2.23    2.51
  -6  -5  -5   -0.71    2.93
  -6  -5  -5    1.41    1.37
  -7  -5  -5    2.30    2.21
  -6   6   5    3.85    1.44
  -5   6   5    3.91    1.30
  -4   6   5   -0.06    1.08
  -3   6   5    0.34    1.05
   2  -6  -5   22.35    2.69
  -2   6   5   18.09    1.72
   1  -6  -5    4.00    1.63
  -1   6   5    3.69    1.05
   0  -6  -5    6.55    1.66
  -1  -6  -5    3.94    1.79
  -2  -6  -5   69.98    4.36
  -3  -6  -5   -0.63    2.20
  -4  -6  -5    1.45    2.50
  -4  -6  -5    3.70    1.15
  -5  -6  -5   -2.41    2.78
  -5  -6  -5    1.11    1.29
  -6  -6  -5    2.62    1.51
  -5   7   5   12.42    2.14
  -4   7   5    0.98    1.33
  -3   7   5   13.43    1.95
   2  -7  -5    6.10    2.03
  -2   7   5    0.76    1.26
   1  -7  -5    4.97    1.94
  -1   7   5    2.85    1.30
   0  -7  -5    4.54    1.99
  -1  -7  -5    2.64    2.06
  -2  -7  -5    1.31    2.29
  -3  -7  -5    0.21    2.60
  -5  -7  -5    0.29    1.43
  -4   8   5   13.80    2.45
  -3   8   5   -0.87    1.56
  -2   8   5   -0.24    1.59
   1  -8  -5    4.98    2.28
  -1   8   5   -0.03    1.61
   0  -8  -5    4.56    2.43
  -1  -8  -5    3.47    2.40
  -2  -8  -5    1.53    2.51
  -3  -8  -5   -4.19    2.78
  -3   9   5    6.90    2.72
   1  -9  -5    9.90    2.77
   0  -9  -5    7.24    2.79
  -1  -9  -5    1.57    4.35
  -1   9  -6   -3.37    2.31
  -4  -8   6    7.04    2.17
  -4  -8   6    1.59    1.59
  -3  -8   6    1.65    2.02
  -2  -8   6   -3.28    1.54
  -2  -8   6    5.10    1.95
   1   8  -6   -2.92    2.25
  -1  -8   6    6.55    2.05
   0   8  -6   15.06    2.34
  -1   8  -6   -2.38    1.80
  -2   8  -6   -1.41    1.78
  -6  -7   6   -2.47    1.38
  -5  -7   6   10.12    2.03
  -5  -7   6   11.57    1.61
  -4  -7   6   -2.14    1.26
  -4  -7   6    0.37    1.77
  -3  -7   6   -0.64    1.26
  -3  -7   6    2.50    1.74
  -2  -7   6    0.37    1.29
  -2  -7   6    4.28    1.78
   1   7  -6    0.72    1.93
  -1  -7   6    2.72    1.73
  -1  -7   6   -0.46    1.43
   0   7  -6    1.71    1.71
   0  -7   6    0.77    1.50
  -1   7  -6    6.99    1.66
  -2   7  -6   -1.49    1.44
  -3   7  -6   -0.70    1.41
  -4   7  -6    0.55    1.48
  -7  -6   6   -3.47    2.07
  -6  -6   6   16.63    2.07
  -6  -6   6   13.84    2.20
  -5  -6   6   -0.35    1.61
  -5  -6   6   -1.51    1.10
  -4  -6   6    2.47    1.13
  -4  -6   6    2.29    1.58
  -3  -6   6    5.37    1.56
  -3  -6   6    5.63    1.15
  -2  -6   6    5.05    1.15
  -2  -6   6    8.03    1.59
   1   6  -6    4.75    1.67
  -1  -6   6    6.95    1.56
  -1  -6   6    5.22    1.23
   0   6  -6    9.71    1.51
   0  -6   6    8.46    1.42
  -1   6  -6    1.69    1.29
   1  -6   6    1.23    1.40
  -2   6  -6   46.58    2.55
  -3   6  -6    1.60    1.24
  -4   6  -6    0.30    1.22
  -5   6  -6    3.85    1.43
  -7  -5   6    6.44    2.08
  -7  -5   6    9.23    1.39
  -6  -5   6   -0.11    1.70
  -6  -5   6    0.49    1.10
  -5  -5   6   13.46    2.51
  -5  -5   6   15.84    1.75
  -4  -5   6    1.41    1.32
  -4  -5   6    1.49    0.91
  -3  -5   6    8.73    1.40
  -3  -5   6    7.75    1.37
  -2  -5   6    5.07    1.29
  -2  -5   6    5.21    0.95
   1   5  -6    3.64    1.37
  -1  -5   6    3.84    0.96
  -1  -5   6    4.64    1.22
   0   5  -6    5.23    1.17
   0  -5   6    4.38    1.13
  -1   5  -6   17.35    1.68
   1  -5   6   17.70    2.11
  -2   5  -6    0.39    1.00
   2  -5   6    0.26    1.32
  -3   5  -6    1.87    1.03
  -4   5  -6    2.24    1.12
  -5   5  -6    1.84    1.24
  -6   5  -6    2.05    1.40
  -8  -4   6    0.03    1.22
  -7  -4   6    1.07    1.84
  -7  -4   6    3.85    1.14
  -6  -4   6   -0.05    0.95
  -6  -4   6   -1.00    1.51
  -5  -4   6    0.05    1.38
  -5  -4   6    0.93    0.89
  -4  -4   6   27.15    1.67
  -4  -4   6   25.80    2.25
  -3  -4   6    2.73    0.75
  -3  -4   6    2.89    1.09
   2   4  -6   13.48    2.15
  -2  -4   6   13.70    1.27
  -2  -4   6   12.59    1.69
   1   4  -6   13.26    1.79
  -1  -4   6   13.33    1.29
  -1  -4   6   12.62    1.59
   0   4  -6  173.07    5.97
   0  -4   6  179.58    5.96
  -1   4  -6    3.82    0.92
   1  -4   6    2.36    1.18
  -2   4  -6   12.58    1.40
   2  -4   6   12.51    2.02
  -3   4  -6    5.45    1.01
  -4   4  -6    8.34    1.15
  -5   4  -6    4.19    1.20
  -6   4  -6   -1.18    1.18
  -7   4  -6    0.36    1.47
  -8  -3   6    2.76    1.23
  -7  -3   6    9.40    1.27
  -6  -3   6    1.13    0.90
  -5  -3   6   48.27    2.20
  -4  -3   6    2.32    0.68
  -3  -3   6   13.76    1.15
   2   3  -6    8.44    1.59
   2   3  -6    9.63    1.81
  -2  -3   6   12.62    1.06
  -2  -3   6   11.13    1.39
   1   3  -6    9.80    1.84
   1   3  -6   11.46    1.49
  -1  -3   6   11.74    1.10
  -1  -3   6    8.79    1.32
   0   3  -6   13.04    1.42
   0  -3   6   12.22    1.45
  -1   3  -6   48.68    2.10
   1  -3   6   51.64    2.49
  -2   3  -6    0.99    0.75
   2  -3   6    0.13    0.96
  -3   3  -6    1.24    0.84
  -4   3  -6    9.34    1.40
  -5   3  -6    6.76    1.12
  -6   3  -6    3.04    1.21
  -7   3  -6    9.30    2.35
  -7   3  -6    7.69    1.57
  -8   3  -6   -2.97    1.66
  -9  -2   6    0.13    1.25
  -8  -2   6    1.31    1.14
  -7  -2   6    5.60    1.14
  -6  -2   6   58.44    2.59
  -5  -2   6    0.08    0.68
  -4  -2   6   18.27    1.25
  -3  -2   6   21.82    2.23
  -3  -2   6   28.49    1.30
   2   2  -6   13.91    1.96
  -2  -2   6   15.65    2.22
  -2  -2   6   15.80    1.00
   1   2  -6   18.61    1.10
   1   2  -6   20.13    1.97
  -1  -2   6   22.91    1.88
  -1  -2   6   20.96    1.17
   0   2  -6   70.27    2.74
   0   2  -6   69.57    2.79
   0   2  -6   68.92    2.59
   0  -2   6   69.08    2.68
   0  -2   6   71.73    2.85
  -1   2  -6   10.65    1.30
  -1   2  -6    8.17    1.18
   1  -2   6    6.76    0.95
  -2   2  -6  214.39    7.02
  -3   2  -6    3.11    0.79
  -4   2  -6    1.49    0.84
  -5   2  -6   15.45    1.63
  -6   2  -6    6.42    1.27
  -6   2  -6    8.85    2.13
  -7   2  -6    1.48    1.96
  -7   2  -6   -0.73    1.34
  -9  -1   6   -0.89    1.20
  -8  -1   6    2.53    1.16
  -7  -1   6   23.36    1.82
  -6  -1   6    1.95    0.81
  -5  -1   6   51.02    2.14
  -4  -1   6    3.38    0.60
  -3  -1   6   26.97    1.91
  -3  -1   6   27.82    1.27
   2   1  -6   12.50    1.78
   2   1  -6   12.42    0.84
  -2  -1   6   14.58    1.80
  -2  -1   6   11.98    0.85
   1   1  -6   14.15    0.98
   1   1  -6   12.88    1.76
  -1  -1   6   15.08    1.82
  -1  -1   6   14.10    1.01
   0   1  -6   18.29    1.72
   0   1  -6   17.70    1.68
   0  -1   6   20.24    1.71
   0  -1   6   16.79    1.52
  -1   1  -6   88.83    3.34
  -1   1  -6   90.13    3.25
   1  -1   6   88.60    3.28
   1  -1   6   84.23    3.13
  -2   1  -6    1.45    0.75
   2  -1   6    0.50    0.60
  -3   1  -6    1.62    0.74
  -4   1  -6    9.20    1.65
  -5   1  -6    9.25    1.84
  -6   1  -6    5.57    2.00
  -7   1  -6   17.62    3.65
  -9   0   6    0.56    1.21
  -8   0   6    3.15    1.15
  -7   0   6    8.26    1.11
  -6   0   6    2.20    0.77
  -5   0   6    0.60    0.60
  -4   0   6   42.30    1.71
   3   0  -6    5.95    0.74
  -3   0   6    6.87    0.75
   2   0  -6   15.75    0.89
  -2   0   6   16.89    0.91
  -2   0   6   18.18    1.33
   1   0  -6   23.14    1.18
  -1   0   6   24.71    1.21
  -1   0   6   25.87    1.60
   0   0  -6  550.22   17.41
   0   0  -6  527.84   17.24
   0   0   6  550.26   17.37
   0   0   6  551.46   17.25
  -1   0  -6    7.60    1.11
  -1   0  -6    7.19    1.12
  -1   0  -6   10.86    1.64
   1   0   6   10.93    1.31
  -2   0  -6   36.29    2.34
  -3   0  -6   12.31    2.16
  -4   0  -6   13.33    2.41
  -5   0  -6    4.04    1.66
  -6   0  -6    0.01    1.76
  -7   0  -6    1.17    2.08
  -9   1   6    0.55    1.19
  -8   1   6    2.85    1.04
  -8   1   6    2.54    1.30
  -7   1   6   23.51    1.71
  -7   1   6   24.02    1.90
  -6   1   6    1.27    0.76
  -5   1   6   51.63    2.06
   0  -1  -6   15.96    1.30
   0   1   6   18.53    1.29
  -1  -1  -6   87.96    3.02
  -2  -1  -6    1.60    1.08
   2   1   6    0.02    1.02
  -3  -1  -6    1.33    1.24
  -4  -1  -6    7.41    1.64
  -5  -1  -6    6.73    1.89
  -6  -1  -6    4.34    2.02
  -7  -1  -6    8.66    2.39
  -9   2   6    0.57    1.51
  -9   2   6    1.24    1.48
  -8   2   6    0.38    0.97
  -8   2   6    0.58    1.31
  -7   2   6    4.54    1.26
  -7   2   6    4.81    0.93
  -6   2   6   58.75    2.70
  -2  -2  -6  286.59    9.69
  -3  -2  -6    3.51    1.41
  -4  -2  -6    1.23    1.55
  -5  -2  -6   18.37    3.32
  -6  -2  -6    5.02    2.18
  -7  -2  -6   -3.00    2.38
  -9   3   6   -0.03    1.56
  -8   3   6    2.39    1.41
  -7   3   6   13.39    1.91
  -7   3   6   11.59    1.41
  -6   3   6    1.31    1.04
  -5   3   6   45.75    2.23
  -4   3   6    0.73    0.76
  -1  -3  -6   72.93    3.35
  -2  -3  -6    1.14    1.30
  -3  -3  -6    1.74    1.46
  -4  -3  -6    7.26    1.91
  -5  -3  -6    6.29    2.16
  -6  -3  -6    4.90    1.30
  -6  -3  -6    3.28    2.36
  -7  -3  -6    9.23    1.51
  -7  -3  -6    4.35    2.72
  -8   4   6    3.31    1.60
  -7   4   6    3.87    1.40
  -6   4   6    0.43    1.13
  -5   4   6    1.36    0.97
  -4   4   6   25.16    1.66
  -3   4   6    3.05    0.83
  -2   4   6   12.78    1.22
  -1  -4  -6    4.27    1.38
  -2  -4  -6   19.07    2.77
  -3  -4  -6    6.98    1.95
  -3  -4  -6    5.78    1.02
  -4  -4  -6   10.07    1.63
  -4  -4  -6    8.19    2.19
  -5  -4  -6    5.07    1.27
  -5  -4  -6    3.91    2.34
  -6  -4  -6    0.54    1.30
  -6  -4  -6   -2.10    2.47
  -7  -4  -6    1.77    1.48
  -7  -4  -6   -2.26    3.88
  -7   5   6   14.14    2.22
  -6   5   6    0.98    1.24
  -5   5   6   15.83    1.83
  -4   5   6    1.60    1.01
  -3   5   6    8.33    1.41
  -2   5   6    6.02    1.01
  -1   5   6    4.15    0.92
   0  -5  -6    3.89    1.39
  -1  -5  -6   21.72    2.88
  -2  -5  -6    1.15    1.84
  -3  -5  -6    0.78    2.09
  -3  -5  -6    2.85    0.96
  -4  -5  -6    2.50    1.14
  -4  -5  -6    2.92    2.46
  -5  -5  -6    2.99    1.33
  -5  -5  -6    0.37    2.71
  -6  -5  -6   -0.41    3.06
  -6  -5  -6    2.65    1.49
  -6   6   6   21.81    2.31
  -5   6   6    0.62    1.22
  -4   6   6    2.68    1.17
  -3   6   6    6.29    1.23
  -2   6   6    7.34    1.24
  -1   6   6    8.32    1.52
   0  -6  -6    9.90    1.83
  -1  -6  -6   -0.06    1.84
  -2  -6  -6   62.48    4.36
  -3  -6  -6    0.20    2.38
  -4  -6  -6   -0.55    1.13
  -4  -6  -6   -2.69    2.61
  -5  -6  -6    0.33    3.07
  -5  -6  -6    5.50    1.45
  -6  -6  -6    3.35    1.61
  -5   7   6   17.16    2.25
  -4   7   6    0.30    1.37
  -3   7   6    1.62    1.32
  -2   7   6    3.61    1.36
   1  -7  -6    4.19    1.97
  -1   7   6    3.03    1.31
   0  -7  -6    3.80    2.03
  -1  -7  -6    6.90    2.22
  -2  -7  -6   -3.33    2.29
  -4  -7  -6   -2.35    2.98
  -5  -7  -6    0.59    1.44
  -4   8   6    7.99    1.88
  -3   8   6    0.67    1.64
  -2   8   6    1.42    1.57
   1  -8  -6    6.53    2.34
   0  -8  -6   29.95    4.01
  -1  -8  -6    1.53    2.44
  -2  -8  -6    0.62    2.64
  -3  -8  -6   -4.34    2.97
  -2   9   6   -0.19    2.03
   1  -9  -6    7.94    2.77
   0  -9  -6    5.62    2.85
   1   9  -7   -3.96    2.85
  -4  -8   7    3.04    2.07
  -4  -8   7   -2.76    1.56
  -3  -8   7    5.09    2.06
  -2  -8   7    5.81    2.07
   1   8  -7   -3.22    2.38
  -1  -8   7    4.08    2.07
   0   8  -7   16.13    2.49
  -1   8  -7   -0.60    1.92
  -2   8  -7   -3.50    1.77
  -6  -7   7   -2.73    1.88
  -5  -7   7   -0.39    1.43
  -5  -7   7    2.15    1.80
  -4  -7   7   -0.73    1.35
  -4  -7   7    2.47    1.79
  -3  -7   7   -1.12    1.34
  -3  -7   7    3.76    1.81
  -2  -7   7    3.37    1.73
  -2  -7   7   -1.91    1.30
   1   7  -7    5.85    2.14
  -1  -7   7    5.07    1.59
  -1  -7   7    9.63    1.89
   0   7  -7   -1.16    1.79
   0  -7   7   -1.20    1.49
  -1   7  -7   -0.01    1.55
  -2   7  -7    0.00    1.53
   2  -7   7    5.82    1.62
  -3   7  -7    0.76    1.54
  -4   7  -7    1.02    1.65
  -6  -6   7    7.58    1.43
  -6  -6   7    6.67    1.91
  -5  -6   7    0.73    1.57
  -5  -6   7    0.13    1.22
  -4  -6   7    4.65    1.58
  -4  -6   7    3.50    1.22
  -3  -6   7    6.36    1.60
  -3  -6   7    5.33    1.22
  -2  -6   7   55.62    2.76
  -2  -6   7   63.15    3.24
   1   6  -7    1.18    1.73
  -1  -6   7    0.01    1.27
  -1  -6   7    2.63    1.49
   0   6  -7    5.05    1.56
   0  -6   7    3.94    1.42
  -1   6  -7    2.29    1.31
   1  -6   7    2.05    1.47
  -2   6  -7    6.09    1.42
   2  -6   7    7.78    1.59
  -3   6  -7    3.58    1.35
  -4   6  -7   -1.61    1.29
  -5   6  -7   -0.59    1.47
  -7  -5   7   12.77    2.20
  -7  -5   7   15.68    2.02
  -6  -5   7   -0.09    1.09
  -5  -5   7    2.16    1.47
  -5  -5   7    2.15    1.06
  -4  -5   7    4.23    1.40
  -4  -5   7    5.56    1.06
  -3  -5   7    5.90    1.01
  -3  -5   7    4.85    1.32
   2   5  -7    5.57    1.89
  -2  -5   7    5.43    1.34
  -2  -5   7    5.96    1.04
   1   5  -7   18.18    2.23
  -1  -5   7   19.56    2.08
  -1  -5   7   17.05    1.77
   0   5  -7    0.04    1.22
   0  -5   7   -0.52    1.14
  -1   5  -7    0.35    1.05
   1  -5   7    0.93    1.32
  -2   5  -7    5.47    1.20
   2  -5   7    4.60    1.47
  -3   5  -7    6.04    1.22
  -4   5  -7    4.02    1.28
  -5   5  -7    6.45    1.48
  -6   5  -7   -1.90    1.43
  -8  -4   7   16.30    2.10
  -7  -4   7   -0.04    1.08
  -6  -4   7    1.07    1.02
  -5  -4   7   11.30    1.56
  -4  -4   7    9.90    1.40
  -3  -4   7    8.28    1.27
   2   4  -7   24.94    2.47
  -2  -4   7   23.70    1.93
  -2  -4   7   24.59    1.55
   1   4  -7    1.61    1.35
  -1  -4   7    2.48    1.01
  -1  -4   7    3.16    0.86
   0   4  -7  149.97    5.34
   0  -4   7  155.58    5.32
  -1   4  -7    4.25    1.03
   1  -4   7    5.58    1.26
  -2   4  -7    0.58    0.93
   2  -4   7    1.80    1.29
  -3   4  -7   13.10    1.59
  -4   4  -7    6.54    1.20
  -5   4  -7    1.36    1.18
  -6   4  -7   -1.93    1.34
  -7   4  -7   -2.27    1.55
  -8  -3   7    0.35    1.16
  -7  -3   7   16.07    1.80
  -6  -3   7    2.09    0.95
  -5  -3   7    9.01    1.38
  -4  -3   7    8.71    1.21
   3   3  -7    4.07    1.64
  -3  -3   7    4.32    0.67
   2   3  -7    8.95    1.71
  -2  -3   7    9.99    1.12
   1   3  -7   54.46    2.81
  -1  -3   7   55.77    2.27
   0   3  -7    1.31    1.06
   0  -3   7    0.36    0.87
  -1   3  -7    0.91    0.85
   1  -3   7    0.46    1.04
  -2   3  -7    6.81    1.26
   2  -3   7    5.54    1.18
  -3   3  -7   11.57    1.49
  -4   3  -7    6.47    1.10
  -5   3  -7   17.59    1.83
  -6   3  -7   -0.64    1.28
  -7   3  -7    0.16    1.53
  -7   3  -7    4.79    2.26
  -9  -2   7    2.23    1.37
  -8  -2   7    0.49    1.11
  -7  -2   7    1.21    1.03
  -6  -2   7   25.23    1.76
  -5  -2   7    3.96    0.79
  -4  -2   7   17.79    1.28
   3   2  -7   21.88    2.31
  -3  -2   7   22.10    1.25
   2   2  -7  296.14    9.39
  -2  -2   7  258.74    9.73
  -2  -2   7  282.43    8.96
   1   2  -7   10.03    1.49
  -1  -2   7   10.17    2.00
  -1  -2   7   10.09    1.17
   0   2  -7   40.14    2.24
   0  -2   7   36.12    2.08
  -1   2  -7    8.39    1.40
   1  -2   7    6.28    1.04
  -2   2  -7   11.70    1.37
  -3   2  -7    9.51    1.32
  -4   2  -7    0.48    0.93
  -5   2  -7    4.59    1.20
  -5   2  -7    6.03    1.85
  -6   2  -7   10.30    1.52
  -6   2  -7   12.63    2.22
  -7   2  -7    5.16    2.14
  -7   2  -7    0.15    1.49
  -9  -1   7    5.51    1.35
  -8  -1   7   -0.39    1.08
  -7  -1   7   36.93    2.14
  -6  -1   7    2.11    0.82
  -5  -1   7   10.12    1.19
  -4  -1   7   15.82    1.14
  -3  -1   7   11.98    0.95
  -3  -1   7    9.85    1.78
   2   1  -7   17.15    1.00
   2   1  -7   16.93    2.03
  -2  -1   7   18.80    1.96
  -2  -1   7   18.47    1.07
   1   1  -7   92.33    3.73
   1   1  -7   90.84    3.22
  -1  -1   7   92.70    3.23
  -1  -1   7   94.52    3.79
   0   1  -7    1.54    1.04
   0   1  -7    0.16    1.16
   0  -1   7    0.57    0.88
   0  -1   7    1.22    1.13
  -1   1  -7    1.92    1.07
   1  -1   7   -0.12    0.80
   1  -1   7    0.24    0.72
  -2   1  -7   13.48    1.49
  -3   1  -7   18.35    1.57
  -4   1  -7    8.15    1.66
  -5   1  -7   17.42    2.94
  -6   1  -7    1.03    1.88
  -7   1  -7    4.85    2.16
  -9   0   7    1.05    1.25
  -8   0   7   34.20    2.17
  -7   0   7    0.85    0.92
  -6   0   7    4.06    0.85
  -5   0   7   26.89    1.45
  -4   0   7   19.61    1.15
   3   0  -7   12.25    0.91
  -3   0   7   12.26    0.91
   2   0  -7   67.03    2.37
  -2   0   7   70.79    2.69
  -2   0   7   66.10    2.39
   1   0  -7    8.95    0.99
   1   0  -7    7.39    1.35
  -1   0   7   10.13    1.06
  -1   0   7    8.29    1.14
   0   0  -7  440.64   13.93
   0   0  -7  426.60   13.74
   0   0   7  433.70   13.86
   0   0   7  419.37   13.70
  -1   0  -7    9.51    1.31
  -1   0  -7    8.33    1.32
   1   0   7    8.74    1.50
  -2   0  -7    0.47    1.04
  -2   0  -7   -0.32    1.04
   2   0   7   -0.54    0.65
  -3   0  -7   34.76    2.67
  -4   0  -7    9.22    1.66
  -5   0  -7    2.25    1.70
  -6   0  -7   -0.10    1.89
  -7   0  -7   -2.58    2.04
  -9   1   7    5.94    1.32
  -8   1   7    0.78    1.03
  -8   1   7    1.72    1.28
  -7   1   7   37.47    2.03
  -7   1   7   38.51    2.32
  -6   1   7    0.72    0.76
  -5   1   7    9.35    1.06
  -1   1   7   99.01    3.53
   0  -1  -7    0.55    0.71
   0   1   7    1.03    0.82
  -1  -1  -7    1.10    0.54
  -2  -1  -7   14.86    2.10
  -3  -1  -7   18.32    2.46
  -4  -1  -7    6.82    1.68
  -5  -1  -7   15.34    2.24
  -6  -1  -7   -0.35    1.94
  -7  -1  -7    1.51    2.21
  -9   2   7    2.16    1.61
  -8   2   7    0.44    1.01
  -8   2   7    1.85    1.35
  -7   2   7    1.09    1.20
  -7   2   7    1.23    0.88
  -2  -2  -7   15.22    2.26
  -3  -2  -7   12.75    2.55
  -4  -2  -7    0.69    1.63
  -5  -2  -7    2.87    1.96
  -6  -2  -7    6.04    2.26
  -7  -2  -7   -0.78    2.45
  -9   3   7    9.06    1.82
  -8   3   7    0.22    1.39
  -7   3   7   18.08    2.04
  -6   3   7    1.86    1.10
  -5   3   7    8.78    1.42
  -1  -3  -7    1.68    1.29
  -2  -3  -7    7.34    1.55
  -3  -3  -7   12.05    1.86
  -4  -3  -7    6.59    1.98
  -5  -3  -7   17.55    3.66
  -6  -3  -7   -2.55    2.32
  -7  -3  -7   -0.42    2.67
  -7  -3  -7    3.30    1.46
  -8   4   7   22.47    2.50
  -7   4   7    0.67    1.33
  -6   4   7    2.90    1.21
  -5   4   7   10.56    1.56
  -4   4   7   10.96    1.42
  -3   4   7    7.93    1.27
  -1  -4  -7    5.34    1.58
  -2  -4  -7    1.09    1.71
  -3  -4  -7   20.24    3.47
  -4  -4  -7    6.89    2.25
  -5  -4  -7    1.89    1.25
  -5  -4  -7    1.72    2.37
  -6  -4  -7    0.97    1.41
  -6  -4  -7   -1.99    2.58
  -7   5   7   21.12    2.35
  -6   5   7    1.47    1.24
  -5   5   7    2.91    1.18
  -4   5   7    6.40    1.17
  -3   5   7    5.71    1.08
  -2   5   7    5.42    1.03
  -1   5   7   21.25    1.56
  -1  -5  -7   -0.82    1.68
  -2  -5  -7    4.55    2.06
  -3  -5  -7    7.40    1.14
  -3  -5  -7    4.93    2.37
  -4  -5  -7    3.70    1.22
  -4  -5  -7    2.41    2.61
  -5  -5  -7    4.33    2.94
  -5  -5  -7    9.88    1.54
  -6  -5  -7   -4.23    3.13
  -6  -5  -7   -0.49    1.50
  -6   6   7   10.20    1.67
  -5   6   7    1.56    1.26
  -4   6   7    6.44    1.34
  -3   6   7    6.91    1.30
  -2   6   7   64.18    2.93
  -1   6   7    1.37    1.10
  -1  -6  -7    1.95    2.02
  -2  -6  -7    4.49    2.31
  -3  -6  -7    2.51    2.54
  -4  -6  -7   -2.87    2.80
  -4  -6  -7    0.69    1.23
  -5  -6  -7   -3.59    3.18
  -5  -6  -7    2.30    1.48
  -6  -6  -7    6.17    1.75
  -5   7   7    2.90    1.47
  -4   7   7    2.12    1.44
  -3   7   7    0.94    1.37
  -2   7   7    1.62    1.32
   0  -7  -7    1.95    2.04
  -1  -7  -7    0.35    2.18
  -2  -7  -7   -1.40    2.54
  -3  -7  -7   -3.26    2.77
  -4  -7  -7   -3.57    3.14
  -5  -7  -7    4.99    1.86
  -4   8   7    1.91    1.68
  -3   8   7    0.74    1.61
  -2   8   7    2.74    1.59
   1  -8  -7    4.60    2.30
  -1   8   7   -0.32    1.60
   0  -8  -7   29.33    4.07
  -1  -8  -7    1.30    2.56
  -3  -8  -7   -7.18    4.90
  -2   9   7   -2.14    1.98
   1  -9  -7    7.32    2.84
   0  -9  -7   -0.70    2.92
   1   9  -8   -5.91    3.08
   0   9  -8   -4.27    2.89
  -4  -8   8    6.41    1.86
  -3  -8   8    3.09    1.98
  -2  -8   8    4.87    2.09
   1   8  -8   -3.16    2.57
   0   8  -8   -0.26    2.19
   0  -8   8    3.05    1.82
  -1   8  -8   -0.48    2.07
  -2   8  -8   -2.91    2.00
  -6  -7   8   -1.35    1.90
  -5  -7   8    2.72    1.82
  -5  -7   8   -1.26    1.45
  -4  -7   8   -0.33    1.46
  -4  -7   8    1.96    1.81
  -3  -7   8    5.79    1.83
  -3  -7   8    0.96    1.42
   2   7  -8   -1.47    2.54
  -2  -7   8    1.78    1.70
   1   7  -8   -0.11    2.16
  -1  -7   8   -2.19    1.53
   0   7  -8    3.03    1.97
   0  -7   8    2.23    1.58
  -1   7  -8    2.19    1.72
   1  -7   8    4.86    1.64
  -2   7  -8    0.28    1.55
  -3   7  -8    3.54    1.63
  -6  -6   8    0.12    1.72
  -6  -6   8    1.16    1.38
  -5  -6   8    2.34    1.62
  -5  -6   8    1.59    1.31
  -4  -6   8    3.57    1.27
  -4  -6   8    5.40    1.63
  -3  -6   8    0.58    1.20
  -3  -6   8    1.21    1.51
   2   6  -8   56.71    3.79
  -2  -6   8   60.74    3.17
  -2  -6   8   52.63    2.75
   1   6  -8    3.07    1.95
  -1  -6   8    3.24    1.53
  -1  -6   8    2.11    1.37
   0   6  -8   -0.04    1.57
   0  -6   8   -0.30    1.41
  -1   6  -8    5.43    1.55
   1  -6   8    5.43    1.56
  -2   6  -8    3.61    1.39
   2  -6   8    5.59    1.64
  -3   6  -8    0.19    1.37
  -4   6  -8   -0.76    1.47
  -5   6  -8   -1.15    1.62
  -7  -5   8    1.25    1.26
  -6  -5   8    2.00    1.13
  -5  -5   8    0.90    1.09
  -4  -5   8    3.36    1.11
   3   5  -8   18.23    3.11
  -3  -5   8   18.75    2.16
  -3  -5   8   17.44    1.74
   2   5  -8    1.71    1.96
  -2  -5   8    0.89    1.21
  -2  -5   8    0.31    0.98
   1   5  -8    1.86    1.66
  -1  -5   8   -0.40    1.10
  -1  -5   8    0.83    1.19
   0   5  -8    2.93    1.39
   0  -5   8    3.96    1.32
  -1   5  -8    8.04    1.38
   1  -5   8    8.74    1.50
  -2   5  -8    4.92    1.21
   2  -5   8    4.34    1.56
  -3   5  -8   13.64    1.86
  -4   5  -8   -0.46    1.30
  -5   5  -8    2.77    1.53
  -6   5  -8   -0.33    1.62
  -8  -4   8    9.37    1.98
  -7  -4   8    0.11    1.13
  -6  -4   8    5.80    1.15
  -5  -4   8    9.43    1.55
  -4  -4   8   90.55    3.44
  -3  -4   8    3.69    0.90
   2   4  -8   14.85    2.03
  -2  -4   8   12.99    1.45
  -2  -4   8   13.72    1.72
   1   4  -8    2.62    1.57
  -1  -4   8    3.50    0.99
   0   4  -8    9.90    1.81
   0  -4   8   10.88    1.34
  -1   4  -8   10.39    1.65
   1  -4   8   12.89    2.06
  -2   4  -8    1.63    1.00
   2  -4   8   -0.15    1.34
  -3   4  -8    2.58    1.11
  -4   4  -8    9.87    1.84
  -5   4  -8    2.76    1.38
  -6   4  -8    0.23    1.54
  -7   4  -8   -1.14    1.67
  -8  -3   8   -0.41    1.16
  -7  -3   8    1.50    1.06
  -6  -3   8    4.74    1.04
  -5  -3   8    5.86    0.96
  -4  -3   8    9.39    1.32
   3   3  -8   24.52    2.63
  -3  -3   8   25.10    1.47
   2   3  -8    0.66    1.66
  -2  -3   8    0.72    0.69
   1   3  -8    0.27    1.38
  -1  -3   8   -0.15    0.76
   0   3  -8   10.31    1.79
   0  -3   8    9.20    1.25
  -1   3  -8   18.87    1.71
   1  -3   8   20.70    2.04
  -2   3  -8    7.21    1.07
   2  -3   8    5.49    1.23
  -3   3  -8   12.33    1.56
  -4   3  -8   -0.10    1.02
  -5   3  -8    7.80    1.39
  -6   3  -8    3.38    1.45
  -7   3  -8   -2.01    1.56
  -9  -2   8    0.22    1.45
  -8  -2   8   -0.53    1.08
  -7  -2   8    8.58    1.18
  -6  -2   8    9.96    1.51
  -5  -2   8    5.45    0.86
  -4  -2   8   21.67    1.42
   3   2  -8    3.51    1.60
  -3  -2   8    4.39    0.66
   2   2  -8  254.12    8.39
  -2  -2   8  233.91    7.88
   1   2  -8    9.41    1.60
  -1  -2   8   10.24    1.28
   0   2  -8    1.17    1.23
   0  -2   8    0.03    1.02
  -1   2  -8   23.96    1.86
   1  -2   8   21.10    1.86
  -2   2  -8    8.10    1.48
  -3   2  -8    5.61    1.05
  -4   2  -8    2.50    1.07
  -5   2  -8    0.93    1.16
  -5   2  -8    1.55    1.75
  -6   2  -8    0.49    1.89
  -6   2  -8   -0.97    1.28
  -7   2  -8    4.96    1.71
  -7   2  -8    9.26    2.44
  -9  -1   8    8.83    1.43
  -8  -1   8    0.06    1.06
  -7  -1   8    3.13    1.00
  -6  -1   8    4.82    0.90
  -5  -1   8    5.83    0.81
  -4  -1   8   13.00    1.15
  -3  -1   8   52.15    2.01
   2   1  -8    1.66    1.39
  -2  -1   8    1.49    0.56
   1   1  -8    0.53    0.68
   1   1  -8   -0.13    1.21
  -1  -1   8    1.41    0.64
   0   1  -8   10.65    1.48
   0  -1   8   11.70    1.16
  -1   1  -8   33.63    2.23
   1  -1   8   28.82    1.95
  -2   1  -8    9.69    1.68
  -3   1  -8   17.07    1.71
  -4   1  -8    1.53    1.48
  -5   1  -8    9.22    1.91
  -6   1  -8    3.51    1.94
  -7   1  -8   -1.13    2.01
  -9   0   8    0.96    1.23
  -8   0   8   14.75    1.82
  -7   0   8    2.58    0.96
  -6   0   8   12.30    1.37
  -5   0   8   19.01    1.32
  -4   0   8  191.74    6.25
   3   0  -8   10.55    0.92
  -3   0   8   11.79    0.96
   2   0  -8   37.21    1.55
  -2   0   8   37.21    1.59
   1   0  -8    6.74    1.10
   1   0  -8    5.60    1.41
  -1   0   8    6.38    1.14
  -1   0   8    8.49    1.40
   0   0  -8    9.76    1.43
   0   0  -8   13.01    1.28
   0   0   8    8.98    0.96
   0   0   8   11.64    1.78
  -1   0  -8   17.19    2.16
   1   0   8   14.63    1.76
  -2   0  -8    6.15    1.28
   2   0   8    4.69    1.05
  -3   0  -8    4.59    1.41
  -4   0  -8   11.30    1.77
  -5   0  -8    6.03    1.89
  -6   0  -8    1.67    1.91
  -7   0  -8    0.20    2.09
  -9   1   8   10.29    1.43
  -8   1   8   -0.41    1.02
  -8   1   8    2.03    1.35
  -7   1   8    3.81    0.96
  -6   1   8    4.75    0.82
  -5   1   8    5.56    0.73
  -1   1   8    0.74    0.74
  -1   1   8    0.22    0.73
   0  -1  -8    9.55    1.46
   0   1   8    5.43    0.79
  -2  -1  -8    7.96    1.39
  -3  -1  -8   17.73    2.55
  -4  -1  -8   -0.12    1.53
  -5  -1  -8    5.50    1.95
  -6  -1  -8    1.37    2.06
  -7  -1  -8   -2.98    2.19
  -9   2   8    0.48    1.56
  -8   2   8   -0.84    1.00
  -8   2   8    0.68    1.33
  -7   2   8   10.55    1.53
  -7   2   8    9.20    1.45
   0   2   8    0.70    0.74
  -2  -2  -8    7.01    1.50
  -3  -2  -8    4.86    1.59
  -4  -2  -8    2.10    1.73
  -5  -2  -8   -2.14    1.87
  -6  -2  -8   -2.04    2.10
  -7  -2  -8    1.09    2.58
  -9   3   8   13.93    2.58
  -8   3   8    0.71    1.47
  -7   3   8    2.43    1.32
  -6   3   8    5.83    1.27
  -2  -3  -8    8.24    1.66
  -3  -3  -8   16.39    3.02
  -4  -3  -8   -0.14    1.91
  -5  -3  -8    6.21    2.34
  -6  -3  -8   -0.42    2.45
  -7  -3  -8    0.22    1.55
  -8   4   8   11.43    1.85
  -7   4   8    1.58    1.34
  -6   4   8    7.19    1.34
  -5   4   8    8.11    1.25
  -4   4   8   88.82    3.51
  -2  -4  -8    2.10    1.87
  -3  -4  -8    4.19    2.15
  -4  -4  -8   10.34    2.45
  -5  -4  -8    2.26    2.51
  -6  -4  -8    1.38    1.45
  -6  -4  -8   -2.06    2.69
  -7   5   8    3.67    1.49
  -6   5   8    3.25    1.30
  -5   5   8    2.14    1.16
  -4   5   8    3.63    1.10
  -3   5   8   18.85    1.66
  -2   5   8    0.92    0.97
  -1   5   8    1.18    0.96
  -2  -5  -8    6.04    2.23
  -3  -5  -8   20.01    1.86
  -3  -5  -8   14.54    2.79
  -4  -5  -8    1.04    1.27
  -4  -5  -8   -3.26    2.65
  -5  -5  -8    4.33    1.49
  -5  -5  -8   -2.19    2.94
  -6  -5  -8    0.72    1.60
  -6   6   8    3.73    1.48
  -5   6   8    2.45    1.31
  -4   6   8    5.65    1.38
  -3   6   8    0.60    1.18
  -2   6   8   62.17    2.90
  -1   6   8    3.51    1.21
  -1  -6  -8    4.26    2.25
  -2  -6  -8    0.39    2.40
  -3  -6  -8   -2.64    2.64
  -4  -6  -8   -0.29    1.29
  -5  -6  -8   -0.06    1.52
  -6  -6  -8   -0.48    1.93
  -5   7   8    2.18    1.50
  -4   7   8    1.35    1.37
  -3   7   8    3.96    1.47
  -2   7   8   -0.70    1.30
  -1   7   8    1.42    1.33
   0  -7  -8    3.27    2.14
  -1  -7  -8    0.07    2.34
  -2  -7  -8   -4.13    2.75
  -3  -7  -8   -3.03    2.97
  -4   8   8   14.03    2.18
  -3   8   8   -0.42    1.61
  -2   8   8   -0.13    1.60
   0  -8  -8    6.18    2.53
  -1  -8  -8    1.12    2.68
  -2   9   8   -3.04    1.91
   1  -9  -8    3.04    2.86
   0  -9  -8   -3.89    3.18
  -4  -8   9    7.80    1.96
   2   8  -9   -2.02    3.07
  -2  -8   9    5.85    2.05
   1   8  -9   -0.09    2.73
  -1  -8   9   -1.32    1.87
   0   8  -9    0.20    2.41
   0  -8   9    5.55    1.91
  -1   8  -9   -2.39    2.15
   1  -8   9    5.45    2.15
  -6  -7   9   -2.09    1.95
  -5  -7   9    1.79    1.65
  -5  -7   9    5.20    1.94
  -4  -7   9    0.95    1.80
  -4  -7   9   -2.99    1.48
  -3  -7   9   -3.03    1.45
  -3  -7   9    3.56    1.75
   2   7  -9   -1.04    2.60
  -2  -7   9   -1.57    1.53
  -2  -7   9    4.93    1.82
   1   7  -9    0.82    2.31
  -1  -7   9   -0.21    1.61
   0   7  -9    1.80    1.99
   0  -7   9    2.97    1.67
  -1   7  -9    6.07    1.94
  -2   7  -9   -0.24    1.67
   2  -7   9    5.29    1.76
  -3   7  -9   -0.71    1.63
  -6  -6   9   15.81    2.39
  -5  -6   9   -1.45    1.30
  -4  -6   9    3.55    1.60
  -4  -6   9    1.65    1.33
   3   6  -9    0.30    2.58
  -3  -6   9    0.99    1.29
  -3  -6   9    2.35    1.55
   2   6  -9    6.14    2.39
  -2  -6   9    5.03    1.37
  -2  -6   9    8.78    1.64
   1   6  -9    7.76    2.18
  -1  -6   9    7.38    1.55
   0   6  -9   -1.26    1.69
   0  -6   9    0.36    1.50
  -1   6  -9    1.10    1.59
   1  -6   9    3.03    1.57
  -2   6  -9    7.15    1.62
   2  -6   9    9.88    1.78
  -3   6  -9    1.59    1.44
  -4   6  -9   -0.03    1.50
  -7  -5   9    0.41    1.27
  -6  -5   9    0.94    1.24
  -5  -5   9    3.05    1.21
  -4  -5   9    0.26    1.06
   3   5  -9    1.93    2.39
  -3  -5   9    1.84    1.34
  -3  -5   9    1.36    1.10
   2   5  -9    6.99    2.19
  -2  -5   9    5.42    1.15
   1   5  -9    8.21    1.94
  -1  -5   9    6.15    1.29
   0   5  -9    3.46    1.56
   0  -5   9    3.40    1.38
  -1   5  -9   10.92    2.01
   1  -5   9   15.87    2.35
  -2   5  -9   -0.02    1.25
   2  -5   9    1.56    1.61
  -3   5  -9    7.42    1.43
  -4   5  -9    3.78    1.39
  -5   5  -9   -0.16    1.49
  -7  -4   9    1.37    1.22
  -6  -4   9    2.61    1.12
  -5  -4   9    1.18    1.01
   4   4  -9   82.84    4.16
  -4  -4   9   84.82    3.30
   3   4  -9    5.85    2.18
  -3  -4   9    7.37    1.03
   2   4  -9    1.09    1.89
  -2  -4   9    0.78    0.87
   1   4  -9    8.78    1.75
  -1  -4   9    7.37    1.12
   0   4  -9    5.74    1.44
   0  -4   9    5.97    1.31
  -1   4  -9    3.71    1.23
   1  -4   9    4.54    1.44
  -2   4  -9    3.27    1.20
   2  -4   9    3.46    1.48
  -3   4  -9    0.55    1.14
  -4   4  -9   -0.40    1.19
  -5   4  -9    9.06    1.53
  -6   4  -9    0.71    1.53
  -7   4  -9   -2.47    1.70
  -8  -3   9    0.32    1.23
  -7  -3   9    1.39    1.09
  -6  -3   9    2.90    1.06
  -5  -3   9   18.14    1.65
  -4  -3   9    0.96    0.81
   3   3  -9   -0.14    1.78
  -3  -3   9    1.31    0.76
   2   3  -9    7.21    1.90
  -2  -3   9    8.75    1.27
   1   3  -9   19.24    2.41
  -1  -3   9   19.89    1.66
   0   3  -9    7.90    1.49
   0  -3   9    7.24    1.25
  -1   3  -9   14.59    1.85
   1  -3   9   14.99    2.05
  -2   3  -9   -0.11    1.08
   2  -3   9    0.17    1.22
  -3   3  -9   10.04    1.37
  -4   3  -9    4.85    1.29
  -5   3  -9   -0.47    1.24
  -6   3  -9    6.27    2.24
  -7   3  -9   -3.28    1.70
  -8  -2   9    3.53    1.19
  -7  -2   9    4.76    1.11
  -6  -2   9   62.24    2.72
  -5  -2   9    4.50    0.90
  -4  -2   9   13.74    1.30
   3   2  -9    1.23    1.70
  -3  -2   9    2.31    0.69
   2   2  -9   13.09    1.78
  -2  -2   9   12.14    1.24
   1   2  -9   30.21    2.64
  -1  -2   9   30.86    1.76
   0   2  -9    6.98    1.44
   0  -2   9    8.65    1.26
  -1   2  -9    4.57    1.34
   1  -2   9    3.45    1.05
  -2   2  -9    9.13    1.32
  -3   2  -9    6.42    1.22
  -4   2  -9    3.48    1.26
  -5   2  -9    3.69    1.42
  -5   2  -9    6.39    2.00
  -6   2  -9    9.95    2.29
  -9  -1   9   -0.33    1.17
  -8  -1   9    1.13    1.09
  -7  -1   9    2.43    1.00
  -6  -1   9    4.67    0.96
  -5  -1   9   16.55    1.42
  -4  -1   9    1.49    0.64
  -3  -1   9    1.76    0.64
   2   1  -9   12.63    1.81
  -2  -1   9   17.32    1.27
   1   1  -9   29.26    2.49
  -1  -1   9   31.49    1.75
   0   1  -9    9.89    1.63
   0  -1   9    9.18    1.17
  -1   1  -9   10.86    2.03
   1  -1   9    9.34    1.14
  -2   1  -9    1.24    1.20
  -3   1  -9   15.33    1.99
  -3   1  -9   17.77    2.51
  -4   1  -9    8.72    1.43
  -4   1  -9   10.53    1.82
  -5   1  -9    0.09    1.69
  -6   1  -9    2.83    1.97
  -7   1  -9   -0.37    2.09
  -9   0   9    1.83    1.20
  -8   0   9    3.47    1.11
  -7   0   9    2.49    0.97
  -6   0   9    8.27    1.39
  -5   0   9    2.65    0.75
  -4   0   9  171.10    5.64
  -3   0   9   15.94    1.19
   2   0  -9    0.26    0.57
  -2   0   9    0.92    0.67
   1   0  -9    9.83    1.28
   1   0  -9   12.57    2.16
  -1   0   9   12.57    1.58
   0   0  -9    4.78    1.46
   0   0   9    6.06    0.92
  -1   0  -9    6.93    1.50
  -2   0  -9   21.01    2.28
  -3   0  -9   -0.15    1.32
  -4   0  -9    0.22    1.49
  -5   0  -9   21.69    3.20
  -6   0  -9    4.66    2.05
  -7   0  -9   -0.77    2.12
  -9   1   9    2.55    1.54
  -9   1   9   -0.39    1.16
  -8   1   9    0.65    1.03
  -7   1   9    3.15    0.95
  -5   1   9   15.88    1.28
   1  -1  -9   27.49    1.62
  -1   1   9   27.46    1.71
   0  -1  -9   15.78    1.69
  -2  -1  -9    0.40    1.25
  -3  -1  -9   14.30    2.61
  -4  -1  -9    7.55    1.88
  -5  -1  -9   -1.27    1.83
  -6  -1  -9   -0.20    2.02
  -7  -1  -9   -2.78    2.16
  -9   2   9    0.79    1.57
  -8   2   9    1.26    1.15
  -8   2   9    4.75    1.50
  -7   2   9    5.07    0.98
  -2  -2  -9    8.13    1.61
  -3  -2  -9    4.97    1.68
  -4  -2  -9    1.04    1.80
  -5  -2  -9    3.29    2.07
  -6  -2  -9    2.90    2.24
  -8   3   9    1.96    1.51
  -7   3   9    1.29    1.29
  -2  -3  -9    0.18    1.57
  -3  -3  -9    9.76    2.02
  -4  -3  -9    4.10    2.11
  -5  -3  -9   -2.15    2.17
  -6  -3  -9   -2.29    2.47
  -8   4   9    3.26    1.62
  -7   4   9    1.67    1.35
  -6   4   9    4.89    1.29
  -5   4   9    0.87    1.08
  -3  -4  -9   -0.51    2.15
  -4  -4  -9   -0.46    2.28
  -5  -4  -9    8.63    2.76
  -6  -4  -9    2.39    1.57
  -6  -4  -9    0.00    2.83
  -7   5   9    2.57    1.47
  -6   5   9    2.79    1.30
  -5   5   9    4.16    1.24
  -4   5   9    0.51    1.08
  -3   5   9    2.44    1.12
  -2  -5  -9   -0.26    2.31
  -3  -5  -9   11.98    1.83
  -3  -5  -9    5.24    2.74
  -4  -5  -9    0.56    2.87
  -4  -5  -9    4.32    1.39
  -5  -5  -9   -3.26    3.05
  -5  -5  -9    1.23    1.58
  -6  -5  -9    3.03    1.74
  -6   6   9   22.59    2.36
  -5   6   9    0.19    1.27
  -4   6   9    3.64    1.35
  -3   6   9    1.75    1.25
  -2   6   9   10.22    1.79
  -1   6   9    9.46    1.71
  -2  -6  -9    4.45    2.65
  -3  -6  -9   -3.10    2.82
  -4  -6  -9   -5.50    3.17
  -4  -6  -9    3.03    1.43
  -5  -6  -9    1.49    1.63
  -5   7   9    6.45    1.65
  -4   7   9   -0.13    1.40
  -3   7   9    0.58    1.39
  -2   7   9    2.04    1.38
  -3  -7  -9   -4.39    3.14
  -3   8   9    0.38    1.63
  -2   8   9   -1.28    1.61
  -1  -8  -9   -2.83    2.75
   2   8 -10   -3.15    3.16
   1   8 -10   -1.93    2.87
  -1  -8  10   -2.01    1.91
   0   8 -10    2.18    2.59
   0  -8  10    6.12    1.98
   1  -8  10    9.16    2.03
  -5  -7  10   -2.47    1.62
  -5  -7  10    2.76    1.88
  -4  -7  10    4.83    1.83
  -4  -7  10   -1.80    1.57
  -3  -7  10   -2.52    1.50
  -3  -7  10    4.76    1.82
   2   7 -10    0.16    2.80
  -2  -7  10   -2.57    1.66
   1   7 -10    5.67    2.61
  -1  -7  10    5.11    1.76
   0   7 -10   -1.99    2.09
   0  -7  10    2.05    1.74
  -1   7 -10    2.43    1.93
   1  -7  10    7.22    1.83
  -2   7 -10    0.59    1.81
   2  -7  10    6.14    1.85
  -6  -6  10   16.17    2.44
  -5  -6  10    2.47    1.68
  -5  -6  10   -0.37    1.42
  -4  -6  10   -1.15    1.32
  -4  -6  10    1.34    1.63
   3   6 -10    4.59    2.72
  -3  -6  10    2.62    1.35
  -3  -6  10    4.95    1.54
   2   6 -10    3.66    2.50
  -2  -6  10    5.71    1.56
  -2  -6  10    1.49    1.42
   1   6 -10    1.35    2.23
  -1  -6  10    0.41    1.48
   0   6 -10   -0.09    1.86
   0  -6  10    0.83    1.56
  -1   6 -10    0.12    1.63
   1  -6  10    1.65    1.66
  -2   6 -10   -0.14    1.55
   2  -6  10    3.08    1.73
  -3   6 -10    4.21    1.66
  -4   6 -10    1.47    1.65
  -7  -5  10    2.62    1.64
  -6  -5  10   -1.98    1.26
  -5  -5  10   -0.15    1.22
  -4  -5  10    1.76    1.22
   3   5 -10    5.77    2.56
  -3  -5  10    4.90    1.21
   2   5 -10    6.32    2.28
  -2  -5  10    5.87    1.38
  -2  -5  10    4.92    1.24
   1   5 -10    9.85    2.07
  -1  -5  10    9.62    1.43
   0   5 -10    0.45    1.64
   0  -5  10    0.52    1.42
  -1   5 -10    6.68    1.58
   1  -5  10    8.29    1.69
  -2   5 -10    2.23    1.45
   2  -5  10    4.00    1.70
  -3   5 -10    0.04    1.39
  -4   5 -10    2.30    1.53
  -5   5 -10    0.16    1.58
  -7  -4  10   -0.12    1.23
  -6  -4  10    1.84    1.16
  -5  -4  10    0.73    1.09
   4   4 -10   11.19    2.32
  -4  -4  10   10.40    1.70
   3   4 -10   17.67    3.09
  -3  -4  10   19.99    1.77
   2   4 -10    1.27    2.02
  -2  -4  10    0.79    1.00
   1   4 -10    2.54    1.76
  -1  -4  10    1.97    1.12
   0   4 -10    8.19    1.71
   0  -4  10    9.34    1.49
  -1   4 -10    3.33    1.41
   1  -4  10    3.43    1.41
  -2   4 -10    3.65    1.32
   2  -4  10    4.67    1.57
  -3   4 -10    3.74    1.37
  -4   4 -10   11.29    1.72
  -5   4 -10    1.39    1.50
  -6   4 -10    0.99    1.65
  -8  -3  10    0.55    1.25
  -7  -3  10    0.90    1.18
  -6  -3  10    0.18    1.04
  -5  -3  10    2.94    1.01
  -4  -3  10    9.95    1.48
   3   3 -10   10.54    2.07
  -3  -3  10   11.19    1.48
   2   3 -10    5.82    1.93
  -2  -3  10    5.83    0.96
   1   3 -10   13.93    2.50
  -1  -3  10   14.45    1.71
   0   3 -10    1.03    1.45
   0  -3  10    0.49    1.20
  -1   3 -10   14.40    2.07
   1  -3  10   14.94    2.12
  -2   3 -10    6.31    1.37
   2  -3  10    5.15    1.45
  -3   3 -10    0.34    1.23
  -4   3 -10    4.81    1.41
  -5   3 -10    1.98    1.50
  -6   3 -10   -0.89    1.64
  -6   3 -10    3.78    2.26
  -8  -2  10   -0.72    1.18
  -7  -2  10    0.11    1.08
  -6  -2  10   63.56    2.79
  -5  -2  10    8.10    1.03
  -4  -2  10    2.81    0.79
   3   2 -10    7.67    1.94
  -3  -2  10    8.82    1.34
   2   2 -10    4.99    1.72
  -2  -2  10    8.96    1.37
   1   2 -10    5.59    1.69
  -1  -2  10    5.19    0.97
   0   2 -10   19.64    2.41
   0  -2  10   22.48    2.17
  -1   2 -10   -0.37    1.32
   1  -2  10   -0.05    1.04
  -2   2 -10    0.45    1.25
  -3   2 -10   30.00    2.34
  -4   2 -10   10.50    1.59
  -5   2 -10    3.24    1.52
  -6   2 -10   13.58    2.45
  -9  -1  10   -0.97    1.24
  -8  -1  10    0.83    1.16
  -7  -1  10    4.12    1.07
  -6  -1  10    1.39    0.93
  -5  -1  10    1.66    0.82
  -4  -1  10   11.83    1.30
  -3  -1  10   19.04    1.42
   2   1 -10    8.23    1.71
  -2  -1  10   10.09    1.40
   1   1 -10   11.73    1.71
  -1  -1  10   12.07    1.23
   0   1 -10   -0.43    1.49
   0  -1  10   -0.55    0.93
  -1   1 -10   17.61    2.33
   1  -1  10   20.74    1.95
  -2   1 -10    6.69    1.43
  -3   1 -10    2.90    1.45
  -3   1 -10    1.39    1.34
  -4   1 -10    8.40    1.82
  -5   1 -10    3.99    1.93
  -6   1 -10    0.98    1.94
  -9   0  10   -1.38    1.19
  -8   0  10   23.02    2.00
  -7   0  10    1.51    0.98
  -6   0  10    3.29    0.92
  -5   0  10    1.93    0.79
  -4   0  10   17.98    1.39
  -3   0  10   42.83    1.90
  -2   0  10    5.96    0.82
   1   0 -10    5.56    1.64
  -1   0  10    5.72    1.04
   0   0 -10    4.31    1.50
   0   0  10    5.62    0.99
  -1   0 -10    4.84    1.50
  -2   0 -10    6.75    1.41
  -3   0 -10    8.08    1.59
  -4   0 -10   22.30    2.99
  -5   0 -10    3.82    1.85
  -6   0 -10    4.52    2.12
  -9   1  10   -1.32    1.22
  -9   1  10    2.65    1.62
  -8   1  10   -0.64    1.06
  -7   1  10    4.57    1.02
   1  -1 -10    8.69    1.04
  -1   1  10   10.39    1.09
   0   1  10   -0.34    0.81
  -3  -1 -10    1.19    1.51
  -4  -1 -10    6.09    1.92
  -5  -1 -10    2.20    1.95
  -6  -1 -10   -0.87    2.06
  -9   2  10    1.44    1.62
  -8   2  10    1.93    1.51
  -3  -2 -10   25.99    3.13
  -4  -2 -10    8.65    2.06
  -5  -2 -10    2.00    2.11
  -6  -2 -10    6.94    2.45
  -8   3  10    0.93    1.51
  -7   3  10    2.61    1.38
  -3  -3 -10   -0.36    1.90
  -4  -3 -10    2.27    2.14
  -5  -3 -10   -0.31    2.31
  -7   4  10    1.05    1.35
  -6   4  10    2.62    1.27
  -2  -4 -10    3.77    2.20
  -3  -4 -10    3.05    2.34
  -4  -4 -10    7.11    2.57
  -5  -4 -10   -0.41    2.62
  -6  -4 -10   -2.50    3.35
  -7   5  10    5.59    1.81
  -6   5  10    1.06    1.27
  -5   5  10    0.86    1.19
  -4   5  10    3.01    1.21
  -2  -5 -10    2.33    2.54
  -3  -5 -10   -3.10    2.66
  -4  -5 -10    6.05    1.51
  -4  -5 -10   -0.48    2.98
  -5  -5 -10    1.72    1.62
  -6   6  10   20.63    2.32
  -5   6  10    2.17    1.35
  -4   6  10    1.57    1.26
  -3   6  10    4.57    1.33
  -2   6  10    4.50    1.33
  -2  -6 -10   -3.58    2.66
  -3  -6 -10    0.91    3.10
  -4  -6 -10   -4.92    3.34
  -5  -6 -10    2.33    1.76
  -4   7  10    2.68    1.54
  -3   7  10    2.72    1.52
  -2   7  10    1.95    1.50
  -1  -7 -10   -2.62    2.59
  -3   8  10    1.68    1.73
  -2   8  10   -1.33    1.68
  -3  -8  11    6.93    2.11
   2   8 -11   -0.06    3.50
   1   8 -11   -2.93    3.06
  -1  -8  11   -1.11    1.91
   0   8 -11   -2.63    2.94
   0  -8  11    3.69    2.00
   1  -8  11   10.19    2.11
  -5  -7  11    4.20    2.00
  -4  -7  11   -3.24    1.62
  -4  -7  11    5.56    1.84
   2   7 -11    1.39    3.04
   1   7 -11   -0.08    2.61
  -1  -7  11    2.10    1.80
   0   7 -11    0.52    2.32
   0  -7  11    2.47    1.82
  -1   7 -11   -2.64    1.99
   1  -7  11    4.64    1.88
   2  -7  11   18.23    3.05
  -5  -6  11    4.10    1.59
  -4  -6  11    2.05    1.58
  -4  -6  11   -2.09    1.39
   3   6 -11    3.07    2.86
  -3  -6  11   -0.97    1.41
  -3  -6  11    2.92    1.56
   2   6 -11    7.33    2.69
  -2  -6  11    4.78    1.56
   1   6 -11    0.15    2.25
  -1  -6  11   -0.46    1.57
   0   6 -11   -0.07    2.04
   0  -6  11    1.98    1.65
  -1   6 -11    3.28    1.86
   1  -6  11    7.05    1.78
  -2   6 -11    4.89    1.77
  -3   6 -11    0.88    1.71
  -6  -5  11    0.63    1.39
  -5  -5  11    0.99    1.32
   4   5 -11    6.47    2.48
   3   5 -11   14.21    2.82
  -3  -5  11   12.91    1.93
   2   5 -11   -1.56    2.28
  -2  -5  11    0.01    1.30
   1   5 -11    7.06    2.10
  -1  -5  11    6.48    1.49
   0   5 -11    4.25    1.93
   0  -5  11    4.57    1.59
  -1   5 -11    0.84    1.60
   1  -5  11    1.99    1.58
  -2   5 -11    4.76    1.64
   2  -5  11    7.45    1.78
  -3   5 -11    3.08    1.60
  -4   5 -11   -0.64    1.60
  -5   5 -11   -2.10    1.71
  -7  -4  11   -0.89    1.30
  -6  -4  11    0.29    1.27
  -5  -4  11    3.96    1.22
   4   4 -11    7.36    2.41
  -4  -4  11    4.77    1.15
   3   4 -11    3.61    2.26
  -3  -4  11    4.33    1.11
   2   4 -11    4.33    2.17
  -2  -4  11    4.28    1.22
   1   4 -11    4.00    1.94
  -1  -4  11    2.41    1.26
   0   4 -11    0.54    1.67
   0  -4  11    0.89    1.40
  -1   4 -11   14.95    2.35
   1  -4  11   19.93    2.48
  -2   4 -11   10.87    1.71
   2  -4  11   14.05    1.89
  -3   4 -11    5.73    1.58
  -4   4 -11   18.00    2.42
  -5   4 -11   -1.75    1.64
  -6   4 -11   -1.76    1.83
  -8  -3  11   -1.23    1.26
  -7  -3  11   -0.03    1.20
  -6  -3  11    2.65    1.16
  -5  -3  11    4.99    1.13
  -4  -3  11    6.71    1.07
   3   3 -11   14.47    2.23
  -3  -3  11   14.19    1.61
   2   3 -11   -0.02    1.89
  -2  -3  11    0.06    0.98
   1   3 -11   14.93    2.62
  -1  -3  11   11.70    1.87
   0   3 -11    2.12    1.57
   0  -3  11    3.02    1.33
  -1   3 -11    2.23    1.54
   1  -3  11    2.13    1.32
  -2   3 -11    9.96    1.65
   2  -3  11   10.65    1.66
  -3   3 -11    6.87    1.55
  -4   3 -11    2.84    1.50
  -5   3 -11    1.52    1.62
  -6   3 -11    3.84    2.72
  -6   3 -11   -1.19    1.75
  -8  -2  11   -0.78    1.25
  -7  -2  11    0.03    1.15
  -6  -2  11   11.25    1.75
  -5  -2  11   25.61    1.88
  -4  -2  11    1.77    0.87
   3   2 -11    3.73    1.94
  -3  -2  11    4.08    0.89
   2   2 -11    7.20    1.86
  -2  -2  11    7.79    1.00
   1   2 -11    1.61    1.64
  -1  -2  11    1.66    1.18
   0   2 -11    5.52    1.69
   0  -2  11    5.49    1.26
  -1   2 -11   11.25    1.67
   1  -2  11    9.86    1.38
  -2   2 -11   33.87    2.62
  -3   2 -11   10.20    1.68
  -4   2 -11   13.30    1.83
  -5   2 -11    1.02    1.87
  -5   2 -11   -0.93    1.67
  -6   2 -11    8.37    2.34
  -9  -1  11   -1.17    1.27
  -8  -1  11   -1.19    1.23
  -7  -1  11    1.13    1.08
  -6  -1  11    4.72    1.07
  -5  -1  11    6.71    1.01
  -4  -1  11    8.77    1.42
  -3  -1  11   18.55    1.49
   2   1 -11   -0.98    1.63
  -2  -1  11    0.63    0.81
   1   1 -11   18.39    2.49
  -1  -1  11   17.66    1.92
   0   1 -11    3.45    1.58
   0  -1  11    2.81    1.07
  -1   1 -11    4.15    1.60
   1  -1  11    3.55    1.14
  -2   1 -11   14.03    2.40
  -3   1 -11   15.09    2.67
  -3   1 -11   12.39    1.71
  -4   1 -11    3.94    1.78
  -5   1 -11    2.75    1.91
  -6   1 -11    0.25    2.05
  -9   0  11   -2.41    1.24
  -8   0  11   22.98    2.11
  -7   0  11    1.72    1.08
  -6   0  11    1.02    0.97
  -5   0  11    6.61    0.96
  -4   0  11    8.38    1.35
  -3   0  11    6.02    0.86
  -2   0  11   20.11    1.64
   1   0 -11    3.08    1.64
  -1   0  11    4.59    1.09
   0   0 -11    1.06    1.50
   0   0  11    0.81    0.94
  -1   0 -11   27.98    2.57
  -2   0 -11   24.12    2.64
  -3   0 -11   12.52    2.62
  -4   0 -11   46.23    3.54
  -5   0 -11   -0.66    1.84
  -6   0 -11    0.92    2.06
  -9   1  11    2.64    1.68
  -8   1  11   -2.47    1.16
  -7   1  11    1.51    1.08
  -6   1  11    4.63    1.01
  -1   1  11   18.46    1.70
  -1  -1 -11    3.19    1.57
  -3  -1 -11   11.50    1.90
  -4  -1 -11    2.41    1.84
  -5  -1 -11   -0.09    1.96
  -6  -1 -11   -2.39    2.08
  -9   2  11    1.54    1.74
  -3  -2 -11    6.54    1.90
  -4  -2 -11    9.39    2.14
  -5  -2 -11   -2.72    2.04
  -6  -2 -11    1.81    2.34
  -8   3  11    1.20    1.50
  -3  -3 -11    5.01    2.11
  -4  -3 -11   -1.19    2.13
  -5  -3 -11   -3.13    2.34
  -7   4  11    1.69    1.44
  -3  -4 -11    3.79    2.46
  -4  -4 -11   14.09    2.80
  -6   5  11    1.12    1.32
  -5   5  11    2.37    1.28
  -3  -5 -11   -0.33    2.86
  -4  -5 -11   -4.96    2.96
  -5  -5 -11    2.71    1.72
  -5   6  11    5.67    1.48
  -4   6  11   -0.08    1.28
  -3   6  11    1.54    1.36
  -2   6  11    8.96    1.50
  -2  -6 -11    0.56    2.87
  -3  -6 -11   -4.77    3.17
  -4  -6 -11    5.09    2.12
  -4   7  11    3.02    1.59
  -3   7  11    7.01    1.66
  -2   7  11    0.71    1.50
  -3   8  11   -0.04    1.72
  -2   8  11   -0.51    1.73
   3   8 -12    4.67    4.12
   2   8 -12    0.90    3.52
   1   8 -12    0.87    3.26
  -1  -8  12    1.17    2.07
   0  -8  12    6.54    2.08
  -4  -7  12    4.81    1.91
   3   7 -12    6.84    3.37
   2   7 -12    3.87    3.18
  -2  -7  12   -2.56    1.81
   1   7 -12   -2.33    2.71
  -1  -7  12   -1.18    1.80
   0   7 -12    1.71    2.45
   0  -7  12    6.42    1.96
  -1   7 -12   -0.71    2.20
   1  -7  12    6.66    1.97
   2  -7  12    7.53    2.05
  -5  -6  12   -0.82    1.58
   4   6 -12    5.93    2.81
   3   6 -12    2.31    2.95
  -3  -6  12   -1.09    1.50
   2   6 -12    0.68    2.68
  -2  -6  12   -1.15    1.58
   1   6 -12    6.61    2.42
  -1  -6  12    4.37    1.72
   0   6 -12    4.31    2.25
   0  -6  12    5.78    1.78
  -1   6 -12    3.01    1.98
   1  -6  12    7.43    1.86
  -2   6 -12   11.45    2.08
  -3   6 -12   -1.24    1.78
  -6  -5  12    0.91    1.47
  -5  -5  12    5.46    1.48
   4   5 -12    3.99    2.50
  -4  -5  12   -1.15    1.29
   3   5 -12    9.82    2.79
  -3  -5  12    5.23    1.42
   2   5 -12    3.31    2.48
  -2  -5  12    2.01    1.45
   1   5 -12    0.24    2.18
  -1  -5  12   -0.66    1.51
   0   5 -12    6.86    2.06
   0  -5  12    7.07    1.67
  -1   5 -12    2.68    1.84
   1  -5  12    7.07    1.80
  -2   5 -12   -0.39    1.68
   2  -5  12    3.56    1.84
  -3   5 -12    1.19    1.69
  -4   5 -12   -1.97    1.69
  -7  -4  12    4.61    1.53
  -6  -4  12   -1.87    1.25
  -5  -4  12    1.11    1.23
   4   4 -12   12.80    2.62
  -4  -4  12    8.13    1.35
   3   4 -12    0.50    2.30
  -3  -4  12   -0.22    1.15
   2   4 -12    2.75    2.33
  -2  -4  12    3.09    1.29
   1   4 -12   12.90    2.25
  -1  -4  12   11.77    1.62
   0   4 -12   20.35    2.72
   0  -4  12   21.29    2.56
  -1   4 -12    9.77    1.89
   1  -4  12   11.23    1.73
  -2   4 -12   15.10    2.48
   2  -4  12   20.78    2.88
  -3   4 -12    1.07    1.65
  -4   4 -12    7.42    1.91
  -5   4 -12   -0.44    1.73
  -8  -3  12   -0.71    1.58
  -7  -3  12   -0.72    1.27
  -6  -3  12    2.01    1.25
  -5  -3  12   16.87    1.96
  -4  -3  12    0.15    1.04
   3   3 -12    9.42    2.22
  -3  -3  12    8.43    1.14
   2   3 -12    3.19    2.02
  -2  -3  12    5.59    1.15
   1   3 -12    1.76    1.90
  -1  -3  12    1.80    1.29
   0   3 -12   12.79    2.01
   0  -3  12   11.96    1.58
  -1   3 -12   12.60    1.88
   1  -3  12   14.61    2.38
  -2   3 -12    2.02    1.65
  -3   3 -12    4.10    1.71
  -4   3 -12    0.05    1.69
  -5   3 -12   -1.07    1.79
  -6   3 -12   -0.44    1.99
  -8  -2  12   -1.91    1.27
  -7  -2  12    1.09    1.26
  -6  -2  12    6.64    1.29
  -5  -2  12    6.01    1.17
  -4  -2  12    2.99    1.00
   3   2 -12    5.15    2.11
  -3  -2  12    5.36    0.99
   2   2 -12    1.29    1.83
  -2  -2  12    0.63    0.99
   1   2 -12   14.16    2.63
  -1  -2  12   14.66    2.08
   0   2 -12   25.81    2.78
   0  -2  12   23.66    2.30
  -1   2 -12   14.87    2.57
   1  -2  12   14.42    2.29
  -2   2 -12   69.74    3.56
  -3   2 -12   -0.82    1.59
  -4   2 -12    4.34    1.81
  -4   2 -12    7.44    2.04
  -5   2 -12    7.88    2.19
  -5   2 -12    6.71    2.04
  -6   2 -12    0.63    2.29
  -9  -1  12   -2.08    1.38
  -8  -1  12   -0.39    1.29
  -7  -1  12    2.08    1.23
  -6  -1  12    5.41    1.16
  -5  -1  12   19.75    1.78
  -4  -1  12    1.00    0.89
  -3  -1  12   14.86    1.62
   2   1 -12    5.90    1.89
  -2  -1  12    5.33    1.01
   1   1 -12    4.06    1.69
  -1  -1  12    3.52    1.18
   0   1 -12   16.51    2.51
   0  -1  12   15.48    1.98
  -1   1 -12   20.68    2.73
   1  -1  12   20.38    2.17
  -2   1 -12    6.75    1.76
  -3   1 -12    8.25    1.79
  -3   1 -12    6.60    1.78
  -4   1 -12    1.19    1.73
  -5   1 -12    0.48    1.90
  -6   1 -12    2.10    2.18
  -9   0  12   -3.01    1.36
  -8   0  12    2.44    1.33
  -7   0  12   10.76    1.36
  -6   0  12   -0.28    1.03
  -5   0  12    2.62    0.96
  -4   0  12   13.04    1.54
  -3   0  12    0.73    0.90
  -2   0  12    7.39    1.18
  -1   0  12   20.71    1.99
   0   0 -12   48.39    3.15
   0   0  12   47.93    2.58
  -1   0 -12   18.74    2.61
  -2   0 -12   41.85    3.12
  -3   0 -12   -0.26    1.53
  -4   0 -12   16.86    3.06
  -5   0 -12    1.24    1.96
  -6   0 -12   -1.85    2.10
  -8   1  12   -1.09    1.28
  -5   1  12   16.40    1.65
  -3   1  12   14.58    1.59
  -2   1  12    4.70    1.02
  -1   1  12    2.77    0.98
  -1  -1 -12   17.83    2.68
  -3  -1 -12    4.66    1.80
  -4  -1 -12   -1.51    1.76
  -5  -1 -12   -1.47    1.98
  -6  -1 -12   -0.71    2.15
  -4  -2 -12    0.15    1.97
  -5  -2 -12    1.69    2.21
  -8   3  12    2.78    1.67
  -3  -3 -12    0.28    2.10
  -4  -3 -12   -2.50    2.17
  -7   4  12    7.26    1.64
  -4  -4 -12    4.00    2.66
  -5  -4 -12   -4.44    2.69
  -6   5  12    3.41    1.43
  -5   5  12    9.76    1.61
  -5   6  12    3.03    1.45
  -4   6  12   -0.63    1.35
  -3   6  12    1.70    1.42
  -2   6  12    2.00    1.39
  -4   7  12    0.52    1.60
  -3   7  12    2.79    1.63
  -2   7  12    1.63    1.61
  -3   8  12    0.35    1.91
  -2   8  12   -0.51    1.81
   3   7 -13    5.97    3.58
   2   7 -13    5.38    3.21
  -2  -7  13   -0.78    1.91
   1   7 -13    2.97    2.85
  -1  -7  13    2.12    1.86
   0   7 -13   -0.65    2.57
   0  -7  13    3.42    1.93
   1  -7  13    7.16    2.00
   2  -7  13    8.31    2.16
   4   6 -13    7.08    2.93
   3   6 -13    9.84    3.22
   2   6 -13    6.94    2.96
  -2  -6  13    5.22    1.81
   1   6 -13    4.75    2.63
  -1  -6  13    5.04    1.78
   0   6 -13    5.53    2.34
   0  -6  13    8.95    1.89
  -1   6 -13   -1.53    2.05
   1  -6  13    2.75    1.86
  -2   6 -13    2.86    2.05
   2  -6  13   12.04    2.12
  -6  -5  13   -2.79    1.50
  -5  -5  13    0.88    1.47
   4   5 -13    7.61    2.61
  -4  -5  13    0.17    1.33
   3   5 -13    3.14    2.67
  -3  -5  13   -1.19    1.39
   2   5 -13    6.87    2.66
  -2  -5  13    4.48    1.59
   1   5 -13    3.54    2.37
  -1  -5  13    4.78    1.65
   0   5 -13    1.32    2.04
   0  -5  13    2.25    1.70
  -1   5 -13    3.56    1.98
   1  -5  13    6.15    1.78
  -2   5 -13    0.93    1.88
   2  -5  13    5.19    1.91
  -3   5 -13   -0.63    1.83
  -4   5 -13    1.18    2.14
  -7  -4  13    1.42    1.59
  -6  -4  13   -2.02    1.36
  -5  -4  13    2.34    1.38
   4   4 -13    2.14    2.53
  -4  -4  13    0.65    1.24
   3   4 -13    7.03    2.51
  -3  -4  13    5.27    1.38
   2   4 -13   11.61    2.57
  -2  -4  13   10.50    1.51
   1   4 -13    8.35    2.25
  -1  -4  13    8.52    1.58
   0   4 -13   43.66    3.37
   0  -4  13   49.78    3.10
  -1   4 -13   -0.36    1.81
   1  -4  13    0.52    1.58
  -2   4 -13    4.19    1.91
   2  -4  13    6.02    1.85
  -3   4 -13    5.16    1.95
  -4   4 -13   -0.32    1.91
  -5   4 -13    1.23    2.01
  -7  -3  13    7.03    1.54
  -6  -3  13   -1.08    1.26
  -5  -3  13    7.43    1.36
  -4  -3  13    3.06    1.17
   3   3 -13    0.63    2.18
  -3  -3  13   -0.39    1.13
   2   3 -13   10.59    2.25
  -2  -3  13    8.28    1.34
   1   3 -13   14.02    2.29
  -1  -3  13   11.84    1.56
   0   3 -13    3.29    1.95
   0  -3  13    4.13    1.48
  -1   3 -13    6.50    1.91
   1  -3  13    8.95    1.63
  -2   3 -13    0.43    1.72
  -3   3 -13    0.35    1.83
  -4   3 -13    2.51    1.93
  -5   3 -13    6.89    2.36
  -5   3 -13    2.74    2.13
  -6   3 -13   -0.83    2.28
  -8  -2  13   -1.63    1.40
  -7  -2  13    0.23    1.36
  -6  -2  13   10.42    1.42
  -5  -2  13   -0.47    1.10
  -4  -2  13    3.93    1.11
   3   2 -13   20.72    3.29
  -3  -2  13   21.93    2.01
   2   2 -13   32.65    3.14
  -2  -2  13   31.19    2.26
   1   2 -13   19.38    2.84
  -1  -2  13   19.39    2.32
   0   2 -13   37.97    3.20
   0  -2  13   38.96    2.83
  -1   2 -13   -0.26    1.76
   1  -2  13    0.82    1.41
  -2   2 -13   17.54    2.79
  -3   2 -13    2.57    1.76
  -4   2 -13   -0.10    1.82
  -4   2 -13    0.97    1.91
  -5   2 -13    4.72    2.13
  -5   2 -13    6.21    2.26
  -8  -1  13    0.07    1.39
  -7  -1  13   12.59    2.04
  -6  -1  13   -1.52    1.10
  -5  -1  13    8.45    1.21
  -4  -1  13    6.07    1.06
  -3  -1  13    1.53    1.02
   2   1 -13   14.26    2.23
  -2  -1  13   11.84    1.91
   1   1 -13   18.69    2.78
  -1  -1  13   19.31    2.23
   0   1 -13    5.41    1.78
   0  -1  13    5.07    1.23
  -1   1 -13   12.47    2.01
   1  -1  13   10.97    1.53
  -2   1 -13    2.41    1.78
  -3   1 -13    4.49    1.75
  -3   1 -13    3.13    1.87
  -4   1 -13    4.50    1.93
  -4   1 -13    6.15    2.04
  -5   1 -13    2.02    2.04
  -9   0  13   -2.90    1.50
  -8   0  13    0.74    1.40
  -7   0  13    4.35    1.33
  -6   0  13   -0.35    1.10
  -5   0  13    4.85    1.10
  -4   0  13    0.33    0.95
  -3   0  13    8.31    1.12
  -2   0  13   21.48    2.03
  -1   0  13   13.39    1.96
   0   0 -13  124.94    5.18
   0   0  13  120.59    4.70
  -1   0 -13   -0.36    1.65
  -2   0 -13    4.89    1.82
  -3   0 -13   12.66    1.97
  -4   0 -13   -0.25    1.74
  -5   0 -13    3.62    2.08
  -6   0 -13   -1.34    2.46
  -8   1  13   -1.29    1.46
  -3   1  13    1.07    0.97
  -2   1  13   12.30    1.85
  -1   1  13   17.54    1.90
  -3  -1 -13    1.08    1.78
  -4  -1 -13    2.58    1.93
  -5  -1 -13   -0.48    2.05
  -6  -1 -13   -2.72    2.63
  -4  -2 -13   -3.43    1.97
  -5  -2 -13    0.03    2.26
  -4  -3 -13    0.26    2.32
  -7   4  13    4.43    1.85
  -4  -4 -13   -4.43    2.56
  -6   5  13    0.50    1.40
  -5   6  13    0.73    1.45
  -4   6  13    1.21    1.49
  -3   6  13    6.75    1.60
  -4   7  13    0.37    1.90
  -3   7  13   -0.04    1.61
  -2   7  13    3.02    1.69
   4   7 -14   11.83    3.46
   3   7 -14    7.05    3.74
   2   7 -14    4.19    3.38
  -2  -7  14   -2.38    1.99
   1   7 -14    3.03    3.09
  -1  -7  14    2.86    2.01
   0  -7  14    5.40    2.03
   1  -7  14    7.19    2.13
   4   6 -14   10.90    3.07
   3   6 -14    7.74    3.22
  -3  -6  14   -1.28    1.78
   2   6 -14   15.75    3.24
  -2  -6  14   12.21    1.99
   1   6 -14    1.33    2.67
  -1  -6  14   -0.16    1.80
   0   6 -14    1.09    2.35
   0  -6  14    3.76    1.84
  -1   6 -14    2.18    2.23
   1  -6  14    6.87    1.97
   2  -6  14    6.04    2.08
  -5  -5  14   -2.94    1.45
   4   5 -14    8.11    2.71
  -4  -5  14    0.87    1.49
   3   5 -14    5.89    2.75
  -3  -5  14    1.46    1.57
   2   5 -14    2.53    2.69
  -2  -5  14    0.21    1.57
   1   5 -14    3.63    2.49
  -1  -5  14    3.03    1.70
   0   5 -14   -0.15    2.20
   0  -5  14    2.84    1.69
  -1   5 -14    0.85    1.99
   1  -5  14    2.82    1.82
  -2   5 -14    2.63    2.07
   2  -5  14    7.58    1.95
  -3   5 -14    0.24    2.10
  -6  -4  14   -1.75    1.45
  -5  -4  14    7.22    1.54
  -4  -4  14    8.07    1.45
   3   4 -14   10.00    2.59
  -3  -4  14    6.99    1.53
   2   4 -14   16.73    2.75
  -2  -4  14   14.88    2.38
   1   4 -14    0.82    2.25
  -1  -4  14   -0.68    1.50
   0   4 -14   12.70    2.39
   0  -4  14   18.15    2.69
  -1   4 -14    3.39    2.01
   1  -4  14    5.87    1.76
  -2   4 -14    1.13    1.89
   2  -4  14    3.37    1.78
  -3   4 -14    3.45    2.09
  -4   4 -14   -0.73    2.10
  -7  -3  14    0.60    1.50
  -6  -3  14    0.96    1.40
  -5  -3  14   -1.56    1.25
  -4  -3  14    4.62    1.31
   3   3 -14    7.02    2.42
  -3  -3  14    6.01    1.41
   2   3 -14    5.59    2.27
  -2  -3  14    2.86    1.35
   1   3 -14    8.74    2.28
  -1  -3  14    7.79    1.57
   0   3 -14    0.43    2.00
   0  -3  14    2.41    1.50
  -1   3 -14    2.27    1.97
   1  -3  14    3.71    1.67
  -2   3 -14    4.79    1.95
  -3   3 -14    1.94    1.98
  -4   3 -14    0.14    2.02
  -5   3 -14    7.03    2.99
  -5   3 -14    2.52    2.29
  -8  -2  14   -2.54    1.50
  -7  -2  14    1.98    1.42
  -6  -2  14   -1.41    1.29
  -5  -2  14    3.28    1.26
  -4  -2  14   10.25    1.34
  -3  -2  14    6.87    1.33
   2   2 -14   73.57    4.09
  -2  -2  14   66.95    3.29
   1   2 -14   -0.15    1.92
  -1  -2  14   -0.22    1.37
   0   2 -14    4.14    2.03
   0  -2  14    6.48    1.47
  -1   2 -14    9.12    2.08
   1  -2  14    8.71    1.62
  -2   2 -14    0.30    1.88
  -3   2 -14    7.56    2.00
  -3   2 -14    5.35    2.03
  -4   2 -14    0.04    2.01
  -4   2 -14    0.08    1.96
  -5   2 -14    0.83    2.13
  -5   2 -14    1.54    2.22
  -8  -1  14   -2.57    1.45
  -7  -1  14    3.80    1.42
  -6  -1  14    1.66    1.28
  -5  -1  14   -0.55    1.11
  -4  -1  14    6.66    1.21
  -3  -1  14   10.90    1.35
  -2  -1  14    7.96    1.37
   1   1 -14   12.25    2.14
  -1  -1  14   12.55    1.48
   0   1 -14    1.11    1.87
   0  -1  14    2.18    1.26
  -1   1 -14    4.32    2.00
   1  -1  14    4.30    1.46
  -2   1 -14    6.98    2.03
  -3   1 -14    4.74    1.85
  -3   1 -14    4.38    2.02
  -4   1 -14    4.11    2.11
  -4   1 -14    2.14    1.95
  -5   1 -14    2.71    2.13
  -8   0  14    4.28    1.55
  -6   0  14    1.90    1.23
  -5   0  14   15.74    1.93
  -4   0  14   21.06    2.10
  -3   0  14   14.79    2.00
  -2   0  14   34.10    2.41
  -1   0  14    0.90    1.16
   0   0 -14   21.59    3.02
   0   0  14   22.72    2.38
  -1   0 -14    9.86    1.98
  -2   0 -14   -0.08    1.77
  -3   0 -14    5.23    1.84
  -4   0 -14   -0.87    1.81
  -5   0 -14   -1.98    2.04
  -7   1  14    1.96    1.37
  -4   1  14    5.74    1.18
  -2   1  14    7.09    1.17
  -1   1  14   10.95    1.35
  -3  -1 -14    0.97    1.83
  -4  -1 -14   -1.59    1.92
  -5  -1 -14    0.33    2.10
  -4  -2 -14   -2.76    2.07
  -4  -3 -14   -2.95    2.32
  -4   6  14    3.61    1.63
  -3   7  14    1.28    1.72
  -2   7  14    1.64    1.71
   3   7 -15    8.75    3.97
   4   6 -15   11.50    3.17
   3   6 -15    5.63    3.09
  -3  -6  15   -2.93    1.80
   2   6 -15   11.06    3.20
  -2  -6  15    5.28    1.94
   1   6 -15    6.04    2.93
  -1  -6  15    5.53    1.97
   0   6 -15    0.69    2.59
   0  -6  15    3.31    1.95
   1  -6  15    8.57    2.06
  -5  -5  15   -2.42    1.55
   4   5 -15    6.93    2.84
  -4  -5  15   -1.85    1.57
   3   5 -15    4.69    2.80
  -3  -5  15    0.27    1.66
   2   5 -15    2.46    2.83
  -2  -5  15    0.26    1.65
   1   5 -15    1.05    2.53
  -1  -5  15    1.76    1.72
   0   5 -15    3.16    2.38
   0  -5  15    6.34    1.84
  -1   5 -15    1.52    2.20
   1  -5  15    6.61    1.87
  -2   5 -15    0.81    2.13
   2  -5  15    5.50    1.94
  -6  -4  15   -0.43    1.58
  -5  -4  15    0.04    1.48
  -4  -4  15   17.83    2.44
   3   4 -15    0.55    2.48
  -3  -4  15   -0.98    1.52
   2   4 -15    4.37    2.52
  -2  -4  15    3.83    1.57
   1   4 -15    4.13    2.45
  -1  -4  15    4.74    1.68
   0   4 -15    1.09    2.20
   0  -4  15    1.10    1.72
  -1   4 -15    4.50    2.21
   1  -4  15    6.71    1.82
  -2   4 -15   -0.59    2.01
  -3   4 -15   -1.61    2.02
  -6  -3  15    0.14    1.49
  -5  -3  15    1.31    1.38
  -4  -3  15    2.23    1.41
   3   3 -15    6.13    2.52
  -3  -3  15    2.89    1.44
   2   3 -15    0.23    2.28
  -2  -3  15    1.55    1.53
   1   3 -15    1.69    2.24
  -1  -3  15    1.43    1.55
   0   3 -15    6.75    2.28
   0  -3  15    6.91    1.69
  -1   3 -15    3.92    2.15
   1  -3  15    4.79    1.76
  -2   3 -15    2.16    2.12
  -3   3 -15    2.75    2.08
  -4   3 -15   -1.50    2.11
  -4   3 -15    4.10    2.30
  -5   3 -15    1.25    2.38
  -7  -2  15    2.99    1.54
  -6  -2  15    5.79    1.51
  -5  -2  15    4.32    1.35
  -4  -2  15   10.05    1.45
  -3  -2  15   -0.80    1.31
   2   2 -15   19.51    3.23
  -2  -2  15   20.08    2.45
   1   2 -15   11.33    2.30
  -1  -2  15   12.06    1.67
   0   2 -15    1.78    2.04
   0  -2  15    0.01    1.40
  -1   2 -15    6.00    2.18
   1  -2  15    6.30    1.67
  -2   2 -15    0.71    2.04
  -3   2 -15    0.66    2.12
  -3   2 -15    1.61    1.92
  -4   2 -15    1.20    2.23
  -4   2 -15    0.89    2.03
  -5   2 -15    2.27    2.37
  -5   2 -15    2.69    2.49
  -8  -1  15   -2.47    1.54
  -7  -1  15   -2.61    1.39
  -6  -1  15    0.61    1.33
  -5  -1  15    1.75    1.26
  -4  -1  15    3.71    1.34
  -3  -1  15    5.90    1.33
  -2  -1  15    2.47    1.31
   1   1 -15    5.66    2.13
  -1  -1  15    4.93    1.38
   0   1 -15    5.53    2.02
   0  -1  15    5.42    1.45
  -1   1 -15    3.56    2.02
  -2   1 -15    1.68    2.07
  -3   1 -15    5.20    2.16
  -4   1 -15    3.94    2.20
  -4   1 -15   -0.08    2.00
  -5   1 -15   -0.09    2.15
  -7   0  15   -0.59    1.41
  -6   0  15    2.91    1.34
  -5   0  15    1.05    1.24
  -4   0  15   42.48    2.64
  -3   0  15    0.14    1.22
  -2   0  15    6.90    1.35
  -1   0  15    6.37    1.33
   0   0 -15    0.57    1.94
   0   0  15    1.51    1.29
  -1   0 -15    7.05    1.98
  -2   0 -15    1.52    1.89
  -4   0 -15   -1.68    1.90
  -5   0 -15    3.66    2.26
  -3   1  15    6.49    1.27
  -2   1  15    2.91    1.19
  -1   1  15    5.52    1.36
  -4  -1 -15   -3.29    1.94
  -5  -1 -15   -3.33    2.13
  -3   7  15    1.70    1.87
  -2   7  15    2.91    1.83
   4   6 -16   11.24    3.26
   3   6 -16    7.66    3.21
   2   6 -16    4.69    3.31
  -2  -6  16    0.27    2.86
   1   6 -16    3.51    3.44
  -1  -6  16    4.79    2.09
   4   5 -16   10.11    3.06
   3   5 -16    4.72    2.92
  -3  -5  16   -2.62    1.67
   2   5 -16    7.43    2.93
  -2  -5  16    3.21    1.77
   1   5 -16    3.76    2.72
  -1  -5  16    3.07    1.84
   0   5 -16    2.33    2.52
   0  -5  16    2.88    1.87
  -1   5 -16    3.14    2.43
   1  -5  16    8.03    2.04
  -5  -4  16   -3.23    1.53
  -4  -4  16    6.23    1.73
   3   4 -16    8.73    2.69
  -3  -4  16    5.47    1.72
   2   4 -16    1.42    2.47
  -2  -4  16    0.59    1.62
   1   4 -16    5.06    2.53
  -1  -4  16    3.61    1.73
   0   4 -16    2.34    2.36
   0  -4  16    3.42    1.72
  -1   4 -16    0.45    2.28
   1  -4  16    3.51    1.86
  -2   4 -16    0.42    2.31
  -3   4 -16    2.55    2.36
  -6  -3  16   -1.87    1.51
  -5  -3  16   -0.95    1.46
  -4  -3  16    0.50    1.57
   3   3 -16    4.09    2.54
  -3  -3  16    0.34    1.52
   2   3 -16    5.68    2.39
  -2  -3  16    4.00    1.59
   1   3 -16    2.61    2.29
  -1  -3  16    2.83    1.63
   0   3 -16    0.81    2.31
   0  -3  16    1.67    1.63
  -1   3 -16    3.32    2.30
   1  -3  16    6.70    1.82
  -2   3 -16    0.85    2.22
  -3   3 -16    3.38    2.41
  -4   3 -16    4.11    2.51
  -4   3 -16    4.92    2.48
  -7  -2  16   -2.85    1.56
  -6  -2  16    9.54    1.63
  -5  -2  16   -1.68    1.38
  -4  -2  16    1.98    1.48
  -3  -2  16    3.50    1.48
   2   2 -16    0.20    2.24
  -2  -2  16    1.08    1.47
   1   2 -16    8.73    2.28
  -1  -2  16    7.24    1.60
   0   2 -16    1.53    2.10
   0  -2  16    2.20    1.53
  -1   2 -16    1.22    2.20
   1  -2  16    1.10    1.66
  -2   2 -16    1.28    2.22
  -3   2 -16    8.21    2.22
  -3   2 -16    9.03    2.41
  -4   2 -16    1.01    2.18
  -4   2 -16    3.09    2.41
  -8  -1  16   -3.40    1.64
  -6  -1  16   -1.27    1.40
  -5  -1  16    0.85    1.37
  -4  -1  16   -0.82    1.37
  -3  -1  16    1.44    1.38
  -2  -1  16    6.64    1.48
   1   1 -16    3.23    2.16
  -1  -1  16    4.51    1.43
   0   1 -16    1.09    2.01
   0  -1  16    1.45    1.52
  -1   1 -16    3.38    2.08
  -2   1 -16    2.35    2.15
  -3   1 -16    7.67    2.36
  -4   1 -16    7.65    2.48
  -4   1 -16    3.60    2.16
  -6   0  16   -0.90    1.38
  -5   0  16   -3.07    1.37
  -4   0  16   14.16    2.33
  -3   0  16   14.16    1.57
  -2   0  16    1.09    1.30
  -1   0  16    4.53    1.37
   0   0 -16   -0.41    2.03
   0   0  16    0.76    1.39
  -1   0 -16    0.97    1.94
  -2   0 -16    2.58    1.93
  -3   0 -16    3.98    2.05
  -4   0 -16   -1.42    2.04
  -5   0 -16    0.74    2.34
  -3   1  16    2.15    1.23
  -2   1  16    6.80    1.33
  -1   1  16    4.80    1.36
   4   5 -17   12.59    3.25
   3   5 -17    8.97    3.00
  -3  -5  17   -0.09    1.80
   2   5 -17    4.00    2.85
  -2  -5  17    1.79    1.79
   1   5 -17    4.57    2.85
  -1  -5  17    4.23    1.93
   0   5 -17    1.28    2.87
   0  -5  17    5.14    1.99
  -5  -4  17   -2.75    1.75
  -4  -4  17   -3.04    1.73
   3   4 -17    9.25    2.78
  -3  -4  17    5.20    1.78
   2   4 -17    2.42    2.53
  -2  -4  17    0.64    1.63
   1   4 -17    2.60    2.56
  -1  -4  17    1.44    1.74
   0   4 -17    1.54    2.46
   0  -4  17    2.96    1.76
  -1   4 -17    2.95    2.51
   1  -4  17    8.37    1.95
  -2   4 -17    0.53    2.57
  -6  -3  17   -2.89    1.57
  -5  -3  17   -2.95    1.59
  -4  -3  17    2.79    1.68
   3   3 -17    7.17    2.67
  -3  -3  17    1.47    1.60
   2   3 -17    2.56    2.37
  -2  -3  17    1.50    1.59
   1   3 -17    5.16    2.37
  -1  -3  17    4.05    1.68
   0   3 -17    1.33    2.40
   0  -3  17    1.98    1.64
  -1   3 -17    5.09    2.45
   1  -3  17    5.16    1.84
  -2   3 -17    5.32    2.44
  -3   3 -17    2.66    2.49
  -6  -2  17    2.82    1.63
  -5  -2  17    4.11    1.64
  -4  -2  17   -1.59    1.53
  -3  -2  17    3.42    1.60
   2   2 -17    0.47    2.34
  -2  -2  17    0.58    1.54
   1   2 -17    1.37    2.18
  -1  -2  17    1.74    1.55
   0   2 -17    0.38    2.20
   0  -2  17    1.80    1.68
  -1   2 -17    3.01    2.33
   1  -2  17    3.89    1.69
  -2   2 -17    2.20    2.35
  -3   2 -17    9.91    2.55
  -4   2 -17    9.16    2.68
  -5  -1  17   -2.06    1.54
  -4  -1  17    3.29    1.52
  -3  -1  17    3.19    1.50
  -2  -1  17    2.01    1.46
   1   1 -17    3.44    2.30
  -1  -1  17    2.61    1.47
   0   1 -17    1.44    2.11
   0  -1  17    2.03    1.54
  -1   1 -17    7.52    2.27
  -2   1 -17    7.59    2.27
  -3   1 -17    4.47    2.34
  -4   1 -17    5.97    2.55
  -6   0  17   -3.02    1.50
  -5   0  17   -1.15    1.50
  -4   0  17   -0.19    1.44
  -3   0  17    9.10    1.54
  -2   0  17    1.68    1.35
  -1   0  17    1.95    1.47
  -1   0 -17    9.01    2.21
  -2   0 -17    4.17    2.02
  -4   1  17    5.37    1.40
  -3   1  17    5.00    1.34
  -2   1  17    3.20    1.30
  -1   1  17    3.53    1.39
  -4  -4  18   -1.80    1.95
   3   4 -18    5.48    2.77
  -3  -4  18   -0.38    1.80
   2   4 -18    4.79    2.59
  -2  -4  18    1.55    1.79
   1   4 -18    4.68    2.59
  -1  -4  18    2.68    1.79
   0   4 -18    2.65    2.65
   0  -4  18    4.14    1.85
  -5  -3  18   -1.63    1.83
  -4  -3  18   -1.45    1.74
   3   3 -18    7.95    2.73
   2   3 -18    4.44    2.42
  -2  -3  18    0.56    1.69
   1   3 -18    6.17    2.45
  -1  -3  18    5.41    1.80
   0   3 -18    5.09    2.49
   0  -3  18    6.58    1.83
  -1   3 -18    2.00    2.57
   1  -3  18    3.88    1.82
  -2   3 -18    5.87    2.74
  -5  -2  18    1.94    1.75
  -4  -2  18   -1.23    1.62
  -3  -2  18   -0.29    1.54
   2   2 -18    1.92    2.45
  -2  -2  18    2.87    1.59
   1   2 -18    5.16    2.32
  -1  -2  18    3.88    1.65
   0   2 -18    1.39    2.25
   0  -2  18    3.26    1.79
  -1   2 -18    9.33    2.46
  -2   2 -18   12.69    2.75
  -3   2 -18    6.63    2.64
  -6  -1  18   -2.16    1.70
  -5  -1  18   -0.75    1.67
  -4  -1  18    0.80    1.58
  -3  -1  18    4.73    1.57
  -2  -1  18    1.04    1.52
   1   1 -18    8.95    2.48
  -1  -1  18    6.47    1.64
   0   1 -18    7.84    2.36
   0  -1  18    6.36    1.71
  -1   1 -18    3.11    2.17
  -2   1 -18    8.99    2.35
  -3   1 -18    8.86    2.45
  -4   1 -18   -1.94    2.25
  -4   1 -18    5.52    2.77
  -5   0  18   -1.65    1.60
  -4   0  18   -0.51    1.50
  -3   0  18    2.22    1.44
  -2   0  18    1.82    1.44
  -1   0  18    5.97    1.67
  -1   0 -18   18.07    3.32
  -2   0 -18   21.49    3.31
  -4   1  18    3.40    1.42
  -3   1  18    5.88    1.41
  -2   1  18    3.16    1.43
  -1   1  18    7.76    1.52
  -4  -3  19   -0.34    1.81
  -3  -3  19    1.43    1.72
   2   3 -19    9.89    2.62
  -2  -3  19    5.60    1.82
   1   3 -19    3.38    2.49
  -1  -3  19    3.18    1.81
   0   3 -19    9.28    2.65
   0  -3  19    7.35    1.99
  -1   3 -19    7.81    3.14
  -6  -2  19   -3.66    2.05
  -5  -2  19   -3.59    1.76
  -4  -2  19   -0.98    1.77
  -3  -2  19    5.74    1.71
   2   2 -19    5.44    2.54
  -2  -2  19    2.35    1.71
   1   2 -19   10.82    2.57
  -1  -2  19    8.53    1.85
   0   2 -19   21.32    3.54
   0  -2  19   21.60    3.22
  -1   2 -19    6.80    2.47
  -2   2 -19   12.08    2.66
  -5  -1  19    1.25    1.82
  -4  -1  19   -0.64    1.66
  -3  -1  19    4.37    1.60
  -2  -1  19    6.27    1.65
  -1  -1  19    2.28    1.68
   0   1 -19    8.37    2.42
   0  -1  19    7.62    1.79
  -1   1 -19    9.46    2.36
  -2   1 -19    6.47    2.34
  -3   1 -19    7.84    2.46
  -5   0  19   -2.57    1.69
  -4   0  19    1.90    1.56
  -3   0  19    3.98    1.51
  -2   0  19    3.42    1.53
  -1   0  19   10.72    1.75
  -2   0 -19   22.35    3.46
  -5   1  19    3.31    1.80
  -4   1  19    2.01    1.45
  -3   1  19    7.02    1.49
  -2   1  19   17.25    2.76
  -2  -3  20    6.84    2.64
  -5  -2  20   -1.96    2.08
  -4  -2  20    1.49    1.82
  -3  -2  20    7.19    1.78
  -2  -2  20   12.82    1.95
   1   2 -20    8.00    2.60
  -1  -2  20    6.31    1.82
   0   2 -20   19.74    3.61
   0  -2  20   20.58    3.24
  -5  -1  20   -2.02    1.87
  -4  -1  20    2.70    1.70
  -3  -1  20    3.63    1.65
  -2  -1  20    7.38    1.77
  -1  -1  20    9.57    1.92
   0   1 -20    4.87    2.42
  -1   1 -20    5.70    2.40
  -2   1 -20    7.13    2.41
  -5   0  20    2.72    1.83
  -4   0  20    2.38    1.61
  -3   0  20    8.78    1.67
  -2   0  20   21.21    2.78
  -1   0  20    7.31    1.74
  -4   1  20    7.31    1.60
  -3   1  20    5.44    1.49
  -2   1  20   17.01    2.75
  -3  -2  21    3.98    2.77
  -5  -1  21   -1.19    1.90
  -4  -1  21    3.18    1.79
  -3  -1  21    6.10    1.79
  -2  -1  21    3.84    1.75
  -1  -1  21    4.51    1.84
  -5   0  21    4.06    1.87
  -4   0  21    8.92    1.81
  -3   0  21    7.46    1.73
  -2   0  21   29.63    3.23
  -3   1  21   21.23    2.84
  -2   1  21    6.39    1.62
  -4   0  22   18.57    2.98
  -3   1  22    9.23    2.37
   0   0   0    0.00    0.00
;
_shelx_hkl_checksum              3724
_olex2_submission_special_instructions 'No special instructions were received'
loop_
_space_group_symop_operation_xyz
'x, y, z'
'-x, y+1/2, -z'
'-x, -y, -z'
'x, -y-1/2, z'
loop_
_atom_site_label
_atom_site_type_symbol
_atom_site_fract_x
_atom_site_fract_y
_atom_site_fract_z
_atom_site_U_iso_or_equiv
_atom_site_adp_type
_atom_site_occupancy
_atom_site_site_symmetry_order
_atom_site_calc_flag
_atom_site_refinement_flags_posn
_atom_site_refinement_flags_adp
_atom_site_refinement_flags_occupancy
_atom_site_disorder_assembly
_atom_site_disorder_group
Bi1 Bi -0.1734(3) 0.2500 0.15146(14) 0.0340(7) Uani 1 2 d S T P . .
Cs2 Cs 0.2513(7) 0.2500 -0.0002(3) 0.0614(14) Uani 1 2 d S T P . .
Ag3 Ag 0.3352(8) 0.7500 0.1719(5) 0.079(2) Uani 1 2 d S T P . .
Br5 Br 0.0742(6) 0.4997(7) 0.1484(4) 0.081(2) Uani 1 1 d . . . . .
Br6 Br -0.4225(7) 0.5000(7) 0.1519(4) 0.081(2) Uani 1 1 d . . . . .
Br9 Br -0.2540(16) 0.2500 -0.0042(4) 0.087(3) Uani 1 2 d S T P . .
Br1 Br -0.081(3) 0.2500 0.3078(7) 0.186(8) Uani 1 2 d S T P . .
Br0A Br 0.396(3) 0.7500 0.3138(7) 0.170(7) Uani 1 2 d S T P . .
N2 N 0.412(17) 0.2500 0.271(6) 0.23(4) Uiso 1 2 d DS T P . .
H2A H 0.4991 0.3139 0.2663 0.274 Uiso 0.5 1 calc GR . . A -1
H2B H 0.3165 0.2901 0.2426 0.274 Uiso 0.5 1 calc GR . . A -1
H2C H 0.4287 0.1460 0.2572 0.274 Uiso 0.5 1 calc GR . . A -1
C5 C 0.53(2) 0.2500 0.420(6) 0.23(4) Uiso 1 2 d DS T P . .
H5A H 0.5978 0.1536 0.4150 0.274 Uiso 0.5 1 calc R . . . .
H5B H 0.5978 0.3464 0.4150 0.274 Uiso 0.5 1 calc R . . . .
C4 C 0.395(14) 0.2500 0.350(7) 0.23(4) Uiso 1 2 d DS T P . .
H4A H 0.3253 0.1533 0.3539 0.274 Uiso 0.5 1 calc R . . . .
H4B H 0.3253 0.3467 0.3539 0.274 Uiso 0.5 1 calc R . . . .
C6 C 0.53(3) 0.2500 0.493(11) 0.23(4) Uiso 1 2 d S T P . .
H6A H 0.5581 0.3588 0.5138 0.342 Uiso 0.5 1 calc GR . . B -1
H6B H 0.6066 0.1687 0.5185 0.342 Uiso 0.5 1 calc GR . . B -1
H6C H 0.4149 0.2225 0.4998 0.342 Uiso 0.5 1 calc GR . . B -1
N1 N 0.123(17) 0.2500 -0.286(6) 0.25(5) Uiso 1 2 d DS T P . .
H1A H 0.2167 0.3119 -0.2731 0.299 Uiso 0.5 1 calc GR . . C -1
H1B H 0.1455 0.1457 -0.2701 0.299 Uiso 0.5 1 calc GR . . C -1
H1C H 0.0417 0.2925 -0.2657 0.299 Uiso 0.5 1 calc GR . . C -1
C1 C 0.065(12) 0.2500 -0.369(6) 0.25(5) Uiso 1 2 d DS T P . .
H1D H -0.0091 0.3468 -0.3796 0.299 Uiso 0.5 1 calc R . . . .
H1E H -0.0091 0.1532 -0.3796 0.299 Uiso 0.5 1 calc R . . . .
C3 C 0.12(2) 0.2500 -0.509(6) 0.25(5) Uiso 1 2 d DS T P . .
H3A H 0.2220 0.2584 -0.5287 0.374 Uiso 0.5 1 calc GR . . D -1
H3B H 0.0479 0.3435 -0.5263 0.374 Uiso 0.5 1 calc GR . . D -1
H3C H 0.0623 0.1481 -0.5265 0.374 Uiso 0.5 1 calc GR . . D -1
C2 C 0.168(13) 0.2500 -0.427(6) 0.25(5) Uiso 1 2 d DS T P . .
H2D H 0.2416 0.1535 -0.4147 0.299 Uiso 0.5 1 calc R . . . .
H2E H 0.2416 0.3465 -0.4147 0.299 Uiso 0.5 1 calc R . . . .
loop_
_atom_site_aniso_label
_atom_site_aniso_U_11
_atom_site_aniso_U_22
_atom_site_aniso_U_33
_atom_site_aniso_U_23
_atom_site_aniso_U_13
_atom_site_aniso_U_12
Bi1 0.0289(11) 0.0373(13) 0.0361(14) 0.000 0.0074(9) 0.000
Cs2 0.057(3) 0.065(3) 0.063(3) 0.000 0.014(2) 0.000
Ag3 0.053(3) 0.053(4) 0.134(7) 0.000 0.029(4) 0.000
Br5 0.039(3) 0.051(4) 0.152(6) -0.006(4) 0.022(3) -0.017(3)
Br6 0.050(3) 0.053(4) 0.151(6) -0.001(4) 0.046(4) 0.017(3)
Br9 0.132(8) 0.103(7) 0.021(4) 0.000 0.006(4) 0.000
Br1 0.30(2) 0.187(17) 0.053(7) 0.000 0.006(11) 0.000
Br0A 0.215(18) 0.219(19) 0.069(8) 0.000 0.015(10) 0.000
loop_
_atom_type_symbol
_atom_type_description
_atom_type_scat_dispersion_real
_atom_type_scat_dispersion_imag
_atom_type_scat_source
C C 0.0033 0.0016 'International Tables Vol C Tables 4.2.6.8 and 6.1.1.4'
H H 0.0000 0.0000 'International Tables Vol C Tables 4.2.6.8 and 6.1.1.4'
Ag Ag -0.8971 1.1015 'International Tables Vol C Tables 4.2.6.8 and 6.1.1.4'
Bi Bi -4.1077 10.2566 'International Tables Vol C Tables 4.2.6.8 and 6.1.1.4'
Br Br -0.2901 2.4595 'International Tables Vol C Tables 4.2.6.8 and 6.1.1.4'
Cs Cs -0.3680 2.1192 'International Tables Vol C Tables 4.2.6.8 and 6.1.1.4'
N N 0.0061 0.0033 'International Tables Vol C Tables 4.2.6.8 and 6.1.1.4'
loop_
_geom_angle_atom_site_label_1
_geom_angle_atom_site_label_2
_geom_angle_atom_site_label_3
_geom_angle
_geom_angle_site_symmetry_1
_geom_angle_site_symmetry_3
Br5 Bi1 Br5 89.7(2) 4_565 .
Br5 Bi1 Br6 179.1(2) . 4_565
Br5 Bi1 Br6 179.1(2) 4_565 .
Br5 Bi1 Br6 90.25(17) 4_565 4_565
Br5 Bi1 Br6 90.25(17) . .
Br6 Bi1 Br6 89.8(2) . 4_565
Br9 Bi1 Br5 89.2(2) . 4_565
Br9 Bi1 Br5 89.2(2) . .
Br9 Bi1 Br6 89.8(2) . .
Br9 Bi1 Br6 89.8(2) . 4_565
Br9 Bi1 Br1 178.1(6) . .
Br1 Bi1 Br5 89.4(4) . 4_565
Br1 Bi1 Br5 89.4(4) . .
Br1 Bi1 Br6 91.5(4) . .
Br1 Bi1 Br6 91.5(4) . 4_565
Br5 Cs2 Br5 86.70(18) . 3_565
Br5 Cs2 Br5 86.70(18) 4_565 2_545
Br5 Cs2 Br5 117.69(17) . 2_545
Br5 Cs2 Br5 61.55(18) 2_545 3_565
Br5 Cs2 Br5 61.36(19) . 4_565
Br5 Cs2 Br5 117.69(17) 4_565 3_565
Br5 Cs2 Br6 179.1(2) . 2_545
Br5 Cs2 Br6 179.2(2) 2_545 1_655
Br5 Cs2 Br6 118.85(12) 2_545 4_665
Br5 Cs2 Br6 92.48(18) 4_565 1_655
Br5 Cs2 Br6 92.48(18) . 4_665
Br5 Cs2 Br6 61.79(13) 4_565 4_665
Br5 Cs2 Br6 61.79(13) . 1_655
Br5 Cs2 Br6 118.78(12) 4_565 2_545
Br5 Cs2 Br6 179.1(2) 4_565 3_565
Br5 Cs2 Br6 118.85(12) 3_565 1_655
Br5 Cs2 Br6 92.48(19) 2_545 3_565
Br5 Cs2 Br6 61.53(14) 2_545 2_545
Br5 Cs2 Br6 61.53(14) 3_565 3_565
Br5 Cs2 Br6 179.2(2) 3_565 4_665
Br5 Cs2 Br6 92.48(19) 3_565 2_545
Br5 Cs2 Br6 118.78(12) . 3_565
Br5 Cs2 Br9 58.44(17) . 3_565
Br5 Cs2 Br9 121.96(16) 4_565 1_655
Br5 Cs2 Br9 60.18(17) 2_545 3
Br5 Cs2 Br9 121.96(16) . 1_655
Br5 Cs2 Br9 58.44(17) 4_565 3
Br5 Cs2 Br9 59.71(14) 4_565 .
Br5 Cs2 Br9 120.35(16) 3_565 1_655
Br5 Cs2 Br9 119.8(2) 4_565 3_565
Br5 Cs2 Br9 119.8(2) . 3
Br5 Cs2 Br9 120.35(16) 2_545 1_655
Br5 Cs2 Br9 57.99(14) 2_545 .
Br5 Cs2 Br9 121.7(2) 2_545 3_565
Br5 Cs2 Br9 121.7(2) 3_565 3
Br5 Cs2 Br9 57.99(14) 3_565 .
Br5 Cs2 Br9 60.18(17) 3_565 3_565
Br5 Cs2 Br9 59.71(14) . .
Br6 Cs2 Br6 119.00(16) 2_545 1_655
Br6 Cs2 Br6 88.34(18) 2_545 4_665
Br6 Cs2 Br6 60.73(19) 1_655 4_665
Br6 Cs2 Br6 119.00(16) 3_565 4_665
Br6 Cs2 Br6 88.34(18) 3_565 1_655
Br6 Cs2 Br6 61.06(18) 2_545 3_565
Br6 Cs2 Br9 60.37(16) 2_545 3
Br6 Cs2 Br9 119.4(2) 1_655 3
Br6 Cs2 Br9 58.82(14) 2_545 1_655
Br6 Cs2 Br9 121.50(16) 4_665 .
Br6 Cs2 Br9 121.4(2) 2_545 3_565
Br6 Cs2 Br9 119.50(17) 3_565 .
Br6 Cs2 Br9 60.18(14) 4_665 1_655
Br6 Cs2 Br9 60.18(14) 1_655 1_655
Br6 Cs2 Br9 119.50(17) 2_545 .
Br6 Cs2 Br9 58.67(17) 1_655 3_565
Br6 Cs2 Br9 121.50(16) 1_655 .
Br6 Cs2 Br9 60.37(16) 3_565 3_565
Br6 Cs2 Br9 58.82(14) 3_565 1_655
Br6 Cs2 Br9 121.4(2) 3_565 3
Br6 Cs2 Br9 119.4(2) 4_665 3_565
Br6 Cs2 Br9 58.67(17) 4_665 3
Br9 Cs2 Br9 177.9(3) 1_655 .
Br9 Cs2 Br9 90.1(2) 3_565 .
Br9 Cs2 Br9 90.0(2) 3_565 1_655
Br9 Cs2 Br9 177.7(3) 3_565 3
Br9 Cs2 Br9 90.1(2) 3 .
Br9 Cs2 Br9 90.0(2) 3 1_655
Br5 Ag3 Br5 88.6(3) . 4_575
Br5 Ag3 Br6 89.48(17) 4_575 4_675
Br5 Ag3 Br6 164.3(4) 4_575 1_655
Br5 Ag3 Br6 89.48(17) . 1_655
Br5 Ag3 Br6 164.3(4) . 4_675
Br5 Ag3 Br9 81.7(3) 4_575 3_565
Br5 Ag3 Br9 81.7(3) . 3_565
Br6 Ag3 Br6 88.2(3) 4_675 1_655
Br6 Ag3 Br9 82.5(3) 4_675 3_565
Br6 Ag3 Br9 82.5(3) 1_655 3_565
Br0A Ag3 Br5 97.2(4) . .
Br0A Ag3 Br5 97.2(4) . 4_575
Br0A Ag3 Br6 98.5(4) . 1_655
Br0A Ag3 Br6 98.5(4) . 4_675
Br0A Ag3 Br9 178.5(6) . 3_565
Bi1 Br5 Cs2 90.42(16) . 3_565
Bi1 Br5 Cs2 91.13(17) . .
Bi1 Br5 Ag3 170.4(3) . .
Cs2 Br5 Cs2 93.30(18) . 3_565
Ag3 Br5 Cs2 95.5(2) . .
Ag3 Br5 Cs2 96.1(2) . 3_565
Bi1 Br6 Cs2 90.15(18) . 1_455
Bi1 Br6 Cs2 89.92(15) . 3_565
Bi1 Br6 Ag3 172.9(4) . 1_455
Cs2 Br6 Cs2 91.65(18) 3_565 1_455
Ag3 Br6 Cs2 94.5(2) 1_455 1_455
Ag3 Br6 Cs2 95.2(2) 1_455 3_565
Bi1 Br9 Cs2 88.85(14) . 3_565
Bi1 Br9 Cs2 89.5(3) . 1_455
Bi1 Br9 Cs2 88.85(14) . 3
Bi1 Br9 Cs2 88.5(3) . .
Bi1 Br9 Ag3 179.1(5) . 3_565
Cs2 Br9 Cs2 89.9(2) 3_565 .
Cs2 Br9 Cs2 177.7(3) 3_565 3
Cs2 Br9 Cs2 90.0(2) 3_565 1_455
Cs2 Br9 Cs2 90.0(2) 3 1_455
Cs2 Br9 Cs2 89.9(2) 3 .
Cs2 Br9 Cs2 177.9(3) 1_455 .
Ag3 Br9 Cs2 90.7(3) 3_565 .
Ag3 Br9 Cs2 91.4(3) 3_565 1_455
Ag3 Br9 Cs2 91.15(14) 3_565 3_565
Ag3 Br9 Cs2 91.15(14) 3_565 3
C6 C5 C4 135(10) . .
N2 C4 C5 131(4) . .
N1 C1 C2 129(4) . .
C1 C2 C3 133(4) . .
loop_
_geom_bond_atom_site_label_1
_geom_bond_atom_site_label_2
_geom_bond_distance
_geom_bond_site_symmetry_2
Bi1 Br5 2.831(5) 4_565
Bi1 Br5 2.831(5) .
Bi1 Br6 2.834(5) 4_565
Bi1 Br6 2.834(5) .
Bi1 Br9 2.818(8) .
Bi1 Br1 2.832(13) .
Cs2 Br5 3.913(8) 2_545
Cs2 Br5 3.913(8) 4_565
Cs2 Br5 3.913(8) 3_565
Cs2 Br5 3.913(8) .
Cs2 Br6 3.935(8) 2_545
Cs2 Br6 3.955(8) 1_655
Cs2 Br6 3.955(8) 4_665
Cs2 Br6 3.935(8) 3_565
Cs2 Br9 4.054(13) .
Cs2 Br9 4.001(13) 1_655
Cs2 Br9 3.9994(17) 3
Cs2 Br9 3.9994(17) 3_565
Ag3 Br5 2.867(7) .
Ag3 Br5 2.867(7) 4_575
Ag3 Br6 2.873(7) 4_675
Ag3 Br6 2.873(7) 1_655
Ag3 Br9 3.033(12) 3_565
Ag3 Br0A 2.570(15) .
Br5 Cs2 3.913(8) 3_565
Br6 Cs2 3.955(8) 1_455
Br6 Cs2 3.935(8) 3_565
Br6 Ag3 2.873(7) 1_455
Br9 Cs2 3.9994(17) 3_565
Br9 Cs2 3.9994(17) 3
Br9 Cs2 4.001(13) 1_455
Br9 Ag3 3.033(12) 3_565
N2 C4 1.50(2) .
C5 C4 1.497(14) .
C5 C6 1.36(19) .
N1 C1 1.500(14) .
C1 C2 1.498(12) .
C3 C2 1.498(14) .
