#------------------------------------------------------------------------------
#$Date: 2019-11-25 08:27:45 +0200 (Mon, 25 Nov 2019) $
#$Revision: 240513 $
#$URL: file:///home/coder/svn-repositories/cod/cif/4/12/98/4129861.cif $
#------------------------------------------------------------------------------
#
# This file is available in the Crystallography Open Database (COD),
# http://www.crystallography.net/
#
# All data on this site have been placed in the public domain by the
# contributors.
#
data_4129861
loop_
_publ_author_name
'Deng, Lin'
'Xu, Tao'
'Li, Hongbo'
'Dong, Guangbin'
_publ_section_title
;
 Enantioselective Rh-Catalyzed Carboacylation of C&#x2550;N Bonds via C-C
 Activation of Benzocyclobutenones.
;
_journal_issue                   1
_journal_name_full               'Journal of the American Chemical Society'
_journal_page_first              369
_journal_page_last               374
_journal_paper_doi               10.1021/jacs.5b11120
_journal_volume                  138
_journal_year                    2016
_chemical_absolute_configuration ad
_chemical_formula_moiety         'C12 H12 Cl N O3'
_chemical_formula_sum            'C12 H12 Cl N O3'
_chemical_formula_weight         253.68
_space_group_crystal_system      monoclinic
_space_group_IT_number           4
_space_group_name_Hall           'P 2yb'
_space_group_name_H-M_alt        'P 1 21 1'
_atom_sites_solution_hydrogens   difmap
_audit_creation_method           SHELXL-2014/7
_cell_angle_alpha                90
_cell_angle_beta                 96.915(7)
_cell_angle_gamma                90
_cell_formula_units_Z            2
_cell_length_a                   8.7567(12)
_cell_length_b                   7.2460(10)
_cell_length_c                   9.0118(14)
_cell_measurement_reflns_used    5262
_cell_measurement_temperature    100(2)
_cell_measurement_theta_max      74.2
_cell_measurement_theta_min      4.93
_cell_volume                     567.65(14)
_computing_cell_refinement
'CrysAlisPro V 1.171.37.31, Agilent Technologies'
_computing_data_collection
'CrysAlisPro V 1.171.37.31, Agilent Technologies'
_computing_data_reduction
'CrysAlisPro V 1.171.37.31, Agilent Technologies'
_computing_molecular_graphics    'XP SHELXTL/PC, Siemens Analytical'
_computing_publication_material  'XL SHELXTL/PC, Siemens Analytical'
_computing_structure_refinement  'Shelxl-2013, Sheldrick, G. M.'
_computing_structure_solution
;

SUPERFLIP.  Palatinus, L. and Chapuis, G., J. Appl. Cryst. 40, 786-790.
;
_diffrn_ambient_temperature      100(2)
_diffrn_measured_fraction_theta_full 0.999
_diffrn_measured_fraction_theta_max 0.986
_diffrn_measurement_device_type  'Agilent SuperNova with AtlasS2 CCD'
_diffrn_measurement_method       \w-scans
_diffrn_radiation_type           CuK\a
_diffrn_radiation_wavelength     1.54184
_diffrn_reflns_av_R_equivalents  0.0184
_diffrn_reflns_av_unetI/netI     0.0200
_diffrn_reflns_Laue_measured_fraction_full 0.999
_diffrn_reflns_Laue_measured_fraction_max 0.986
_diffrn_reflns_limit_h_max       10
_diffrn_reflns_limit_h_min       -10
_diffrn_reflns_limit_k_max       9
_diffrn_reflns_limit_k_min       -8
_diffrn_reflns_limit_l_max       11
_diffrn_reflns_limit_l_min       -11
_diffrn_reflns_number            5799
_diffrn_reflns_point_group_measured_fraction_full 1.000
_diffrn_reflns_point_group_measured_fraction_max 0.987
_diffrn_reflns_theta_full        67.684
_diffrn_reflns_theta_max         74.278
_diffrn_reflns_theta_min         4.943
_diffrn_source                   'sealed microfocus tube'
_exptl_absorpt_coefficient_mu    2.964
_exptl_absorpt_correction_T_max  1.00
_exptl_absorpt_correction_T_min  0.881
_exptl_absorpt_correction_type   multi-scan
_exptl_absorpt_process_details
;
CrysAlisPro 1.171.38.27t (Agilent, 2015)
Empirical absorption correction using spherical harmonics,
 implemented in SCALE3 ABSPACK scaling algorithm.
;
_exptl_crystal_colour            colorless
_exptl_crystal_density_diffrn    1.484
_exptl_crystal_description       prisms
_exptl_crystal_F_000             264
_exptl_crystal_size_max          0.24
_exptl_crystal_size_mid          0.15
_exptl_crystal_size_min          0.12
_refine_diff_density_max         0.204
_refine_diff_density_min         -0.218
_refine_diff_density_rms         0.044
_refine_ls_abs_structure_details
;
 Refined as an inversion twin.
;
_refine_ls_abs_structure_Flack   0.008(12)
_refine_ls_extinction_method     none
_refine_ls_goodness_of_fit_ref   1.063
_refine_ls_hydrogen_treatment    refall
_refine_ls_matrix_type           full
_refine_ls_number_parameters     203
_refine_ls_number_reflns         2182
_refine_ls_number_restraints     103
_refine_ls_restrained_S_all      1.038
_refine_ls_R_factor_all          0.0209
_refine_ls_R_factor_gt           0.0207
_refine_ls_shift/su_max          0.001
_refine_ls_shift/su_mean         0.000
_refine_ls_structure_factor_coef Fsqd
_refine_ls_weighting_details
'w=1/[\s^2^(Fo^2^)+(0.0382P)^2^+0.0141P] where P=(Fo^2^+2Fc^2^)/3'
_refine_ls_weighting_scheme      calc
_refine_ls_wR_factor_gt          0.0547
_refine_ls_wR_factor_ref         0.0550
_reflns_Friedel_coverage         0.848
_reflns_Friedel_fraction_full    1.000
_reflns_Friedel_fraction_max     0.987
_reflns_number_gt                2156
_reflns_number_total             2182
_reflns_threshold_expression     'I > 2\s(I)'
_cod_data_source_file            ja5b11120_si_003.cif
_cod_data_source_block           shelx
_cod_original_sg_symbol_H-M      'P 21'
_cod_database_code               4129861
_shelx_shelxl_version_number     2014/7
_shelx_space_group_comment
;
The symmetry employed for this shelxl refinement is uniquely defined
by the following loop, which should always be used as a source of
symmetry information in preference to the above space-group names.
They are only intended as comments.
;
_shelx_res_file
;

    shelx.res created by SHELXL-2014/7

TITL LD1-Clfull in P2(1)/m
CELL  1.54184   8.7567   7.2460   9.0118   90.000   96.915   90.000
ZERR     2.00   0.0012   0.0010   0.0014    0.000    0.007    0.000
LATT  -1
SYMM  - X, 1/2 + Y, - Z
SFAC  C    H    N    O    CL
UNIT  24   24   2    6    2
MERG   2
TWIN
isor .01 .02 c1 > cl1
FMAP   2
PLAN   25
ACTA
BOND   $H
CONF
L.S.   4
TEMP  -173.00
WGHT    0.038200    0.014100
BASF   0.00809
FVAR      10.65860
C1    1    0.869625    0.305360    0.430731    11.00000    0.01222    0.01425 =
         0.01647   -0.00025   -0.00015   -0.00230
C2    1    0.753594    0.404121    0.517227    11.00000    0.01238    0.01751 =
         0.01428   -0.00068    0.00121   -0.00115
C3    1    0.596716    0.424302    0.432071    11.00000    0.01323    0.01133 =
         0.01655    0.00036    0.00051   -0.00037
C4    1    0.455419    0.427258    0.489247    11.00000    0.01678    0.01415 =
         0.01778    0.00130    0.00314   -0.00025
C5    1    0.316905    0.424826    0.395290    11.00000    0.01217    0.01799 =
         0.02610    0.00173    0.00465   -0.00156
C6    1    0.313514    0.413754    0.239247    11.00000    0.01190    0.01993 =
         0.02498    0.00209   -0.00384   -0.00069
C7    1    0.453774    0.411101    0.183789    11.00000    0.01565    0.01372 =
         0.01660    0.00171   -0.00190   -0.00095
C8    1    0.589135    0.425529    0.278913    11.00000    0.01077    0.01312 =
         0.01693    0.00069    0.00020   -0.00011
C9    1    0.724204    0.411753    0.192054    11.00000    0.01349    0.01687 =
         0.01260    0.00189   -0.00058   -0.00161
C10   1    0.642317    0.325336    0.046349    11.00000    0.01387    0.02347 =
         0.01609   -0.00207   -0.00121   -0.00042
C11   1    0.952427    0.035870    0.183326    11.00000    0.02386    0.02082 =
         0.01945   -0.00202    0.00293    0.00534
C12   1    0.798271    0.597181    0.164444    11.00000    0.01736    0.01807 =
         0.01661    0.00185    0.00211   -0.00136
N1    3    0.832509    0.287136    0.278289    11.00000    0.01020    0.01874 =
         0.01428   -0.00048    0.00351    0.00196
O1    4    0.955207    0.233673    0.199621    11.00000    0.01461    0.01966 =
         0.02062    0.00037    0.00771    0.00223
O2    4    0.987584    0.241107    0.495934    11.00000    0.01342    0.02363 =
         0.01904    0.00075   -0.00175    0.00221
O3    4    0.481513    0.384677    0.037886    11.00000    0.01442    0.02575 =
         0.01501   -0.00016   -0.00275    0.00038
CL1   5    0.452493    0.426222    0.682182    11.00000    0.01980    0.02209 =
         0.01758    0.00070    0.00746    0.00123
H2A   2    0.752332    0.328753    0.610381    11.00000    0.02385
H2B   2    0.796214    0.517434    0.547031    11.00000    0.02697
H5    2    0.224954    0.417525    0.436345    11.00000    0.02079
H6    2    0.219801    0.396075    0.173672    11.00000    0.02286
H10A  2    0.644674    0.188783    0.055536    11.00000    0.01312
H10B  2    0.684244    0.369844   -0.045620    11.00000    0.01352
H11A  2    0.954263   -0.029975    0.282583    11.00000    0.02139
H11B  2    0.868153   -0.005282    0.110490    11.00000    0.02743
H11C  2    1.044453    0.006532    0.136230    11.00000    0.03332
H12A  2    0.827180    0.654598    0.259018    11.00000    0.02146
H12B  2    0.889797    0.581526    0.111588    11.00000    0.02348
H12C  2    0.724226    0.678847    0.107277    11.00000    0.02568
HKLF    4

REM  LD1-Clfull in P2(1)/m
REM R1 =  0.0207 for    2156 Fo > 4sig(Fo)  and  0.0209 for all    2182 data
REM    203 parameters refined using    103 restraints

END

WGHT      0.0380      0.0141

REM Highest difference peak  0.204,  deepest hole -0.218,  1-sigma level  0.044
Q1    1   0.6621  0.4289  0.2471  11.00000  0.05    0.20
Q2    1   0.5275  0.4277  0.2343  11.00000  0.05    0.19
Q3    1   0.6791  0.4252  0.4730  11.00000  0.05    0.19
Q4    1   0.5908  0.4216  0.3574  11.00000  0.05    0.15
Q5    1   0.3936  0.4516  0.4459  11.00000  0.05    0.14
Q6    1   0.5219  0.4532  0.4623  11.00000  0.05    0.14
Q7    1   0.7596  0.5025  0.1806  11.00000  0.05    0.13
Q8    1   0.5022  0.6680  0.2420  11.00000  0.05    0.12
Q9    1   0.3299  0.4257  0.3139  11.00000  0.05    0.12
Q10   1   0.4549  0.2046  0.5263  11.00000  0.05    0.12
Q11   1   0.7035  0.3642  0.1142  11.00000  0.05    0.12
Q12   1   0.4412  0.6305  0.5013  11.00000  0.05    0.11
Q13   1   0.6742  0.1594  0.3591  11.00000  0.05    0.11
Q14   1   0.3805  0.3643  0.2063  11.00000  0.05    0.10
Q15   1   0.4370  0.1715  0.2593  11.00000  0.05    0.10
Q16   1   1.0295 -0.0231  0.3664  11.00000  0.05    0.10
Q17   1   0.1436  0.2390  0.2811  11.00000  0.05    0.10
Q18   1   0.6800  0.6340  0.0185  11.00000  0.05    0.10
Q19   1   0.9921  0.0984  0.5574  11.00000  0.05    0.10
Q20   1   0.5431  0.1905  0.2271  11.00000  0.05    0.10
Q21   1   0.5968  0.2330 -0.2250  11.00000  0.05    0.10
Q22   1   1.0244  0.6258  0.2682  11.00000  0.05    0.10
Q23   1   0.8116  0.3897  0.4748  11.00000  0.05    0.10
Q24   1   0.8170  0.6114  0.3522  11.00000  0.05    0.09
Q25   1   0.4869  0.5722  0.7773  11.00000  0.05    0.09
;
_shelx_res_checksum              5845
_shelx_hkl_file
;
   0   0  -1 107608. 651.023   3
   0   0   1 104192. 753.616  11
   0   0  -2 24188.7 488.000  12
   0   0   2 23943.4 516.442  11
   0   0  -2 23413.7 438.748   3
   0   0  -3 63795.7 897.644   3
   0   0  -3 63053.6 987.987  12
   0   0   3 65205.3 1064.40  11
   0   0  -3 61764.6 1063.35   4
   0   0  -4 130569. 1876.06   4
   0   0  -4 133046. 1731.24  12
   0   0   4 135525. 1840.70  11
   0   0   5 2369.26 284.910  11
   0   0  -5 2491.89 304.642   4
   0   0  -5 2279.29 264.997  12
   0   0  -5 2355.00 229.616   3
   0   0  -6 57212.3 1655.14   4
   0   0   6 55934.3 1567.40  11
   0   0  -6 54389.6 1452.74  12
   0   0   7 588.225 187.555  11
   0   0  -7 627.822 148.658  17
   0   0   7 553.135 131.351  13
   0   0  -7 518.096 185.325   4
   0   0  -8 49722.5 1319.92  17
   0   0   8 48337.2 1265.63  13
   0   0  -8 49586.6 1262.19   7
   0   0  -9 12597.6 615.108   7
   0   0   9 11783.3 607.985  13
   0   0  -9 12404.2 641.757  17
   0   0  10 10851.2 504.441  13
   0   0 -10 10815.9 491.951   7
   0   0 -10 10531.7 519.332  17
   0   0 -11 7290.41 309.665  17
   0   0  11 7100.36 294.802  18
   0   0 -11 7349.21 293.280   7
   0   0  11 7242.40 294.433  13
   0  -1   0 8.60744 12.9941   1
   0   1   0-3.99120 13.1996  10
   0  -1   0 8.22780 5.78770  11
   0   1   0 38.0530 15.7140  12
   0  -1   1 232674. 1273.78  11
   0   1   1 238605. 1431.70  10
   0   1  -1 240682. 1453.53  12
   0  -1   1 231526. 1532.88   1
   0  -1  -1 224635. 1310.80   1
   0   1   1 234375. 951.297  11
   0   1  -2 49487.0 821.326  10
   0   1   2 48152.7 676.083  11
   0   1  -2 47768.7 502.221   3
   0  -1   2 49318.4 804.340  11
   0  -1  -2 48685.2 517.996  12
   0  -1  -3 14315.0 494.472   1
   0  -1   3 14933.7 540.471  11
   0   1   3 14703.4 481.762  11
   0  -1  -3 15202.0 405.489  12
   0  -1  -3 14787.6 523.778   3
   0   1  -3 14976.4 548.659  12
   0   1  -3 14924.5 555.613   4
   0  -1  -3 15021.6 567.322   4
   0   1  -3 16023.7 360.778   3
   0  -1   4 111041. 1725.90  11
   0  -1  -4 125465. 1893.93   4
   0   1  -4 113667. 1766.36  12
   0   1  -4 105098. 1723.42   4
   0   1   4 113844. 1621.79  11
   0  -1  -4 120426. 1428.40  12
   0  -1  -4 110667. 1640.48   3
   0   1  -5 139571. 2276.37  12
   0   1  -5 139796. 2308.88   4
   0  -1  -5 146889. 2121.05   3
   0  -1  -5 144728. 1829.20  12
   0  -1   5 144253. 2282.73  11
   0  -1  -5 147963. 2372.61   4
   0   1   5 134067. 2054.21  11
   0  -1  -5 134516. 2090.49   1
   0  -1  -6 43064.6 1328.75   1
   0   1  -6 40288.9 1363.85  12
   0   1   6 39233.3 1274.22  11
   0  -1   6 40242.1 1368.62  11
   0  -1  -6 39372.2 1403.24   4
   0  -1  -7 8491.52 725.242   4
   0   1  -7 11118.8 604.474  17
   0  -1  -7 8658.79 512.770   7
   0  -1   7 7553.48 659.261  11
   0   1  -7 11705.1 799.147  12
   0   1   7 10776.7 756.339  11
   0  -1  -7 8897.80 529.958  17
   0  -1   7 8427.68 508.026  13
   0  -1  -8 25555.8 913.624   7
   0  -1  -8 25967.8 939.734  17
   0   1  -8 25567.6 884.641   7
   0   1   8 26478.5 943.765  13
   0  -1   8 24014.7 887.074  13
   0   1  -8 26069.7 962.765  17
   0  -1  -9 4634.45 385.232  17
   0   1   9 5964.42 431.210  13
   0   1  -9 5453.39 390.626   7
   0   1  -9 6058.36 449.276  17
   0  -1  -9 4991.76 387.993   7
   0  -1   9 4857.43 384.957  13
   0  -1 -10 6854.13 391.531   7
   0   1 -10 6566.24 405.609  17
   0   1 -10 6441.97 357.809   7
   0  -1 -10 6315.28 380.358  17
   0   1  10 6459.52 384.731  13
   0  -1  10 6698.36 384.774  13
   0   1  11 1121.78 115.918  13
   0  -1  11 1126.66 116.083  18
   0   1  11 1199.38 115.381  18
   0  -1  11 1253.74 117.626  13
   0   1 -11 1123.87 122.831  17
   0  -1 -11 1108.80 114.025   7
   0  -2   0 975132. 1582.47  11
   0  -2   0 967198. 3601.36   1
   0  -2  -1 70804.2 1095.72   4
   0   2  -1 67853.7 952.943  12
   0  -2   1 71580.7 1098.05   1
   0  -2  -1 69088.8 963.725   1
   0   2  -1 67074.0 1075.34  10
   0  -2   1 70570.4 787.965  11
   0  -2  -2 31962.6 815.885   4
   0  -2   2 34142.9 860.193   1
   0   2  -2 39884.3 873.168  12
   0  -2  -2 33136.0 725.222   1
   0  -2   2 33074.6 708.203  11
   0   2   2 37395.4 539.057  11
   0   2   2 37080.0 826.351  10
   0   2  -2 39284.3 902.549  10
   0  -2  -3 55235.2 1068.71   1
   0   2  -3 49357.5 1125.64  10
   0   2  -3 53157.8 1173.35  12
   0  -2  -3 54654.5 1214.24   4
   0  -2   3 55539.8 1104.98  11
   0   2   3 49522.7 827.390  11
   0   2   3 49777.2 1069.91  10
   0  -2  -4 58416.9 1239.85   1
   0   2   4 55840.5 1262.19  10
   0   2  -4 63453.3 1455.65  12
   0  -2   4 61080.8 1351.77  11
   0  -2  -4 63791.6 1496.93   4
   0   2   4 60839.4 1130.78  11
   0  -2  -4 58180.6 1369.90   3
   0   2  -4 58100.4 1340.80  10
   0  -2  -5 6402.42 509.554   3
   0   2  -5 4703.76 457.374  12
   0  -2   5 6377.28 502.509  11
   0   2   5 4803.16 411.886  10
   0  -2  -5 6449.27 464.352   1
   0  -2  -5 6357.20 530.354   4
   0   2   5 4680.48 371.288  11
   0   2  -6 12335.8 595.559  17
   0  -2   6 9897.97 522.098  13
   0  -2  -6 8797.56 655.177   3
   0  -2  -6 9389.72 714.870   4
   0  -2  -6 9171.55 518.078  16
   0  -2   6 8764.72 665.229  11
   0   2   6 11796.0 708.784  10
   0   2  -6 11347.3 778.100  12
   0  -2  -7 2730.08 425.181   4
   0   2  -7 2718.63 273.617   7
   0  -2  -7 2681.24 304.765  16
   0  -2  -7 2636.07 283.813   7
   0  -2  -7 2571.65 283.686  17
   0   2  -7 2681.11 301.381  17
   0   2  -7 2845.93 426.108  12
   0   2  -7 2784.32 279.021  14
   0  -2   7 2906.77 423.064  11
   0  -2   7 2761.32 296.728  13
   0   2  -8 22363.1 779.786   7
   0   2  -8 22310.2 770.409  14
   0  -2   8 21997.5 840.890  13
   0   2  -8 21613.5 865.689  17
   0  -2  -8 21859.2 829.830   7
   0  -2  -8 22173.4 835.394  17
   0  -2   9 715.573 145.549  13
   0   2  -9 1478.29 184.550   7
   0   2  -9 1461.52 215.682  17
   0  -2  -9 858.403 160.021   7
   0  -2  -9 744.756 143.102  17
   0   2   9 1619.29 224.149  13
   0   2 -10 2204.92 221.220  17
   0  -2  10 2246.71 207.651  13
   0   2 -10 2023.57 171.087   7
   0  -2 -10 2058.35 191.728  17
   0   2  10 2131.11 213.610  13
   0  -2  10 2150.49 213.050  18
   0  -2 -10 1995.97 198.421   7
   0   3   0 24.5509 40.5439  10
   0  -3   0-13.6542 45.4980   1
   0   3   0 19.9679 22.9401  12
   0   3  -1 50646.0 1162.82  10
   0  -3   1 41892.9 1029.12   1
   0   3  -1 52233.9 983.116  12
   0  -3   1 40998.6 635.206  11
   0  -3  -1 39922.2 916.128   1
   0   3   1 51422.5 1141.86  10
   0  -3  -1 37036.2 990.416   4
   0   3  -2 16507.1 695.841  10
   0   3   2 17220.8 693.677  10
   0  -3  -2 20928.5 785.975   4
   0  -3   2 21180.4 789.704   1
   0  -3   2 19687.3 573.344  11
   0   3  -2 16535.3 647.518  12
   0  -3  -2 19338.5 651.373   1
   0  -3  -3 12481.2 562.777   1
   0  -3  -3 11256.4 625.101   4
   0  -3   3 11667.1 534.162  11
   0  -3   3 12926.3 687.437   1
   0   3   3 11883.1 613.174  10
   0   3  -3 10783.8 596.950  12
   0   3  -3 11358.7 626.311  10
   0   3  -4 52171.2 1447.07  10
   0  -3   4 51514.0 1317.70  11
   0   3   4 56130.5 1425.92  10
   0  -3  -4 52428.2 1485.42   3
   0   3  -4 55717.1 1524.47  12
   0  -3  -4 52569.0 1254.32   1
   0  -3  -4 53682.3 1544.67   4
   0  -3  -5 29055.8 1257.35   4
   0  -3  -5 29072.0 1218.06   3
   0   3   5 26026.5 1051.68  10
   0  -3   5 28588.9 1107.76  11
   0   3  -5 26869.6 1175.30  12
   0  -3  -6 28160.3 1327.04   4
   0   3  -6 27818.0 1298.55  12
   0   3  -6 29033.2 935.759  17
   0   3   6 28245.7 869.200   5
   0  -3  -6 29625.8 876.333   7
   0  -3   6 30068.6 942.369  13
   0  -3  -6 29397.2 982.062  16
   0  -3   6 27971.4 1212.84  11
   0   3  -6 29156.8 917.251  14
   0  -3  -6 29963.7 1334.01   3
   0   3   6 28528.3 1176.55  10
   0   3  -7 23801.3 883.888  17
   0   3  -7 23123.0 841.362  14
   0  -3   7 21011.8 816.070  13
   0  -3   7 22310.7 848.819  18
   0  -3  -7 21548.8 781.156   7
   0  -3  -7 20289.3 857.208  16
   0  -3  -8 12052.3 574.434   7
   0   3  -8 10528.7 543.550  14
   0  -3   8 11714.6 610.475  18
   0   3  -8 11157.2 597.855  17
   0  -3  -8 11191.3 551.328   9
   0  -3   8 11496.8 592.888  13
   0  -3  -9 3033.10 261.761   7
   0   3  -9 3112.95 251.061  14
   0   3  -9 3214.76 290.463  17
   0  -3   9 3184.66 279.414  13
   0  -3   9 3120.81 284.472  18
   0  -3  -9 3104.74 244.011   9
   0   3   9 2990.58 285.250  13
   0  -3  10 3899.29 253.212  18
   0  -3 -10 4063.04 232.081   7
   0  -3  10 4294.81 253.102  13
   0   3 -10 4536.71 272.394  17
   0   3  10 4526.94 279.351  13
   0   4   0 195472. 2705.56  10
   0  -4   0 207892. 2591.17   1
   0   4   1 57881.7 1477.79  10
   0  -4  -1 59100.4 1344.99   1
   0   4  -1 57300.5 1483.97  10
   0  -4   1 59435.3 1455.96   1
   0   4  -1 62064.9 1211.39  12
   0   4   2 13601.9 729.313  10
   0  -4   2 13779.0 747.158   1
   0  -4  -2 12583.4 620.372   1
   0  -4  -2 13128.1 737.111   4
   0   4  -2 15488.7 796.818  10
   0   4  -2 15796.7 702.061  12
   0  -4  -3 16924.4 735.784   1
   0  -4  -3 15656.9 850.874   3
   0  -4   3 17511.9 916.275   1
   0   4  -3 13624.9 734.318  12
   0   4  -3 12733.2 768.504  10
   0   4   3 13251.3 753.545  10
   0  -4  -3 17177.1 885.824   4
   0  -4  -4 7783.23 650.294   3
   0  -4  -4 8185.63 679.256   4
   0   4  -4 7414.94 600.653  12
   0   4   4 7514.88 598.229  10
   0   4  -4 7547.89 626.328  10
   0  -4   5 10305.4 547.795  13
   0   4   5 12091.6 797.282  10
   0   4  -5 12257.3 837.100  10
   0  -4  -5 10400.4 512.613   6
   0  -4  -5 10786.3 827.056   3
   0  -4  -5 11093.3 851.853   4
   0  -4  -5 9829.22 566.834  16
   0   4   5 11867.7 581.199   5
   0   4  -5 12817.6 613.525  14
   0  -4  -5 9666.22 551.807  18
   0   4  -5 11624.2 822.956  12
   0  -4   5 10542.4 556.359  18
   0   4  -6 16323.6 721.058  14
   0  -4   6 15086.6 694.238  18
   0   4   6 16580.5 701.113   5
   0  -4  -6 15572.1 745.630  16
   0  -4  -6 16103.6 743.550  18
   0  -4   6 15087.8 685.351  13
   0   4  -6 17102.6 712.609  17
   0  -4   7 4418.43 375.326  18
   0  -4  -7 3841.81 378.776  16
   0  -4   7 4436.57 372.417  13
   0  -4  -7 4165.90 364.148   9
   0   4  -7 4396.62 366.063  17
   0   4  -7 3956.67 356.462  14
   0  -4  -8 5377.95 377.508   9
   0   4  -8 4250.13 334.184  17
   0   4  -8 4124.13 331.157  14
   0  -4   8 5640.18 396.844  18
   0  -4   8 5509.24 383.944  13
   0  -4   9 2011.19 202.444  18
   0  -4   9 2051.67 196.358  13
   0   4   9 2380.09 229.153  13
   0  -4  -9 2159.44 193.216   9
   0   4  -9 2474.25 209.223  14
   0   4  10 13715.4 390.151  13
   0  -5   0 13.0566 67.2589   4
   0   5   0 50.3590 88.9434  10
   0  -5   0 90.0898 75.3955   1
   0  -5  -1 19902.1 919.726   1
   0  -5  -1 19489.3 1001.71   4
   0   5  -1 20650.9 1039.44  10
   0  -5   1 19384.3 960.862   1
   0   5   1 20414.3 1031.83  10
   0  -5  -1 19412.2 916.974   3
   0  -5   2 48990.1 1615.16   1
   0  -5  -2 45777.2 1530.74   3
   0  -5  -2 47255.6 1091.25   6
   0  -5  -2 45126.0 1584.53   4
   0  -5   2 46209.5 1123.61  13
   0   5   2 43944.3 1534.33  10
   0   5  -2 45250.8 1582.02  10
   0  -5  -3 2745.52 272.138   6
   0  -5  -3 2732.54 400.795   3
   0   5   3 2238.61 358.738  10
   0   5  -3 3106.28 294.374  14
   0   5  -3 2345.34 377.449  10
   0  -5  -3 2742.38 405.074   4
   0  -5  -3 2585.86 272.568  18
   0  -5   3 2794.85 279.751  18
   0   5  -3 2452.13 347.271  12
   0  -5   3 2753.24 284.315  13
   0  -5  -3 2810.75 289.380  16
   0  -5  -4 111847. 2715.93   3
   0  -5  -4 109211. 2717.43   4
   0   5  -4 108711. 2465.39  12
   0  -5  -4 104642. 1859.72  16
   0  -5  -4 102796. 1809.44  18
   0  -5  -4 110793. 1764.87   6
   0   5  -4 106033. 1702.43  15
   0  -5   4 112704. 1846.68  13
   0   5   4 109158. 1847.73   5
   0   5   4 106083. 2504.29  10
   0   5  -4 110894. 1828.12  14
   0  -5   4 111246. 1822.64  18
   0   5  -4 110870. 2634.13  10
   0   5  -5 3212.98 323.780  14
   0  -5   5 2986.74 308.284  13
   0  -5  -5 2748.37 313.816  16
   0  -5  -5 2557.81 291.947  18
   0   5   5 3264.13 319.304   5
   0  -5   5 2865.95 301.442  18
   0  -5  -5 2606.66 273.819   6
   0  -5   6 24441.6 867.728  18
   0   5  -6 24074.2 869.875  14
   0  -5   6 24131.2 861.043  13
   0  -5  -6 26097.2 959.716  16
   0  -5  -6 26377.6 913.193   9
   0  -5  -6 23464.5 880.714  18
   0   5   6 23316.6 831.390   5
   0   5   7 6759.29 400.237   5
   0  -5   7 5158.78 376.784  18
   0  -5   7 4899.30 364.393  13
   0  -5  -7 4723.95 396.276  16
   0   5  -7 6456.79 428.346  14
   0  -5  -7 5109.82 381.646   9
   0   5  -8 1848.50 199.631  14
   0  -5   8 1893.82 197.660  13
   0  -5   8 2068.96 208.653  18
   0  -5  -8 2036.21 212.570   9
   0   5   9 45.3953 36.9013  13
   0  -5   9 445.812 74.1062  13
   0  -5   9 468.292 78.7105  18
   0  -5  -9 399.517 72.2521   9
   0   5  -9 113.056 39.4308  14
   0  -6   0 193391. 2367.68  18
   0  -6   0 193946. 2277.65   6
   0   6   0 193223. 2443.02  15
   0  -6   1 36414.7 1081.49  13
   0  -6   1 41907.5 1574.97   1
   0  -6  -1 38455.5 1042.52   6
   0   6   1 39645.8 1610.09  10
   0   6  -1 41390.3 1645.07  10
   0   6  -1 38990.2 1107.40  15
   0  -6  -1 36713.9 1039.37  18
   0  -6  -1 41628.1 1646.85   4
   0  -6   1 40469.8 1603.80   4
   0   6   1 38179.6 1078.74  15
   0  -6   1 39203.8 985.906   6
   0  -6   1 38290.9 1064.93  18
   0  -6  -2 17242.8 702.622  16
   0  -6   2 17100.0 719.960  18
   0  -6  -2 16110.1 694.752  18
   0  -6  -2 16463.5 996.433   3
   0  -6   2 16285.9 720.608  13
   0  -6  -2 16942.6 707.217   6
   0   6  -2 16481.5 668.709  14
   0   6  -2 17132.6 734.401  15
   0  -6   2 17877.7 1077.02   1
   0   6   2 17427.9 706.708  15
   0  -6   3 11864.5 608.362  18
   0  -6  -3 11557.8 599.429  18
   0  -6  -3 12149.1 615.567  16
   0  -6  -3 11819.5 597.362   6
   0   6  -3 16286.5 688.104  14
   0  -6   3 12065.1 621.905  13
   0  -6  -3 11247.3 548.166   9
   0   6  -3 16668.9 712.296  15
   0   6  -4 8926.68 517.988  14
   0  -6   4 8601.51 515.386  18
   0   6   4 9159.99 551.832   5
   0  -6  -4 8676.93 533.989  16
   0  -6  -4 8541.60 519.876  18
   0  -6  -4 8311.03 489.425   9
   0  -6  -4 9172.94 524.130   6
   0   6  -4 8789.76 496.965  15
   0  -6   4 8716.84 523.519  13
   0   6  -5 11820.9 591.944  14
   0  -6  -5 10575.0 580.094  16
   0  -6  -5 10023.5 538.457   9
   0  -6  -5 10385.1 553.051  18
   0  -6   5 10914.7 570.782  18
   0  -6   5 10395.0 556.210  13
   0   6   5 12131.0 604.419   5
   0  -6   6 26871.9 829.291  13
   0  -6   6 28117.3 847.442  18
   0  -6  -6 26481.0 883.378  16
   0   6   6 24873.1 794.233   5
   0   6  -6 24496.0 804.269  14
   0  -6  -6 28036.8 861.594   9
   0   6  -7 11007.7 479.635  14
   0   6   7 10770.9 422.807   5
   0  -6  -7 10320.0 466.658   9
   0  -6   7 10165.2 443.985  18
   0  -6  -7 9973.39 489.255  16
   0  -6   7 10168.0 442.700  13
   0  -6  -8 3847.43 228.077   9
   0  -6   8 3816.52 209.799  13
   0  -6   8 3670.36 203.766  18
   0   6  -8 3744.53 224.504  14
   0  -7   0 36.7852 58.6297   6
   0  -7   0 7.95201 38.6569  18
   0   7   0 29.0339 44.0798  15
   0  -7  -1 1746.65 222.461   6
   0   7   1 2514.60 277.783  15
   0  -7  -1 1612.26 216.510  18
   0  -7   1 1744.52 202.219   6
   0  -7   1 1656.10 217.386  18
   0   7  -1 2356.21 273.166  15
   0  -7   2 1168.07 179.298  18
   0  -7  -2 1429.36 204.304   6
   0   7   2 804.803 150.707  15
   0   7  -2 709.029 153.372  15
   0  -7  -2 1360.59 199.628  18
   0  -7  -3 2730.66 277.218   6
   0   7  -3 3359.43 286.823  14
   0  -7  -3 2887.11 271.228  16
   0   7  -3 3282.13 302.966  15
   0  -7  -3 2795.12 271.425  18
   0  -7   3 2900.03 293.055  13
   0  -7   3 3008.31 280.442  18
   0   7   3 3326.43 324.875   5
   0   7  -4 25016.2 768.666  14
   0  -7   4 24158.1 750.757  18
   0  -7  -4 24080.2 712.547   9
   0   7  -4 25591.6 770.673  15
   0  -7  -4 24102.0 771.693  16
   0  -7   4 23842.0 791.255  13
   0   7   4 25664.8 844.313   5
   0  -7  -5 8914.24 441.557  16
   0  -7   5 9114.30 446.758  13
   0   7  -5 9366.70 445.870  14
   0  -7   5 8690.55 410.218  18
   0  -7  -5 9272.88 423.434   9
   0   7   5 9066.50 456.946   5
   0   7  -6 2638.05 211.533  14
   0  -7   6 3133.47 210.692  18
   0  -7  -6 3285.48 228.671   9
   0  -7  -6 3121.09 234.560  16
   0   7   6 2388.18 195.350   5
   0  -7   6 3267.10 228.567  13
   0   7  -7 10356.9 329.125  14
   0  -8   0 61158.6 1048.66   6
   0   8   0 60019.9 1193.39  15
   0   8   1 14076.6 557.810  15
   0   8  -1 14224.5 579.584  15
   0  -8  -1 14446.7 534.217   6
   0   8  -2 7134.28 396.700  15
   0   8   2 6625.85 349.966  15
   0   8   2 6750.63 399.307   5
   0   8  -3 7172.53 362.589  15
   0   8   3 7345.49 391.454   5
   0   8   4 2332.08 199.436   5
   0   8  -4 2469.10 178.068  15
   0   9   0 41.5358 27.8742  15
   0   9   0 50.4246 31.8855   5
   0   9   1 2809.19 173.592   5
   0   9  -1 3060.95 177.499  15
  -1   0  11 26005.4 552.105  18
   1   0 -11 26464.6 594.809  17
   1   0 -11 26719.9 574.418   7
  -1   0  11 26996.5 554.680  13
   1   0 -10 164.304 68.5594   7
   1   0 -10 212.026 81.7806  17
  -1   0  10 314.732 89.3513  13
  -1   0   9 4311.12 364.722  13
   1   0  -9 4595.81 371.081   7
   1   0  -9 4070.00 368.207  17
   1   0  -8 2261.50 284.744  17
  -1   0   8 2601.16 292.255  13
   1   0  -8 1905.76 245.557   7
   1   0  -7 34535.1 1036.49  17
  -1   0   7 33088.5 985.609  13
  -1   0   7 33134.5 1339.95  11
   1   0  -7 35501.1 1473.24   4
   1   0  -7 35146.6 1003.90   7
   1   0  -6 301.759 106.579  12
   1   0  -6 376.854 144.310   4
  -1   0   6 302.013 119.518  11
   1   0  -5 21604.3 797.638  12
  -1   0   5 21147.1 843.371  11
   1   0  -5 21173.5 741.342   3
   1   0  -5 21159.4 881.149   4
   1   0  -4 7278.96 387.679   3
   1   0  -4 6960.98 392.439  12
   1   0  -4 7448.92 450.944   4
  -1   0   4 7172.50 428.599  11
   1   0  -3 218520. 964.560   2
  -1   0   3 221002. 1970.36  11
   1   0  -3 222162. 2062.45   4
   1   0  -3 220666. 1864.04   3
   1   0  -2 29572.5 579.981   3
   1   0  -2 31112.2 578.774  12
   1   0  -2 30553.6 419.492   2
  -1   0   2 30376.0 594.171  11
   1   0  -1 192899. 1056.71   2
   1   0  -1 193257. 1124.11   4
  -1   0   1 191971. 877.016   1
  -1   0   0 172937. 898.591   1
   1   0   1 136530. 1115.29  11
  -1   0  -1 136150. 886.023   4
   1   0   1 139331. 887.170   2
   1   0   2 10461.5 240.235   2
   1   0   2 10133.4 369.989  11
  -1   0  -2 9852.09 339.145   4
  -1   0  -2 10491.3 374.732  12
  -1   0  -3 384044. 2665.95   4
  -1   0  -3 385347. 2101.87   3
   1   0   3 388166. 2742.03  11
   1   0   3 372287. 1098.16   2
  -1   0  -3 375970. 2645.60  12
   1   0   4 2617.46 266.299  11
  -1   0  -4 2358.41 251.918   4
  -1   0  -4 2627.38 258.540  12
  -1   0  -4 2374.51 194.851   3
  -1   0  -5 9593.90 589.263   4
   1   0   5 10588.1 621.871  11
  -1   0  -5 10232.4 577.961  12
  -1   0  -6 12157.0 714.850  12
   1   0   6 12154.5 757.980  11
  -1   0  -6 12583.5 772.602   4
   1   0   7 4946.83 396.065  13
   1   0   7 4725.23 531.709  11
  -1   0  -7 4396.02 510.769   4
  -1   0  -7 4159.51 507.491   1
  -1   0  -7 4946.79 404.388  17
   1   0   8 46038.9 1250.33  13
  -1   0  -8 43985.8 1202.82   7
  -1   0  -8 47355.2 1304.49  17
   1   0   9 20261.5 783.099  13
  -1   0  -9 20754.4 782.529   7
  -1   0  -9 19965.9 805.033  17
   1   0  10 965.313 146.172  13
  -1   0 -10 1009.91 156.854  17
  -1   0 -10 1149.91 158.534   7
   1   1 -11 2203.08 175.186  17
   1  -1 -11 2378.83 174.339   7
  -1  -1  11 2528.63 172.978  18
  -1   1  11 2254.17 159.862  13
  -1   1  10 9023.35 452.718  13
  -1  -1  10 9328.04 459.744  18
   1   1 -10 8862.28 419.774   7
   1  -1 -10 8791.39 443.356  17
  -1  -1  10 9151.82 441.002  13
   1  -1 -10 8371.53 436.831   7
   1   1 -10 9025.21 482.391  17
   1   1  -9 29402.8 895.971   7
  -1  -1   9 32388.2 971.698  13
  -1   1   9 29792.7 962.220  13
   1  -1  -9 32077.6 984.279   7
   1   1  -9 29829.0 1007.80  17
   1  -1  -9 30524.1 965.731  17
   1  -1  -8 22538.3 857.067  17
   1   1  -8 22570.3 897.526  17
   1  -1  -8 22120.0 839.303   7
  -1  -1   8 20751.4 808.447  13
  -1   1   8 22451.8 858.527  13
   1   1  -8 21713.5 803.362   7
   1  -1  -7 7132.99 464.092  17
   1  -1  -7 7157.49 461.267   7
   1  -1  -7 6685.89 645.996   4
  -1   1   7 6142.31 553.337  11
   1   1  -7 6306.57 595.403  12
   1   1  -7 6343.17 419.113   7
   1   1  -7 6689.28 465.911  17
  -1  -1   7 6892.71 448.613  13
  -1  -1   7 6461.25 612.985  11
  -1  -1   6 36007.7 1290.08  11
   1   1  -6 31960.5 1207.10  12
  -1   1   6 33190.2 1165.82  11
   1  -1  -6 35456.2 1188.62   3
   1  -1  -6 35914.2 1345.21   4
   1  -1  -5 57143.2 1366.18   3
  -1  -1   5 57449.6 1448.89  11
   1  -1  -5 59902.2 1509.71   4
  -1   1   5 56722.6 1318.00  11
   1  -1  -5 55626.3 1200.11   1
   1   1  -5 56196.2 1418.94  12
   1  -1  -4 113291. 1725.46   3
   1  -1  -4 110648. 1775.32   4
  -1   1   4 114647. 1624.40  11
   1   1  -4 113476. 1768.08  12
   1   1  -4 109644. 1411.54   3
  -1  -1   4 109023. 1742.30  11
   1  -1  -3 99820.0 1424.23   3
   1   1  -3 96017.9 1403.65  12
  -1  -1   3 96442.7 1380.43  11
   1  -1  -3 94190.4 1051.87   1
   1  -1  -3 99426.4 1456.57   4
  -1   1   3 96124.9 1235.04  11
  -1   1   2 29479.6 535.543  11
   1  -1  -2 28682.2 418.018   1
  -1  -1   2 28332.0 618.327  11
  -1  -1   2 28976.8 648.792   1
   1   1  -2 27088.2 655.046  10
   1  -1  -2 28938.3 640.535   4
   1  -1  -1 23486.5 441.186   4
   1  -1  -1 21986.8 447.810   2
   1   1  -1 17018.4 440.960  10
  -1  -1   1 22970.5 458.177  11
   1  -1  -1 23233.1 242.256   1
  -1  -1   1 23207.1 501.361   1
   1   1   0 72284.0 763.947  10
  -1  -1   0 73152.9 861.636   1
  -1   1   0 72211.0 731.999  12
   1  -1   0 67025.9 655.146   3
   1  -1   0 68986.2 645.369   1
  -1   1   0 74373.1 774.982  10
  -1  -1  -1 72701.9 885.959   4
   1  -1   1 74369.4 825.604   2
   1  -1   1 71173.8 827.102  11
  -1   1  -1 63115.6 862.789  12
  -1  -1  -1 74357.2 958.233   1
   1   1   1 62719.6 685.167  10
  -1   1  -2 177535. 1427.01  10
  -1  -1  -2 174221. 1614.72   4
   1   1   2 167764. 1497.76  11
  -1  -1  -2 175156. 1333.92  12
   1  -1   2 173359. 1597.53  11
   1   1   2 170535. 1292.79  10
   1  -1   3 26712.7 751.331  11
  -1  -1  -3 25228.7 758.424   1
   1   1   3 26348.1 703.791  11
  -1   1  -3 28072.7 798.975  12
  -1  -1  -3 27238.2 775.271   4
  -1   1  -3 26737.2 723.363   4
  -1  -1  -3 26901.6 625.703  12
   1   1   3 27315.2 474.619   2
  -1   1  -4 77755.3 1463.22   4
  -1  -1  -4 54845.4 1154.99   3
   1   1   4 75824.1 1400.80  11
  -1   1  -4 75009.4 1499.56  12
   1  -1   4 63519.7 1350.49  11
  -1  -1  -4 65232.4 1142.89  12
  -1  -1  -4 67698.2 1428.47   1
  -1  -1  -4 62519.5 1357.01   4
   1   1   5 37979.2 1162.44  11
  -1  -1  -5 33700.1 1138.57   4
  -1   1  -5 37309.4 1200.69  12
   1  -1   5 37369.4 1195.17  11
  -1  -1  -5 39155.2 1085.44   3
  -1  -1  -5 36861.3 1201.80   1
  -1   1  -5 39407.3 1209.79   4
  -1  -1  -5 36204.0 983.808  12
   1  -1   6 27604.5 1174.40  11
  -1  -1  -6 29478.9 1216.93   4
  -1   1  -6 28399.1 1182.00  12
  -1  -1  -6 26796.3 1147.24   1
   1   1   6 29116.7 1159.36  11
   1  -1   7 752.046 225.267  11
   1  -1   7 884.236 170.956  13
  -1  -1  -7 792.000 156.306  16
  -1   1  -7 145.213 120.548  12
  -1  -1  -7 780.532 223.801   4
  -1  -1  -7 812.215 169.791  17
  -1   1  -7 37.7709 55.4120  17
   1   1   7 131.819 106.533  11
  -1  -1  -7 979.522 248.875   1
  -1  -1  -8 3794.31 366.730  17
  -1  -1  -8 3903.56 359.410   7
  -1   1  -8 3684.56 361.670  17
   1  -1   8 4015.97 368.350  13
   1   1   8 3751.03 357.195  13
  -1   1  -9 3278.43 302.538   7
   1  -1   9 4380.80 361.757  13
  -1   1  -9 3644.97 341.524  17
  -1  -1  -9 4251.04 352.588   7
   1   1   9 3053.36 308.599  13
  -1  -1  -9 4262.03 367.030  17
   1   1  10 14792.5 562.249  13
   1  -1  10 14179.7 539.338  13
  -1  -1 -10 13918.1 534.813   7
  -1   1 -10 15277.2 532.479   7
  -1  -1 -10 13837.3 550.530  17
  -1   1 -10 15008.0 583.497  17
  -1  -2  10 18351.1 577.381  13
   1   2 -10 19000.4 664.119  17
  -1  -2  10 18754.4 624.598  18
   1  -2 -10 18629.0 615.730   7
  -1   2  10 18712.7 623.250  13
   1   2  -9 11064.5 494.335   7
  -1   2   9 11213.9 580.827  13
  -1  -2   9 9314.06 524.702  18
   1  -2  -9 9825.83 499.043  17
   1   2  -9 11046.2 593.930  17
   1  -2  -9 10262.3 539.380   7
  -1  -2   9 10378.9 527.102  13
   1   2  -8 18830.4 818.753  17
   1  -2  -8 19388.4 780.352   7
   1   2  -8 18967.0 699.773   7
  -1  -2   8 19057.7 764.564  13
   1  -2  -8 18464.3 740.280  17
   1   2  -7 1767.73 218.004  14
   1   2  -7 1144.74 172.775   7
   1  -2  -7 1243.79 195.271   7
   1   2  -7 942.546 249.491  12
  -1   2   7 1543.04 301.109  10
   1  -2  -7 1190.12 269.150   3
   1  -2  -7 1059.97 269.456   4
   1  -2  -7 1194.19 187.723  17
  -1  -2   7 1158.24 189.378  13
   1  -2  -7 1210.74 182.384   9
   1   2  -7 1271.76 213.583  17
  -1  -2   7 1112.08 260.427  11
   1   2  -6 20527.3 1039.31  12
   1   2  -6 21423.3 789.881  17
   1  -2  -6 19785.8 1036.68   4
   1  -2  -6 20514.2 1001.95   3
   1  -2  -6 22028.5 809.239  16
  -1  -2   6 19999.2 999.821  11
   1  -2  -5 56432.6 1536.39   3
   1  -2  -5 54443.8 1532.41   4
   1   2  -5 60809.4 1596.18  12
  -1   2   5 61994.8 1316.62  11
  -1  -2   5 54788.4 1470.54  11
   1  -2  -4 91524.6 1787.89   4
   1   2  -4 90632.4 1739.22  12
  -1  -2   4 89868.1 1657.49  11
   1  -2  -4 92656.1 1301.29   1
   1  -2  -4 90510.9 1743.10   3
  -1   2   4 88133.9 1334.10  11
  -1  -2   3 10040.7 523.986   1
   1  -2  -3 10239.7 366.454   1
  -1   2   3 5705.24 270.113  11
   1   2  -3 5740.04 387.280  12
   1   2  -3 5306.62 382.451  10
   1  -2  -3 9132.38 491.385   4
  -1  -2   3 8784.44 445.499  11
   1  -2  -3 9795.16 510.404   3
  -1   2   2 24410.2 408.334  11
   1  -2  -2 28757.1 774.100   3
  -1   2   2 23463.8 699.184  10
   1  -2  -2 28367.8 732.159   4
   1   2  -2 23404.9 729.714  10
   1  -2  -2 27526.1 515.207   1
   1   2  -2 23689.2 681.991  12
  -1  -2   2 28197.9 670.729  11
  -1  -2   2 29370.5 809.182   1
  -1   2   1 190492. 969.622  12
   1  -2  -1 181479. 1319.52   1
  -1   2   1 189343. 1818.64  10
   1  -2  -1 187422. 1723.31   3
  -1  -2   1 190527. 1433.51  11
  -1  -2   1 199154. 1906.21   1
   1  -2  -1 187913. 1672.67   4
   1   2  -1 194000. 1872.91  10
   1   2  -1 191166. 1689.23  12
   1  -2   0 894343. 3158.53   3
   1   2   0 901080. 3850.25  10
  -1   2   0 900237. 3017.12  12
  -1  -2  -1 85695.6 1254.93   1
   1  -2   1 85674.0 737.810   3
  -1   2  -1 88441.7 1167.62  12
   1  -2   1 82425.0 1181.55   1
   1  -2   1 82483.5 948.470  11
  -1  -2  -1 86027.7 1265.35   4
   1   2   1 96864.4 1217.88  10
  -1   2  -1 92179.1 1253.19  10
  -1  -2  -2 11613.1 500.572   1
  -1   2  -2 12440.4 512.642  12
  -1  -2  -2 10467.3 481.843   4
   1  -2   2 10247.2 413.670  11
   1   2   2 12410.8 460.313  10
  -1  -2  -2 10961.3 275.007  12
  -1   2  -2 12612.5 490.974  10
   1   2   3 15799.6 540.359  11
  -1   2  -3 16326.1 672.111  12
   1  -2   3 19275.4 671.150  11
  -1  -2  -3 19359.6 725.187   4
   1   2   3 16464.5 578.929  10
  -1   2  -3 16067.5 608.756  10
  -1  -2  -3 21833.0 769.535   1
  -1  -2  -4 28152.5 968.544   1
   1   2   4 22306.2 744.816  10
   1  -2   4 28508.3 947.491  11
   1   2   4 24562.5 794.156  11
  -1  -2  -4 29129.1 1032.24   4
  -1   2  -4 25446.2 840.621  10
  -1   2  -4 24649.1 935.846  12
   1  -2   5 5527.52 481.670  11
  -1  -2  -5 5979.64 527.640   4
  -1   2  -5 4563.29 456.128  12
  -1  -2  -5 5679.76 477.268   3
   1   2   5 4280.72 383.148  11
  -1  -2  -5 5782.21 489.305   1
   1   2   5 3974.53 347.180  10
  -1  -2  -6 52150.7 1215.35  17
  -1  -2  -6 49682.8 1590.60   1
  -1  -2  -6 48434.7 1186.23  16
  -1   2  -6 46293.1 1614.83  12
  -1   2  -6 49405.2 1191.90  17
   1  -2   6 49323.0 1608.05  11
  -1  -2  -6 45224.0 1575.53   4
   1   2   6 48584.9 1121.41   5
  -1  -2  -6 48117.5 1509.06   3
   1  -2   6 49802.9 1198.26  13
  -1   2  -6 48452.1 1147.27  14
  -1  -2  -7 8080.39 518.777  16
  -1   2  -7 8145.54 728.506  12
  -1  -2  -7 8195.53 518.141  17
  -1  -2  -7 8164.29 502.428   7
   1  -2   7 8073.62 513.889  13
  -1   2  -7 8145.06 518.834  17
  -1  -2  -7 8005.57 727.069   4
  -1   2  -7 8375.66 497.031  14
   1   2   7 8622.65 489.196   5
   1  -2   7 7894.72 712.189  11
   1  -2   8 23929.2 884.307  13
   1   2   8 22678.8 871.822  13
  -1   2  -8 22718.0 797.659   7
  -1  -2  -8 23875.6 860.005   7
  -1   2  -8 22143.5 782.876  14
  -1  -2  -8 23948.2 888.394  17
  -1   2  -8 22076.7 860.313  17
  -1  -2  -9 4458.44 342.937   7
  -1  -2  -9 4952.36 369.809  17
  -1   2  -9 4645.80 367.716  17
   1  -2   9 4881.60 364.786  13
  -1   2  -9 5017.96 341.588   7
   1   2   9 5088.41 384.216  13
  -1   2  -9 4539.29 307.569  14
  -1   2 -10 5053.84 312.484  17
   1   2  10 5232.17 317.055  13
  -1   2 -10 5329.56 267.650   7
   1  -2  10 4811.65 295.867  18
  -1  -2 -10 4571.08 279.865   7
  -1  -2 -10 4767.40 286.651  17
   1  -2  10 4565.12 286.403  13
  -1   3  10 15261.0 513.375  13
   1  -3 -10 14088.4 455.233   7
  -1  -3  10 13964.5 437.669  13
  -1  -3  10 14435.4 495.550  18
   1   3  -9 4843.77 368.995  17
  -1  -3   9 6667.62 391.454  13
   1  -3  -9 6878.96 400.846   7
  -1   3   9 5308.92 381.747  13
   1  -3  -9 6950.04 372.146   9
  -1  -3   9 6617.57 417.167  18
   1   3  -8 4250.48 382.468  17
  -1  -3   8 4246.83 351.851  13
   1  -3  -8 3896.99 333.057   7
   1   3  -8 4113.92 334.603  14
  -1  -3   8 4121.47 363.311  18
   1  -3  -8 3853.97 328.771   9
   1  -3  -7 694.687 160.961  16
   1   3  -7 1658.48 241.608  17
   1  -3  -7 855.224 159.891   7
   1  -3  -7 902.198 167.179   9
  -1  -3   7 768.236 165.641  18
   1   3  -7 1595.77 219.284  14
  -1  -3   7 962.475 174.020  13
   1  -3  -6 17264.5 668.553   7
   1  -3  -6 18107.5 715.354   9
  -1  -3   6 17722.1 730.550  18
   1   3  -6 14093.0 663.321  17
   1   3  -6 14653.3 943.518  12
   1  -3  -6 16792.6 1017.68   4
  -1  -3   6 17665.8 704.607  13
   1  -3  -6 17377.3 1016.80   3
  -1  -3   6 16523.9 941.888  11
   1   3  -6 14245.3 635.320  14
   1  -3  -6 17539.6 760.096  16
  -1   3   6 14446.9 890.804  10
   1  -3  -5 52772.2 1673.72   4
   1   3  -5 52246.4 1627.27  12
  -1  -3   5 53536.2 1509.47  11
   1  -3  -5 56367.4 1706.87   3
   1  -3  -4 107775. 2157.09   3
   1   3  -4 106888. 2086.08  12
   1  -3  -4 110084. 2171.31   4
  -1   3   4 116211. 2150.61  10
   1   3  -4 112055. 2193.63  10
  -1  -3   4 102966. 1873.29  11
  -1  -3   3 15972.5 763.991   1
   1  -3  -3 17777.3 774.006   4
   1   3  -3 15736.2 713.053  12
   1   3  -3 15648.3 755.790  10
   1  -3  -3 17335.4 774.021   3
  -1   3   3 16040.9 738.948  10
  -1  -3   3 16506.9 655.382  11
   1   3  -2 1050.39 184.249  10
   1   3  -2 991.329 160.241  12
  -1   3   2 973.063 174.054  10
   1  -3  -2 2052.42 240.857   3
   1  -3  -2 2005.38 239.781   4
  -1  -3   2 2011.46 193.009  11
  -1  -3   2 1912.32 246.715   1
   1  -3  -2 2082.83 184.466   1
  -1  -3   1 23568.9 546.884  11
   1  -3  -1 24914.4 753.189   3
   1  -3  -1 24461.1 767.739   4
  -1  -3   1 25919.7 844.420   1
   1   3  -1 25243.1 711.603  12
  -1   3   1 22773.5 781.331  10
   1  -3  -1 23790.1 647.127   1
   1   3  -1 24180.0 808.794  10
  -1  -3   0 99385.8 1583.70   1
   1  -3   0 97372.0 1402.80   1
  -1   3   0 98116.0 1597.81  10
   1   3   0 102306. 1629.72  10
  -1  -3   0 96886.6 856.202  11
   1  -3   0 95919.2 1306.28   3
  -1   3   0 100693. 1157.45  12
  -1   3  -1 21467.8 651.136  12
  -1  -3  -1 21847.2 783.529   4
   1  -3   1 21919.8 506.403  11
  -1  -3  -1 22181.1 749.993   1
   1  -3   1 22572.4 527.025   3
  -1   3  -1 23476.3 796.925  10
   1   3   1 20802.4 725.328  10
   1  -3   1 23001.7 747.878   1
   1   3   2 83873.4 1479.30  10
  -1  -3  -2 88838.4 1672.22   4
   1  -3   2 91497.6 1308.37  11
  -1  -3  -2 91148.4 1597.29   1
  -1   3  -2 87796.0 1525.78  12
  -1   3  -2 85919.6 1562.99  10
  -1   3  -3 2387.79 282.979  10
  -1  -3  -3 2222.82 271.624   1
   1  -3   3 2197.77 240.737  11
  -1  -3  -3 2144.88 282.213   4
  -1   3  -3 2518.41 294.681  12
   1   3   3 2328.72 262.267  10
  -1  -3  -4 65871.2 1732.75   4
   1  -3   4 67044.5 1525.88  11
  -1   3  -4 67602.1 1582.76  10
  -1   3  -4 70164.4 1734.71  12
   1   3   4 67781.7 1513.00  10
  -1  -3  -4 70105.0 1639.31   1
  -1  -3  -5 39586.7 1489.72   4
   1  -3   5 39501.7 1332.74  11
  -1   3  -5 38303.2 1433.90  12
  -1  -3  -5 39580.6 1342.81   1
  -1  -3  -5 39013.6 1421.76   3
   1  -3   5 40396.7 1049.60  13
   1  -3   6 13778.9 653.155  13
  -1  -3  -6 14452.8 923.175   3
  -1  -3  -6 14371.6 608.212   7
  -1   3  -6 13128.8 629.510  14
   1  -3   6 14454.6 902.209  11
  -1  -3  -6 14000.4 678.311  16
  -1  -3  -6 14336.5 706.728  18
   1   3   6 12830.2 611.268   5
  -1   3  -6 12823.3 615.729  17
  -1  -3  -6 14526.4 963.651   4
  -1   3  -6 13144.0 912.252  12
  -1  -3  -6 14583.2 650.204  17
  -1  -3  -7 12540.9 589.680   7
   1   3   7 14024.2 634.021   5
  -1  -3  -7 12061.3 651.496  16
  -1   3  -7 14240.5 670.021  14
   1  -3   7 12490.8 635.735  13
  -1   3  -7 13990.6 662.965  17
  -1  -3  -7 12036.8 604.987  17
  -1   3  -8 6009.71 411.350  14
  -1   3  -8 6106.99 427.559  17
  -1  -3  -8 5259.31 372.124   9
   1  -3   8 5559.19 408.843  18
  -1  -3  -8 6051.53 412.167  17
  -1  -3  -8 5234.75 418.437  16
  -1  -3  -8 5278.55 372.977   7
   1  -3   8 6148.21 432.614  13
  -1   3  -9 5577.06 359.113  17
  -1  -3  -9 5327.07 324.914   7
   1  -3   9 5303.27 351.842  18
  -1  -3  -9 5711.45 339.980  17
  -1   3  -9 5319.51 327.379  14
   1  -3   9 5743.61 366.949  13
   1   3   9 5207.86 361.681  13
   1  -3  10 5796.38 284.978  13
   1   3  10 6227.02 306.137  13
   1  -3  10 5772.05 279.025  18
  -1   3 -10 5959.17 276.832  17
  -1   4  10 10407.6 346.349  13
   1   4 -10 11218.2 342.745   8
  -1  -4   9 5439.64 339.492  18
   1  -4  -9 4973.04 300.693   9
   1  -4  -9 5650.68 290.294   7
   1   4  -9 6292.53 326.097  14
  -1   4   9 6095.26 371.151  13
  -1  -4   9 5451.97 308.952  13
  -1  -4   8 31729.1 888.959  13
   1   4  -8 32835.8 959.563  17
  -1  -4   8 32462.9 962.936  18
   1   4  -8 31707.8 899.158  14
   1  -4  -8 31898.6 928.357   9
   1  -4  -8 30756.8 820.169   7
   1  -4  -7 14427.3 732.551  16
   1  -4  -7 14391.4 677.288   9
  -1  -4   7 14086.8 637.271  13
  -1  -4   7 14500.9 686.663  18
   1  -4  -7 14452.6 600.001   7
   1   4  -7 15346.0 687.261  14
   1   4  -7 14894.7 691.161  17
   1  -4  -6 14144.1 709.183  16
  -1  -4   6 14438.9 685.935  18
  -1  -4   6 13827.7 637.653  13
   1   4  -6 12787.4 639.782  17
   1   4  -6 13100.1 642.510  14
   1  -4  -6 13852.7 665.368   9
  -1   4   5 28488.6 866.944   5
   1   4  -5 29290.5 1322.83  12
   1  -4  -5 28573.0 1345.01   4
   1  -4  -5 29133.1 842.144   6
   1  -4  -5 28625.7 951.097  16
  -1  -4   5 29439.0 1155.03  11
   1   4  -5 29073.1 920.571  17
  -1  -4   5 29508.9 942.613  18
   1   4  -5 28729.8 916.075  14
  -1   4   5 28220.3 1268.71  10
  -1  -4   5 28414.1 884.189  13
   1  -4  -5 28316.8 1336.78   3
   1   4  -4 21925.5 1048.21  12
  -1  -4   4 22555.8 905.475  11
   1   4  -4 21125.7 1070.80  10
   1  -4  -4 24043.3 1138.51   4
   1  -4  -4 24485.6 1144.92   3
  -1   4   4 22365.2 1070.32  10
   1  -4  -3 1573.12 264.190   4
  -1   4   3 3376.13 396.137  10
   1   4  -3 3153.98 393.510  10
  -1  -4   3 1515.72 273.029   1
   1  -4  -3 1494.61 262.740   3
   1   4  -3 3171.05 363.745  12
  -1  -4   2 23423.6 1002.74   1
   1  -4  -2 22882.1 940.708   4
  -1   4   2 23458.2 980.318  10
   1   4  -2 25429.9 1036.34  10
   1  -4  -2 21613.0 905.482   3
   1   4  -1 47482.9 1360.20  10
   1  -4  -1 48323.3 1311.52   4
   1  -4  -1 47859.3 1223.80   3
   1  -4  -1 47301.6 1116.96   1
  -1   4   1 49781.5 1379.05  10
  -1  -4   1 51311.9 1407.53   1
   1  -4   0 383399. 3123.24   3
   1  -4   0 389174. 3387.85   1
  -1   4   0 375758. 3781.03  10
   1   4   0 386956. 3812.96  10
  -1   4  -1 17120.2 660.000  12
  -1  -4  -1 14357.6 758.444   4
  -1  -4  -1 14320.9 708.323   1
   1   4   1 16322.6 777.875  10
  -1   4  -1 17399.8 817.497  10
   1  -4   1 15270.2 721.188   1
  -1   4  -2 15486.3 717.574  12
  -1  -4  -2 15714.8 830.614   4
  -1   4  -2 15737.4 797.192  10
  -1  -4  -2 14940.8 745.890   1
   1   4   2 16282.3 794.007  10
  -1   4  -3 25426.7 1067.86  10
  -1  -4  -3 21064.9 916.075   1
  -1   4  -3 27564.7 1077.50  12
   1   4   3 25683.8 1025.24  10
  -1  -4  -3 20998.4 1013.91   4
  -1   4  -4 18317.6 977.533  12
  -1   4  -4 18902.6 712.689  14
   1  -4   4 16196.3 669.446  13
  -1  -4  -4 14661.8 903.911   3
   1   4   4 18568.7 899.091  10
  -1  -4  -4 15091.9 814.635   1
  -1  -4  -4 15325.1 674.068  18
  -1  -4  -4 16891.2 641.729   6
  -1  -4  -4 16628.1 703.451  16
  -1   4  -4 19250.0 967.036  10
  -1  -4  -4 15843.5 949.728   4
   1   4   4 18858.2 720.118   5
   1  -4   5 3288.45 317.698  13
   1  -4   5 3217.62 304.328  18
   1   4   5 4695.89 379.335   5
  -1  -4  -5 3050.64 445.646   3
  -1  -4  -5 3057.12 323.578  18
  -1  -4  -5 3351.66 472.752   4
  -1  -4  -5 3131.96 325.897  16
  -1   4  -5 5144.25 559.178  12
  -1   4  -5 5093.14 393.808  14
  -1   4  -6 17993.9 758.894  14
  -1  -4  -6 17821.8 806.834  18
  -1  -4  -6 19226.9 831.403  16
   1  -4   6 19093.6 764.560  18
   1   4   6 17869.3 752.106   5
   1  -4   6 19219.0 788.057  13
   1  -4   7 9759.15 551.807  13
  -1   4  -7 9181.33 534.042  14
   1   4   7 9860.24 530.376   5
   1  -4   7 9525.91 532.593  18
  -1  -4  -7 9046.58 569.908  16
   1   4   8 10789.7 485.572   5
  -1   4  -8 11119.1 500.944  17
  -1  -4  -8 11668.0 596.822  16
  -1   4  -8 10304.1 516.725  14
   1  -4   8 11689.7 541.742  18
  -1  -4  -8 11251.5 532.016   9
   1  -4   8 12043.2 565.045  13
   1   4   9 6880.86 370.755  13
   1  -4   9 6260.35 337.201  13
   1  -4   9 5908.33 316.531  18
  -1  -4  -9 5891.84 299.240   9
  -1   4  -9 6646.63 331.812  14
   1   5  -9 7622.21 297.369  14
   1  -5  -9 7613.95 311.066   9
  -1   5   9 7361.42 334.734  13
  -1  -5   9 8444.20 345.675  18
   1  -5  -8 5999.52 365.805   9
   1   5  -8 5800.24 352.276  14
  -1  -5   8 5444.38 352.039  18
  -1  -5   8 5857.33 330.524  13
   1  -5  -7 19805.3 805.374  16
   1   5  -7 22682.1 800.937  14
  -1  -5   7 21001.0 776.075  18
   1  -5  -7 21326.0 788.822   9
  -1  -5   7 20315.4 713.081  13
  -1  -5   6 4805.09 371.594  13
   1   5  -6 6037.06 439.135  14
   1  -5  -6 5218.97 408.920   9
   1  -5  -6 4806.62 411.781  16
  -1  -5   6 4952.11 398.936  18
  -1  -5   5 17400.4 714.204  13
   1  -5  -5 16622.0 679.295   6
   1   5  -5 16725.5 729.862  14
   1  -5  -5 16973.7 755.628  16
  -1   5   5 16013.7 689.102   5
  -1  -5   5 16814.3 738.659  18
   1  -5  -5 17728.3 750.144   9
  -1  -5   4 23155.0 850.952  18
   1   5  -4 23407.9 844.928  14
   1  -5  -4 22625.9 794.507   6
  -1   5   4 22021.7 1163.68  10
   1   5  -4 24365.6 1257.28  10
   1  -5  -4 21832.4 823.877  16
   1  -5  -4 21119.2 1175.36   4
   1  -5  -4 22156.2 802.046   9
   1   5  -4 22357.8 769.479  15
   1  -5  -4 22880.5 1220.91   3
  -1  -5   4 21914.7 795.759  13
  -1  -5   3 53744.8 1205.23  13
  -1  -5   3 53935.4 1829.83   1
   1  -5  -3 54171.2 1209.71   6
  -1   5   3 52970.5 1757.10  10
   1  -5  -3 54070.1 1217.46  16
   1   5  -3 51717.4 1202.74  14
   1   5  -3 50060.1 1753.02  10
   1   5  -3 50699.9 1168.13  15
   1  -5  -3 51780.8 1149.96   9
  -1  -5   3 51928.7 1247.92  18
   1  -5  -3 48498.1 1660.39   4
   1  -5  -3 54764.3 1764.57   3
   1  -5  -2 347.368 131.421   4
  -1  -5   2 334.018 100.723  13
  -1   5   2 950.959 231.992  10
   1   5  -2 1066.66 250.015  10
  -1  -5   2 561.139 187.393   1
   1  -5  -2 433.711 107.986   6
  -1  -5   2 482.326 122.557  18
   1   5  -2 1184.71 180.606  15
   1  -5  -2 514.357 158.104   3
   1   5  -2 1004.83 164.305  14
   1  -5  -1 22680.1 966.023   3
   1  -5  -1 21997.3 1030.60   4
  -1  -5   1 23127.3 1094.19   1
   1   5  -1 22029.5 1077.94  10
   1  -5   0 2492.74 347.773   4
  -1   5   0 2750.56 384.193  10
  -1  -5   0 2932.18 384.000   1
   1   5   0 2830.93 381.982  10
   1  -5   0 2513.71 322.251   1
  -1  -5   0 2890.01 397.102   4
   1  -5   1 12033.1 750.043   1
  -1  -5  -1 13173.2 794.366   1
  -1  -5  -1 11917.8 812.037   4
  -1   5  -1 15664.2 908.306  10
   1   5   1 16553.2 921.480  10
   1  -5   2 5915.52 412.455  13
  -1  -5  -2 6010.58 413.647  16
  -1   5  -2 2836.86 391.766  10
   1   5   2 3235.27 287.818  15
  -1  -5  -2 5871.00 585.256   4
  -1  -5  -2 5785.83 384.721   6
  -1  -5  -2 5733.14 406.523  18
   1   5   2 3037.33 402.952  10
  -1  -5  -2 5684.54 520.100   1
   1   5   3 7107.62 612.808  10
  -1   5  -3 7431.32 656.660  10
  -1  -5  -3 6882.51 435.945   6
  -1  -5  -3 6949.56 656.782   4
   1  -5   3 7516.56 477.743  13
  -1   5  -3 6961.81 439.916  14
  -1  -5  -3 6798.05 640.721   3
   1  -5   3 6956.36 429.741  18
  -1  -5  -3 6809.40 463.327  16
  -1  -5  -3 6630.78 453.983  18
  -1   5  -4 11783.8 815.137  12
  -1  -5  -4 13142.5 617.351   6
  -1  -5  -4 14095.0 995.230   4
  -1   5  -4 11464.0 831.408  10
  -1  -5  -4 13818.7 688.835  16
  -1  -5  -4 12657.7 659.678  18
   1  -5   4 12484.6 632.291  13
   1  -5   4 13701.5 624.139  18
   1   5   4 11803.1 620.125   5
  -1   5  -4 11724.1 594.976  14
  -1  -5  -4 13711.5 964.201   3
   1  -5   5 25736.4 915.385  13
  -1   5  -5 24806.3 888.916  14
   1  -5   5 26502.9 884.439  18
  -1  -5  -5 24652.1 946.937  16
   1   5   5 23897.7 885.549   5
  -1  -5  -5 24864.0 944.136  18
  -1  -5  -6 11941.3 644.404  18
   1  -5   6 12001.8 582.341  18
  -1  -5  -6 12210.9 658.243  16
  -1   5  -6 11396.5 594.508  14
   1   5   6 11522.4 600.244   5
   1  -5   6 11876.7 606.896  13
   1  -5   7 19289.9 720.163  13
  -1  -5  -7 19187.9 727.065   9
  -1  -5  -7 19427.8 782.716  16
   1   5   7 19993.4 706.988   5
   1  -5   7 19807.6 692.640  18
  -1   5  -7 20316.2 741.714  14
  -1  -5  -8 4084.84 287.355   9
   1  -5   8 4201.90 272.673  18
   1   5   8 3605.26 237.845   5
   1  -5   8 4108.46 286.197  13
  -1   5  -8 3348.35 260.659  14
   1   5   9 1867.97 148.747  13
  -1   5  -9 2094.15 148.759  14
   1  -5   9 1859.69 143.440  13
  -1  -6   8 6637.05 298.093  18
   1  -6  -8 6599.63 305.994   9
  -1  -6   7 15695.0 577.944  18
   1  -6  -7 16309.2 590.685   9
   1   6  -7 15396.3 570.171  14
  -1  -6   7 15029.9 512.998  13
  -1  -6   6 127.100 74.2391  13
  -1  -6   6 245.717 84.1312  18
   1  -6  -6 60.0367 48.7080  16
   1  -6  -6 81.3887 55.3749   9
  -1   6   6 407.750 101.445   5
   1   6  -6 414.113 110.989  14
   1  -6  -5 18802.1 713.263   6
   1   6  -5 16911.3 714.143  14
  -1   6   5 16498.3 684.796   5
   1  -6  -5 19032.6 757.384  16
   1  -6  -5 19854.6 752.542   9
  -1  -6   5 20370.7 801.409  18
  -1  -6   5 18720.5 715.658  13
   1   6  -4 648.329 147.691  14
  -1   6   4 695.468 151.256   5
  -1  -6   4 561.354 138.744  13
   1  -6  -4 600.609 140.750  16
  -1  -6   4 565.593 140.897  18
   1  -6  -4 557.252 139.020   6
   1   6  -4 693.904 139.986  15
   1  -6  -4 537.212 125.320   9
   1  -6  -3 6267.22 437.429   6
  -1  -6   3 6598.13 464.525  18
   1   6  -3 4236.91 356.849  14
   1  -6  -3 6705.02 420.604   9
   1   6  -3 4465.41 367.429  15
  -1  -6   3 6427.73 440.638  13
  -1  -6   2 13760.8 648.866  13
  -1  -6   2 13215.2 654.718  18
   1   6  -2 16123.9 678.559  14
   1   6  -2 16536.1 718.568  15
   1  -6  -2 14249.3 653.994   6
  -1   6   2 15904.9 680.726  15
  -1  -6   1 1420.52 309.537   1
   1  -6  -1 1575.90 216.935   6
  -1  -6   1 1590.20 225.678  18
   1  -6  -1 1365.77 292.872   4
  -1  -6   1 1269.40 295.248   4
  -1   6   1 1379.64 307.868  10
   1   6  -1 1412.35 308.356  10
  -1   6   1 1384.13 205.147  15
   1   6  -1 1486.34 220.268  15
   1   6   0 41307.3 1621.05  10
  -1  -6   0 40429.9 1019.91   6
   1  -6   0 39517.7 1042.80   6
  -1  -6   0 39948.1 1117.32  18
   1  -6   0 39361.0 1521.90   4
  -1  -6   0 38689.2 1621.33   4
   1   6   0 39626.1 1110.09  15
  -1  -6   0 42050.9 1605.98   1
  -1   6   0 42242.6 1654.77  10
   1  -6   1 31218.3 900.135   6
  -1  -6  -1 30729.8 919.842   6
  -1  -6  -1 31210.9 1463.98   4
  -1  -6  -1 29585.3 932.297  16
  -1  -6  -1 29852.6 980.800  18
   1   6   1 33575.6 1010.74  15
  -1  -6  -1 29438.2 1311.61   1
  -1   6  -1 34314.0 1484.56  10
   1   6   1 31013.7 1391.65  10
  -1  -6  -1 28410.9 1269.35   3
   1  -6   1 29218.9 983.601  13
   1  -6   2 10853.7 600.895  13
  -1  -6  -2 11696.5 584.414   6
  -1  -6  -2 11747.4 608.587  16
  -1  -6  -2 11774.2 623.229  18
   1   6   2 11430.8 580.526  15
  -1  -6  -3 33344.6 997.763   6
   1   6   3 30905.2 903.738  15
  -1  -6  -3 32488.0 1050.98  18
   1  -6   3 34681.1 975.849  18
   1  -6   3 33336.6 1051.94  13
  -1  -6  -3 32836.3 1045.59  16
  -1   6  -3 29673.5 914.918  14
   1   6   3 30526.6 1027.08   5
  -1  -6  -4 1143.65 209.857  16
  -1   6  -4 1201.24 189.510  15
   1  -6   4 951.591 167.209  18
  -1  -6  -4 942.111 183.614  18
   1  -6   4 1090.98 192.909  13
  -1   6  -4 1243.76 193.110  14
   1   6   4 1359.51 220.297   5
  -1   6  -5 6136.91 421.326  14
  -1  -6  -5 4459.77 378.658  18
   1  -6   5 4798.06 379.528  13
  -1   6  -5 6396.44 383.554  15
  -1  -6  -5 4501.58 388.173  16
   1   6   5 6289.36 444.130   5
   1  -6   5 4527.90 343.699  18
  -1  -6  -6 16396.5 691.814  16
   1  -6   6 17318.2 613.699  18
   1   6   6 19513.1 713.495   5
  -1  -6  -6 17344.4 664.447   9
  -1   6  -6 20051.2 705.424  14
   1  -6   6 17804.8 677.738  13
   1  -6   7 3366.80 256.081  13
  -1   6  -7 3368.56 258.076  14
   1  -6   7 3213.36 221.213  18
   1   6   7 3523.55 248.951   5
  -1  -6  -7 3320.22 276.669  16
  -1  -6  -7 3211.91 255.116   9
  -1  -6  -8 12987.4 390.263   9
  -1   6  -8 13386.0 395.809  14
   1  -6   8 13201.9 382.828  13
   1   7  -7 15486.7 415.060  14
   1  -7  -6 4315.14 261.897   9
  -1  -7   6 4299.17 265.063  18
   1   7  -6 4726.84 287.848  14
  -1  -7   5 5877.21 358.938  18
   1  -7  -5 5653.75 328.269  16
   1  -7  -5 5772.82 333.330   9
  -1   7   5 5622.09 345.943   5
  -1  -7   5 5844.31 338.789  13
   1   7  -5 5711.53 355.211  14
   1  -7  -4 38369.5 983.591   6
  -1   7   4 37750.0 1003.89   5
   1   7  -4 37187.4 920.029  15
  -1  -7   4 39099.2 1002.85  18
   1  -7  -4 38986.5 887.310   9
   1   7  -4 37982.1 970.160  14
  -1  -7   3 5322.02 389.678  18
   1   7  -3 4384.06 348.973  15
   1  -7  -3 5392.02 389.860   6
   1   7  -3 4206.81 328.952  14
   1  -7  -2 4636.25 367.121   6
   1   7  -2 4835.93 350.121  14
  -1  -7   2 4554.10 371.854  18
  -1   7   2 4460.52 347.356  15
   1   7  -2 4674.75 375.557  15
  -1   7   1 7879.92 486.450  15
   1  -7  -1 5239.03 385.371   6
  -1  -7   1 5110.37 396.349  18
   1   7  -1 8248.22 507.716  15
  -1   7   0 1335.77 211.541  15
   1   7   0 1466.38 218.286  15
   1  -7   0 1888.74 227.615   6
  -1  -7   0 1797.75 236.576  18
  -1  -7   0 1929.86 219.243   6
  -1   7  -1 1003.83 184.549  15
  -1  -7  -1 1085.61 174.229   6
   1  -7   1 1119.64 168.314   6
  -1  -7  -1 1143.69 193.959  18
   1   7   1 1156.56 189.627  15
  -1  -7  -2 6608.82 427.498   6
  -1  -7  -2 6616.58 427.520  16
   1   7   2 5906.94 403.556  15
  -1  -7  -2 6447.21 442.412  18
  -1   7  -2 6083.96 429.646  15
   1   7   2 5783.93 434.648   5
   1  -7   3 1151.50 191.624  13
  -1  -7  -3 1108.68 184.875  18
  -1   7  -3 1160.82 179.118  15
  -1  -7  -3 1163.54 182.394  16
   1   7   3 1218.82 166.317  15
   1   7   3 1235.07 197.613   5
  -1  -7  -4 16975.4 665.146  16
  -1  -7  -4 16968.9 666.084  18
   1  -7   4 17166.8 675.001  13
  -1   7  -4 17776.8 620.313  14
  -1  -7  -4 16648.4 586.475   9
   1   7   4 17154.2 684.925   5
  -1   7  -4 16237.2 611.275  15
  -1  -7  -5 2566.74 242.091  16
  -1  -7  -5 2361.04 210.217   9
   1  -7   5 2338.02 229.698  13
  -1  -7  -5 2338.79 223.888  18
   1   7   5 2963.90 262.360   5
  -1  -7  -6 1839.31 180.559  16
   1   7   6 1814.86 171.004   5
  -1  -7  -6 1847.73 165.455   9
   1  -7   6 1750.15 169.635  13
  -1   7  -6 1505.88 150.113  14
   1   8  -4 5725.61 258.758  14
   1   8  -4 6145.38 273.173  15
  -1   8   4 6165.26 310.282   5
  -1  -8   4 6215.23 288.166  18
  -1   8   3 1951.55 200.133   5
  -1  -8   3 984.360 131.482  18
   1  -8  -3 867.688 130.155   6
   1   8  -3 1973.47 188.492  15
  -1   8   2 8269.90 384.588  15
   1  -8  -2 9224.51 429.396   6
  -1  -8   2 8687.98 408.618  18
   1   8  -2 8920.55 437.221  15
  -1   8   2 8705.76 451.894   5
  -1  -8   1 3288.21 261.144  18
   1  -8  -1 3468.74 265.934   6
  -1   8   1 3322.67 268.426  15
   1   8  -1 3456.70 284.386  15
  -1  -8   0 38744.7 901.297  18
   1  -8   0 39293.1 861.535   6
   1   8   0 39348.8 957.103  15
  -1   8   0 38831.2 950.453  15
   1   8   1 16224.6 619.732   5
   1  -8   1 16463.2 507.043   6
  -1  -8  -1 15921.5 572.806  18
   1   8   1 17253.1 608.217  15
  -1   8  -1 16904.1 621.264  15
  -1  -8  -2 531.518 105.600  18
   1   8   2 727.606 133.110   5
   1   8   2 622.401 109.210  15
  -1   8  -2 652.901 121.135  15
   1   8   3 468.282 104.349   5
  -1   8  -3 461.132 93.6526  15
   1   8   4 38.2030 37.0399   5
  -1   8  -4 74.1123 39.0432  15
  -1   9   0 1272.24 118.551   5
   2   0 -11 10910.9 358.002   7
   2   0 -10 27441.3 813.490  17
  -2   0  10 27784.5 745.722  13
  -2   0  10 28567.8 763.992  18
   2   0 -10 28459.9 796.488   7
   2   0  -9 129.869 78.0709   7
  -2   0   9 113.440 59.2633  13
   2   0  -9 118.968 67.8466  17
  -2   0   8 28627.3 927.259  13
   2   0  -8 30132.0 1011.68  17
   2   0  -8 29502.3 953.324   7
  -2   0   7 574.668 136.863  13
   2   0  -7 603.715 133.582   7
  -2   0   7 493.462 184.897  11
   2   0  -7 671.056 145.900  17
   2   0  -6 24733.7 1114.39   4
  -2   0   6 27146.2 1115.37  11
   2   0  -6 26646.5 1011.95   3
   2   0  -5 29988.4 1075.06   4
  -2   0   5 30468.3 1045.79  11
   2   0  -5 28477.2 950.377   3
   2   0  -4 207910. 2296.53   3
   2   0  -4 202028. 2420.21   4
   2   0  -3 22630.9 687.486   4
   2   0  -3 22557.7 682.700   3
   2   0  -3 22767.6 526.711   2
  -2   0   3 22424.4 670.177  11
   2   0  -2 22079.9 553.921   4
  -2   0   2 22134.9 585.667  11
  -2   0   2 22500.6 424.093   1
   2   0  -2 21907.4 601.323   3
   2   0  -2 21551.1 514.212   2
   2   0  -1 48923.8 765.419   2
  -2   0   1 51231.9 588.804   1
  -2   0   0 184863. 1356.58   1
   2   0   1 12670.4 388.392   2
  -2   0  -1 13875.6 288.331   4
  -2   0  -2 35745.1 644.723   4
   2   0   2 35186.5 653.657   2
  -2   0  -2 35158.6 816.820  12
   2   0   2 34989.2 827.576  11
   2   0   3 570.584 83.9593   2
  -2   0  -3 682.094 131.538  12
   2   0   3 684.494 137.015  11
  -2   0  -3 661.920 111.682   4
  -2   0  -4 21717.3 755.542   4
   2   0   4 21266.7 844.607  11
  -2   0  -5 10871.4 647.330  12
  -2   0  -5 11490.9 645.589   4
   2   0   5 11988.6 713.627  11
   2   0   6 85855.3 2148.34  11
   2   0   6 86204.8 1539.27  13
  -2   0  -6 89339.1 1617.65  17
  -2   0  -6 82829.2 1960.50  12
  -2   0  -6 86527.6 2015.71   4
   2   0   6 85702.5 1494.52   5
   2   0   7 18957.8 1104.97  11
  -2   0  -7 17667.5 781.487  17
  -2   0  -7 18974.4 1127.47   1
   2   0   7 18114.4 715.937   5
   2   0   7 18767.5 772.090  13
  -2   0  -8 12144.5 657.046  17
   2   0   8 11383.9 611.487  13
   2   0   8 12203.0 568.485   5
   2   0   9 2998.19 291.390  13
  -2   0  -9 2836.61 284.199   7
  -2   0  -9 2960.62 301.125  17
  -2   0 -10 27.9852 44.3112  17
  -2   0 -10 27.4163 37.1925   7
   2   0  10-2.63005 30.8058  13
   2  -1 -11 2478.37 175.184   7
   2   1 -10 1343.73 160.640   7
   2  -1 -10 996.045 155.072   7
   2   1 -10 1254.30 178.753  17
  -2  -1  10 1217.60 160.198  18
   2  -1 -10 1100.65 151.430  17
  -2   1  10 1572.63 179.093  13
  -2  -1  10 947.559 133.638  13
   2   1  -9 31346.4 905.180   7
   2  -1  -9 31599.3 966.393   7
  -2  -1   9 29351.7 878.364  13
   2  -1  -9 30887.4 941.001  17
   2   1  -9 30270.8 998.642  17
  -2   1   9 32321.7 957.927  13
   2  -1  -8 1121.66 192.110   7
  -2   1   8 771.151 156.365  13
   2   1  -8 705.983 145.931   7
   2  -1  -8 1228.91 201.761  17
  -2  -1   8 1219.17 191.616  13
   2   1  -8 620.190 149.271  17
   2  -1  -7 10067.2 546.157   7
   2  -1  -7 9793.76 787.941   4
   2   1  -7 12793.1 591.441   7
  -2  -1   7 9571.56 513.683  13
   2  -1  -7 9857.99 536.942  17
  -2   1   7 12243.5 793.792  11
   2   1  -7 13467.3 664.702  17
  -2  -1   7 10313.4 775.012  11
   2  -1  -6 25789.4 1142.69   4
  -2   1   6 25084.4 1025.78  11
   2  -1  -6 26519.5 1081.88   3
  -2  -1   6 27741.2 1167.93  11
   2  -1  -5 21436.3 884.260   3
  -2  -1   5 22725.7 935.955  11
   2   1  -5 22864.0 825.517   3
   2  -1  -5 20449.9 892.583   4
  -2   1   5 21387.7 842.083  11
  -2  -1   4 20671.1 776.425  11
   2  -1  -4 19696.9 766.019   3
  -2   1   4 15422.1 617.666  11
   2   1  -4 15176.7 620.080   3
   2  -1  -4 19189.5 741.698   4
   2  -1  -3 63919.6 1146.54   4
  -2  -1   3 63897.6 1192.15  11
  -2   1   3 65732.5 1089.14  11
   2  -1  -3 62385.5 1206.87   3
   2   1  -3 65195.2 982.558   2
   2   1  -3 62686.2 1154.29   3
   2  -1  -3 60855.0 515.137   1
  -2  -1   3 64279.8 1137.14   1
   2  -1  -2 5053.50 267.602   4
   2   1  -2 3931.91 270.729   3
  -2   1   2 4208.42 240.093  11
  -2  -1   2 4799.06 292.082  11
   2  -1  -2 4935.86 269.823   2
   2   1  -2 4202.54 280.258  10
  -2  -1   2 5138.21 287.500   1
   2  -1  -2 4745.21 297.278   3
  -2  -1   1 277968. 1949.25   1
   2  -1  -1 275451. 2003.16   2
   2  -1  -1 271792. 1474.94   4
   2  -1  -1 277016. 1975.58   3
  -2  -1   0 106122. 1267.24   1
  -2   1   0 106148. 1205.74  12
  -2   1   0 110143. 1028.28  10
   2  -1   0 106418. 1069.28   3
   2   1   0 107168. 993.914  10
  -2   1  -1 114454. 968.886  10
  -2  -1  -1 110199. 1162.26   4
   2  -1   1 111557. 1315.11  11
  -2  -1  -1 112813. 1409.45   1
   2   1   1 115397. 853.019  10
   2  -1   1 114518. 1289.41   2
  -2   1  -2 129376. 1072.24  10
  -2  -1  -2 133178. 1505.90  12
  -2   1  -2 134859. 1716.39  12
   2  -1   2 140250. 1438.66   2
  -2  -1  -2 141797. 1511.52   4
   2  -1   2 142279. 1704.83  11
   2   1   2 130063. 931.537  10
   2   1   2 131492. 1378.01   2
  -2  -1  -2 147740. 1821.12   1
  -2  -1  -3 25022.2 760.859   4
   2   1   3 25435.2 798.203  11
   2   1   3 24636.9 482.628  10
   2   1   3 25656.9 589.998   2
  -2  -1  -3 27351.8 880.028   1
   2  -1   3 24806.2 813.324  11
  -2  -1  -3 23448.8 706.896  12
  -2   1  -3 26273.6 852.429  12
   2  -1   4 43697.9 1234.40  11
  -2  -1  -4 44136.8 1158.75   4
  -2   1  -4 38176.1 1155.22  12
  -2  -1  -4 44328.1 1073.20  12
   2   1   4 35799.9 1084.45  11
  -2  -1  -4 41767.8 1229.85   1
  -2   1  -5 61076.4 1640.22  12
   2  -1   5 59815.7 1646.71  11
   2   1   5 58854.1 1567.37  11
  -2  -1  -5 58444.8 1650.42   1
  -2  -1  -5 56808.3 1360.89  12
  -2  -1  -5 59872.3 1519.56   4
  -2  -1  -6 7020.06 596.053   4
   2  -1   6 8045.53 478.401  13
   2   1   6 7594.96 450.299   5
   2  -1   6 7615.00 655.887  11
   2   1   6 6903.42 598.611  11
  -2   1  -6 7660.12 639.604  12
  -2  -1  -6 7559.01 480.776  17
  -2   1  -6 7828.34 482.399  17
  -2  -1  -6 7729.48 666.711   1
   2  -1   6 7919.53 452.078   5
   2  -1   7 2474.83 412.660  11
  -2  -1  -7 2457.27 387.969   4
   2   1   7 4567.89 531.838  11
   2  -1   7 2284.09 272.494  13
   2   1   7 4635.02 388.166  13
  -2   1  -7 3768.49 486.133  12
  -2  -1  -7 2363.34 287.925  17
   2  -1   7 2269.86 252.476   5
   2   1   7 4395.78 358.678   5
  -2   1  -7 4194.52 379.400  17
  -2  -1  -7 2225.76 388.583   1
   2   1   8 401.674 112.311   5
   2  -1   8 633.036 150.459  13
   2  -1   8 575.560 126.579   5
  -2   1  -8 477.281 133.308  17
  -2   1  -8 437.416 113.038  14
   2   1   8 380.108 120.245  13
  -2  -1  -8 635.070 157.210  17
   2  -1   9 10339.0 528.354  13
  -2  -1  -9 9580.88 508.548   7
  -2   1  -9 10213.1 515.881   7
   2   1   9 10048.2 523.947  13
  -2  -1  -9 9579.61 533.378  17
  -2   1  -9 10077.9 540.573  17
  -2  -1 -10 16313.7 562.108  17
   2   1  10 15466.6 517.809  13
   2  -1  10 17002.9 540.888  13
  -2  -1 -10 16632.2 536.339   7
  -2   1 -10 15349.2 502.175   7
  -2   1 -10 15861.3 552.044  17
  -2  -2  10 335.993 83.8416  18
  -2   2  10 730.275 120.682  13
   2  -2 -10 539.929 110.945   7
   2   2 -10 713.134 127.616  17
   2   2 -10 614.713 105.014   8
  -2  -2  10 419.333 80.6087  13
   2   2  -9 2584.07 234.121   7
  -2   2   9 2399.76 258.937  13
  -2  -2   9 2540.06 246.862  13
  -2  -2   9 2557.02 269.873  18
   2  -2  -9 2446.78 264.624   7
   2   2  -9 2629.97 294.648  17
   2  -2  -8 19237.6 780.491   7
   2   2  -8 19650.8 838.851  17
  -2  -2   8 18980.2 730.260  13
   2   2  -8 19496.6 694.890   7
   2  -2  -8 19907.2 715.597   9
  -2  -2   8 19285.0 782.238  18
   2  -2  -7 55998.8 1921.77   4
   2  -2  -7 56275.8 1298.13   7
  -2  -2   7 57421.4 1258.09  13
  -2  -2   7 53545.9 1808.28  11
   2  -2  -7 55192.2 1801.45   3
   2  -2  -7 54198.4 1216.99   9
   2   2  -7 53069.0 1364.17  17
   2  -2  -6 18574.8 687.145   9
   2  -2  -6 19426.9 714.395   7
   2  -2  -6 17485.3 976.250   4
   2   2  -6 17138.2 719.532  17
   2  -2  -6 20738.0 1038.97   3
   2  -2  -6 19445.5 772.269  16
  -2  -2   6 18866.2 999.173  11
   2  -2  -5 40192.6 1304.26   4
   2   2  -5 38913.2 1334.88  12
  -2  -2   5 40815.5 1324.14  11
   2  -2  -5 40233.9 1333.11   3
   2  -2  -4 9002.31 549.304   4
   2   2  -4 7295.90 387.688   2
   2   2  -4 7372.15 518.307  12
  -2  -2   4 8623.61 532.384  11
  -2  -2   4 9010.82 562.781   1
  -2   2   4 7504.02 406.024  11
   2  -2  -4 8105.05 539.344   3
   2  -2  -3 71295.7 1358.90   4
  -2  -2   3 70842.0 1424.83   1
   2   2  -3 70668.4 1471.68  10
  -2  -2   3 68675.8 1317.16  11
   2  -2  -3 72822.8 1458.16   3
  -2   2   3 73181.4 1060.97  11
   2  -2  -2 110886. 1459.92   4
  -2   2   2 121652. 1111.13  12
  -2  -2   2 114888. 1503.04  11
  -2   2   2 124209. 1156.94  11
  -2  -2   2 107957. 1627.44   1
   2   2  -2 121641. 1745.81  10
   2  -2  -2 108901. 1598.85   3
  -2   2   1 104200. 1428.75  10
  -2   2   1 102562. 1118.49  12
   2  -2  -1 104762. 1170.68   4
   2  -2  -1 107549. 1389.08   3
  -2  -2   1 102825. 1500.79   1
   2  -2   0 26732.7 530.559   4
  -2   2   0 24418.1 615.347  12
   2  -2   0 28636.0 765.402   2
  -2   2   0 24536.7 660.851  10
   2   2   0 23034.1 616.791  10
   2  -2   0 26314.1 588.956   3
  -2  -2   0 26774.6 763.040   1
   2   2   1 11753.5 428.931  10
  -2   2  -1 11723.7 490.141  12
  -2   2  -1 11970.7 453.300  10
  -2  -2  -1 8952.61 430.521   4
  -2  -2  -1 9383.52 478.817   1
   2  -2   1 8665.98 262.840   3
  -2  -2  -2 2200.07 254.510   1
  -2   2  -2 1678.32 210.986  12
  -2  -2  -2 1976.82 177.228  12
  -2  -2  -2 1855.47 214.251   4
  -2   2  -2 1995.35 189.477  10
   2   2   2 1795.55 167.490  10
   2  -2   2 1826.50 201.361  11
  -2  -2  -3 168671. 2391.82   1
  -2  -2  -3 173340. 1739.40  12
  -2   2  -3 171806. 1878.63  10
  -2  -2  -3 168895. 2241.92   4
   2  -2   3 171085. 2229.30  11
  -2   2  -3 172337. 2355.28  12
   2   2   3 170097. 1688.87  10
  -2   2  -4 20195.5 907.886  12
  -2  -2  -4 22073.8 918.126   4
   2  -2   4 20099.2 873.393  11
  -2  -2  -4 21691.3 947.148   1
  -2  -2  -5 19526.5 993.027   1
  -2  -2  -5 19301.1 953.263   4
   2  -2   5 17903.2 926.623  11
  -2   2  -5 18984.7 968.637  12
   2  -2   6 40381.9 1097.54  13
  -2  -2  -6 40132.3 1489.92   4
  -2   2  -6 41223.3 1569.79  12
   2  -2   6 40584.3 1540.63  11
  -2  -2  -6 39141.4 1105.40  17
  -2   2  -6 38958.6 1072.05  17
  -2  -2  -6 39760.0 1073.45  16
   2   2   6 38924.5 1057.23   5
   2  -2   6 38758.3 1019.73   5
  -2  -2  -6 40969.7 1578.37   1
  -2   2  -7 6414.12 447.813  14
   2  -2   7 8049.05 512.889  13
  -2  -2  -7 7818.35 494.609  16
  -2  -2  -7 8054.89 524.353  17
   2  -2   7 7651.96 459.186   5
   2   2   7 6951.39 459.706   5
  -2   2  -7 6454.77 456.560  17
   2  -2   8 22254.8 832.556  13
  -2  -2  -8 21427.6 799.018   7
   2   2   8 22007.9 833.997  13
  -2   2  -8 21222.5 772.588  14
  -2   2  -8 20988.2 809.944  17
   2   2   8 21918.7 768.797   5
  -2  -2  -8 20998.5 834.749  17
  -2   2  -9 12192.3 490.256  14
   2  -2   9 11394.6 524.697  13
  -2  -2  -9 10778.2 501.539   7
   2   2   9 12544.0 560.944  13
  -2  -2  -9 11146.0 539.751  17
   2  -2   9 11268.8 514.467  18
  -2   2  -9 12525.8 519.350   7
  -2   2  -9 12471.6 562.719  17
   2  -2  10 4754.21 267.410  13
  -2  -2 -10 4617.18 251.935   7
  -2   2 -10 4793.66 233.294   7
   2   2  10 4910.85 271.387  13
   2  -2  10 4874.18 261.436  18
  -2   2 -10 4568.45 262.748  17
  -2  -2 -10 4187.78 253.054  17
  -2   3  10 8807.96 366.108  13
   2  -3 -10 9150.81 372.703   7
   2   3 -10 9161.36 369.757   8
  -2  -3  10 9674.47 392.350  18
  -2  -3   9 26243.3 814.229  18
   2  -3  -9 25177.8 709.821   9
   2  -3  -9 25167.2 771.130   7
  -2  -3   9 25080.5 699.832  13
   2   3  -9 25171.9 838.851  17
  -2   3   9 24588.1 786.347  13
  -2  -3   8 9054.67 481.637  13
   2  -3  -8 8992.23 508.358   7
   2   3  -8 8969.00 475.401  14
   2  -3  -8 9022.48 499.030   9
  -2  -3   8 9157.25 535.075  18
   2   3  -8 9519.68 572.089  17
   2  -3  -7 22162.7 806.982   7
  -2  -3   7 21645.5 770.275  13
   2  -3  -7 22299.4 824.084   9
  -2  -3   7 22540.5 854.410  18
   2   3  -7 24948.3 942.975  17
   2   3  -7 25191.3 843.186  14
   2  -3  -6 8515.17 476.517   7
  -2  -3   6 9233.52 490.257  13
   2  -3  -6 8271.53 706.189   4
  -2  -3   6 8801.98 695.726  11
  -2   3   6 9301.69 741.659  10
  -2  -3   6 9067.42 524.523  18
   2   3  -6 8467.26 527.198  17
   2  -3  -6 9507.54 564.669  16
   2  -3  -6 9134.60 516.206   9
   2  -3  -6 9466.11 763.516   3
   2   3  -6 8260.71 482.029  14
   2  -3  -5 3640.76 428.227   4
  -2  -3   5 4543.55 457.619  11
  -2   3   5 4030.36 460.777  10
   2  -3  -5 4339.02 480.774   3
   2  -3  -4 12260.6 717.390   4
  -2  -3   4 12490.4 681.495  11
  -2  -3   4 13638.4 789.274   1
  -2   3   4 12814.4 747.512  10
   2  -3  -4 13014.7 765.148   3
   2   3  -4 13716.5 797.841  10
  -2  -3   3 65201.0 1583.70   1
  -2  -3   3 62827.2 1337.38  11
  -2   3   3 63413.0 1525.39  10
   2   3  -3 62062.1 1562.11  10
   2  -3  -3 66620.8 1492.32   4
   2  -3  -3 66363.4 1571.14   3
   2   3  -2 34885.0 1083.83  10
  -2  -3   2 34104.1 865.757  11
  -2   3   2 33844.9 1037.57  10
  -2  -3   2 34796.1 1093.53   1
   2  -3  -2 32633.1 991.262   3
   2  -3  -2 32594.8 910.635   4
  -2  -3   1 29695.1 953.420   1
   2  -3  -1 29089.4 793.734   4
  -2   3   1 26181.6 868.612  10
  -2  -3   1 30892.7 736.352  11
   2  -3  -1 31752.8 664.623   1
   2   3  -1 26529.1 875.559  10
   2  -3  -1 30775.8 863.495   3
  -2   3   0 4229.18 277.747  12
   2  -3   0 5764.66 333.963   4
  -2   3   0 4391.50 342.935  10
  -2  -3   0 5958.29 424.825   1
   2  -3   0 6095.01 335.473   3
   2   3   0 4483.62 342.941  10
  -2   3  -1 31550.6 873.929  12
  -2  -3  -1 31611.8 994.237   1
  -2  -3  -1 30733.7 975.694   4
  -2   3  -1 31842.9 930.019  10
   2   3   1 31445.5 897.477  10
  -2   3  -2 23008.7 844.411  12
   2   3   2 23883.0 778.752  10
  -2  -3  -2 28377.5 986.455   4
  -2  -3  -2 27961.9 991.529   1
  -2   3  -2 24173.0 818.486  10
   2  -3   2 25934.2 785.940  11
  -2   3  -3 5750.14 472.823  12
  -2  -3  -3 4698.21 437.862   1
  -2  -3  -3 4703.58 430.262   4
   2  -3   3 4913.83 392.723  11
   2   3   3 5889.85 398.291  10
  -2   3  -3 6259.77 439.667  10
  -2  -3  -4 1470.21 268.974   1
  -2   3  -4 1965.81 303.438  12
  -2  -3  -4 1200.08 247.748   4
   2  -3   4 1121.32 214.431  11
  -2   3  -5 20812.6 769.020  14
   2  -3   5 20574.6 765.586  13
  -2  -3  -5 20446.2 787.166  16
  -2  -3  -5 21061.2 1097.41   4
  -2   3  -5 19692.9 1057.82  12
  -2  -3  -5 19729.4 744.872  17
   2  -3   5 19292.6 985.685  11
  -2  -3  -5 19980.5 797.386  18
  -2  -3  -5 20202.4 1052.35   1
   2   3   5 20491.7 767.769   5
  -2  -3  -5 19628.7 1029.69   3
  -2  -3  -6 15269.2 712.559  16
  -2   3  -6 15332.1 698.001  14
   2  -3   6 14063.3 670.789  13
  -2  -3  -6 15796.1 647.636   7
  -2   3  -6 15947.9 1028.43  12
  -2  -3  -6 14932.4 965.143   1
   2  -3   6 16245.2 987.033  11
  -2  -3  -6 15000.5 741.677  18
  -2  -3  -6 15409.4 994.346   4
  -2  -3  -6 15766.5 704.096  17
  -2   3  -6 15939.7 672.237  17
  -2  -3  -6 14942.0 943.655   3
   2   3   6 15297.0 691.371   5
   2  -3   7 9277.76 548.366  13
  -2  -3  -7 9417.00 502.792   7
   2  -3   7 9008.41 515.300  18
   2   3   7 8720.91 516.670   5
  -2   3  -7 9418.50 527.376  17
  -2  -3  -7 9713.19 569.682  16
  -2   3  -7 9944.02 564.416  14
  -2  -3  -7 9301.78 545.038  17
   2   3   8 8716.30 502.787  13
  -2   3  -8 8813.06 439.562   7
  -2  -3  -8 9096.23 466.508   7
  -2   3  -8 8173.57 474.746  14
  -2  -3  -8 9523.90 518.817  17
  -2  -3  -8 9390.19 521.276  16
   2   3   8 9059.07 479.812   5
   2  -3   8 9519.66 498.389  18
  -2   3  -8 8755.68 480.091  17
   2  -3   8 9944.32 533.387  13
   2  -3   9 7857.34 404.522  13
  -2  -3  -9 7307.65 346.328   7
   2   3   9 7150.84 387.617  13
  -2   3  -9 7731.34 378.368  17
  -2   3  -9 6816.57 356.428  14
   2  -3   9 7654.70 378.877  18
  -2  -3  -9 7131.31 371.746  17
   2  -3  10 17590.2 437.725  13
  -2  -4  10 4130.17 211.080  18
   2   4 -10 5288.58 232.184   8
   2  -4  -9 5286.22 286.906   7
  -2   4   9 5368.65 330.977  13
  -2  -4   9 5441.09 333.734  18
   2  -4  -9 5335.79 309.548   9
   2   4  -9 5108.74 277.337  14
   2  -4  -8 5531.18 353.311   7
  -2  -4   8 5766.41 354.047  13
  -2  -4   8 5999.83 409.975  18
   2   4  -8 5060.09 353.113  14
   2  -4  -8 5731.62 391.745   9
   2  -4  -7 28181.1 845.978   7
  -2  -4   7 27598.9 845.494  13
  -2  -4   7 26202.6 916.995  18
   2  -4  -7 27312.2 925.198   9
   2  -4  -6 8676.65 554.345  16
   2   4  -6 9393.81 560.261  17
  -2  -4   6 8833.88 540.193  18
   2  -4  -6 8969.81 535.711   9
   2  -4  -6 9171.62 488.238   7
  -2  -4   6 9240.90 498.515  13
   2   4  -6 10218.7 559.465  14
  -2  -4   5 27650.2 840.835  13
   2  -4  -5 26633.0 1262.59   4
   2  -4  -5 27057.9 919.342  16
  -2  -4   5 26685.9 1119.15  11
  -2   4   5 29136.5 1332.84  10
  -2  -4   5 27026.5 911.501  18
   2  -4  -5 28150.8 824.394   6
   2  -4  -5 28230.4 1337.98   3
   2  -4  -5 27989.0 913.188   9
   2   4  -5 28303.1 913.624  14
   2  -4  -4 6132.43 564.101   4
  -2  -4   4 6058.64 490.968  11
  -2  -4   4 6114.38 597.310   1
   2   4  -4 6965.64 632.354  10
  -2  -4   4 6165.54 415.967  18
   2  -4  -4 5380.68 547.830   3
  -2   4   4 6009.12 575.677  10
   2  -4  -4 6276.92 404.789   9
   2   4  -4 7101.84 437.560  14
   2  -4  -3 58689.2 1601.00   4
  -2   4   3 57811.4 1682.94  10
   2  -4  -3 61927.3 1716.28   3
   2   4  -3 57524.3 1723.03  10
  -2  -4   3 62322.7 1785.22   1
   2  -4  -2 40128.9 1198.05   4
  -2   4   2 42058.9 1352.62  10
   2   4  -2 40665.6 1359.05  10
  -2  -4   2 40030.7 1355.36   1
   2  -4  -2 41331.6 1272.37   3
  -2  -4   1 41796.6 1339.27   1
  -2   4   1 37725.7 1228.20  10
   2   4  -1 37193.5 1229.52  10
   2  -4  -1 38370.4 1112.45   4
   2  -4  -1 39837.6 1132.31   3
   2  -4   0 58260.7 1321.02   4
   2   4   0 64754.2 1554.23  10
   2  -4   0 56189.8 1176.10   3
  -2   4   0 69086.7 1640.20  10
  -2  -4   0 54700.9 1484.15   1
  -2   4  -1 50486.3 1202.49  12
  -2   4  -1 49497.1 1411.50  10
  -2  -4  -1 49461.9 1476.32   4
  -2  -4  -1 48698.3 1419.27   1
   2   4   1 47679.4 1322.35  10
  -2   4  -2 8624.21 561.533  12
  -2  -4  -2 7856.01 605.952   4
  -2   4  -2 7865.11 559.763  10
   2   4   2 8597.83 570.814  10
  -2  -4  -2 7688.75 582.734   1
  -2   4  -3 105454. 2138.30  10
  -2   4  -3 96455.8 2082.26  12
  -2  -4  -3 101896. 2290.91   4
   2   4   3 98492.2 1930.64  10
  -2  -4  -3 102913. 2229.34   1
  -2   4  -4 2309.48 258.118  14
   2  -4   4 4148.61 349.551  13
  -2   4  -4 2582.22 377.507  12
  -2  -4  -4 4399.35 516.563   4
  -2  -4  -4 3709.98 445.763   1
  -2  -4  -4 3729.68 344.832  16
  -2  -4  -4 3969.13 359.442  18
   2   4   4 2660.89 281.613   5
  -2   4  -5 18290.6 760.684  14
   2  -4   5 18175.9 702.303  18
   2  -4   5 18086.7 758.237  13
  -2   4  -5 17354.1 1052.74  12
  -2  -4  -5 19556.6 1150.23   4
  -2  -4  -5 16526.6 1042.85   3
  -2  -4  -5 18573.2 1037.38   1
  -2  -4  -5 17893.7 800.348  18
  -2  -4  -5 18580.6 803.317  16
   2   4   5 17293.0 750.742   5
   2  -4   6 67285.9 1473.21  13
  -2   4  -6 68500.1 1487.38  14
  -2  -4  -6 66352.0 1383.95  17
  -2  -4  -6 63225.5 1497.10  16
   2   4   6 70744.4 1520.77   5
   2  -4   6 66002.7 1358.93  18
  -2  -4  -6 62960.9 1541.74  18
   2  -4   7 2979.18 299.936  13
  -2   4  -7 3443.59 326.475  14
  -2  -4  -7 2679.73 264.780  17
   2  -4   7 2668.19 265.996  18
  -2  -4  -7 2732.45 302.604  16
   2  -4   8 15180.4 606.478  13
   2   4   8 15205.8 604.613  13
   2  -4   8 15153.8 556.976  18
  -2  -4  -8 15266.6 630.463  16
  -2  -4  -8 15805.0 595.643   9
   2   4   8 15553.1 579.971   5
  -2   4  -8 15079.4 602.492  14
   2  -4   9 13259.0 455.583  13
   2   4   9 12265.1 432.963  13
   2  -4   9 12882.9 388.972  18
  -2  -4  -9 11920.6 374.674   9
  -2   4  -9 12507.3 424.517  14
   2  -5  -9 2799.05 186.931   9
   2   5  -9 2005.64 158.530   8
  -2   5   9 1674.28 150.191  13
  -2  -5   9 3350.38 217.572  18
   2  -5  -8 2209.52 219.522   9
   2   5  -8 2541.56 227.148  14
  -2  -5   8 1990.70 210.908  18
  -2  -5   7 13072.5 527.997  13
   2   5  -7 11990.1 572.095  14
  -2  -5   7 12311.9 594.813  18
   2  -5  -7 13047.4 603.628   9
   2  -5  -6 28923.8 829.896   6
   2  -5  -6 30288.5 976.921   9
  -2  -5   6 30055.4 869.632  13
   2  -5  -6 28398.5 969.586  16
  -2  -5   6 29630.2 978.852  18
   2   5  -6 28024.7 934.684  14
  -2  -5   5 15590.2 642.908  13
   2  -5  -5 15609.8 652.847   6
   2  -5  -5 15350.1 701.021  16
  -2  -5   5 15321.0 714.030  18
   2   5  -5 15400.7 702.439  14
   2  -5  -5 15351.3 698.216   9
  -2  -5   4 22988.9 777.552  13
   2  -5  -4 22136.5 1174.92   4
   2  -5  -4 22787.4 802.273   6
   2  -5  -4 22681.0 1205.56   3
  -2   5   4 25132.8 1272.06  10
  -2  -5   4 23568.4 877.254  18
   2   5  -4 25182.4 1308.20  10
   2  -5  -4 22940.9 818.722   9
   2  -5  -4 23510.3 823.408  16
  -2  -5   4 25970.6 1351.60   1
   2   5  -4 24930.9 813.380  15
   2   5  -4 25831.7 900.889  14
   2  -5  -3 2511.74 266.398   6
  -2  -5   3 2723.44 422.043   1
  -2   5   3 1843.38 336.993  10
  -2  -5   3 2532.85 284.678  18
   2  -5  -3 2427.65 253.346   9
   2  -5  -3 2368.34 369.994   3
   2   5  -3 1758.24 339.386  10
   2   5  -3 1758.79 220.262  15
   2  -5  -3 2889.85 403.856   4
   2   5  -3 1846.32 237.827  14
  -2  -5   2 5607.14 580.268   1
   2  -5  -2 4515.72 465.122   4
   2  -5  -2 4879.27 362.695   6
  -2   5   2 4624.06 518.855  10
   2   5  -2 4810.73 533.992  10
  -2  -5   2 4972.38 385.886  18
   2  -5  -2 4661.18 481.430   3
  -2  -5   2 5108.50 367.427  16
   2   5  -2 5157.22 373.699  15
   2   5  -2 4915.21 367.964  14
   2  -5  -1 1166.04 230.140   4
   2  -5  -1 1111.49 170.969   6
  -2   5   1 3144.74 416.133  10
  -2  -5   1 1328.30 276.708   1
  -2  -5   1 1122.05 181.316  18
   2   5  -1 3101.91 413.365  10
   2   5  -1 3159.42 293.888  15
   2  -5   0 24774.7 842.115  13
   2  -5   0 25426.6 801.159   6
  -2  -5   0 25594.3 1186.47   1
  -2  -5   0 23470.2 1159.49   4
  -2   5   0 26026.4 1186.30  10
   2   5   0 24204.7 1110.52  10
  -2  -5   0 24079.6 828.126  18
   2   5   0 25815.3 833.227  15
  -2  -5  -1 16921.8 952.490   1
  -2  -5  -1 17046.2 639.472   6
   2  -5   1 17455.7 653.500   6
  -2  -5  -1 18086.7 1029.60   4
   2   5   1 15736.2 656.213  15
  -2   5  -1 15754.1 906.155  10
   2   5   1 15978.2 887.928  10
   2  -5   1 16987.9 699.428  13
  -2  -5  -1 16635.0 692.592  16
  -2  -5  -1 17415.5 714.926  18
  -2  -5  -2 32745.1 1338.45   1
   2  -5   2 34465.3 1013.69  13
  -2  -5  -2 33941.5 943.391   6
  -2  -5  -2 32574.2 1417.81   4
   2  -5   2 33697.3 897.427   6
   2   5   2 34304.3 1303.68  10
  -2  -5  -2 33580.9 1017.62  16
  -2  -5  -2 33102.2 1013.91  18
  -2   5  -2 35200.8 1372.91  10
   2   5   2 35066.4 966.083  15
   2  -5   3 2669.82 293.308  13
  -2  -5  -3 2729.00 396.429   1
  -2  -5  -3 2760.85 425.074   4
   2   5   3 3234.80 288.670  15
  -2  -5  -3 2333.82 282.905  16
  -2  -5  -3 2833.82 311.302  18
  -2   5  -3 3253.75 423.827  10
   2   5   3 3075.11 312.026   5
  -2   5  -3 3081.71 292.683  14
  -2   5  -4 29385.0 940.877  14
  -2  -5  -4 26199.4 974.945  18
  -2  -5  -4 25862.6 957.517  16
   2  -5   4 26093.9 920.673  13
   2   5   4 29313.0 984.564   5
  -2  -5  -5 13788.1 718.060  18
  -2  -5  -5 13106.0 691.254  16
   2   5   5 11477.4 624.520   5
   2  -5   5 13551.5 662.349  13
  -2   5  -5 11734.3 605.909  14
   2  -5   6 10683.3 568.390  13
  -2  -5  -6 10327.2 603.220  18
   2   5   6 10011.8 559.172   5
   2  -5   6 10802.6 505.932  18
  -2  -5  -6 10998.5 614.176  16
  -2   5  -6 10518.8 560.549  14
   2  -5   7 12994.3 567.520  13
   2   5   7 15411.2 615.056   5
   2  -5   7 12898.8 494.587  18
  -2  -5  -7 13083.6 609.671  16
  -2   5  -7 14913.7 609.463  14
   2   5   8 790.119 112.365   5
   2   5   8 799.542 119.214  13
   2  -5   8 1177.76 145.443  13
  -2  -5  -8 981.518 133.521   9
  -2   5  -8 755.008 116.566  14
  -2  -6   8 6564.66 296.831  18
   2  -6  -8 6844.82 303.884   9
   2   6  -8 6341.36 284.895  14
   2   6  -7 2992.84 248.778  14
   2  -6  -7 2358.48 222.795   9
  -2  -6   7 2334.51 225.148  18
  -2  -6   6 1936.30 232.068  18
   2  -6  -6 1995.06 226.133   9
  -2  -6   5 24338.5 758.326  13
   2  -6  -5 24096.0 793.953   6
  -2   6   5 27244.2 828.427   5
   2  -6  -5 24677.1 810.594  16
   2  -6  -5 24974.1 829.959   9
  -2  -6   5 25547.6 895.230  18
   2   6  -5 26683.9 894.168  14
   2  -6  -4 10365.4 555.298   6
   2  -6  -4 10679.5 543.259   9
  -2  -6   4 10004.7 510.661  13
  -2  -6   4 10346.8 587.818  18
   2   6  -4 10132.0 523.470  15
   2   6  -4 10147.2 566.734  14
   2   6  -3 3426.85 322.679  15
  -2  -6   3 3795.68 322.030  13
   2  -6  -3 3742.11 342.052   6
  -2  -6   3 3640.43 350.865  18
   2  -6  -3 3573.04 304.423   9
   2   6  -3 3594.31 335.139  14
   2  -6  -2 16141.7 702.721   6
  -2  -6   2 16335.4 736.964  18
  -2  -6   2 17246.5 682.066  16
   2   6  -2 13988.2 658.921  15
   2   6  -2 14295.8 652.787  14
   2  -6  -1 5570.99 410.268   6
  -2  -6   1 5772.20 439.601  18
   2   6  -1 5639.54 424.770  15
  -2  -6   1 5522.54 401.018  16
   2   6  -1 5535.01 398.514  14
  -2  -6   0 26193.4 821.445   6
   2  -6   0 25742.6 861.136   6
   2   6   0 22898.0 1205.22  10
  -2  -6   0 26070.2 890.080  16
  -2  -6   0 24478.1 902.611  18
   2   6   0 22632.0 848.586  15
   2  -6   1 14728.3 705.617  13
  -2  -6  -1 15470.9 651.161   6
   2  -6   1 14676.8 638.658   6
  -2  -6  -1 14833.5 691.211  16
   2   6   1 17329.2 732.007  15
  -2  -6  -1 14281.9 697.597  18
   2   6   2 14307.5 649.965  15
   2  -6   2 14520.0 700.114  13
  -2  -6  -2 13997.5 637.488   6
   2  -6   2 14840.7 614.407   6
  -2  -6  -2 13351.4 682.142  18
  -2  -6  -2 14539.5 697.079  16
   2   6   2 15280.2 710.269   5
   2   6   3 9068.26 554.960   5
   2  -6   3 8320.93 526.858  13
  -2  -6  -3 9490.53 573.425  16
  -2  -6  -3 8278.36 544.156  18
   2   6   3 9716.76 508.384  15
  -2   6  -3 9126.72 496.233  14
   2  -6   4 924.576 177.282  13
  -2  -6  -4 920.274 185.377  18
  -2  -6  -4 871.867 178.421  16
   2   6   4 1641.49 238.598   5
  -2   6  -4 1617.83 214.922  14
   2  -6   5 11244.7 571.207  13
  -2   6  -5 11200.9 498.491  15
  -2  -6  -5 11045.4 598.420  16
  -2  -6  -5 11435.2 609.846  18
   2   6   5 11708.4 594.548   5
  -2   6  -5 11070.7 540.099  14
  -2  -6  -6 39274.8 1031.01  16
  -2  -6  -6 39465.4 960.960   9
   2  -6   6 39492.6 967.639  13
   2   6   6 36904.2 951.822   5
  -2   6  -6 36941.0 915.954  14
   2  -6   7 2791.54 219.630  13
  -2  -6  -7 2670.97 232.366  16
   2   6   7 3518.79 241.126   5
  -2  -6  -7 2827.05 222.779   9
  -2   6  -7 3274.91 234.257  14
   2   7  -7 2617.90 166.879  14
  -2  -7   6 1228.68 146.748  18
   2  -7  -6 1241.52 137.149   9
   2   7  -6 1127.61 140.838  14
  -2   7   5 453.890 92.3574   5
  -2  -7   5 499.785 112.023  18
   2   7  -5 540.396 113.300  14
   2  -7  -5 484.851 95.4980   9
   2  -7  -4 6561.47 398.645   6
  -2  -7   4 6613.37 417.309  18
   2  -7  -4 6200.26 344.095   9
   2   7  -4 7411.07 398.502  15
   2   7  -4 7558.04 434.488  14
  -2   7   4 7350.94 420.788   5
   2  -7  -3 15134.3 642.179   6
   2   7  -3 12928.7 582.186  14
  -2  -7   3 15019.5 663.996  18
   2   7  -3 13562.0 599.085  15
   2  -7  -2 1459.37 208.990   6
   2   7  -2 1361.17 203.207  15
  -2   7   2 1135.34 175.330  15
  -2  -7   2 1447.23 213.448  18
   2   7  -2 1313.97 188.425  14
  -2   7   1 31135.3 960.300  15
   2  -7  -1 28900.2 907.279   6
  -2  -7   1 28277.0 949.374  18
   2   7  -1 30859.3 980.068  15
   2  -7   0 10382.2 534.573   6
  -2  -7   0 9782.02 512.009  16
   2   7   0 10079.5 556.924  15
  -2  -7   0 9985.40 566.872  18
  -2   7   0 10194.5 559.758  15
  -2   7  -1 9629.50 549.788  15
   2  -7   1 10360.3 510.602   6
  -2  -7  -1 9707.32 523.740  16
  -2  -7  -1 9329.08 547.673  18
   2   7   1 9377.32 525.100  15
   2   7   1 9322.34 532.468   5
   2  -7   2 7349.14 396.669   6
  -2  -7  -2 6736.60 460.455  18
  -2  -7  -2 7114.79 455.778  16
   2   7   2 6875.86 426.601  15
  -2   7  -2 7239.88 463.620  15
   2   7   2 6893.44 460.794   5
  -2  -7  -3 56.9727 68.2229  16
   2   7   3 146.132 80.8558   5
   2  -7   3 41.3742 55.4188  13
   2   7   3 39.6032 35.1159  15
  -2  -7  -3 22.6171 47.4762  18
  -2   7  -3 110.632 66.0030  15
   2  -7   4 4999.68 353.605  13
  -2   7  -4 4542.83 288.995  14
  -2  -7  -4 5194.05 372.162  18
  -2  -7  -4 5086.99 363.654  16
  -2  -7  -4 4907.13 307.305   9
  -2   7  -4 4379.99 307.156  15
   2   7   4 4528.76 345.221   5
   2  -7   5 9003.65 425.029  13
  -2  -7  -5 8143.97 371.186   9
  -2  -7  -5 8475.17 426.326  16
  -2  -7  -5 8747.68 432.841  18
   2   7   5 7894.42 408.939   5
  -2   7  -5 7847.33 353.161  14
   2  -7   6 2409.06 185.684  13
  -2  -7  -6 2489.77 198.164  16
   2   7   6 2355.47 183.195   5
  -2  -7  -6 2234.84 169.082   9
  -2   7  -6 2232.16 160.205  14
  -2  -8   4 3193.44 215.031  18
   2   8  -4 3775.37 211.233  14
   2   8  -4 3642.32 196.800  15
  -2   8   4 3781.23 216.305   5
   2  -8  -3 2418.65 207.451   6
  -2  -8   3 2744.90 221.468  18
  -2   8   3 1999.71 191.053   5
   2   8  -3 1996.59 165.117  14
   2   8  -3 2220.05 191.625  15
   2  -8  -2 4718.48 302.191   6
  -2  -8   2 4734.49 308.602  18
  -2   8   2 4490.25 269.584  15
   2   8  -2 4525.03 301.619  15
   2  -8  -1 1582.85 178.883   6
  -2  -8   1 1464.40 179.356  18
   2   8  -1 1521.21 183.979  15
  -2   8   1 1339.67 165.117  15
   2   8  -1 1405.02 158.862   5
   2  -8   0 817.079 124.432   6
  -2  -8   0 1061.36 155.031  18
   2   8   0 781.319 132.604  15
  -2   8   0 705.657 126.416  15
   2   8   0 732.981 123.116   5
   2  -8   1 9011.40 372.359   6
   2   8   1 10579.3 465.207   5
  -2  -8  -1 8427.45 426.137  18
   2   8   1 10887.9 466.071  15
  -2   8  -1 10897.7 482.849  15
   2   8   2 2676.28 231.462   5
  -2  -8  -2 2514.95 225.404  18
  -2  -8  -2 2386.33 192.853  16
   2   8   2 2754.65 214.851  15
  -2   8  -2 2610.15 226.896  15
  -2  -8  -3 5991.03 289.699  16
  -2  -8  -3 6269.41 323.759  18
  -2   8  -3 6391.69 318.368  15
   2   8   3 6585.33 344.077   5
   2   8   4 9679.23 367.580   5
   3   0 -10 5032.07 321.168   7
   3   0 -10 4316.36 303.137  17
   3   0  -9 3363.38 308.451   7
   3   0  -9 3547.41 327.709  17
   3   0  -8 17362.8 727.422   7
   3   0  -8 17840.6 673.509   8
   3   0  -8 17260.9 752.185  17
   3   0  -7 65350.7 1371.47   7
  -3   0   7 63840.0 1929.57  11
   3   0  -7 64451.9 1417.92  17
  -3   0   6 1448.24 273.275  11
   3   0  -6 1435.05 264.219   3
  -3   0   5 9950.34 624.308  11
   3   0  -5 10632.7 661.647   4
   3   0  -5 9483.62 615.045   3
   3   0  -4 3367.85 322.076   4
   3   0  -4 3132.93 250.137   2
  -3   0   4 3509.30 332.040  11
   3   0  -4 3451.73 338.016   3
  -3   0   3 66780.6 1314.57  11
   3   0  -3 67328.5 1357.97   3
   3   0  -2 186315. 2102.82   3
   3   0  -2 185646. 1902.67   2
  -3   0   2 185765. 1349.08   1
   3   0  -1 148960. 1684.13   2
  -3   0   1 146980. 1311.63   1
   3   0   0 6387.69 346.828   2
  -3   0   0 6164.21 142.122   4
  -3   0   0 6359.36 315.286   1
  -3   0  -1 122241. 796.514   4
  -3   0  -1 124533. 1676.47  12
   3   0   1 125699. 1540.61   2
  -3   0  -1 123474. 1570.56   1
  -3   0  -2 61581.3 819.313   4
   3   0   2 59528.8 1070.69   2
  -3   0  -2 62045.6 1269.44  12
  -3   0  -2 60101.6 1253.27   1
  -3   0  -3 50895.8 950.274   4
   3   0   3 51046.4 991.371   2
  -3   0  -3 48125.9 1234.97  12
   3   0   3 51962.6 1302.97  11
  -3   0  -4 14429.9 614.549   4
  -3   0  -4 13777.8 724.397  12
   3   0   4 13921.6 753.627  11
  -3   0  -4 12981.3 753.392   1
  -3   0  -5 47547.7 1473.87  12
   3   0   5 48071.2 1562.32  11
  -3   0  -5 46644.0 1589.96   1
   3   0   6 38528.9 1043.43  13
  -3   0  -6 34842.1 1354.75  12
   3   0   6 38993.5 1529.19  11
   3   0   6 36687.6 1031.37   5
  -3   0  -6 35318.8 1509.42   1
  -3   0  -6 36562.8 1075.75  17
  -3   0  -7 6929.22 492.261  17
   3   0   7 6894.84 461.408  13
   3   0   7 7038.31 461.579   5
   3   0   8 6122.97 422.765  13
   3   0   8 6520.57 422.307   5
  -3   0  -8 6594.51 470.991  17
   3   0   9 8903.18 447.638  13
  -3   0  -9 8273.76 453.725   7
   3   0   9 8609.78 404.210   5
  -3   0  -9 8396.89 471.594  17
   3   0  10 10569.1 363.069  13
  -3   0 -10 10359.5 384.499   7
  -3   0 -10 10622.2 411.751  17
   3  -1 -11 4677.97 223.829   7
   3   1 -10 99.7663 50.3102   7
   3  -1 -10 87.8058 53.2725   7
  -3  -1  10 69.5897 44.4591  18
   3   1  -9 4662.10 339.463   7
   3  -1  -9 5501.00 398.261   7
  -3   1   9 4883.12 342.535  13
  -3  -1   9 5481.89 371.759  18
   3  -1  -9 5275.75 370.144  17
   3   1  -9 5035.75 402.183  17
   3   1  -9 4716.64 338.543   8
   3  -1  -8 6372.82 452.215   7
   3   1  -8 8699.98 493.273   7
  -3   1   8 7848.28 466.698  13
   3   1  -8 8167.29 534.975  17
   3  -1  -8 6691.02 442.981  17
  -3  -1   8 6432.85 431.542  18
   3  -1  -7 12188.6 879.301   4
   3   1  -7 9821.21 517.059   7
  -3  -1   7 12363.2 881.059  11
  -3   1   7 10687.7 754.799  11
   3  -1  -7 11833.7 829.868   3
   3  -1  -7 11752.3 578.835  17
   3   1  -7 11045.0 606.923  17
   3  -1  -7 11649.7 594.568   7
   3  -1  -6 115248. 1734.07   7
   3  -1  -6 104554. 2343.77   4
  -3  -1   6 109653. 2423.13  11
  -3   1   6 118791. 2333.77  11
   3  -1  -6 110122. 2358.24   3
   3   1  -6 120545. 1874.31  17
   3  -1  -5 2881.37 341.698   4
   3   1  -5 2844.08 335.105   3
  -3  -1   5 2939.40 354.397  11
  -3   1   5 2699.22 317.048  11
   3  -1  -5 2815.59 347.618   3
   3  -1  -4 9197.32 526.523   4
  -3  -1   4 9181.49 555.165  11
  -3   1   4 12119.3 592.668  11
   3   1  -4 12027.3 507.010   2
   3   1  -4 13221.9 663.297   3
   3  -1  -4 9381.40 573.731   3
   3  -1  -4 8836.75 431.010   2
   3  -1  -3 25593.5 737.840   4
  -3  -1   3 28205.1 774.504   1
  -3  -1   3 27734.7 874.750  11
  -3   1   3 19926.4 683.102  11
   3   1  -3 20462.7 668.493   2
   3   1  -3 19469.4 752.131   3
   3  -1  -3 27188.8 878.422   3
   3  -1  -3 26018.6 758.043   2
   3  -1  -2 29670.7 636.709   4
   3  -1  -2 30548.1 815.775   2
  -3  -1   2 30502.8 756.974   1
   3   1  -2 31244.6 819.502   2
   3  -1  -2 29918.6 843.159   3
   3  -1  -1 30183.1 424.780   4
   3  -1  -1 31874.4 821.224   2
   3  -1  -1 31700.1 801.565   3
  -3  -1   1 32058.1 762.624   1
   3   1  -1 26619.8 752.304   2
  -3  -1   0 112182. 1514.43   1
  -3   1   0 114306. 1561.14  12
  -3   1   0 110933. 1135.60  10
   3  -1   0 108752. 1377.03   3
  -3   1   0 115256. 1213.71   1
   3   1   0 114381. 1543.81   2
   3  -1   1 16698.2 595.469   2
  -3   1  -1 17325.4 647.173  12
  -3  -1  -1 16845.6 643.653   1
  -3  -1  -1 16968.2 484.427   4
  -3   1  -1 16349.2 354.351  10
   3   1   1 16014.4 578.069   2
   3  -1   2 96666.3 1440.77   2
  -3   1  -2 108327. 1756.41  12
  -3  -1  -2 97035.5 1565.19  12
  -3  -1  -2 97209.2 1308.95   4
   3   1   2 105631. 1481.36   2
  -3  -1  -2 95038.6 1682.37   1
  -3  -1  -3 20415.0 706.879   4
  -3   1  -3 17127.9 775.178  12
  -3  -1  -3 20054.0 762.140  12
   3   1   3 16846.7 588.498   2
   3  -1   3 20321.9 832.381  11
  -3  -1  -3 19996.9 857.168   1
   3  -1   3 21183.9 663.559   2
  -3   1  -4 19746.7 917.290  12
  -3  -1  -4 17396.7 772.028  12
   3  -1   4 17423.1 860.433  11
  -3  -1  -4 18399.8 755.249   4
  -3  -1  -4 17240.1 884.137   1
  -3  -1  -5 37019.1 1214.75  12
   3  -1   5 39613.6 1435.69  11
  -3  -1  -5 37243.3 1446.58   1
  -3  -1  -5 39041.3 1240.84   4
   3   1   6 72932.3 1431.84  13
  -3  -1  -6 68818.9 1503.73  17
   3  -1   6 71189.5 1434.81  13
  -3   1  -6 67087.2 1990.07  12
   3  -1   6 77244.3 2184.33  11
   3  -1   6 70745.2 1434.52   5
  -3   1  -6 70134.8 1466.53  17
  -3  -1  -6 74209.2 2249.70   1
   3   1   6 71513.2 1462.48   5
   3  -1   7 19080.1 770.789  13
   3   1   7 17314.8 727.816  13
  -3  -1  -7 19843.2 838.535  17
   3   1   7 17094.0 726.228   5
   3  -1   7 19774.9 767.593   5
  -3   1  -7 17004.9 753.684  17
   3  -1   8 22345.2 805.416  13
   3   1   8 22915.3 808.619  13
  -3  -1  -8 22155.1 861.520  17
   3  -1   8 21993.8 761.819   5
   3   1   8 23076.5 797.573   5
  -3   1  -8 22969.1 850.118  17
  -3   1  -8 22233.8 770.932  14
   3  -1   9 3603.17 282.352  13
   3   1   9 3598.85 280.697  13
  -3  -1  -9 3532.75 289.327   7
  -3   1  -9 3378.17 281.506   7
  -3   1  -9 3332.52 285.874  17
   3   1   9 3789.21 268.970   5
  -3  -1  -9 3350.73 297.719  17
   3  -1  10 23427.5 527.567  13
   3   1  10 23326.4 511.795  13
  -3  -1 -10 23301.3 550.820   7
  -3   1 -10 23265.0 543.427   7
  -3  -1 -10 23076.0 590.261  17
   3  -1  10 22997.7 508.709  18
  -3   1 -10 22827.4 561.317  17
   3  -2 -10 18353.4 592.234   7
   3   2 -10 17141.6 517.694   8
  -3  -2  10 18171.3 539.566  18
  -3   2   9 470.283 108.687  13
   3  -2  -9 434.516 115.830   7
  -3  -2   9 339.951 92.1032  18
   3   2  -9 325.105 103.060  17
   3  -2  -8 5243.88 408.861   7
   3  -2  -8 5286.59 369.459   9
  -3  -2   8 5387.58 398.731  18
   3   2  -8 4716.83 412.140  17
   3  -2  -7 17411.5 729.359   7
   3  -2  -7 15754.9 662.100   9
  -3  -2   7 16156.7 696.502  18
   3  -2  -6 6048.83 575.239   4
   3  -2  -6 6286.32 417.567   7
  -3  -2   6 6283.23 595.382  11
  -3  -2   6 5966.40 400.810  18
   3   2  -6 6554.69 460.840  17
   3  -2  -6 6121.37 594.374   3
   3  -2  -6 6439.33 412.161   9
   3  -2  -5 22730.7 990.377   4
   3  -2  -5 23008.0 1051.82   3
  -3  -2   5 22711.1 1022.15  11
   3  -2  -4 87173.8 1688.82   4
  -3  -2   4 90933.5 1812.39   1
  -3  -2   4 89626.7 1823.24  11
  -3   2   4 90929.6 1537.08  11
   3  -2  -4 91756.9 1929.66   3
   3   2  -4 89905.1 1558.46   2
   3  -2  -3 32155.6 884.402   4
  -3  -2   3 32265.5 988.166  11
  -3   2   3 29912.8 780.360  11
   3   2  -3 29112.1 898.202   2
  -3  -2   3 33392.4 1018.62   1
   3  -2  -3 34592.3 1070.12   3
   3  -2  -2 54545.0 966.165   4
  -3   2   2 51473.6 981.372  12
   3  -2  -2 55015.7 1226.95   3
  -3   2   2 51361.5 948.544  11
  -3  -2   2 54903.7 1183.34  11
  -3  -2   2 57166.6 1260.63   1
   3   2  -2 48988.4 1162.79  10
   3  -2  -2 56998.2 1226.81   2
   3  -2  -1 22143.9 484.400   4
  -3   2   1 21338.6 655.503  12
  -3   2   1 20995.3 682.947  10
   3  -2  -1 21128.3 685.187   3
  -3  -2   1 22312.3 763.435   1
   3   2  -1 22359.8 706.762  10
   3  -2  -1 21268.8 741.258   2
  -3   2   0 42016.3 973.202  12
  -3  -2   0 40063.5 1049.11   1
  -3   2   0 43108.0 920.370  10
   3  -2   0 41942.2 865.662   3
   3   2   0 42712.3 874.917  10
   3  -2   0 40990.2 1013.81   2
  -3  -2  -1 55554.1 1300.39   1
  -3   2  -1 50005.2 1163.47  12
  -3  -2  -1 54451.8 1119.80   4
   3   2   1 50073.2 865.740  10
  -3   2  -1 55297.2 983.220  10
   3  -2   1 53382.1 1174.96   2
  -3  -2  -2 181546. 2532.24   1
  -3   2  -2 181943. 2426.20  12
  -3  -2  -2 178667. 2151.82   4
  -3  -2  -3 7966.92 583.781   1
  -3   2  -3 3988.30 394.304  12
  -3  -2  -3 6884.20 427.324  12
  -3  -2  -3 7180.86 481.108   4
   3  -2   3 7172.05 509.098  11
   3   2   3 4342.85 336.657   2
  -3  -2  -4 8387.41 578.476   4
  -3   2  -4 9011.68 655.798  12
   3  -2   4 7926.62 594.862  11
  -3  -2  -4 8526.57 655.520   1
   3  -2   5 24446.7 811.456  13
  -3  -2  -5 25195.1 1085.59   4
  -3   2  -5 23194.7 1146.68  12
  -3  -2  -5 25482.0 1235.88   1
   3   2   5 24448.7 829.961   5
   3  -2   5 24893.6 1165.87  11
   3  -2   5 24374.2 814.375   5
  -3  -2  -5 24188.7 802.084  16
  -3  -2  -5 23893.7 856.952  18
  -3  -2  -5 24009.8 845.164  17
  -3   2  -6 135447. 1996.36  17
  -3  -2  -6 143792. 3159.65   1
   3  -2   6 133327. 2017.74  13
  -3   2  -6 137587. 2970.23  12
   3  -2   6 137511. 2956.42  11
  -3  -2  -6 133029. 2117.30  17
   3  -2   6 136024. 2004.17   5
  -3  -2  -6 142787. 1999.89  16
   3   2   6 136518. 2059.56   5
   3  -2   7 13066.2 637.838  13
   3   2   7 15443.1 679.604  13
  -3   2  -7 14555.9 678.682  14
   3  -2   7 12908.0 613.989   5
  -3  -2  -7 12504.5 665.623  17
   3   2   7 14604.9 678.888   5
  -3   2  -7 14139.5 659.506  17
  -3   2  -8 8033.88 467.371  14
   3  -2   8 8864.49 492.033  13
   3   2   8 8220.14 467.503  13
  -3  -2  -8 8338.57 477.576   7
  -3   2  -8 7837.48 465.980  17
   3   2   8 8516.01 479.474   5
  -3  -2  -8 8411.89 519.261  17
   3  -2   9 1242.66 159.981  13
   3   2   9 680.354 115.753  13
  -3  -2  -9 1112.61 149.347   7
  -3   2  -9 769.536 123.320   7
   3  -2   9 1107.31 142.644  18
  -3  -2  -9 1101.44 163.478  17
   3   2   9 957.345 133.394   5
  -3   2  -9 889.866 135.030  17
  -3   2  -9 769.293 119.616  14
   3  -3 -10 4572.01 254.238   7
  -3  -3  10 4350.65 239.209  18
   3   3 -10 4776.55 255.344   8
   3  -3  -9 14249.3 573.191   7
  -3   3   9 14297.3 548.597  13
   3  -3  -9 14548.1 526.439   9
  -3  -3   9 13759.7 555.758  18
   3  -3  -8 21657.8 788.983   7
  -3  -3   8 20434.4 766.828  18
   3  -3  -8 20733.7 746.595   9
   3  -3  -7 12944.1 624.226   7
   3   3  -7 11757.7 651.413  17
   3  -3  -7 12968.7 628.196   9
  -3  -3   7 12790.6 631.247  18
   3   3  -7 12332.7 579.621  14
   3  -3  -6 108880. 2519.00   4
   3  -3  -6 113540. 2721.52   3
  -3  -3   6 110528. 2540.79  11
  -3   3   6 110936. 2672.09  10
   3  -3  -6 112402. 1787.56   7
  -3  -3   6 110103. 1822.63  18
   3   3  -6 108470. 1933.72  17
   3  -3  -6 109217. 1805.22   9
   3   3  -6 110227. 1752.53  14
   3   3  -5 3534.85 333.161  17
   3  -3  -5 2714.83 364.039   4
  -3  -3   5 2614.06 364.607  11
  -3   3   5 3113.73 420.041  10
  -3  -3   5 2733.07 276.064  18
   3  -3  -5 2780.54 398.470   3
   3  -3  -5 2743.73 273.589   9
   3  -3  -5 2807.25 264.580   7
   3   3  -5 3237.74 292.745  14
  -3  -3   4 449.329 146.524  11
  -3  -3   4 755.156 193.403   1
   3  -3  -4 434.965 127.157   4
   3   3  -4 1153.05 205.003   2
  -3   3   4 1131.38 238.047  10
   3  -3  -4 410.949 147.021   3
   3  -3  -3 3666.22 340.857   4
  -3  -3   3 3536.72 347.660  11
  -3   3   3 4084.79 407.713  10
   3   3  -3 3879.04 411.806  10
   3  -3  -3 3704.98 387.000   3
  -3  -3   3 4011.64 417.249   1
   3  -3  -2 40249.4 986.984   4
  -3  -3   2 39674.0 1049.40  11
  -3  -3   2 39611.7 1237.02   1
  -3   3   2 38428.7 1165.67  10
   3   3  -2 38890.3 1191.04  10
   3  -3  -2 38850.3 1135.61   3
  -3   3   1 101425. 1442.72  12
  -3  -3   1 94190.7 1528.31  11
  -3   3   1 101877. 1803.34  10
   3   3  -1 101261. 1777.38  10
   3  -3  -1 92931.6 1582.80   3
  -3  -3   1 91969.9 1814.19   1
  -3   3   0 66739.8 1301.21  12
   3  -3   0 69157.6 1191.43   3
  -3  -3   0 66645.3 1550.45   1
   3   3   0 67379.8 1360.44  10
  -3   3  -1 37819.4 1076.32  12
  -3  -3  -1 37813.7 1137.42   4
  -3  -3  -1 35890.6 1173.52   1
  -3   3  -1 40797.9 1075.42  10
   3   3   1 37885.9 965.875  10
  -3   3  -2 36714.0 1168.27  12
  -3  -3  -2 35442.8 1144.19   4
  -3  -3  -2 35930.4 1241.80   1
  -3   3  -3 12373.9 741.000  12
  -3  -3  -3 11899.5 765.822   1
  -3  -3  -3 11567.7 694.265   4
  -3   3  -4 10434.7 749.171  12
  -3  -3  -4 10715.0 780.145   1
  -3  -3  -4 11035.8 751.113   4
   3  -3   4 11479.6 735.822  11
  -3  -3  -4 11378.6 581.714  18
   3  -3   4 11480.6 553.827   5
  -3  -3  -4 11726.2 571.198  16
   3   3   4 10572.5 546.246   5
   3  -3   5 24258.6 846.604  13
  -3  -3  -5 24183.1 1182.51   4
  -3   3  -5 21568.9 1155.91  12
  -3  -3  -5 24123.9 1240.79   1
   3  -3   5 22710.5 1135.98  11
   3   3   5 20890.6 811.632   5
  -3  -3  -5 23444.8 893.641  18
  -3  -3  -5 23914.0 866.482  17
  -3  -3  -5 21755.2 822.798  16
  -3   3  -6 10518.5 585.921  14
   3  -3   6 11007.0 585.445  13
  -3  -3  -6 9669.81 600.500  18
  -3  -3  -6 10547.8 596.503  17
   3  -3   6 10334.3 525.437  18
  -3  -3  -6 10328.4 576.929  16
   3   3   6 10081.6 578.029   5
  -3   3  -7 23662.5 861.158  14
   3  -3   7 21339.7 798.858  13
  -3  -3  -7 20500.0 717.283   7
   3  -3   7 22677.7 755.607  18
  -3  -3  -7 22269.3 812.472  16
   3   3   7 23967.8 860.988   5
  -3  -3  -7 20117.7 808.970  17
  -3   3  -8 2518.63 252.481  14
  -3  -3  -8 2614.90 264.900  17
   3  -3   8 2761.13 262.269  13
  -3  -3  -8 2398.14 219.184   7
   3   3   8 2634.31 250.045  13
   3  -3   8 2627.92 233.088  18
   3   3   8 2662.66 257.881   5
   3   3   9 1224.98 137.335  13
   3  -3   9 1250.48 125.715  18
   3   3   9 1369.62 140.328   5
  -3  -3  -9 1231.80 145.083  17
  -3   3  -9 1144.91 136.989  14
   3  -3   9 1288.96 146.967  13
  -3   4   9 102.188 48.1149  13
   3  -4  -9 71.0897 33.3923   7
  -3  -4   9 130.953 55.4878  18
   3   4  -9 99.0896 49.3600   8
   3  -4  -9 76.4571 46.1466   9
   3  -4  -8 9284.84 452.201   7
  -3  -4   8 9468.53 495.814  18
   3  -4  -8 9564.58 493.437   9
   3   4  -8 8965.29 445.337  14
   3  -4  -7 9924.18 512.034   7
  -3  -4   7 9043.31 524.424  18
   3  -4  -7 9977.10 553.831   9
   3  -4  -6 3374.12 301.961   7
  -3  -4   6 2964.80 310.187  18
   3  -4  -6 2857.60 304.732   9
   3   4  -6 2726.13 291.795  14
   3  -4  -5 12984.1 576.715   7
  -3  -4   5 12744.3 812.239  11
  -3   4   5 16650.6 1039.59  10
  -3  -4   5 14086.9 662.625  18
   3  -4  -5 12574.3 907.619   3
   3  -4  -5 13211.3 637.822  16
   3  -4  -5 13968.9 655.436   9
   3   4  -5 15472.4 684.643  14
   3  -4  -4 44632.8 1457.37   4
   3  -4  -4 43909.7 1036.37   6
  -3  -4   4 45028.7 1407.41  11
  -3   4   4 41212.7 1553.22  10
  -3  -4   4 47575.8 1175.19  18
   3   4  -4 45207.1 1647.31  10
   3  -4  -4 44252.0 1595.73   3
   3  -4  -4 45707.4 1116.87   9
  -3  -4   4 45267.6 1646.17   1
   3   4  -4 42351.1 1095.60  14
  -3  -4   3 5115.09 537.553   1
  -3  -4   3 4766.67 417.588  11
  -3   4   3 5689.77 549.395  10
   3   4  -3 5967.09 566.648  10
   3  -4  -3 4556.56 474.737   3
  -3   4   2 24334.0 1073.27  10
   3   4  -2 27282.4 1142.53  10
  -3  -4   2 29027.3 1216.74   1
   3  -4  -2 26012.0 1035.75   3
  -3  -4   1 39024.1 1376.78   1
  -3   4   1 40415.5 1312.65  10
   3  -4  -1 39545.5 1143.07   3
   3   4   0 24651.9 982.371  10
  -3   4   0 24836.9 1011.37  10
  -3   4  -1 12147.6 649.836  12
  -3  -4  -1 8462.76 633.975   4
   3   4   1 12403.7 667.156  10
  -3  -4  -1 8661.10 651.635   1
  -3   4  -1 11891.8 689.765  10
  -3   4  -2 82106.0 1867.81  12
  -3  -4  -2 80904.6 2014.69   4
  -3   4  -2 81797.0 1781.71  10
  -3  -4  -2 79836.0 2043.48   1
  -3   4  -3 34012.7 946.843  14
   3   4   3 35331.6 1004.58   5
   3  -4   3 30944.2 921.381  13
  -3   4  -3 34593.7 1318.03  12
  -3  -4  -3 29706.1 1260.32   4
   3  -4   3 29341.7 830.014   6
  -3  -4  -3 29180.1 945.525  16
  -3  -4  -3 27990.8 1258.34   1
  -3  -4  -3 29782.1 953.394  18
  -3   4  -4 18039.9 730.909  14
   3  -4   4 18594.2 749.019  13
  -3   4  -4 17547.8 1018.47  12
  -3  -4  -4 19614.3 1107.16   4
  -3  -4  -4 17779.0 727.008  17
  -3  -4  -4 19320.8 1100.05   1
  -3  -4  -4 18808.4 803.457  18
  -3  -4  -4 18383.2 777.662  16
   3   4   4 18286.1 761.142   5
  -3   4  -5 7328.08 489.750  14
   3  -4   5 7446.21 483.675  13
  -3  -4  -5 7678.91 535.826  18
  -3  -4  -5 7383.61 505.434  16
   3   4   5 7023.25 490.012   5
  -3  -4  -5 7178.15 474.275  17
  -3   4  -6 105232. 1827.34  14
   3  -4   6 106333. 1801.84  13
  -3  -4  -6 106516. 1983.37  18
  -3  -4  -6 108361. 1807.17  17
  -3  -4  -6 105059. 1878.30  16
   3   4   6 106426. 1858.00   5
  -3   4  -7 5906.13 408.578  14
   3  -4   7 5576.32 386.918  13
  -3  -4  -7 5633.61 381.278  17
  -3  -4  -7 5555.95 398.337  16
   3   4   7 5875.91 407.264   5
   3  -4   8 4301.19 293.850  13
   3   4   8 4429.75 280.139  13
  -3  -4  -8 4039.51 270.393  17
   3   4   8 4615.31 303.765   5
  -3   4  -8 4269.85 297.770  14
   3  -4   9 3888.69 206.471  13
  -3   4  -9 5787.58 251.891  14
  -3  -5   9 10859.2 351.511  18
   3  -5  -9 10585.2 340.141   9
   3   5  -9 11390.4 349.285   8
   3  -5  -8 1961.05 200.583   9
  -3  -5   8 1905.09 199.196  18
   3   5  -8 1523.60 170.902   8
   3   5  -8 1359.75 158.194  14
  -3  -5   7 5089.53 371.313  18
   3  -5  -7 5179.79 373.934   9
   3   5  -7 6206.17 400.721  14
  -3  -5   6 50568.9 1258.65  18
   3  -5  -6 49161.9 1219.90   9
   3  -5  -5 9290.46 492.254   6
  -3  -5   5 9404.44 556.923  18
   3  -5  -5 9369.07 541.439   9
   3   5  -5 8901.27 535.950  14
   3   5  -4 285.077 101.376  14
   3  -5  -4 50.4969 46.5191   6
  -3  -5   4 23.8840 52.4130  18
   3   5  -4 385.687 105.063  15
   3  -5  -4 32.4674 54.2236   9
   3  -5  -3 13994.0 637.191   6
  -3  -5   3 15713.2 1033.01   1
  -3   5   3 15530.7 988.983  10
  -3  -5   3 15263.9 707.797  18
   3   5  -3 15379.9 994.747  10
   3  -5  -3 14717.6 916.546   3
   3  -5  -3 14845.0 632.047   9
   3   5  -3 15188.8 657.461  15
   3   5  -3 15120.9 685.445  14
  -3  -5   2 34214.8 1031.35  18
   3  -5  -2 32590.5 962.515   6
  -3   5   2 34155.8 1433.41  10
   3   5  -2 34190.3 1429.75  10
   3  -5  -2 32643.4 883.966   9
   3   5  -2 32854.2 967.613  15
  -3  -5   2 33169.0 1459.51   1
   3   5  -2 32735.6 981.737  14
   3  -5  -1 46791.8 1142.95   6
  -3   5   1 46127.9 1620.64  10
  -3  -5   1 45613.9 1179.73  18
  -3  -5   1 48060.1 1732.45   1
   3   5  -1 44120.6 1558.62  10
  -3  -5   1 47987.9 1195.94  16
   3   5  -1 47590.6 1168.96  15
   3   5  -1 46884.9 1153.71  14
   3  -5   0 17404.3 717.323  13
  -3  -5   0 19879.4 1104.74   1
   3  -5   0 18872.7 719.439   6
  -3   5   0 15802.1 930.093  10
  -3  -5   0 18661.8 1063.37   4
   3   5   0 15205.8 885.396  10
   3   5   0 15713.9 654.806  14
  -3  -5   0 18565.1 750.721  16
  -3  -5   0 18747.8 755.213  18
   3   5   0 15558.9 669.720  15
   3  -5   1 22139.3 815.295  13
  -3  -5  -1 22753.1 1170.52   1
   3  -5   1 22980.5 784.243   6
  -3  -5  -1 22699.5 1179.43   4
  -3  -5  -1 23328.7 854.715  18
   3   5   1 22973.5 785.570  14
  -3  -5  -1 22151.2 839.613  16
   3   5   1 23360.0 1064.60  10
  -3   5  -1 22145.7 1079.00  10
   3   5   1 22491.9 803.044  15
   3   5   1 21557.8 783.123   5
   3  -5   2 17399.2 734.574  13
  -3  -5  -2 16520.2 1033.29   4
   3  -5   2 16998.8 667.069   6
  -3  -5  -2 16831.4 748.858  18
   3   5   2 15077.4 650.753  15
  -3  -5  -2 16357.9 739.625  16
  -3  -5  -2 16830.1 1025.16   1
   3   5   2 15305.6 679.669   5
  -3   5  -3 13787.0 621.682  14
   3  -5   3 10851.9 589.675  13
   3   5   3 14184.4 674.963   5
   3  -5   3 11855.3 545.760   6
  -3  -5  -3 11144.7 627.885  18
  -3  -5  -3 10805.1 616.832  16
   3   5   3 14260.8 622.650  15
  -3  -5  -3 11404.1 866.659   1
   3   5   4 829.745 170.725   5
  -3   5  -4 730.482 153.466  14
   3  -5   4 1123.84 192.843  13
  -3  -5  -4 874.274 182.271  16
  -3  -5  -4 992.152 197.203  18
  -3   5  -5 15391.3 679.660  14
   3  -5   5 13964.3 656.213  13
   3   5   5 15186.0 712.084   5
  -3  -5  -5 13998.1 703.155  16
  -3  -5  -5 14035.8 716.210  18
   3  -5   6 11195.9 555.826  13
  -3  -5  -6 11384.5 612.409  18
  -3  -5  -6 11176.4 587.887  16
   3   5   6 11833.7 588.813   5
  -3   5  -6 11817.1 564.239  14
   3  -5   7 6549.83 372.024  13
   3   5   7 8452.04 435.522   5
  -3  -5  -7 6130.97 381.647  16
  -3   5  -7 8394.84 427.844  14
   3   5   8 8470.82 329.381   5
  -3  -5  -8 8868.77 342.419   9
  -3   5  -8 8320.82 342.034  14
   3  -6  -8 10928.3 356.588   9
  -3  -6   8 10491.6 347.068  18
   3   6  -7 2521.21 185.946   8
  -3  -6   7 2112.76 202.914  18
   3  -6  -7 2276.58 208.382   9
   3   6  -7 2436.51 215.608  14
   3   6  -6 55.0299 56.8846  14
  -3  -6   6 79.8861 62.7407  18
   3  -6  -6 55.0586 41.3583   9
   3   6  -6 27.7164 38.6080   8
   3   6  -5 4989.77 382.591  14
   3  -6  -5 5041.56 350.151   6
   3  -6  -5 5109.48 368.033   9
  -3  -6   5 5376.99 399.643  18
   3  -6  -4 11467.5 567.088   6
  -3  -6   4 11375.0 605.307  18
   3  -6  -4 11699.2 557.901   9
  -3  -6   4 10778.5 519.642  16
   3   6  -4 12521.7 568.481  15
   3   6  -4 12560.0 622.637  14
   3  -6  -3 4702.57 382.798   6
  -3  -6   3 5134.50 415.380  18
  -3  -6   3 4743.54 365.162  16
   3  -6  -3 4713.18 345.849   9
   3   6  -3 4413.82 362.003  15
   3   6  -3 4456.96 379.746  14
   3  -6  -2 46596.9 1203.37   6
  -3  -6   2 46844.8 1255.42  18
  -3  -6   2 48370.9 1207.62  16
   3   6  -2 50620.8 1260.30  15
   3   6  -2 49653.4 1252.62  14
   3  -6  -1 29497.9 955.338   6
   3   6  -1 28395.5 922.995  14
  -3  -6   1 29703.4 1007.87  18
  -3  -6   1 30388.6 978.390  16
   3   6  -1 28890.0 960.817  15
   3  -6   0 9094.04 522.635   6
  -3  -6   0 9585.18 577.889  18
  -3  -6   0 9316.07 556.701  16
   3   6   0 11271.7 601.683  15
   3   6   0 11901.2 581.846  14
   3   6   0 11588.5 582.953   5
   3  -6   1 5925.94 445.722  13
   3  -6   1 6268.56 426.095   6
  -3  -6  -1 6079.29 464.051  18
  -3  -6  -1 6270.30 462.336  16
   3   6   1 8812.78 528.401  15
   3   6   1 9208.21 532.405   5
   3  -6   2 13745.1 674.617  13
   3  -6   2 14168.3 614.181   6
  -3  -6  -2 14024.2 708.034  18
   3   6   2 13810.8 636.202  15
  -3  -6  -2 14141.1 699.555  16
   3   6   2 13757.3 661.614   5
   3  -6   3 20617.6 814.175  13
   3  -6   3 21100.7 703.095   6
  -3  -6  -3 22047.0 886.222  18
   3   6   3 17225.4 678.364  15
  -3  -6  -3 21318.1 861.114  16
   3   6   3 18000.9 766.010   5
   3  -6   4 14471.1 657.470  13
  -3  -6  -4 15478.4 725.949  18
   3   6   4 14143.4 671.723   5
  -3  -6  -4 14460.7 696.474  16
  -3   6  -4 15045.3 612.769  14
   3  -6   5 11115.0 534.966  13
  -3  -6  -5 11056.0 574.360  16
   3   6   5 11834.5 572.169   5
  -3  -6  -5 11139.2 582.493  18
  -3   6  -5 11183.0 507.867  14
   3  -6   6 35306.2 837.811  13
  -3  -6  -6 34894.1 897.589  16
   3   6   6 36370.5 884.695   5
  -3   6  -6 34696.3 804.496  14
   3  -6   7 934.157 112.683  13
  -3  -6  -7 907.379 120.473  16
  -3  -6  -7 849.344 110.560   9
   3   6   7 757.634 106.343   5
  -3   6  -7 712.457 96.1460  14
  -3  -7   6 24855.7 617.611  18
   3  -7  -6 25075.6 559.712   9
   3   7  -6 23618.8 602.657  14
   3  -7  -5 1187.28 145.064   6
  -3  -7   5 1219.26 161.657  18
   3   7  -5 1598.06 183.650  14
   3  -7  -5 1294.24 142.353   9
   3  -7  -4 8336.57 429.618   6
   3   7  -4 9991.54 438.174  15
  -3  -7   4 8751.61 465.842  18
   3   7  -4 10942.6 511.908  14
  -3   7   4 10192.6 444.807   5
   3   7  -3 210.203 75.8935  14
   3  -7  -3 898.721 156.556   6
  -3  -7   3 736.653 149.377  18
   3   7  -3 153.866 66.3456  15
   3  -7  -2 4436.18 348.872   6
  -3  -7   2 4069.89 350.579  18
  -3  -7   2 3634.57 292.952  16
   3   7  -2 4151.23 339.405  15
  -3   7   2 4049.69 317.379  15
   3   7  -2 4295.49 335.958  14
   3  -7  -1 4011.16 334.929   6
  -3  -7   1 4111.37 359.156  18
   3   7  -1 2775.56 264.545  14
  -3  -7   1 3866.42 318.846  16
   3   7  -1 2992.46 295.768  15
  -3   7   1 2848.73 284.427  15
   3   7  -1 2809.27 254.275   5
  -3  -7   0 11231.9 558.025  16
   3  -7   0 11033.1 545.575   6
  -3  -7   0 11131.2 593.068  18
   3   7   0 9409.69 527.424  15
   3   7   0 9803.43 498.602   5
   3  -7   1 2309.17 240.674   6
  -3  -7  -1 2357.01 275.093  18
  -3  -7  -1 2386.47 265.018  16
   3   7   1 2147.75 245.507  15
   3   7   1 2022.29 233.155   5
   3  -7   2 13794.3 538.644   6
  -3  -7  -2 12748.8 623.239  18
  -3  -7  -2 14073.6 629.789  16
   3   7   2 13749.2 583.570  15
   3   7   2 13048.0 590.973   5
  -3  -7  -3 1327.50 192.010  16
  -3  -7  -3 1262.21 193.462  18
   3   7   3 2143.69 235.239   5
  -3   7  -3 2223.26 233.307  15
   3   7   3 2080.63 203.775  15
   3  -7   4 7179.70 392.248  13
  -3  -7  -4 6935.23 414.348  18
  -3  -7  -4 6967.21 407.148  16
  -3  -7  -4 6213.42 319.318   9
   3   7   4 7818.67 421.035   5
  -3   7  -4 7609.93 377.915  15
  -3  -7  -5 5485.41 319.374  16
  -3  -7  -5 4915.62 261.464   9
  -3  -7  -5 5398.46 320.233  18
   3   7   5 5463.55 309.115   5
  -3  -7  -6 23390.3 522.655  16
  -3  -8   4 12811.9 407.529  18
   3  -8  -3 3429.05 230.702   6
  -3  -8   3 3320.15 234.455  18
   3   8  -3 2701.57 195.210  15
   3   8  -3 2714.22 185.243  14
  -3   8   3 2602.74 185.890   5
   3  -8  -2 13388.3 481.229   6
  -3  -8   2 13162.6 499.540  18
   3   8  -2 13651.7 488.839  15
   3  -8  -1 628.518 108.415   6
  -3  -8   1 722.497 125.258  18
   3   8  -1 413.172 94.7115  15
  -3   8   1 479.178 96.5301  15
   3  -8   0 5251.45 294.902   6
  -3  -8   0 5263.44 330.673  18
  -3  -8   0 5249.56 276.657  16
   3   8   0 4826.73 304.668  15
  -3   8   0 4702.49 300.381  15
   3   8   0 4568.39 261.858   5
   3  -8   1 26772.1 612.491   6
  -3  -8  -1 26820.5 732.550  18
  -3  -8  -1 26718.7 644.236  16
   3   8   1 27790.2 698.255  15
  -3   8  -1 28256.9 726.550  15
   3   8   1 26889.4 659.615   5
  -3  -8  -2 9413.28 374.875  16
  -3  -8  -2 9874.34 424.028  18
   3   8   2 9112.03 354.674  15
   3   8   2 9233.19 382.076   5
  -3   8  -2 9840.20 402.629  15
  -3  -8  -3 2893.33 208.352  18
  -3  -8  -3 2830.66 190.378  16
   3   8   3 2050.50 168.970   5
  -3   8  -3 2026.48 161.956  15
   4   0 -10 43327.1 876.121   7
   4   0  -9 5865.64 389.350   7
   4   0  -8 5604.40 410.207   7
   4   0  -8 5962.18 430.689  17
   4   0  -8 5141.88 367.578   8
   4   0  -7 57082.1 1294.61   7
  -4   0   7 57576.4 1889.24  11
   4   0  -7 57549.3 1336.06  17
   4   0  -7 57315.2 1241.36   8
   4   0  -6 2580.89 264.832   7
  -4   0   6 2589.80 377.453  11
   4   0  -6 2504.52 368.684   3
   4   0  -6 2492.51 252.716   8
   4   0  -6 2645.25 277.220  17
  -4   0   5 7208.10 567.748  11
   4   0  -5 7542.71 607.025   3
   4   0  -4 167883. 2241.57   2
  -4   0   4 172671. 2537.28  11
   4   0  -3 88539.0 1593.63   2
  -4   0   3 88563.0 1703.28  11
   4   0  -3 85610.4 1766.60   3
   4   0  -2 134805. 1951.44   2
   4   0  -2 144093. 2150.64   3
   4   0  -1 41988.5 1077.83   2
  -4   0   1 38582.6 803.175   1
  -4   0   0 86099.1 1367.27   1
   4   0   0 80931.7 1489.10   2
   4   0   1 62059.0 1306.90   2
  -4   0  -1 63881.8 1423.74  12
  -4   0  -1 64598.2 1331.83   1
   4   0   2 186776. 2280.02   2
  -4   0  -2 187553. 2570.47  12
  -4   0  -2 189100. 2531.72   1
   4   0   3 14226.0 630.329   2
  -4   0  -3 13642.1 745.372  12
  -4   0  -3 13089.5 740.758   1
  -4   0  -4 16596.1 891.850  12
  -4   0  -4 18364.3 971.445   1
   4   0   5 670.822 142.281   5
  -4   0  -5 554.513 192.587   1
  -4   0  -5 539.783 184.128  12
  -4   0  -5 462.714 120.904  17
   4   0   6 201736. 2516.23   5
  -4   0  -6 202747. 2592.47  17
   4   0   7 8379.54 479.686  13
   4   0   7 8824.43 524.727   5
  -4   0  -7 8808.12 545.696  17
   4   0   8 2000.07 217.326  13
   4   0   8 1995.37 228.864   5
  -4   0  -8 2057.58 249.231  17
   4   0   9 481.555 87.2084  13
  -4   0  -9 495.355 101.117   7
   4   0   9 580.281 99.3922   5
  -4   0  -9 423.374 97.7238  17
   4   1 -10 1785.78 156.835   7
   4  -1 -10 1819.22 185.773   7
   4   1 -10 1510.46 141.246   8
   4   1  -9 14052.6 558.725   7
   4  -1  -9 12713.4 582.407   7
   4   1  -9 12521.9 537.756   8
   4   1  -8 32897.5 933.592   7
   4  -1  -8 36023.4 1056.49   7
   4   1  -8 32656.4 1052.48  17
   4   1  -8 33164.7 973.565   8
   4   1  -7 13328.9 600.140   7
   4  -1  -7 13998.2 657.321   7
   4   1  -7 13346.3 674.252  17
   4   1  -7 13378.4 627.662   8
   4   1  -6 190432. 2182.58   7
   4  -1  -6 201711. 2376.85   7
   4  -1  -6 195091. 2208.33   9
  -4  -1   6 203223. 3400.78  11
  -4   1   6 198081. 3163.69  11
   4  -1  -6 199200. 3406.57   3
   4   1  -6 192985. 2464.56  17
   4  -1  -5 37468.3 1239.57   4
  -4  -1   5 37541.9 1343.71  11
  -4   1   5 39566.5 1291.95  11
   4  -1  -5 38825.5 1399.09   3
   4  -1  -4 4241.54 361.256   2
   4  -1  -4 4693.59 379.321   4
   4   1  -4 3867.74 344.415   2
  -4  -1   4 4896.27 442.510  11
  -4   1   4 4011.15 375.463  11
   4  -1  -4 5013.71 467.732   3
  -4  -1   3 46290.7 1057.70   1
   4  -1  -3 45234.2 989.110   4
   4  -1  -3 46940.0 1198.66   2
  -4   1   3 56397.6 1318.32  11
  -4  -1   3 46330.0 1280.57  11
   4   1  -3 54476.4 1281.86   2
   4  -1  -3 45725.0 1294.77   3
  -4  -1   2 84452.0 1375.42   1
   4  -1  -2 87286.2 1622.42   2
   4   1  -2 85862.7 1591.77   2
   4  -1  -2 89814.0 1680.22   3
   4  -1  -1 5933.89 420.247   2
   4  -1  -1 5146.67 381.285   3
  -4  -1   1 5360.14 355.951   1
   4  -1   0 53760.4 1258.72   2
  -4  -1   0 54948.1 1227.97   1
  -4   1   0 46094.0 1171.35  12
  -4  -1   0 54254.5 871.537   4
  -4   1   0 46389.1 782.943  10
   4   1   0 46706.7 1153.06   2
  -4   1   0 47017.1 926.408   1
  -4  -1  -1 33766.9 1041.43   1
   4  -1   1 33975.8 1001.68   2
  -4   1  -1 33574.7 1052.08  12
   4   1   1 33263.4 976.852   2
  -4   1  -1 33395.1 913.455   1
   4  -1   2 38208.6 1066.60   2
  -4   1  -2 33745.9 1118.32  12
  -4  -1  -2 36137.0 1129.48  12
   4   1   2 34303.1 997.710   2
  -4  -1  -2 38814.6 1213.84   1
   4  -1   3 14554.0 653.841   2
  -4   1  -3 18034.5 893.014  12
  -4  -1  -3 13631.4 726.363  12
   4   1   3 17491.0 717.167   2
  -4  -1  -3 15276.4 836.123   1
  -4   1  -4 3454.77 421.092  12
  -4  -1  -4 3943.60 417.798  12
  -4  -1  -4 4364.28 494.861   1
   4  -1   5 14361.9 605.572  13
  -4   1  -5 18854.0 1052.51  12
  -4  -1  -5 14194.4 967.259   1
   4  -1   5 15434.0 672.292   5
  -4   1  -5 20160.1 752.204  17
  -4   1  -5 19142.9 1107.16   1
   4   1   5 20865.4 787.209   5
  -4  -1  -5 14254.5 669.607  17
   4  -1   6 11118.2 560.066  13
   4   1   6 9721.26 513.363  13
  -4   1  -6 9754.44 553.850  17
  -4  -1  -6 9931.29 589.255  17
   4   1   6 9796.49 565.731   5
   4  -1   6 11040.6 591.870   5
   4  -1   7 12549.7 585.967  13
   4   1   7 14374.0 613.862  13
   4  -1   7 13149.4 634.171   5
  -4   1  -7 13537.4 652.403  17
  -4  -1  -7 13073.2 674.038  17
   4   1   7 13986.8 663.359   5
  -4   1  -8 13986.2 585.312  14
   4  -1   8 14608.3 578.295  13
   4   1   8 14131.0 558.460  13
  -4  -1  -8 14687.4 661.879  17
   4  -1   8 15112.8 607.752   5
   4   1   8 14491.9 609.979   5
  -4   1  -8 14641.4 627.461  17
  -4   1  -9 1050.67 124.101  14
   4  -1   9 851.234 114.313  13
   4   1   9 1013.68 119.433  13
  -4  -1  -9 857.467 129.307   7
  -4   1  -9 957.211 135.406   7
  -4   1  -9 1046.36 140.679  17
   4   1   9 971.801 126.982   5
  -4  -1  -9 895.937 138.452  17
   4  -2 -10 26473.2 666.204   7
   4   2 -10 25091.5 585.163   8
   4  -2  -9 8288.22 460.042   7
  -4  -2   9 8227.20 400.873  18
   4   2  -9 8276.47 437.631   8
   4  -2  -8 11258.0 588.064   7
  -4  -2   8 10672.5 521.906  18
   4  -2  -8 10357.6 511.720   9
   4  -2  -7 17163.5 737.099   7
   4  -2  -7 15725.0 670.096   9
  -4  -2   7 16993.6 682.532  18
   4  -2  -6 715.092 151.773   7
  -4  -2   6 886.850 238.858  11
  -4  -2   6 937.129 162.981  18
   4  -2  -6 839.557 158.741   9
   4   2  -6 922.750 177.666  17
   4  -2  -6 692.281 225.028   3
   4  -2  -5 2135.06 236.851   7
   4  -2  -5 1973.14 292.435   4
  -4  -2   5 2020.30 326.565  11
   4   2  -5 2394.44 270.086  17
   4  -2  -5 2016.49 338.768   3
   4  -2  -5 2694.29 264.626   9
  -4  -2   4 43013.3 1367.21  11
   4   2  -4 41922.0 1217.91   2
   4  -2  -4 42162.9 1403.53   3
  -4  -2   4 46007.1 1325.73   1
  -4  -2   3 15792.3 772.194  11
  -4   2   3 15859.4 663.754  11
   4   2  -3 15371.9 737.557   2
   4  -2  -3 15609.3 788.155   3
  -4  -2   3 16521.3 756.353   1
   4  -2  -3 15380.5 736.570   2
  -4  -2   2 74456.9 1562.91   1
  -4   2   2 76704.7 1455.80  12
  -4  -2   2 78411.6 1628.57  11
  -4   2   2 74208.2 1516.94  10
   4   2  -2 77199.4 1636.40   2
   4  -2  -2 76900.2 1622.48   3
   4  -2  -2 76850.0 1620.09   2
  -4   2   1 92291.5 1650.54  12
  -4   2   1 89667.2 1516.85  10
   4  -2  -1 90533.4 1620.85   3
   4   2  -1 92032.8 1764.55   2
  -4  -2   1 93627.9 1734.44   1
   4  -2   0 11643.0 629.215   2
  -4   2   0 12017.1 615.093  12
  -4  -2   0 11843.6 642.793   1
  -4   2   0 13588.1 533.601  10
   4  -2   0 11934.1 543.482   3
   4   2   0 13249.2 669.937   2
  -4   2  -1 25471.4 946.490  12
  -4  -2  -1 27395.0 1028.57   1
  -4  -2  -1 27644.9 832.968   4
   4   2   1 25191.0 925.865   2
   4  -2   1 27642.7 965.671   2
  -4  -2  -2 91060.3 2004.20   1
  -4   2  -2 82080.9 1853.30  12
  -4  -2  -2 83035.9 1702.48  12
  -4  -2  -2 88404.8 1559.29   4
   4   2   2 86520.3 1706.09   2
   4  -2   2 82647.6 1669.95   2
  -4  -2  -3 11959.9 783.471   1
  -4   2  -3 11840.9 755.329  12
  -4  -2  -3 11446.3 642.547  12
   4   2   3 11931.6 636.046   2
  -4  -2  -4 13552.6 907.290   1
  -4   2  -4 13398.0 865.715  12
  -4  -2  -4 13561.3 617.928  18
   4  -2   4 13969.1 619.961   5
   4   2   4 13360.8 605.262   5
  -4  -2  -5 3736.19 507.735   1
   4  -2   5 3728.67 318.135  13
  -4   2  -5 4319.93 531.545  12
  -4  -2  -5 5194.15 419.857  18
   4  -2   5 3809.88 307.715   6
   4  -2   5 3532.43 329.519   5
   4   2   5 4373.98 367.891   5
  -4  -2  -5 3616.34 345.962  17
   4  -2   6 44873.4 1138.98  13
  -4   2  -6 42953.7 1109.08  17
   4  -2   6 46126.5 1206.54   5
   4   2   6 42357.5 1189.82   5
  -4  -2  -6 45605.3 1267.97  17
   4  -2   7 2027.12 237.345  13
   4   2   7 1355.00 189.240  13
   4  -2   7 2097.64 247.864   5
  -4   2  -7 1463.64 203.170  17
   4   2   7 1337.06 208.238   5
  -4  -2  -7 2415.31 287.447  17
  -4   2  -8 3122.36 276.628  14
   4  -2   8 3097.63 259.828  13
   4   2   8 3404.29 257.144  13
  -4  -2  -8 2971.71 258.956   7
  -4  -2  -8 3485.76 315.414  17
   4   2   8 3410.02 290.211   5
  -4   2  -8 3313.54 268.952  17
   4  -2   9 4187.48 232.468  13
  -4  -2  -9 4293.48 240.069   7
  -4   2  -9 4296.87 250.754   7
   4   2   9 4391.93 251.463   5
  -4  -2  -9 4235.34 277.660  17
  -4   2  -9 3930.59 223.841  17
  -4   2  -9 3865.95 231.594  14
   4  -3 -10 492.894 78.9852   7
   4   3 -10 678.629 88.9337   8
   4  -3  -9 326.751 88.9183   7
  -4  -3   9 215.628 67.5125  18
   4  -3  -9 313.559 74.2342   9
   4  -3  -8 11896.3 573.060   7
  -4  -3   8 11455.4 533.229  18
   4  -3  -8 10635.8 521.482   9
   4   3  -8 10431.7 533.497   8
   4   3  -7 154.319 71.5654  14
   4  -3  -7 127.759 72.1867   7
  -4  -3   7 223.337 89.6156  18
   4  -3  -7 91.3781 64.0937   9
   4  -3  -6 122487. 1909.47   7
  -4  -3   6 120960. 1870.77  18
   4  -3  -6 121751. 1934.60   9
   4   3  -6 121709. 1835.63  14
   4  -3  -5 13382.2 609.282   7
  -4  -3   5 12815.7 841.048  11
  -4   3   5 13377.1 903.304  10
  -4  -3   5 12634.1 589.819  18
   4  -3  -5 12457.6 873.966   3
   4  -3  -5 12451.5 605.295   9
   4   3  -5 11872.8 573.724  14
   4  -3  -4 1927.30 219.783   7
  -4  -3   4 2057.27 316.610  11
  -4   3   4 1956.10 323.006  10
   4   3  -4 2073.20 299.708   2
  -4  -3   4 2102.72 335.859   1
   4  -3  -4 2230.91 349.063   3
   4  -3  -4 2077.24 233.718   9
   4   3  -4 1965.23 228.708  14
  -4  -3   3 12581.6 707.773  11
  -4   3   3 12837.3 764.917  10
   4   3  -3 13082.6 753.316   2
   4  -3  -3 12354.7 750.716   3
  -4  -3   3 12712.3 770.520   1
  -4  -3   2 12316.8 670.060  11
  -4  -3   2 12026.1 731.116   1
  -4   3   2 14226.9 749.206  10
   4   3  -2 14787.3 760.754  10
   4  -3  -2 12634.2 694.022   3
  -4   3   1 3910.78 340.484  12
  -4  -3   1 1922.78 256.910  11
  -4   3   1 4435.86 393.743  10
   4  -3  -1 2061.35 257.216   3
   4   3  -1 4151.52 371.604  10
  -4  -3   1 2384.51 320.810   1
  -4   3   0 28058.8 980.527  12
   4   3   0 29316.2 897.589  10
  -4  -3   0 27681.8 1098.25   1
  -4   3   0 29786.6 966.921  10
  -4   3  -1 10734.5 653.673  12
  -4  -3  -1 11432.1 651.668   4
  -4  -3  -1 10714.9 710.174   1
  -4   3  -2 38995.1 1336.43  12
  -4  -3  -2 41813.5 1286.53   4
  -4  -3  -2 41331.5 1467.29   1
   4   3   2 39915.0 1297.41   2
  -4   3  -3 1289.61 264.218  12
  -4  -3  -3 2229.65 315.313   4
  -4  -3  -3 2273.60 368.971   1
   4   3   3 1378.83 239.971   2
   4  -3   3 2213.07 234.536   6
  -4  -3  -3 2287.97 256.964  18
  -4  -3  -3 2549.00 268.295  16
   4   3   3 1447.78 201.502   5
   4  -3   4 1764.31 217.724  13
  -4   3  -4 1978.25 354.370  12
  -4  -3  -4 2064.92 370.248   1
   4   3   4 2151.15 258.176   5
   4  -3   4 1777.34 213.626   6
  -4  -3  -4 1797.44 234.925  16
  -4  -3  -4 1784.17 244.087  18
   4  -3   5 26711.1 878.781  13
  -4  -3  -5 27198.8 977.554  18
  -4  -3  -5 26996.6 958.106  17
  -4  -3  -5 26141.1 896.354  16
   4  -3   6 13638.9 623.955  13
  -4  -3  -6 14024.6 637.772  16
   4   3   6 13690.0 668.533   5
  -4  -3  -6 13911.5 693.000  17
  -4   3  -7 1019.08 178.672  14
   4  -3   7 518.330 117.907  13
  -4  -3  -7 522.121 132.344  17
   4   3   7 942.701 169.882   5
  -4   3  -8 28253.4 771.822  14
   4  -3   8 28650.0 723.535  13
  -4  -3  -8 28337.5 805.549  17
   4   3   8 29385.8 786.223   5
  -4   3  -9 397.585 67.4531  14
  -4  -3  -9 268.049 58.9792  17
  -4  -4   9 6434.92 298.713  18
   4  -4  -9 6310.19 301.513   9
   4   4  -9 5981.87 306.220   8
   4  -4  -9 6179.97 281.788   7
   4  -4  -8 6260.01 357.519   7
  -4  -4   8 6842.34 389.475  18
   4  -4  -8 6777.10 397.849   9
   4   4  -8 5532.16 354.199   8
   4   4  -8 5563.61 323.767  14
   4  -4  -7 3677.00 305.690   7
  -4  -4   7 3335.60 304.277  18
   4  -4  -7 3679.54 329.536   9
   4   4  -7 1527.27 209.488   8
   4   4  -7 1583.75 205.235  14
   4  -4  -6 835.266 154.498   7
  -4  -4   6 857.898 167.632  18
   4  -4  -6 849.096 163.072   9
   4   4  -6 917.724 166.440  14
   4  -4  -5 5350.19 378.035   7
  -4  -4   5 5435.32 411.250  18
   4  -4  -5 5334.32 410.633   9
   4   4  -5 5204.60 401.461  14
   4  -4  -4 47656.2 1090.29   7
   4  -4  -4 46016.5 1083.49   6
  -4  -4   4 46092.0 1507.33  11
  -4   4   4 47218.0 1716.29  10
  -4  -4   4 48227.8 1199.90  18
   4  -4  -4 46541.6 1675.99   3
   4  -4  -4 46149.5 1164.51   9
  -4  -4   4 48513.4 1752.55   1
   4   4  -4 51714.5 1257.12  14
   4   4  -3 7.19690 48.6284  14
  -4  -4   3 16.5933 55.8325  11
  -4   4   3 214.145 115.416  10
   4  -4  -3 128.386 61.6220   6
   4   4  -3 117.548 90.2912  10
  -4  -4   3 152.281 69.4530  18
   4   4  -3 126.592 92.7415   2
   4  -4  -3 114.276 69.6215   9
  -4  -4   3 149.555 94.4686   1
   4   4  -3 147.416 76.6511  15
   4  -4  -3 158.303 92.0155   3
   4  -4  -2 21973.7 750.840   6
  -4   4   2 22543.8 1067.47  10
  -4  -4   2 23301.3 1155.88   1
  -4  -4   2 22554.1 782.621  18
   4   4  -2 22346.1 1051.24  10
   4  -4  -2 23062.6 1009.06   3
   4   4  -2 23027.7 771.245  15
   4   4  -2 24278.0 824.071  14
  -4  -4   1 40642.1 1483.30   1
   4  -4  -1 39264.1 1002.94   6
  -4   4   1 35555.6 1274.13  10
   4   4  -1 34883.8 1231.76  10
   4   4  -1 35826.8 965.772  15
   4   4  -1 36033.9 985.661  14
   4  -4   0 36476.0 974.675   6
  -4  -4   0 36148.1 1335.30   4
  -4   4   0 35702.6 1241.64  10
  -4  -4   0 35160.4 1003.38  16
   4   4   0 36351.8 975.068  15
  -4  -4   0 34502.9 1381.04   1
  -4  -4  -1 22985.7 1140.97   1
  -4  -4  -1 22212.2 1055.99   4
   4  -4   1 22844.0 774.200   6
  -4  -4  -1 22132.5 804.567  16
  -4  -4  -1 21961.6 782.385  18
   4   4   1 22382.0 775.004  15
   4   4   1 22376.1 784.065  14
   4  -4   2 44871.2 1087.88  13
  -4   4  -2 46365.6 1524.17  12
  -4  -4  -2 46421.5 1566.19   4
   4  -4   2 45803.4 1105.87   6
  -4  -4  -2 46145.7 1178.70  18
  -4  -4  -2 45324.9 1660.11   1
  -4  -4  -2 46435.8 1195.37  16
   4   4   2 46970.9 1128.34  15
   4   4   2 46752.7 1135.96   5
  -4   4  -3 6299.20 418.707  14
   4  -4   3 8409.27 486.599  13
  -4   4  -3 6801.83 629.311  12
  -4  -4  -3 8560.58 698.216   4
   4  -4   3 8523.76 475.922   6
  -4  -4  -3 8675.91 533.845  18
  -4  -4  -3 8512.68 746.933   1
  -4  -4  -3 7986.69 509.024  16
   4   4   3 6169.27 409.531  15
   4   4   3 6168.23 435.837   5
  -4   4  -4 9206.36 528.187  14
   4  -4   4 7612.39 472.214  13
   4  -4   4 7253.00 430.157   6
  -4  -4  -4 7231.36 506.782  18
  -4  -4  -4 7466.27 494.442  17
  -4  -4  -4 7053.23 487.280  16
   4   4   4 9274.71 553.298   5
  -4   4  -5 3387.35 328.586  14
   4  -4   5 3819.47 333.749  13
  -4  -4  -5 3977.86 381.685  18
  -4  -4  -5 3844.82 356.694  17
  -4  -4  -5 3779.89 355.460  16
   4   4   5 3683.85 352.944   5
  -4   4  -6 11683.5 584.595  14
   4  -4   6 11465.3 551.380  13
  -4  -4  -6 11041.3 575.103  17
  -4  -4  -6 11144.0 572.631  16
   4   4   6 12340.5 613.843   5
  -4   4  -7 3746.50 301.166  14
   4  -4   7 2751.79 243.183  13
  -4  -4  -7 3025.05 257.192  16
   4   4   7 3562.00 298.916   5
  -4  -4  -7 2900.17 263.982  17
   4  -4   8 1837.04 160.438  13
  -4  -4  -8 1868.34 165.697  17
   4   4   8 1963.39 178.785   5
  -4  -4  -8 1855.43 159.596   9
  -4   4  -8 1981.54 181.735  14
  -4  -5   8 14009.9 476.285  18
   4  -5  -8 14758.3 511.386   9
   4   5  -8 15591.4 486.891   8
   4   5  -8 15223.7 463.242  14
  -4  -5   7 3777.55 299.362  18
   4  -5  -7 3587.55 298.511   9
   4   5  -7 3940.15 285.899   8
   4   5  -7 3758.72 293.123  14
   4  -5  -6 98190.7 1673.29   9
  -4  -5   6 98669.9 1686.54  18
   4   5  -6 97543.5 1526.29   8
   4   5  -6 98535.4 1673.61  14
   4  -5  -5 2468.01 246.006   6
   4  -5  -5 2883.46 295.131   9
  -4  -5   5 2728.39 297.820  18
   4   5  -5 3278.52 284.223   8
   4   5  -5 3162.47 320.268  14
   4  -5  -4 4548.72 357.890   6
  -4  -5   4 5125.94 407.564  18
   4  -5  -4 4797.22 376.706   9
   4   5  -4 5306.48 376.613  15
   4   5  -4 5679.80 431.506  14
   4  -5  -3 6304.47 429.741   6
  -4  -5   3 6435.76 457.188  18
   4  -5  -3 6265.32 418.703   9
   4   5  -3 3529.59 320.268  15
   4   5  -3 3411.54 335.903  14
   4   5  -2 375.011 121.751  14
  -4  -5   2 161.856 93.5484   1
  -4   5   2 195.452 132.075  10
   4  -5  -2 247.815 95.8290   6
   4   5  -2 187.010 119.005  10
   4  -5  -2 214.409 75.3980   9
  -4  -5   2 360.189 113.977  18
   4   5  -2 306.428 101.310  15
   4  -5  -1 2747.54 290.819   6
  -4  -5   1 2806.05 299.405  18
  -4  -5   1 2955.74 448.459   1
  -4   5   1 3989.68 484.610  10
   4   5  -1 4441.57 375.570  14
   4   5  -1 4356.41 489.581  10
  -4  -5   1 2838.04 305.613  16
   4   5  -1 4444.64 372.030  15
  -4  -5   0 28017.0 1377.22   1
   4  -5   0 26649.7 891.455   6
  -4  -5   0 29599.8 1367.66   4
  -4  -5   0 26683.0 925.785  18
  -4  -5   0 26852.2 942.628  16
   4   5   0 27346.0 916.841  15
   4   5   0 26107.0 893.617  14
  -4  -5  -1 3322.54 471.919   1
   4  -5   1 2877.05 293.636  13
  -4  -5  -1 3146.20 446.556   4
   4  -5   1 2951.24 294.390   6
  -4  -5  -1 3004.15 316.691  18
  -4  -5  -1 2916.26 318.246  16
   4   5   1 2948.68 301.405  15
   4   5   1 2918.71 297.193  14
   4   5   1 2957.74 290.599   5
   4  -5   2 35660.1 1036.60  13
   4  -5   2 35687.6 1006.91   6
  -4  -5  -2 34764.2 1105.82  16
   4   5   2 35148.8 1024.77  15
  -4  -5  -2 36117.9 1114.72  18
   4   5   2 36542.6 1052.75   5
  -4   5  -3 3128.91 293.306  14
   4  -5   3 4550.59 373.603  13
   4  -5   3 4447.43 346.389   6
  -4  -5  -3 4492.42 401.287  18
  -4  -5  -3 4172.10 386.658  16
   4   5   3 3492.76 315.192  15
   4   5   3 3381.02 332.327   5
  -4   5  -4 9934.47 532.679  14
   4  -5   4 9913.33 538.082  13
   4  -5   4 10355.5 491.882   6
  -4  -5  -4 10728.9 620.545  18
  -4  -5  -4 10697.3 559.207  17
  -4  -5  -4 10146.4 589.186  16
   4   5   4 10538.1 588.420   5
  -4   5  -5 8130.42 468.328  14
   4  -5   5 9588.17 505.881  13
  -4  -5  -5 9883.67 579.241  18
  -4  -5  -5 10019.0 509.405  17
  -4  -5  -5 9546.72 550.624  16
   4   5   5 8703.85 518.464   5
   4  -5   6 9678.89 459.721  13
  -4  -5  -6 9282.72 435.033  17
  -4  -5  -6 9641.16 491.709  16
   4   5   6 10464.9 514.381   5
  -4   5  -6 10365.7 491.073  14
   4  -5   7 8795.48 364.993  13
  -4  -5  -7 9289.88 395.400  16
  -4   5  -7 8671.18 385.666  14
  -4  -6   7 6063.93 305.791  18
   4  -6  -7 6263.96 316.333   9
   4  -6  -6 1417.86 173.204   9
  -4  -6   6 1629.52 191.477  18
   4   6  -6 1571.01 192.684  14
   4  -6  -5 3078.69 254.262   6
  -4  -6   5 3112.15 290.665  18
   4  -6  -5 3260.20 279.959   9
  -4  -6   5 3083.67 258.099  16
   4   6  -5 4069.59 334.146  14
   4  -6  -4 41923.1 1042.35   6
  -4  -6   4 42483.2 1123.20  18
   4  -6  -4 41597.3 1007.84   9
  -4  -6   4 40060.3 1021.20  16
   4   6  -4 38835.9 1075.91  14
   4  -6  -3 4507.95 366.730   6
  -4  -6   3 4513.88 380.150  18
   4  -6  -3 4684.78 336.167   9
  -4  -6   3 4542.12 367.145  16
   4   6  -3 4616.75 360.509  15
   4   6  -3 4776.67 388.351  14
   4  -6  -2 10441.3 567.262   6
  -4  -6   2 10639.0 592.379  18
  -4  -6   2 10335.4 569.570  16
   4   6  -2 10978.2 577.280  15
   4   6  -2 10543.1 576.699  14
   4  -6  -1 29234.4 955.531   6
  -4  -6   1 29072.9 982.944  18
  -4  -6   1 27940.4 958.183  16
   4   6  -1 32464.8 1010.75  15
   4   6  -1 31799.5 988.291  14
   4  -6   0 41004.9 1114.69   6
  -4  -6   0 41423.5 1179.52  18
  -4  -6   0 39897.4 1155.90  16
   4   6   0 39987.3 1125.45  15
   4   6   0 38463.0 1077.71  14
   4   6   0 38810.6 999.259   5
   4  -6   1 34824.3 1003.14   6
  -4  -6  -1 35812.8 1102.55  18
  -4  -6  -1 33441.1 1074.17  16
   4   6   1 37259.4 1068.75  15
   4   6   1 36543.9 1009.57   5
   4  -6   2 32864.5 987.982  13
   4  -6   2 32925.3 935.617   6
  -4  -6  -2 33721.0 1073.47  18
  -4  -6  -2 33403.0 1064.91  16
   4   6   2 31513.6 963.628   5
   4   6   2 31436.6 951.290  15
   4  -6   3 5250.71 384.805  13
   4  -6   3 5040.82 340.439   6
  -4  -6  -3 4859.14 404.163  18
  -4  -6  -3 4563.39 389.648  16
   4   6   3 6586.07 407.121  15
   4   6   3 6462.30 437.477   5
   4  -6   4 5196.09 361.015  13
  -4  -6  -4 5153.36 399.679  18
  -4  -6  -4 5237.61 395.271  16
   4   6   4 5766.29 398.387   5
  -4   6  -4 6039.83 350.848  14
   4   6   5 511.908 111.867   5
  -4   6  -5 534.942 102.374  14
   4  -6   5 622.558 118.617  13
  -4  -6  -5 682.607 139.322  18
  -4  -6  -5 607.305 126.578  16
   4  -6   6 31206.7 666.748  13
  -4  -6  -6 32597.8 751.909  16
   4   6   6 31384.9 729.354   5
  -4   6  -6 30691.3 643.908  14
  -4  -7   6 47835.7 750.389  18
   4   7  -6 44701.6 740.542  14
   4  -7  -5 15964.6 454.081   6
  -4  -7   5 17798.2 556.555  18
   4  -7  -5 15614.1 438.915   9
   4   7  -5 18016.1 562.604  14
   4  -7  -4 2899.25 233.439   6
  -4  -7   4 2906.97 251.890  18
   4   7  -4 2951.28 218.292  15
   4   7  -4 2905.08 249.479  14
   4  -7  -3 881.581 144.081   6
  -4  -7   3 959.702 157.240  18
  -4  -7   3 937.293 138.152  16
   4   7  -3 1476.44 180.445  15
   4   7  -3 1365.30 181.897  14
   4  -7  -2 4443.66 330.918   6
  -4  -7   2 4116.07 335.414  18
  -4  -7   2 4026.48 305.127  16
   4   7  -2 4009.07 315.665  15
  -4   7   2 4046.18 295.618  15
   4   7  -2 4152.72 320.731  14
   4  -7  -1 9540.52 496.035   6
  -4  -7   1 9724.22 524.706  18
  -4  -7   1 8780.98 476.051  16
   4   7  -1 10739.6 532.791  15
   4   7  -1 11407.6 522.934  14
   4  -7   0 3372.70 289.975   6
  -4  -7   0 3036.16 297.015  18
  -4  -7   0 3014.57 286.163  16
   4  -7   1 2638.74 245.311   6
  -4  -7  -1 2479.09 268.527  18
  -4  -7  -1 2612.05 266.701  16
   4   7   1 2440.69 250.614  15
   4   7   1 2387.67 229.231   5
   4  -7   2 8211.62 398.191   6
  -4  -7  -2 8221.86 470.503  18
  -4  -7  -2 8823.46 478.366  16
   4   7   2 7367.57 400.329  15
   4   7   2 7063.92 393.838   5
  -4  -7  -3 5172.71 357.183  18
  -4  -7  -3 5364.30 356.237  16
   4   7   3 7071.93 338.982  15
   4   7   3 6643.59 368.274   5
   4   7   4 346.131 82.4792   5
  -4  -7  -4 266.318 81.0408  18
  -4  -7  -4 199.695 57.1588   9
  -4  -7  -4 261.530 75.9901  16
  -4   7  -4 349.601 75.9120  15
  -4  -7  -5 2002.74 164.592  16
   4   7   5 1471.41 135.669   5
   4  -8  -3 1398.86 129.092   6
  -4  -8   3 1320.68 134.475  18
   4  -8  -2 27488.3 617.062   6
  -4  -8   2 27116.5 653.311  18
   4   8  -2 27259.2 615.117  15
  -4   8   2 26276.4 534.813   5
   4  -8  -1 17917.7 513.434   6
  -4  -8   1 16173.3 428.103  16
  -4  -8   1 17404.7 544.855  18
   4   8  -1 17030.0 518.643  15
  -4   8   1 17068.4 473.201  15
   4  -8   0 5794.42 282.718   6
  -4  -8   0 5557.91 313.036  18
  -4  -8   0 5779.65 275.810  16
   4   8   0 5289.97 288.689  15
  -4   8   0 5500.54 287.552  15
   4  -8   1 8050.01 300.773   6
  -4  -8  -1 8337.20 372.787  18
  -4  -8  -1 8077.70 328.405  16
   4   8   1 9014.27 351.996  15
  -4   8  -1 9158.22 366.953  15
  -4  -8  -2 12688.9 426.006  18
  -4  -8  -2 12509.0 386.583  16
  -4   8  -2 11850.9 386.808  15
   5   0 -10 10345.8 370.577   7
   5   0  -9 13970.9 556.369   7
   5   0  -8 8553.52 491.472   7
   5   0  -8 7986.38 448.644   8
   5   0  -7 1525.16 218.048   7
   5   0  -7 1860.40 229.644   8
   5   0  -6 1994.02 240.903   7
  -5   0   6 1732.54 329.051  11
   5   0  -6 2052.95 371.013   3
   5   0  -6 2179.73 250.698   8
   5   0  -5 8043.39 458.185   7
  -5   0   5 7780.77 641.621  11
   5   0  -5 7623.26 673.634   3
   5   0  -5 7560.79 431.112   9
   5   0  -5 7810.10 450.172   8
   5   0  -4 1085.04 207.772   2
  -5   0   4 877.557 207.533  11
   5   0  -4 997.464 233.851   3
   5   0  -3 6714.69 512.701   2
  -5   0   3 7388.14 556.503  11
   5   0  -3 7661.03 601.756   3
   5   0  -2 6795.78 510.865   2
   5   0  -1 137144. 2274.27   2
  -5   0   0 2437.34 264.452   1
   5   0   0 2328.62 294.096   2
  -5   0  -1 5408.54 438.585   1
   5   0   1 5345.49 449.997   2
  -5   0  -1 5129.73 469.705  12
   5   0   2 7272.04 524.633   2
  -5   0  -2 7150.36 575.520  12
  -5   0  -2 6644.68 535.622   1
   5   0   3 86243.3 1788.08   2
  -5   0  -3 85773.2 2109.11  12
  -5   0  -3 84344.8 2101.48   1
  -5   0  -4 6525.33 610.980  12
  -5   0  -4 6624.84 435.904  17
   5   0   4 7311.58 458.537   5
   5   0   4 7319.50 429.345  15
  -5   0  -4 7470.42 679.076   1
  -5   0  -5 84111.3 2285.39  12
   5   0   5 90295.4 1686.41   5
  -5   0  -5 86643.7 1648.86  17
  -5   0  -5 91871.1 2564.01   1
  -5   0  -6 2757.43 301.407  17
   5   0   6 2963.18 311.990   5
  -5   0  -7 8603.90 508.846  17
   5   0   7 9100.82 514.837   5
   5   0   8 3292.66 269.617   5
  -5   0  -8 3260.47 277.201  17
  -5   0  -9 35002.5 687.394   7
  -5   0  -9 36137.1 693.842  17
   5  -1 -10 2937.43 206.919   7
   5   1  -9 3655.44 256.543   7
   5  -1  -9 3147.44 272.316   7
   5   1  -9 3567.32 272.309   8
   5   1  -8 45125.0 1048.56   7
   5  -1  -8 43130.6 1127.47   7
   5   1  -8 42715.4 1076.57   8
   5   1  -7 12444.4 585.176   7
   5  -1  -7 13186.6 646.173   7
   5  -1  -7 12904.7 585.236   9
   5   1  -7 12675.9 617.112   8
   5   1  -6 81296.0 1471.54   7
   5  -1  -6 76775.6 1536.26   7
  -5  -1   6 80009.9 2242.85  11
  -5   1   6 78352.0 2092.34  11
   5  -1  -6 79169.2 2303.42   3
   5  -1  -6 75797.9 1454.56   9
   5  -1  -6 74296.5 1380.69   8
   5   1  -6 81656.1 1549.91   8
   5   1  -5 19550.1 690.738   7
   5  -1  -5 23206.0 801.790   7
   5  -1  -5 22072.6 766.931   9
  -5  -1   5 22329.8 1116.51  11
  -5   1   5 18604.1 956.633  11
   5  -1  -5 23300.1 1190.52   3
   5  -1  -5 22452.3 742.569   8
   5   1  -5 20512.4 741.370   8
   5  -1  -4 3899.55 400.884   2
   5   1  -4 4117.16 410.335   2
  -5  -1   4 4485.68 469.478  11
  -5   1   4 3602.18 393.070  11
   5  -1  -4 4606.79 497.118   3
   5  -1  -3 89084.6 1928.62   2
  -5   1   3 88432.8 1875.43  11
  -5  -1   3 101225. 2127.18  11
   5   1  -3 90024.3 1915.07   2
   5  -1  -3 100022. 2168.26   3
   5  -1  -2 7463.89 545.921   2
   5  -1  -2 7811.13 569.400   3
   5  -1  -1 1154.90 219.542   2
  -5   1   1 2247.96 297.110  12
   5   1  -1 1946.28 272.794   2
  -5  -1   1 1241.33 194.328   1
   5  -1   0 77319.2 1735.03   2
  -5   1   0 77277.5 1779.91  12
   5   1   0 75186.1 1696.41   2
  -5  -1   0 76237.1 1613.74   1
  -5   1  -1 923.153 204.017  12
  -5  -1  -1 537.438 158.760  12
   5   1   1 1136.23 211.001   2
  -5  -1  -1 500.365 147.117   1
   5  -1   1 456.420 137.656   2
  -5   1  -1 1033.97 185.984   1
   5  -1   2 11358.3 670.425   2
  -5  -1  -2 10466.3 709.523   1
  -5   1  -2 11398.7 741.718  12
  -5  -1  -2 9601.56 665.484  12
   5   1   2 12095.8 686.548   2
  -5   1  -2 11279.8 672.223   1
   5  -1   3 33187.7 1129.62   2
  -5  -1  -3 34040.4 1390.52   1
   5   1   3 30107.2 1071.92   2
  -5   1  -3 27690.4 1233.28  12
  -5  -1  -3 30162.0 1216.17  12
  -5   1  -3 26908.1 1157.86   1
  -5  -1  -4 1549.96 319.643   1
  -5   1  -4 1675.19 325.156  12
  -5  -1  -4 1588.69 294.198  12
   5  -1   4 1914.32 239.398   5
   5   1   4 1673.65 223.425   5
  -5  -1  -4 1685.24 234.434  17
  -5   1  -4 1533.73 306.760   1
   5  -1   5 14923.9 689.075   5
  -5   1  -5 13610.3 627.792  17
  -5  -1  -5 14789.0 701.108  17
   5   1   5 13816.6 665.549   5
   5  -1   6 4878.88 352.587   6
  -5  -1  -6 4777.55 405.401  17
   5  -1   6 5108.78 404.663   5
  -5   1  -6 7035.75 458.207  17
   5   1   6 6973.50 478.069   5
   5  -1   7 4702.95 364.922   5
  -5   1  -7 4341.61 339.515  17
  -5  -1  -7 4716.31 382.106  17
   5   1   7 4630.03 365.910   5
  -5   1  -8 14759.8 544.368  14
   5  -1   8 16034.7 575.378   5
  -5   1  -8 14791.5 540.998  17
  -5  -1  -8 16396.9 624.908  17
   5   1   8 14409.4 556.396   5
  -5  -1  -9 257.433 58.1207   7
  -5   1  -9 359.547 70.6351   7
  -5  -1  -9 211.559 60.1726  17
   5   1   9 373.166 65.9453   5
   5  -2 -10 19358.7 496.357   7
   5   2 -10 19075.7 440.872   8
   5  -2  -9 24506.1 731.371   7
   5   2  -9 23733.3 692.826   8
   5  -2  -8 18161.1 719.443   7
   5  -2  -8 17578.7 645.166   9
   5  -2  -7 5763.75 430.144   7
   5  -2  -7 5361.03 392.114   9
   5   2  -7 5117.33 394.439   8
   5  -2  -6 786.697 165.239   7
   5  -2  -6 719.520 153.108   9
   5   2  -6 1234.52 198.998   8
   5  -2  -5 2829.54 289.870   7
  -5  -2   5 2461.29 383.105  11
   5  -2  -5 2927.57 432.795   3
   5  -2  -5 2436.80 266.713   9
   5  -2  -4 76187.3 1419.00   7
  -5  -2   4 75987.4 1963.41  11
   5   2  -4 81535.2 1912.52   2
   5  -2  -4 78373.8 2099.90   3
   5  -2  -4 79496.2 1448.41   9
   5   2  -4 83875.5 1463.69   8
  -5  -2   3 23010.8 1039.55  11
  -5   2   3 22524.5 904.685  11
   5   2  -3 21720.5 983.382   2
  -5   2   3 21032.5 945.617  10
   5  -2  -3 22073.6 1042.75   3
   5  -2  -3 21679.7 979.784   2
   5  -2  -2 44214.0 1388.69   2
  -5  -2   2 40877.7 1245.54   1
  -5   2   2 45030.2 1301.42  12
  -5  -2   2 41950.8 1351.82  11
  -5   2   2 45090.6 1257.10  10
   5   2  -2 41346.4 1344.64   2
   5  -2  -2 44655.8 1385.68   3
   5  -2  -1 35517.9 1254.23   2
  -5   2   1 36367.3 1202.87  12
   5   2  -1 34485.5 1219.20   2
   5  -2  -1 35906.3 1158.71   3
  -5  -2   1 34486.1 1167.92   1
   5  -2   0 31709.7 1171.14   2
  -5   2   0 29287.9 1107.88  12
   5   2   0 30369.6 1140.13   2
  -5  -2   0 29037.8 1107.41   1
   5  -2   1 24045.8 1018.92   2
  -5   2  -1 31015.0 1187.84  12
  -5  -2  -1 23172.3 1028.92  12
  -5  -2  -1 24948.0 1084.12   1
   5   2   1 32431.5 1179.34   2
  -5   2  -2 39960.3 1443.61  12
  -5  -2  -2 38777.4 1439.93   1
  -5  -2  -2 39065.0 1342.29  12
   5   2   2 39463.6 1299.72   2
   5  -2   2 39523.3 1301.70   2
  -5  -2  -3 5563.95 579.672   1
  -5   2  -3 4135.36 489.815  12
  -5  -2  -3 5368.92 501.306  12
   5  -2   3 5005.49 367.090   6
   5  -2   3 4787.16 365.065   5
  -5   2  -3 4048.38 457.563   1
   5   2   3 3923.32 324.532   5
   5   2   3 4475.11 338.164  15
  -5  -2  -4 17003.2 1081.19   1
  -5   2  -4 16058.8 1013.95  12
  -5  -2  -4 17836.4 727.637  18
   5  -2   4 17174.7 690.002   6
   5  -2   4 17243.8 725.946   5
  -5  -2  -4 17805.7 772.986  17
  -5   2  -4 17391.0 1026.76   1
   5   2   4 16324.7 702.721   5
   5  -2   5 39509.5 1033.20   6
   5  -2   5 40723.4 1143.36   5
  -5  -2  -5 39828.1 1175.89  17
   5  -2   6 20472.8 797.987   5
   5   2   6 20611.0 812.046   5
  -5  -2  -6 20585.4 836.912  17
   5   2   7 14794.0 637.762   5
  -5  -2  -7 12083.5 600.815  17
  -5   2  -8 801.919 127.393  14
  -5  -2  -8 908.744 120.110   7
  -5  -2  -8 1001.03 150.893  17
   5   2   8 931.600 138.815   5
  -5  -2  -9 2990.69 183.365  17
   5  -3  -9 13604.7 484.902   7
   5  -3  -9 13120.5 424.299   9
   5   3  -9 13964.4 489.595   8
   5  -3  -8 11520.1 533.541   7
   5  -3  -8 12156.4 530.726   9
   5   3  -8 10272.6 503.230   8
   5  -3  -7 2846.39 289.744   7
   5  -3  -7 2738.89 285.044   9
   5   3  -7 2671.17 279.248   8
   5  -3  -6 91221.2 1667.76   7
   5  -3  -6 89899.1 1682.31   9
   5   3  -6 90376.6 1659.76   8
   5   3  -6 88979.7 1561.90  14
   5  -3  -5 13573.5 635.604   7
   5  -3  -5 13892.5 658.793   9
   5   3  -5 14772.1 657.383   8
   5   3  -5 14243.5 642.688  14
   5  -3  -4 1876.02 231.248   7
  -5  -3   4 1991.55 328.164  11
   5   3  -4 2019.08 324.006   2
  -5   3   4 2040.05 345.573  10
   5  -3  -4 2246.31 370.593   3
   5  -3  -4 1933.00 240.679   9
   5   3  -4 2095.70 241.111   8
   5   3  -4 2024.29 244.570  14
  -5  -3   3 7763.47 614.274  11
  -5   3   3 5377.08 519.468  10
   5   3  -3 5210.17 522.948   2
   5  -3  -3 8821.54 681.639   3
   5  -3  -3 8762.74 485.513   9
  -5  -3   3 8402.42 663.367   1
   5   3  -3 5226.51 366.639  15
   5   3  -3 5284.24 358.866   8
   5   3  -3 4927.63 372.067  14
   5  -3  -3 8762.56 473.764   7
  -5  -3   2 2588.54 347.427  11
  -5  -3   2 2463.31 352.821   1
  -5   3   2 3905.68 411.897  10
   5  -3  -2 4107.12 434.574   3
   5   3  -2 3769.99 440.044   2
   5   3  -2 3661.71 315.983  14
   5  -3  -1 7447.65 542.376   3
   5   3  -1 8255.42 648.159   2
  -5  -3   1 6595.47 572.297   1
  -5   3   0 24848.1 1050.52  12
   5   3   0 25636.7 1133.44   2
  -5   3  -1 11519.9 754.125  12
  -5  -3  -1 10255.1 685.759  12
   5  -3   1 10803.3 535.935   6
   5   3   1 10394.7 721.151   2
  -5  -3  -1 10159.6 749.635   1
   5  -3   1 10492.3 523.666   8
  -5  -3  -1 10198.9 527.111  16
   5   3   1 10903.7 540.134  15
  -5   3  -2 22146.7 1100.50  12
  -5  -3  -2 23659.2 1200.03   1
   5   3   2 22950.0 1065.29   2
   5  -3   2 22733.7 793.361   6
  -5  -3  -2 22251.0 774.138  18
  -5  -3  -2 21443.1 776.103  16
   5   3   2 22693.5 788.628  15
   5   3   2 23534.6 787.516   5
  -5   3  -3 7936.12 698.036  12
  -5  -3  -3 9012.94 776.392   1
  -5  -3  -3 8621.24 511.295  18
   5  -3   3 8841.69 496.902   6
  -5  -3  -3 8099.54 485.102  16
   5   3   3 7820.85 465.720  15
   5   3   3 7898.30 480.129   5
  -5  -3  -4 1616.07 232.962  18
   5  -3   4 1759.92 223.295   6
  -5  -3  -4 1730.40 247.389  17
  -5  -3  -4 1848.44 233.414  16
   5   3   4 1759.27 237.995   5
   5  -3   5 4487.87 337.754   6
  -5  -3  -5 4663.58 394.201  18
  -5  -3  -5 4468.99 397.464  17
   5   3   5 4067.87 366.299   5
  -5   3  -6 7788.43 477.639  14
   5  -3   6 6484.19 381.753  13
  -5  -3  -6 6653.01 462.364  17
   5   3   6 7436.22 478.070   5
  -5   3  -7 4793.44 340.172  14
   5  -3   7 4496.69 278.076  13
  -5  -3  -7 4489.51 342.649  17
   5   3   7 4888.25 346.487   5
  -5   3  -8 7997.93 354.644  14
   5   3   8 8097.32 359.953   5
  -5  -3  -8 8985.60 392.490  17
   5   4  -9 20024.9 485.025   8
  -5  -4   8 4094.02 253.045  18
   5  -4  -8 3797.66 278.450   9
   5   4  -8 4327.38 288.828   8
   5  -4  -8 3664.29 255.826   7
  -5  -4   7 12534.9 531.502  18
   5  -4  -7 12314.2 571.086   9
   5   4  -7 16704.0 643.149   8
   5   4  -7 16594.3 606.843  14
   5  -4  -7 11698.4 524.808   7
   5  -4  -6 4594.17 350.141   7
  -5  -4   6 4835.64 362.624  18
   5  -4  -6 4522.67 372.383   9
   5   4  -6 3273.26 303.002   8
   5   4  -6 3406.91 311.636  14
  -5  -4   5 4103.76 346.767  18
   5  -4  -5 3855.53 349.748   9
   5   4  -5 2712.37 276.527   8
   5   4  -5 2450.42 277.139  14
   5  -4  -5 3694.07 319.468   7
   5  -4  -4 54462.9 1180.35   6
  -5  -4   4 57987.8 1290.91  18
   5  -4  -4 56112.7 1309.68   9
   5   4  -4 52129.3 1176.51   8
   5   4  -4 51634.2 1285.01  14
   5  -4  -4 53186.1 1203.97   7
  -5  -4   3 2310.79 388.993   1
   5  -4  -3 2276.06 251.545   6
  -5   4   3 2516.47 391.039  10
   5   4  -3 2025.71 350.839   2
  -5  -4   3 2412.70 263.563  18
   5  -4  -3 2059.76 357.075   3
   5  -4  -3 2316.15 261.722   9
   5   4  -3 2203.61 251.952  15
   5   4  -3 2038.22 255.953  14
   5  -4  -3 2186.79 243.553   7
   5  -4  -2 46940.2 1146.47   6
  -5   4   2 51013.4 1624.98  10
  -5  -4   2 48860.0 1164.44  18
  -5  -4   2 47285.1 1723.43   1
   5   4  -2 48394.8 1704.37   2
   5  -4  -2 45351.6 1106.18   9
   5   4  -2 48487.5 1182.08  15
   5   4  -2 47984.4 1225.57  14
   5  -4  -2 46979.6 1092.05   7
  -5  -4   1 66732.7 2024.39   1
   5  -4  -1 68215.7 1396.66   6
  -5  -4   1 68286.6 1382.38  18
   5   4  -1 73553.2 2097.96   2
   5  -4  -1 66727.4 1276.17   9
   5   4  -1 72158.0 1454.39  15
   5   4  -1 70741.0 1472.38  14
   5  -4   0 13247.6 622.768   6
  -5  -4   0 13318.9 611.909  18
   5   4   0 13890.3 911.712   2
  -5  -4   0 13561.6 655.189  16
   5   4   0 12982.2 623.586  15
   5   4   0 12690.1 629.308  14
  -5  -4   0 13507.8 917.902   1
   5  -4   1 13160.3 626.826   6
  -5  -4  -1 12995.0 620.138  18
   5   4   1 15214.5 942.803   2
  -5  -4  -1 13311.4 653.677  16
  -5  -4  -1 13204.0 932.675   1
   5   4   1 14462.5 661.104  15
  -5   4  -2 21438.4 1106.04  12
   5  -4   2 24776.7 850.935   6
   5   4   2 21610.3 1111.14   2
  -5  -4  -2 24297.6 875.328  18
  -5  -4  -2 25030.4 1302.90   1
  -5  -4  -2 24969.3 898.263  16
   5   4   2 22436.2 820.403  15
   5   4   2 22147.2 794.175   5
   5  -4   3 1420.58 203.355   6
  -5  -4  -3 1402.09 221.828  18
  -5  -4  -3 1510.26 224.555  16
   5   4   3 1217.53 191.769  15
   5   4   3 1086.36 190.232   5
  -5   4  -4 21396.9 794.276  14
   5  -4   4 20893.1 731.480  13
   5  -4   4 21080.8 751.241   6
  -5  -4  -4 21245.8 846.905  18
  -5  -4  -4 21677.0 854.786  17
  -5  -4  -4 22043.9 834.785  16
   5   4   4 22484.7 839.411   5
  -5   4  -5 978.961 174.083  14
   5  -4   5 1194.51 173.203  13
   5  -4   5 1201.10 163.772   6
  -5  -4  -5 1134.66 196.295  18
  -5  -4  -5 1187.81 196.920  17
  -5  -4  -5 1084.26 179.864  16
   5   4   5 908.203 172.217   5
  -5   4  -6 12413.1 558.143  14
   5  -4   6 13272.1 505.150  13
  -5  -4  -6 13283.0 591.798  17
  -5  -4  -6 13943.5 549.055  16
   5   4   6 12980.8 584.149   5
  -5   4  -7 7276.71 367.632  14
   5  -4   7 6798.27 294.610  13
  -5  -4  -7 6801.65 355.996  17
   5   4   7 7944.43 392.888   5
  -5   4  -8 476.654 71.6856  14
   5  -5  -8 4000.31 235.392   9
   5   5  -8 3405.68 195.943   8
   5   5  -7 415.287 87.8852  14
  -5  -5   7 304.653 75.6444  18
   5  -5  -7 390.848 95.0334   9
   5   5  -7 448.578 88.8814   8
  -5  -5   6 44466.9 1012.67  18
   5  -5  -6 45963.3 1085.19   9
   5   5  -6 41726.2 926.836   8
   5   5  -6 41094.4 1014.87  14
  -5  -5   5 31393.4 920.629  18
   5  -5  -5 32164.9 949.563   9
   5   5  -5 34817.8 879.771   8
   5   5  -5 33872.1 1005.79  14
   5  -5  -4 1371.13 193.452   6
  -5  -5   4 1611.80 219.533  18
   5  -5  -4 1354.43 199.508   9
   5   5  -4 1289.12 179.868  15
   5   5  -4 1639.45 232.440  14
   5  -5  -3 16502.2 696.108   6
  -5  -5   3 17904.7 735.717  18
   5  -5  -3 17627.7 699.968   9
   5   5  -3 18519.4 735.692  15
   5   5  -3 18040.3 776.909  14
   5   5  -2 884.889 173.970  14
   5  -5  -2 568.114 136.552   6
  -5  -5   2 535.888 134.640  18
   5  -5  -2 433.576 110.228   9
  -5  -5   2 721.012 162.267  16
   5  -5  -1 11168.9 589.333   6
  -5  -5   1 12011.9 615.594  18
  -5  -5   1 11832.5 639.954  16
   5   5  -1 14288.1 673.509  15
   5   5  -1 13744.6 672.312  14
   5  -5   0 970.151 176.262   6
  -5  -5   0 879.421 169.789  18
  -5  -5   0 879.679 179.131  16
   5   5   0 1518.20 225.139  15
   5   5   0 1558.75 231.685  14
   5  -5   1 2600.09 285.239   6
  -5  -5  -1 2747.82 300.893  18
  -5  -5  -1 2766.97 311.512  16
   5   5   1 2997.74 311.745  15
   5   5   1 3116.08 289.300   5
   5  -5   2 5890.21 399.165  13
   5  -5   2 6071.11 422.541   6
  -5  -5  -2 6481.67 466.204  18
  -5  -5  -2 6822.85 484.232  16
   5   5   2 6427.43 442.861  15
   5   5   2 6619.58 436.431   5
   5  -5   3 22685.8 760.763  13
   5  -5   3 23173.1 785.508   6
  -5  -5  -3 23392.1 880.186  18
  -5  -5  -3 23109.4 873.737  16
   5   5   3 22454.4 783.141  15
   5   5   3 22278.8 809.581   5
  -5   5  -4 8056.78 439.106  14
   5  -5   4 7673.33 425.304  13
   5  -5   4 8175.68 426.350   6
  -5  -5  -4 8310.18 513.893  18
  -5  -5  -4 8060.41 476.327  17
  -5  -5  -4 8506.92 506.237  16
   5   5   4 8377.96 487.707   5
  -5   5  -5 13910.7 549.597  14
   5  -5   5 14715.5 533.815  13
  -5  -5  -5 14792.3 637.335  18
  -5  -5  -5 14194.2 575.799  17
  -5  -5  -5 14685.9 605.402  16
   5   5   5 15094.0 614.631   5
   5   5   6 88.0830 52.0502   5
  -5   5  -6 96.1792 50.1646  14
   5  -5   6 124.314 48.0756  13
  -5  -5  -6 137.975 49.2785  17
  -5  -5  -6 113.166 54.3433  16
   5   5   7 3249.61 198.316   5
  -5   5  -7 2954.32 177.881  14
   5   6  -7 70.2494 32.5984  14
   5  -6  -7 212.138 53.1114   9
  -5  -6   6 419.341 86.3660  18
   5  -6  -6 387.018 84.9715   9
  -5  -6   6 358.187 73.2251  16
   5   6  -6 594.339 106.244  14
   5  -6  -5 1106.58 133.761   6
  -5  -6   5 1198.14 161.462  18
  -5  -6   5 1243.58 159.869  16
   5  -6  -5 1063.10 149.782   9
   5  -6  -4 8599.06 438.867   6
  -5  -6   4 9598.93 491.722  18
   5  -6  -4 9810.46 463.104   9
  -5  -6   4 9389.09 483.209  16
   5   6  -4 10366.2 457.936  15
   5   6  -4 9836.67 513.718  14
   5   6  -3 404.514 114.223  14
   5  -6  -3 377.174 110.716   6
  -5  -6   3 397.822 112.513  18
   5  -6  -3 396.330 93.4253   9
  -5  -6   3 319.733 104.019  16
   5   6  -3 298.691 94.5530  15
   5  -6  -2 12855.9 605.669   6
  -5  -6   2 12405.3 607.293  18
  -5  -6   2 12637.2 619.518  16
   5   6  -2 11862.1 582.870  15
   5   6  -2 12064.0 606.767  14
   5  -6  -1 45718.3 1156.87   6
  -5  -6   1 46471.9 1189.60  18
  -5  -6   1 45614.3 1196.85  16
   5   6  -1 41414.9 1116.50  15
   5   6  -1 42173.6 1135.20  14
   5  -6   0 2303.97 259.907   6
  -5  -6   0 2272.89 268.625  18
  -5  -6   0 2186.76 271.645  16
   5   6   0 1988.87 251.659  15
   5  -6   1 7324.45 449.990   6
  -5  -6  -1 7062.92 471.192  18
  -5  -6  -1 7075.01 478.121  16
   5   6   1 6843.99 447.472  15
   5   6   1 6371.92 387.611   5
   5  -6   2 3760.90 307.560   6
  -5  -6  -2 3675.31 337.444  18
  -5  -6  -2 3767.07 344.163  16
   5   6   2 4564.13 349.038  15
   5   6   2 4771.81 341.952   5
   5  -6   3 7435.91 390.286   6
  -5  -6  -3 7727.55 468.155  18
  -5  -6  -3 7300.64 390.700  17
  -5  -6  -3 7155.88 449.099  16
   5   6   3 6501.62 375.912  15
   5   6   3 6067.57 376.759   5
  -5  -6  -4 16328.1 632.170  18
  -5  -6  -4 16085.0 619.780  16
   5   6   4 17837.4 607.929   5
  -5  -6  -5 4876.27 291.658  16
   5   6   5 4765.95 281.151   5
  -5  -7   5 9995.19 347.978  18
   5   7  -5 10551.0 377.630  14
   5  -7  -4 2215.41 175.868   6
  -5  -7   4 2697.22 210.441  18
  -5  -7   4 2521.40 182.670  16
   5   7  -4 2191.69 196.504  14
   5  -7  -3 3137.70 239.306   6
  -5  -7   3 3200.21 250.960  18
  -5  -7   3 3357.11 244.390  16
   5   7  -3 2924.16 224.380  15
   5   7  -3 2914.44 244.831  14
   5  -7  -2 3087.62 254.606   6
  -5  -7   2 3205.45 267.874  18
  -5  -7   2 3320.72 262.840  16
   5   7  -2 3424.05 267.778  15
  -5   7   2 3273.79 232.732  15
   5   7  -2 3602.90 277.598  14
   5  -7  -1 10164.9 466.086   6
  -5  -7   1 9918.39 481.702  18
  -5  -7   1 10481.2 487.096  16
   5  -7   0 18804.7 627.533   6
  -5  -7   0 18951.6 671.739  18
  -5  -7   0 18703.0 662.461  16
   5   7   0 20794.9 683.315  15
   5  -7   1 2190.87 205.807   6
  -5  -7  -1 2232.37 230.053  18
  -5  -7  -1 2087.57 221.469  16
   5   7   1 1973.85 202.945  15
   5  -7   2 13908.8 464.873   6
  -5  -7  -2 14530.7 557.958  18
  -5  -7  -2 13371.8 530.143  16
   5   7   2 12574.4 422.526   5
   5   7   2 12388.7 461.231  15
  -5  -7  -3 2219.67 200.753  18
  -5  -7  -3 2088.29 195.408  16
  -5  -7  -4 4281.86 240.869  18
  -5  -7  -4 4184.61 232.569  16
   5  -8  -1 2776.27 168.362   6
  -5  -8   1 2573.11 173.446  18
  -5  -8   0 2813.20 181.914  18
   5   8   0 2614.78 167.124  15
   6   0  -9 25882.9 661.131   7
   6   0  -8 88.2201 61.7946   7
   6   0  -8 110.164 58.6002   8
   6   0  -7 218.689 95.6519   7
   6   0  -7 129.297 69.1522   8
   6   0  -6 62993.4 1356.99   7
   6   0  -6 59620.4 1247.12   9
   6   0  -6 59955.3 1330.69   8
   6   0  -5 8849.64 500.949   7
  -6   0   5 9356.14 751.656  11
   6   0  -5 8842.63 492.636   9
   6   0  -5 9206.89 516.277   8
   6   0  -4 70780.3 1371.80   7
   6   0  -4 73105.6 1924.44   2
  -6   0   4 69713.5 1974.77  11
   6   0  -4 68119.0 1368.46   9
   6   0  -4 72799.7 1416.55   8
   6   0  -3 2811.56 381.115   2
  -6   0   3 2560.53 366.444  11
   6   0  -3 2683.87 266.390   9
   6   0  -3 2526.92 259.165   8
   6   0  -3 2871.28 274.026   7
   6   0  -2 29656.7 1217.53   2
   6   0  -1 584.550 171.229   2
   6   0   0 5811.77 533.995   2
  -6   0   0 5557.31 537.417  12
   6   0   1 13020.0 803.954   2
  -6   0  -1 12616.7 836.334  12
  -6   0  -2 89447.0 2153.54   1
   6   0   2 89820.2 2095.79   2
  -6   0  -2 85814.9 2222.83  12
   6   0   2 89067.3 1489.99   5
   6   0   2 86973.8 1544.13   8
   6   0   2 88186.2 1563.44  15
  -6   0  -3 4359.08 523.922   1
  -6   0  -3 4072.37 508.197  12
  -6   0  -3 4248.34 343.765  17
   6   0   3 4262.94 348.890   5
   6   0   3 3785.03 331.875  15
  -6   0  -4 8833.23 514.522  17
   6   0   4 9391.40 536.266   5
  -6   0  -5 8843.31 518.438  17
   6   0   5 8912.61 530.808   5
   6   0   6 13759.3 592.854   6
   6   0   6 13324.5 628.715   5
  -6   0  -6 13565.2 622.773  17
   6   0   7 1068.29 138.543   6
   6   0   7 1162.47 168.662   5
  -6   0  -7 1075.37 160.288  17
  -6   0  -8 17568.4 480.920  14
   6   0   8 18735.2 538.178   5
  -6   0  -8 18053.0 512.322  17
   6  -1  -9 3666.75 261.552   7
   6   1  -9 3550.37 242.968   8
   6   1  -8 4621.83 303.438   7
   6  -1  -8 4375.77 332.552   7
   6   1  -8 4634.83 336.787   8
   6   1  -7 7684.17 432.136   7
   6  -1  -7 6784.11 451.788   7
   6  -1  -7 6271.60 399.964   9
   6  -1  -7 6268.33 391.872   8
   6   1  -7 7798.57 476.165   8
   6   1  -6 28277.6 854.156   7
   6  -1  -6 29095.4 949.732   7
   6  -1  -6 28338.4 903.755   9
   6  -1  -6 27981.1 876.900   8
   6   1  -6 28075.5 927.461   8
   6   1  -5 15765.2 637.925   7
   6  -1  -5 11905.5 598.849   7
  -6  -1   5 12818.8 897.941  11
  -6   1   5 14449.7 904.764  11
   6  -1  -5 13069.4 949.788   3
   6  -1  -5 12290.3 603.290   9
   6  -1  -5 12721.0 591.904   8
   6   1  -5 15594.8 683.721   8
   6  -1  -4 34393.7 986.821   7
   6  -1  -4 33773.1 1325.74   2
   6   1  -4 31464.2 1274.78   2
  -6  -1   4 33449.0 1394.18  11
  -6   1   4 32952.1 1312.19  11
   6  -1  -4 33032.5 1451.48   3
   6   1  -4 30707.9 885.144   9
   6  -1  -4 33315.1 977.375   9
   6  -1  -4 33262.1 946.608   8
   6   1  -4 35336.0 995.370   8
   6   1  -4 33728.2 912.269   7
   6  -1  -3 28783.7 1229.17   2
   6   1  -3 29497.6 1239.73   2
  -6   1   3 28039.5 1190.73  11
  -6  -1   3 27668.0 1232.67  11
   6  -1  -3 28079.4 1275.28   3
   6   1  -3 27963.3 852.899   9
   6  -1  -3 26355.3 846.149   9
   6  -1  -3 26122.8 824.445   8
   6   1  -3 28608.3 867.160   8
   6  -1  -3 27529.1 856.241   7
   6  -1  -2 6576.58 584.103   2
   6   1  -2 4987.26 507.135   2
   6  -1  -1 6218.16 565.921   2
  -6   1   1 7366.11 615.726  12
   6   1  -1 6482.18 573.261   2
   6  -1   0 126180. 2534.20   2
  -6   1   0 127087. 2604.72  12
   6   1   0 120302. 2466.55   2
  -6  -1   0 119904. 2573.25  12
  -6  -1   0 124898. 2281.30   1
   6  -1   1 14849.8 871.170   2
   6   1   1 14965.2 868.180   2
  -6   1  -1 15085.9 914.792  12
  -6  -1  -1 13699.2 874.221  12
  -6  -1  -1 14866.1 856.179   1
   6  -1   1 15435.6 637.989   6
   6  -1   1 15046.0 640.289  15
   6  -1   1 15021.7 641.527   8
   6   1   1 14515.4 630.009  15
   6  -1   2 95.6439 72.9961   5
   6   1   2 292.881 92.3363   5
  -6   1  -2 242.296 143.632  12
  -6  -1  -2 222.670 129.525  12
  -6  -1  -2 98.0393 104.089   1
   6  -1   2-0.34855 84.3053   2
   6   1   2 269.277 128.735   2
   6   1   2 301.426 97.0228  15
   6  -1   2 74.7575 69.3482   8
   6   1   2 255.364 91.0115   8
  -6  -1  -3 7405.57 687.709   1
  -6   1  -3 9228.21 776.853  12
  -6  -1  -3 6854.02 644.971  12
   6  -1   3 7163.56 455.821   5
   6   1   3 8657.50 496.138   5
   6   1   3 8353.10 486.026  15
  -6   1  -3 9316.82 733.966   1
   6  -1   4 454.466 128.800   5
   6   1   4 695.489 153.050   5
   6  -1   4 477.989 123.632   6
  -6  -1  -4 452.428 124.950  17
   6   1   4 839.870 157.587  15
   6  -1   5 24556.7 836.748   6
   6  -1   5 24461.5 877.390   5
  -6  -1  -5 23670.1 881.675  17
   6   1   5 23120.5 855.541   5
   6  -1   6 7232.97 416.602   6
   6  -1   6 7348.29 461.789   5
  -6   1  -6 5983.77 382.508  17
  -6  -1  -6 7200.92 468.322  17
   6   1   6 5513.59 403.713   5
   6   1   7 7629.65 373.683   6
   6  -1   7 8148.37 432.125   5
  -6   1  -7 7722.94 381.709  17
  -6  -1  -7 7993.19 442.055  17
   6   1   7 8330.90 438.458   5
  -6   1  -8 2292.79 179.877  14
  -6  -1  -8 2901.21 196.477   7
   6   1   8 2475.78 193.730   5
  -6  -1  -8 3070.01 220.603  17
   6   2  -9 15230.1 490.756   8
   6  -2  -9 17811.8 553.722   7
   6  -2  -8 1453.26 193.464   7
   6  -2  -8 1610.10 181.304   9
   6   2  -8 1661.10 199.861   8
   6  -2  -7 14758.4 651.854   7
   6  -2  -7 14493.8 627.512   9
   6   2  -7 14649.6 647.038   8
   6  -2  -6 27277.9 923.502   7
   6  -2  -6 26621.2 901.235   9
   6   2  -6 25083.9 878.770   8
   6  -2  -5 10862.9 581.392   7
   6  -2  -5 11646.6 603.768   9
   6  -2  -5 10797.2 525.217   8
   6   2  -5 9331.27 532.864   8
   6  -2  -4 608.787 139.227   7
  -6  -2   4 611.031 192.700  11
  -6   2   4 945.435 231.358  10
   6  -2  -4 610.144 208.014   2
   6   2  -4 1052.15 242.468   2
   6  -2  -4 704.176 151.619   9
   6   2  -4 950.006 167.908   8
   6   2  -4 1096.51 171.870  14
   6  -2  -4 809.566 235.951   3
   6  -2  -4 668.252 138.078   8
  -6  -2   3 1575.93 302.695  11
   6   2  -3 2217.78 352.244   2
   6  -2  -3 1481.92 294.156   3
   6  -2  -3 1488.02 210.925   9
   6  -2  -3 1614.52 208.724   8
   6   2  -3 2418.72 257.770   8
   6   2  -3 2751.35 274.157  14
   6  -2  -3 1461.74 287.899   2
   6  -2  -3 1743.43 228.488   7
  -6   2   2 2516.76 356.657  12
  -6  -2   2 2620.10 379.717  11
   6   2  -2 2545.07 376.505   2
   6  -2  -2 2836.40 394.384   3
   6  -2  -2 2502.92 262.013   9
   6  -2  -2 2704.62 263.765   8
   6   2  -2 2531.76 259.204  15
   6   2  -2 2599.45 257.772   8
   6   2  -2 2400.39 261.412  14
   6  -2  -2 2823.73 280.577   7
   6  -2  -2 2586.40 378.547   2
   6  -2  -1 71668.8 1996.31   2
  -6   2   1 80328.9 2017.53  12
   6   2  -1 73805.2 2006.01   2
   6  -2  -1 73828.9 1368.02   6
   6  -2  -1 76312.7 1412.26   9
   6  -2  -1 76547.7 1411.91   8
   6   2  -1 75837.6 1436.25  15
   6   2  -1 76534.8 1361.78   8
  -6  -2   1 70367.9 1818.47   1
   6   2  -1 71846.7 1423.36  14
   6  -2   0 27976.9 1231.03   2
  -6   2   0 29789.4 1249.94  12
   6   2   0 27866.9 1224.63   2
   6  -2   0 27983.4 864.292   6
   6  -2   0 26606.3 821.895   9
  -6  -2   0 26762.5 1160.52   1
   6  -2   0 26048.5 844.960   8
   6   2   0 28728.1 892.769  15
  -6   2  -1 639.991 187.491  12
  -6  -2  -1 758.677 213.291  12
   6  -2   1 913.238 163.811   6
  -6  -2  -1 926.655 231.723   1
   6  -2   1 996.409 237.877   2
   6   2   1 533.649 168.787   2
   6  -2   1 834.236 147.404   9
   6  -2   1 1009.80 176.908   8
   6   2   1 579.780 138.033  15
  -6   2  -2 6098.02 622.463  12
  -6  -2  -2 8609.82 701.192  12
   6   2   2 6173.70 573.368   2
  -6  -2  -2 9433.02 763.873   1
   6  -2   2 8560.47 506.235   6
   6  -2   2 8638.05 486.277   5
   6  -2   2 8622.72 518.538   8
   6   2   2 6670.00 416.652   5
   6   2   2 6766.03 446.763  15
   6  -2   2 8633.74 683.593   2
  -6   2  -3 27455.6 1349.29  12
  -6  -2  -3 27669.0 1380.43   1
   6  -2   3 26882.7 903.415   6
   6  -2   3 27247.2 905.020   5
   6   2   3 27230.9 884.691   5
   6   2   3 26627.3 883.874  15
   6  -2   4 36905.0 1045.37   6
   6  -2   4 35554.2 1052.21   5
  -6  -2  -4 38056.7 1137.46  17
   6   2   4 41757.7 1130.73   5
   6   2   4 41562.2 1061.06  15
   6  -2   5 47966.7 1136.21   6
   6  -2   5 50824.0 1247.00   5
  -6  -2  -5 49343.3 1285.64  17
   6   2   5 47369.6 1205.70   5
   6  -2   6 1979.34 205.796   6
  -6  -2  -6 1978.28 245.590  17
   6   2   6 1449.45 201.808   5
  -6   2  -7 12602.4 516.233  14
  -6  -2  -7 12498.6 537.210  17
   6   2   7 12435.0 513.836   5
  -6   2  -8 6435.03 282.767  14
   6   2   8 6916.87 296.819   5
  -6  -2  -8 6414.20 299.819  17
   6   3  -9 8910.48 335.608   8
   6  -3  -9 8952.66 338.499   7
   6  -3  -8 18414.4 588.829   9
   6   3  -8 18521.7 612.006   8
   6  -3  -8 16645.9 586.601   7
   6  -3  -7 3563.87 307.801   9
   6   3  -7 3303.71 294.492   8
   6  -3  -7 3397.00 300.536   7
   6  -3  -6 12368.5 613.236   9
   6   3  -6 11761.8 587.108   8
   6  -3  -6 12492.8 608.429   7
   6  -3  -5 26080.9 912.125   9
   6   3  -5 27561.6 901.438   8
   6   3  -5 25995.6 857.684  14
   6  -3  -4 4111.17 364.789   9
   6   3  -4 4161.22 346.837   8
   6   3  -4 3990.52 347.158  14
   6  -3  -4 4468.87 371.029   7
  -6  -3   3 49559.9 1691.47  11
   6   3  -3 45650.1 1664.41   2
   6  -3  -3 52127.0 1782.24   3
   6  -3  -3 51658.7 1250.20   9
   6   3  -3 48636.2 1163.33  15
   6   3  -3 48694.4 1146.11   8
   6   3  -3 47373.7 1204.50  14
   6  -3  -3 48959.6 1206.48   7
   6  -3  -2 948.686 164.614   6
  -6  -3   2 836.649 223.897  11
   6  -3  -2 863.173 157.874   9
   6   3  -2 1253.90 278.948   2
   6  -3  -2 873.287 154.099   8
   6   3  -2 1006.73 173.566  15
   6   3  -2 841.898 149.704   8
   6   3  -2 829.287 164.316  14
   6  -3  -2 932.822 168.757   7
  -6  -3   1 40809.7 1512.04   1
  -6  -3   1 40568.9 1472.76  11
   6   3  -1 42675.5 1598.69   2
   6  -3  -1 41407.5 1076.82   6
   6  -3  -1 40190.0 1044.80   9
   6  -3  -1 37886.3 1022.52   8
   6   3  -1 42589.2 1125.25  15
   6   3  -1 43174.4 1162.04  14
  -6   3   0 37445.6 1427.13  12
   6   3   0 36914.9 1480.11   2
   6  -3   0 37856.4 1055.56   6
   6  -3   0 37447.4 972.987   9
   6  -3   0 38802.8 1060.63   8
  -6  -3   0 36961.2 1044.64  16
   6   3   0 36851.0 1056.34  15
  -6  -3   0 37902.4 1509.80   1
  -6   3  -1 10424.1 784.420  12
   6   3   1 9490.65 749.053   2
   6  -3   1 8669.66 509.395   6
  -6  -3  -1 8129.67 712.809   1
   6  -3   1 8873.27 521.247   8
  -6  -3  -1 8375.60 495.658  16
   6   3   1 9595.08 545.060  15
   6   3   2 401.348 107.084   5
   6  -3   2 117.050 81.0953   6
   6   3   2 261.678 119.634   2
  -6  -3  -2 76.5780 67.5129   1
  -6  -3  -2 5.92347 53.6542  16
   6   3   2 287.769 102.040  15
   6  -3   3 12231.1 605.527   6
   6   3   3 11347.8 575.417   5
   6   3   3 11377.7 584.658  15
   6  -3   4 1518.23 211.185   6
  -6  -3  -4 1415.43 203.798  18
  -6  -3  -4 1550.25 236.135  17
   6   3   4 992.534 175.165   5
   6   3   4 973.237 160.570  15
   6  -3   5 7184.27 415.056   6
  -6  -3  -5 7385.54 487.086  17
   6   3   5 6206.33 423.330   5
  -6   3  -6 1176.91 172.181  14
  -6  -3  -6 1443.19 197.827  17
   6   3   6 1134.80 171.802   5
  -6   3  -7 2543.36 212.041  14
  -6  -3  -7 2716.31 228.914  17
   6   3   7 2637.21 217.126   5
   6  -4  -8 8972.27 368.001   9
   6   4  -8 8431.91 349.893   8
   6  -4  -8 8367.79 336.027   7
   6  -4  -7 8327.99 431.645   9
   6   4  -7 7834.19 398.711   8
   6  -4  -7 7512.20 389.050   7
   6  -4  -6 4549.63 354.173   9
   6   4  -6 3944.23 310.734   8
   6   4  -6 3519.61 291.397  14
   6  -4  -6 4408.39 328.525   7
   6  -4  -5 4216.61 358.193   9
   6   4  -5 4837.60 354.673   8
   6   4  -5 4949.87 378.172  14
   6  -4  -5 4358.07 343.311   7
   6  -4  -4 13915.2 655.812   9
   6   4  -4 17786.0 675.446   8
   6   4  -4 18052.0 752.804  14
   6  -4  -4 14428.4 636.010   7
   6  -4  -3 5213.04 375.308   6
   6  -4  -3 4554.71 370.079   9
   6   4  -3 4937.88 375.935  15
   6   4  -3 4938.06 405.287  14
   6  -4  -3 4824.29 373.793   7
   6  -4  -2 1820.62 232.434   6
   6  -4  -2 1665.06 220.725   9
   6   4  -2 829.547 159.058  15
   6   4  -2 884.913 178.127  14
   6  -4  -1 35987.3 1049.38   6
   6  -4  -1 36429.0 972.569   9
   6  -4  -1 33434.7 943.071   8
  -6  -4   1 36116.2 1093.03  16
   6   4  -1 31403.6 999.067  15
   6   4  -1 32139.6 1043.29  14
   6  -4   0 17905.7 750.594   6
  -6  -4   0 18004.1 709.277  18
  -6  -4   0 17640.1 759.071  16
   6   4   0 17558.2 751.166  15
   6  -4   1 6797.16 462.881   6
  -6  -4  -1 7067.65 450.080  18
  -6  -4  -1 6051.73 442.509  16
  -6  -4  -2 1368.28 205.038  18
  -6  -4  -2 1083.53 189.332  16
   6   4   2 1097.06 173.862   5
   6   4   2 1759.64 238.527  15
  -6   4  -3 15781.3 638.390  14
   6  -4   3 16122.6 678.588   6
  -6  -4  -3 16138.0 693.774  18
  -6  -4  -3 16476.1 695.668  16
   6   4   3 16015.9 663.141   5
   6   4   3 16668.3 686.171  15
  -6   4  -4 36125.7 959.015  14
   6  -4   4 33242.7 911.688   6
  -6  -4  -4 34651.9 989.403  18
  -6  -4  -4 35045.8 1040.21  17
  -6  -4  -4 36204.3 962.685  16
   6   4   4 33586.2 957.998   5
   6   4   4 35015.7 896.586  15
  -6   4  -5 38945.7 946.160  14
   6  -4   5 39427.9 855.774   6
  -6  -4  -5 40017.3 1034.89  17
   6   4   5 38677.0 972.112   5
  -6   4  -6 993.782 134.841  14
  -6  -4  -6 677.289 119.258  17
   6   4   6 1091.91 146.804   5
  -6  -4  -7 22147.0 512.642  17
   6   4   7 23801.5 531.456   5
  -6   4  -7 22901.9 507.598  14
  -6  -5   7 3083.11 208.149  16
   6   5  -7 2754.02 180.922   8
   6   5  -7 2542.16 174.983  14
   6  -5  -6 16646.8 592.784   9
   6   5  -6 16000.6 503.804   8
   6   5  -6 15316.4 550.517  14
  -6  -5   5 5670.95 338.589  18
   6  -5  -5 5600.55 370.594   9
   6   5  -5 6719.22 350.125   8
   6   5  -5 6356.25 403.337  14
   6  -5  -4 1470.03 181.619   6
  -6  -5   4 1592.25 195.177  18
   6  -5  -4 1431.01 197.282   9
   6   5  -4 1519.95 216.317  14
   6  -5  -3 3373.29 297.556   6
  -6  -5   3 3299.00 291.436  18
   6  -5  -3 3090.48 282.198   9
  -6  -5   3 3351.39 328.881  16
   6   5  -3 1522.98 204.813  15
   6   5  -3 1406.71 217.804  14
   6  -5  -2 14290.3 642.355   6
  -6  -5   2 14996.4 637.659  18
   6  -5  -2 15118.8 601.792   9
  -6  -5   2 14353.6 687.296  16
   6   5  -2 16120.4 693.474  15
   6   5  -2 15832.1 717.697  14
   6  -5  -1 19572.5 765.450   6
  -6  -5   1 20427.9 755.826  18
  -6  -5   1 18397.1 783.919  16
   6   5  -1 19281.0 778.162  15
   6   5  -1 19789.0 809.855  14
   6  -5   0 88065.1 1622.31   6
  -6  -5   0 88040.8 1594.91  18
  -6  -5   0 86994.9 1690.64  16
   6   5   0 86334.7 1650.42  15
   6  -5   1 9582.95 531.125   6
  -6  -5  -1 10065.3 540.904  18
  -6  -5  -1 9829.56 566.448  16
   6   5   1 10103.8 559.493  15
   6  -5   2 3323.08 302.676   6
  -6  -5  -2 2979.39 294.333  18
  -6  -5  -2 3154.41 309.836  16
   6   5   2 3315.40 278.506   5
   6   5   2 3157.39 299.975  15
   6  -5   3 1377.67 185.999   6
  -6  -5  -3 1276.09 189.073  18
  -6  -5  -3 1347.03 196.370  17
  -6  -5  -3 1402.99 197.498  16
   6   5   3 2448.54 240.617   5
   6   5   3 2488.64 244.780  15
   6   5   4 10.8536 40.2327   5
   6  -5   4 36.4419 34.3255   6
  -6  -5  -4 47.6260 47.7459  18
  -6  -5  -4 54.1259 54.7603  17
  -6  -5  -4 76.0157 59.0854  16
   6   5   5 309.107 79.4497   5
  -6   5  -5 216.688 59.0381  14
  -6  -5  -5 24.6159 35.3790  17
  -6  -5  -5 78.9701 41.8579  16
   6   5   6 7366.51 292.547   5
   6  -6  -6 2629.20 173.264   9
   6   6  -6 2108.62 162.221  14
  -6  -6   5 771.251 106.865  18
   6  -6  -5 861.030 116.249   9
  -6  -6   5 767.159 113.271  16
   6   6  -5 726.642 117.609  14
   6  -6  -4 23286.2 615.201   6
  -6  -6   4 24205.6 662.821  18
   6  -6  -4 24077.6 631.225   9
  -6  -6   4 24377.0 715.194  16
   6   6  -4 23718.0 730.126  14
   6  -6  -3 2276.82 221.386   6
  -6  -6   3 2257.85 219.776  18
  -6  -6   3 2443.98 247.986  16
   6   6  -3 2440.09 227.249  15
   6   6  -3 2554.29 256.862  14
   6  -6  -2 4727.01 337.727   6
  -6  -6   2 4614.73 329.315  18
  -6  -6   2 5156.89 372.081  16
   6   6  -2 5098.83 352.005  15
   6   6  -2 5225.86 376.969  14
   6  -6  -1 1914.66 223.214   6
  -6  -6   1 1913.27 219.663  18
  -6  -6   1 1989.34 240.145  16
   6  -6   0 2388.21 245.755   6
  -6  -6   0 2093.65 230.223  18
  -6  -6   0 2454.80 262.774  16
   6   6   0 1916.03 224.647  15
   6  -6   1 5397.02 354.772   6
  -6  -6  -1 5286.80 359.833  18
  -6  -6  -1 5442.64 385.231  16
   6  -6   2 5158.75 326.528   6
  -6  -6  -2 5488.83 357.832  18
  -6  -6  -2 5337.99 331.625  17
  -6  -6  -2 5384.49 362.819  16
   6   6   2 4497.27 311.738  15
   6   6   3 216.216 64.9206   5
   6  -6   3 287.546 73.6853   6
  -6  -6  -3 233.129 73.4372  18
  -6  -6  -3 249.963 69.4845  17
  -6  -6  -3 324.113 86.5203  16
   6   6   3 287.641 73.8840  15
  -6  -6  -4 25312.3 619.469  16
   6   6   4 21754.4 518.094   5
   6  -7  -3 2759.48 183.065   6
  -6  -7   3 2704.26 184.637  18
  -6  -7   3 2735.29 191.792  16
   6   7  -3 2374.32 161.495  15
   6  -7  -2 5360.55 284.006   6
  -6  -7   2 5107.03 274.728  18
  -6  -7   2 5643.58 299.543  16
   6   7  -2 5534.21 287.301  15
   6  -7  -1 4256.69 263.393   6
  -6  -7   1 4319.77 265.113  18
  -6  -7   1 4041.77 265.642  16
   6   7  -1 3782.49 251.938  15
  -6   7   1 3753.63 231.412  15
   6  -7   0 13002.3 452.001   6
  -6  -7   0 12847.9 459.389  18
  -6  -7   0 12534.7 468.421  16
   6   7   0 12426.0 453.270  15
   6  -7   1 9783.43 367.298   6
  -6  -7  -1 9622.72 385.065  18
  -6  -7  -1 9569.37 397.035  16
   6   7   1 8979.68 365.325  15
   6  -7   2 1004.48 103.561   6
  -6  -7  -2 946.752 112.520  18
  -6  -7  -2 845.409 110.737  16
   6   7   2 1273.54 119.150  15
   7   0  -9 11139.1 340.484   7
   7   0  -8 2311.58 205.716   8
   7   0  -8 2701.74 224.139   7
   7   0  -7 11629.3 539.417   8
   7   0  -7 11884.8 536.672   7
   7   0  -6 12038.9 552.138   9
   7   0  -6 10735.5 558.840   8
   7   0  -6 11177.1 557.183   7
   7   0  -5 94.9584 67.1740   7
   7   0  -5 41.0851 44.0942   9
   7   0  -5 71.2597 53.4742   8
   7   0  -4 5018.72 386.333   9
   7   0  -4 5426.35 408.841   8
   7   0  -4 5262.51 394.751   7
   7   0  -3 24135.5 1230.16   2
  -7   0   3 23264.4 1210.05  11
   7   0  -3 21543.4 804.399   9
   7   0  -3 22681.9 826.242   8
   7   0  -3 23177.3 816.318   7
   7   0  -2 1635.63 324.628   2
   7   0  -2 1471.21 213.081   9
   7   0  -2 1322.58 199.413  15
   7   0  -2 1371.75 205.256   8
   7   0  -1 99828.2 2485.03   2
  -7   0   1 92345.9 2459.73  12
   7   0  -1 95891.2 1694.59   9
   7   0  -1 94006.6 1677.24  15
   7   0  -1 94068.3 1669.78   8
   7   0   0 19308.3 1086.57   2
  -7   0   0 20308.8 1149.73  12
   7   0   0 19271.1 724.725   6
   7   0   0 19314.4 770.509  15
   7   0   0 18842.6 746.027   8
   7   0   1 15845.6 974.020   2
  -7   0  -1 15805.4 1022.34  12
   7   0   1 14656.6 672.566   8
   7   0   1 15757.2 705.728  15
   7   0   2 9565.15 545.068   8
   7   0   2 10383.2 578.049  15
   7   0   3 14850.5 645.552   5
  -7   0  -3 15175.9 647.174  17
   7   0   4 17138.6 702.514   5
  -7   0  -4 18067.4 705.043  17
   7   0   5 41605.9 1052.04   6
   7   0   5 41322.5 1055.06   5
  -7   0  -5 43940.1 1049.49  17
   7   0   6 5123.05 323.586   6
   7   0   6 5138.51 341.310   5
  -7   0  -6 5178.16 326.878  17
   7   0   7 14595.7 404.858   6
   7   0   7 14813.9 484.957   5
  -7   0  -7 14668.3 437.478  17
   7   1  -9 1337.58 121.536   8
   7  -1  -9 1434.07 134.824   7
   7   1  -8 10373.6 450.317   8
   7  -1  -8 11368.7 477.422   7
   7  -1  -7 9231.00 452.658   9
   7  -1  -7 9209.52 447.895   8
   7   1  -7 7536.32 443.260   8
   7  -1  -7 8723.40 475.975   7
   7  -1  -6 15400.8 650.105   9
   7  -1  -6 15133.0 636.798   8
   7   1  -6 14577.3 657.413   8
   7   1  -6 14631.7 589.593   7
   7  -1  -6 15427.1 673.518   7
   7   1  -5 8877.55 475.085   9
   7  -1  -5 7081.21 465.114   9
   7  -1  -5 7097.29 455.447   8
   7   1  -5 8247.37 508.053   8
   7   1  -5 8161.22 461.869   7
   7  -1  -5 7266.17 475.867   7
   7   1  -4 37452.4 1022.22   9
   7  -1  -4 38513.7 1100.24   9
   7  -1  -4 38019.5 1067.34   8
   7   1  -4 39496.6 1103.00   8
   7   1  -4 38002.3 1006.70   7
   7  -1  -4 38669.6 1092.87   7
   7  -1  -3 12773.3 899.333   2
   7   1  -3 10995.7 830.083   2
  -7   1   3 9883.92 792.729  12
  -7   1   3 10644.7 797.551  11
  -7  -1   3 12735.8 906.521  11
   7   1  -3 9954.76 536.489   9
   7  -1  -3 11912.4 610.392   9
   7  -1  -3 11675.1 594.261   8
   7   1  -3 9664.47 542.044   8
   7  -1  -3 11862.2 602.610   7
   7  -1  -2 7184.89 675.039   2
   7   1  -2 12070.8 865.223   2
  -7   1   2 11058.4 834.992  12
  -7  -1   2 7387.65 685.436  11
   7   1  -2 10762.5 564.427   9
   7  -1  -2 7149.92 469.520   9
   7   1  -2 10973.7 561.929  15
   7  -1  -2 7177.15 465.070   8
   7   1  -2 11436.2 578.113   8
   7  -1  -1 21557.0 1166.86   2
   7   1  -1 21872.3 1163.11   2
  -7   1   1 21194.0 1157.08  12
   7  -1  -1 20707.5 744.332   6
   7  -1  -1 21388.0 802.096   9
   7   1  -1 22055.5 810.676  15
   7  -1  -1 21649.2 803.910   8
   7   1  -1 22013.9 800.315   8
   7  -1   0 138271. 2934.97   2
   7   1   0 133405. 2852.46   2
  -7   1   0 139044. 2968.58  12
  -7  -1   0 136982. 3009.33  12
   7  -1   0 131760. 1951.05   6
   7  -1   0 133506. 1973.15   9
   7  -1   0 136853. 2052.72   8
   7   1   0 136863. 2044.38  15
   7   1   0 133772. 1956.51   8
   7  -1   1 8136.13 705.618   2
   7   1   1 8824.91 730.445   2
  -7   1  -1 8544.98 747.586  12
  -7  -1  -1 8068.03 738.247  12
   7  -1   1 8116.44 494.036   6
   7  -1   1 7420.25 491.100   8
   7   1   1 8419.93 494.360   8
   7   1   1 8210.59 509.033  15
   7  -1   2 1532.32 222.670   6
   7  -1   2 1189.60 197.605   8
   7   1   2 1423.26 203.058   8
   7   1   2 1194.93 199.373  15
   7   1   3 599.026 132.305   5
   7  -1   3 1728.17 235.333   6
   7  -1   3 1456.52 202.459   5
  -7  -1  -3 1518.26 221.075  17
   7   1   3 445.791 122.242  15
   7  -1   4 19666.6 763.532   6
   7  -1   4 19243.9 737.436   5
  -7  -1  -4 18559.2 750.832  17
   7   1   4 17438.6 697.335   5
   7   1   5 67.4413 52.2089   5
   7  -1   5 221.124 86.5097   6
  -7  -1  -5 208.634 87.9257  17
   7  -1   5 127.047 74.8295   5
   7  -1   6 5015.00 307.584   6
   7   1   6 7021.16 379.188   6
   7  -1   6 4788.38 324.093   5
   7   1   6 7000.12 393.699   5
  -7  -1  -6 4849.58 330.593  17
   7   1   7 3845.63 214.435   6
   7   1   7 4122.26 250.692   5
  -7  -1  -7 4139.89 250.662  17
   7  -2  -9 3266.61 190.554   7
   7  -2  -8 671.763 101.320   9
   7   2  -8 852.095 128.249   8
   7  -2  -8 640.871 112.315   7
   7  -2  -7 6440.94 383.015   9
   7  -2  -7 6626.94 405.937   7
   7  -2  -6 31849.1 944.404   9
   7   2  -6 31057.5 938.825   8
   7  -2  -6 32705.9 978.394   7
   7  -2  -5 13493.1 648.179   9
   7  -2  -5 13180.2 591.407   8
   7   2  -5 13512.9 642.357   8
   7  -2  -5 13248.8 642.766   7
   7  -2  -4 48486.0 1244.78   9
   7  -2  -4 47171.5 1158.45   8
   7   2  -4 47566.3 1199.71   8
   7  -2  -4 47669.4 1228.07   7
   7  -2  -3 1442.34 218.136   9
   7   2  -3 2792.31 279.635  15
   7  -2  -3 1497.05 209.750   8
   7   2  -3 2536.30 276.551   8
   7  -2  -3 1386.07 212.497   7
   7  -2  -2 3601.55 307.880   6
   7  -2  -2 3605.94 334.975   9
   7  -2  -2 3624.31 328.886   8
   7   2  -2 3853.91 339.718  15
   7   2  -2 3586.62 325.428   8
  -7   2   1 9350.81 753.563  12
   7   2  -1 8977.81 763.010   2
   7  -2  -1 13551.4 615.904   6
   7  -2  -1 13018.5 624.565   9
   7  -2  -1 12644.1 623.888   8
   7   2  -1 8889.04 530.094  15
   7   2  -1 8903.86 498.819   8
   7  -2  -1 13733.8 942.273   2
  -7   2   0 18855.7 1092.06  12
  -7  -2   0 20660.8 1186.63  12
   7  -2   0 20709.1 784.496   6
   7  -2   0 21210.8 780.089   9
   7  -2   0 20007.2 799.957   8
   7   2   0 20188.5 733.488   8
   7   2   0 19369.4 790.378  15
   7  -2   1 16920.1 722.458   6
   7  -2   1 17165.0 749.785   8
   7   2   1 18438.7 779.223  15
   7  -2   2 62962.5 1409.15   6
   7   2   2 58334.4 1357.08  15
   7  -2   3 15096.0 683.633   6
   7   2   3 15964.5 650.436   5
   7   2   3 15583.1 677.995  15
   7  -2   4 15803.5 667.964   6
  -7  -2  -4 15732.1 703.717  17
   7   2   4 14548.4 623.192   5
   7   2   4 15122.1 624.873  15
   7  -2   5 6366.55 383.870   6
  -7  -2  -5 6309.45 420.988  17
   7   2   5 6182.27 390.049   5
   7  -2   6 5563.97 294.096   6
  -7  -2  -6 5629.57 350.754  17
   7   2   6 5408.08 326.918   5
  -7   2  -7 6322.94 293.881  14
   7   2   7 6211.52 253.803   6
   7   2   7 6634.51 291.034   5
  -7  -2  -7 6809.10 309.120  17
   7  -3  -8 7553.76 314.186   9
   7   3  -8 8256.06 348.317   8
   7  -3  -8 7616.61 337.076   7
   7  -3  -7 486.434 105.893   7
   7  -3  -7 423.072 98.0159   9
   7   3  -7 279.742 83.4800   8
   7  -3  -6 5673.08 388.567   9
   7   3  -6 4742.04 348.032   8
   7  -3  -6 5824.55 394.921   7
   7  -3  -5 7991.00 488.619   9
   7   3  -5 9681.38 516.999   8
   7   3  -5 9042.84 474.681  14
   7  -3  -5 8176.12 491.722   7
   7  -3  -4 56522.0 1321.29   9
   7   3  -4 54417.3 1236.09   8
   7   3  -4 53813.7 1247.82  14
   7  -3  -4 54770.0 1296.72   7
   7  -3  -3 1435.21 212.942   9
   7  -3  -3 1548.16 207.300   8
   7   3  -3 1592.77 212.779  15
   7   3  -3 1467.80 205.738   8
   7   3  -3 1162.15 197.059  14
   7  -3  -2 38769.6 1033.07   6
   7  -3  -2 39267.1 1086.56   9
   7  -3  -2 38487.9 1053.13   8
   7   3  -2 43273.0 1143.34  15
   7   3  -2 42507.8 1062.20   8
   7  -3  -1 20968.5 792.097   6
   7  -3  -1 22700.1 803.303   9
  -7  -3   1 20874.0 798.048  16
   7   3  -1 21328.5 825.107  15
   7  -3   0 166320. 2267.21   6
   7  -3   0 169469. 2112.01   9
   7  -3   0 164490. 2274.08   8
  -7  -3   0 164055. 2192.35  16
   7   3   0 164376. 2317.61  15
   7  -3   1 7420.08 481.550   6
  -7  -3  -1 7661.13 457.115  16
   7   3   1 7928.67 504.244  15
   7  -3   2 108.958 76.2853   6
   7   3   2 275.807 105.470  15
   7   3   3 3169.54 282.833   5
   7   3   3 3149.54 297.953  15
   7  -3   4 1478.43 195.731   6
  -7  -3  -4 1514.83 218.447  17
   7   3   4 861.863 150.019   5
   7   3   4 947.195 150.463  15
   7  -3   5 3528.59 260.157   6
  -7  -3  -5 3754.62 310.435  17
   7   3   5 3866.06 284.068   5
  -7   3  -6 17053.6 529.078  14
  -7  -3  -6 16007.3 543.480  17
   7   3   6 17525.0 524.076   5
   7  -4  -7 10736.8 420.444   9
   7   4  -7 11081.4 401.155   8
   7  -4  -6 22437.0 698.752   9
   7   4  -6 20991.4 632.783   8
   7  -4  -6 20985.1 648.025   7
   7  -4  -5 8560.69 468.201   9
   7   4  -5 8358.62 426.535   8
   7   4  -5 8598.81 454.402  14
   7  -4  -4 19626.7 731.296   9
   7   4  -4 18713.8 654.921   8
   7   4  -4 18210.0 721.275  14
   7  -4  -3 755.619 137.967   6
   7  -4  -3 740.542 148.121   9
   7   4  -3 1631.32 212.247  15
   7   4  -3 1774.01 236.551  14
   7  -4  -2 1667.23 214.407   6
   7  -4  -2 1656.08 214.163   9
  -7  -4   2 1889.58 247.577  16
   7   4  -2 2337.79 265.878  15
   7  -4  -1 6518.88 440.285   6
   7  -4  -1 6554.26 402.603   9
  -7  -4   1 7066.70 471.637  16
   7  -4   0 19443.7 767.580   6
  -7  -4   0 19012.7 758.198  16
   7   4   0 20045.7 797.801  15
   7  -4   1 6196.00 433.709   6
  -7  -4  -1 5943.45 412.345  16
   7  -4   2 34031.1 978.910   6
  -7  -4  -2 35180.9 950.312  16
   7  -4   3 1221.84 178.154   6
  -7  -4  -3 1211.44 193.466  17
  -7  -4  -3 1422.06 178.036  16
   7   4   3 1033.70 148.655   5
   7   4   3 969.340 155.905  15
  -7   4  -4 14250.0 511.260  14
   7  -4   4 13871.4 527.337   6
  -7  -4  -4 13973.6 593.992  17
   7   4   4 13621.7 509.311   5
   7   4   4 14528.0 507.767  15
  -7   4  -5 5492.02 286.083  14
   7  -4   5 5103.21 257.790   6
  -7  -4  -5 5407.45 325.175  17
   7   4   5 5435.78 289.549   5
  -7  -4  -6 5655.44 260.546  17
   7  -5  -6 38.2937 38.3729   9
  -7  -5   6 58.0894 40.4068  16
   7  -5  -5 27790.4 716.020   9
  -7  -5   5 27645.1 746.939  16
   7  -5  -4 8931.05 428.834   9
  -7  -5   4 8449.17 450.758  16
   7   5  -4 7817.04 432.619  14
   7  -5  -3 8267.36 413.570   6
   7  -5  -3 8522.24 421.189   9
  -7  -5   3 9092.76 492.767  16
   7   5  -3 8139.90 421.283  15
   7  -5  -2 6129.70 384.752   6
   7  -5  -2 6160.68 346.993   9
  -7  -5   2 6329.12 420.828  16
   7   5  -2 5446.64 372.643  15
   7  -5  -1 7197.77 433.868   6
  -7  -5   1 7244.63 453.753  16
   7   5  -1 6646.14 426.790  15
   7  -5   0 43593.2 1063.23   6
  -7  -5   0 43841.8 1096.93  16
   7   5   0 41304.6 1066.41  15
   7  -5   1 14092.7 591.180   6
  -7  -5  -1 13888.8 598.507  16
   7   5   1 14291.3 614.596  15
   7  -5   2 51.3125 46.2278   6
  -7  -5  -2 30.9965 40.7474  16
   7   5   2-7.58201 41.4010  15
   7  -5   3 8148.42 386.947   6
  -7  -5  -3 8033.58 418.286  17
  -7  -5  -3 8338.17 389.738  16
   7   5   3 8648.62 389.842  15
   7  -5   4 1261.89 128.271   6
  -7  -5  -4 1152.14 140.275  17
  -7  -6   5 397.814 67.8153  16
  -7  -6   4 6823.41 320.653  16
   7  -6  -3 5220.47 268.073   6
  -7  -6   3 5182.86 307.845  16
   7   6  -3 6056.37 290.000  15
   7  -6  -2 56.8045 43.8274   6
  -7  -6   2 41.5893 39.3671  16
   7   6  -2 83.5631 49.5954  15
   7  -6  -1 3775.40 268.655   6
  -7  -6   1 4159.96 294.508  16
   7   6  -1 4390.80 295.043  15
   7  -6   0 18508.7 592.769   6
  -7  -6   0 18751.0 541.484  18
  -7  -6   0 19104.2 624.831  16
   7   6   0 19214.4 615.190  15
   7  -6   1 594.033 103.196   6
  -7  -6  -1 521.921 90.5319  18
  -7  -6  -1 545.510 103.387  16
   7   6   1 709.715 116.618  15
   7  -6   2 2311.47 182.083   6
  -7  -6  -2 2250.77 168.564  18
  -7  -6  -2 2148.48 175.886  17
  -7  -6  -2 2384.89 192.046  16
   7   6   2 2095.12 174.220  15
   7  -6   3 28.9725 27.9018   6
   8   0  -8 789.869 98.0216   8
   8   0  -7 148.652 59.5375   7
   8   0  -7 126.028 57.7801   8
   8   0  -6 12526.7 511.507   9
   8   0  -6 12764.1 570.253   8
   8   0  -6 11879.6 522.701   7
   8   0  -5 12507.2 568.175   9
   8   0  -5 12945.5 613.363   8
   8   0  -5 13257.8 592.098   7
   8   0  -4 44641.3 1142.13   9
   8   0  -4 45087.4 1177.22   8
   8   0  -3 2077.26 256.908   9
   8   0  -3 1804.28 242.896   8
   8   0  -2 44817.2 1196.97   9
   8   0  -2 44851.0 1200.50   8
   8   0  -1 10529.7 580.003  15
   8   0  -1 10003.5 564.292   8
   8   0   0 18364.5 712.910   6
   8   0   0 17815.6 765.539  15
   8   0   0 17969.2 755.638   8
   8   0   1 8149.32 492.273   6
   8   0   1 8211.40 507.672   8
   8   0   2 90954.9 1651.40   6
   8   0   2 88309.4 1619.87   8
   8   0   3 4033.67 343.457   6
   8   0   4 8794.81 472.703   6
   8   0   4 8520.31 426.605   5
   8   0   5 6689.80 367.234   6
   8   0   5 6528.62 342.333   5
   8   0   6 119.789 47.0854   6
   8   1  -8 8547.59 333.913   8
   8  -1  -7 23373.4 611.474   9
   8  -1  -7 25961.5 648.058   8
   8   1  -7 24958.5 708.928   8
   8  -1  -7 25724.0 705.730   7
   8  -1  -6 2304.98 231.633   9
   8  -1  -6 2377.19 235.056   8
   8   1  -6 2019.63 230.010   8
   8  -1  -6 2364.77 242.804   7
   8  -1  -5 8942.56 497.435   9
   8  -1  -5 9076.77 497.588   8
   8   1  -5 10525.5 550.701   8
   8  -1  -5 8970.40 503.706   7
   8  -1  -4 34627.4 1025.44   9
   8  -1  -4 33828.9 1004.86   8
   8   1  -4 34109.4 1020.31   8
   8  -1  -3 6829.45 467.885   9
   8   1  -3 7700.99 453.152  15
   8  -1  -3 6691.99 455.478   8
   8   1  -3 7621.78 486.374   8
   8  -1  -2 17585.4 745.775   9
   8   1  -2 15091.9 669.700  15
   8  -1  -2 17091.3 734.575   8
   8   1  -2 15154.6 686.134   8
   8  -1  -1 5483.90 378.530   6
   8  -1  -1 5090.67 401.196   9
   8   1  -1 6018.50 436.718  15
   8  -1  -1 5196.97 409.976   8
   8   1  -1 5864.00 421.281   8
   8  -1   0 81483.1 1520.32   6
   8   1   0 78625.3 1436.21   6
   8  -1   0 80775.7 1630.31   8
   8   1   0 77460.7 1585.68  15
   8   1   0 79951.2 1540.99   8
   8  -1   1 8054.00 495.637   6
   8  -1   1 8269.70 519.017   8
   8   1   1 8747.05 503.338   8
   8   1   1 8260.43 520.040  15
   8  -1   2 1942.02 244.093   6
  -8  -1  -2 2088.16 243.352  17
   8   1   2 2234.67 243.126   8
   8   1   2 2109.68 256.892  15
   8  -1   3 12247.3 590.632   6
  -8  -1  -3 12184.0 565.277  17
   8  -1   4 4003.16 314.957   6
   8   1   4 4496.77 335.509   6
   8   1   4 4240.57 294.112   5
  -8  -1  -4 3970.96 305.434  17
   8  -1   5 250.334 74.9920   6
   8   1   5 289.770 83.6238   6
  -8  -1  -5 326.222 79.2120  17
   8   1   5 312.529 79.9168   5
   8  -1   6 3846.56 207.776   6
   8   1   6 3037.05 197.185   6
   8   1   6 2924.93 185.961   5
  -8  -1  -6 4135.04 220.355  17
   8   2  -8 4110.62 216.746   8
   8  -2  -7 521.797 101.611   7
   8  -2  -7 479.893 93.1355   9
   8   2  -7 585.722 107.205   8
   8  -2  -6 6545.50 385.737   9
   8  -2  -6 6520.31 393.338   7
   8  -2  -5 146.809 71.2541   7
   8  -2  -5 72.1462 50.4956   9
   8  -2  -5 12.4209 33.9530   8
   8   2  -5 46.7491 49.5096   8
   8  -2  -4 17905.4 728.624   9
   8  -2  -4 17475.9 680.828   8
   8   2  -4 16728.8 688.952   8
   8  -2  -3 18020.2 740.465   9
   8   2  -3 17404.9 670.472  15
   8  -2  -3 17979.5 719.292   8
   8   2  -3 17663.4 715.067   8
   8  -2  -2 8747.82 514.895   9
   8  -2  -2 8652.46 515.163   8
   8   2  -2 8805.03 508.265  15
   8   2  -2 8601.45 497.080   8
   8  -2  -1 12219.2 573.922   6
   8  -2  -1 12333.4 607.639   9
   8  -2  -1 11804.8 614.231   8
   8   2  -1 15461.9 694.253  15
   8   2  -1 15743.8 660.790   8
   8  -2   0 18774.1 735.813   6
   8  -2   0 18876.2 778.949   8
   8   2   0 21528.7 754.999   8
   8   2   0 20356.0 803.937  15
   8  -2   1 11747.5 591.155   6
   8  -2   1 11992.6 620.233   8
   8   2   1 11651.9 605.442  15
   8  -2   2 25548.4 856.977   6
   8   2   2 22747.7 821.948  15
   8  -2   3 5451.52 380.176   6
  -8  -2  -3 5210.46 378.346  17
   8   2   3 4421.91 338.979  15
   8  -2   4 10201.5 473.428   6
   8   2   4 9179.81 404.960   5
  -8  -2  -4 9920.23 485.969  17
   8  -2   5 13449.8 464.875   6
   8   2   5 12771.0 477.559   6
   8   2   5 12696.7 429.315   5
  -8  -2  -5 14066.5 507.336  17
  -8   2  -6 96.6898 38.5117  14
   8   2   6 139.719 42.6594   6
  -8  -2  -6 56.3590 33.4915  17
   8  -3  -7 20982.6 538.670   9
   8   3  -7 18393.5 505.707   8
   8  -3  -6 3172.02 252.404   9
   8   3  -6 2812.05 231.677   8
   8  -3  -5 11505.8 526.233   9
   8   3  -5 12977.0 536.001   8
   8  -3  -4 10163.8 521.776   9
   8  -3  -4 9394.27 447.319   8
   8   3  -4 9716.48 484.920   8
   8  -3  -3 2903.49 285.068   9
   8  -3  -3 2980.70 274.004   8
   8   3  -3 2116.83 227.463  15
   8   3  -3 2340.87 242.453   8
   8  -3  -2 3384.25 284.196   6
   8  -3  -2 2969.92 288.648   9
   8  -3  -2 2893.77 282.206   8
  -8  -3   2 3068.99 287.008  16
   8   3  -2 2176.73 248.714  15
   8   3  -2 2212.71 234.927   8
   8  -3  -1 2024.12 233.737   6
   8  -3  -1 2077.83 234.519   9
   8  -3  -1 2090.17 248.801   8
  -8  -3   1 1915.70 221.446  16
   8   3  -1 2351.23 268.613  15
   8  -3   0 34393.9 981.631   6
   8   3   0 34025.8 1014.22  15
   8  -3   1 2600.19 274.222   6
   8   3   1 3547.55 323.648  15
   8  -3   2 1842.48 220.796   6
   8   3   2 2035.04 236.045  15
   8  -3   3 7922.36 428.155   6
  -8  -3  -3 8213.61 459.039  17
   8   3   3 9220.64 455.561  15
  -8   3  -4 14289.2 485.986  14
   8  -3   4 14864.0 523.016   6
  -8  -3  -4 15049.1 566.801  17
  -8   3  -5 5423.33 259.180  14
   8  -3   5 5752.73 260.904   6
  -8  -3  -5 5726.43 298.431  17
   8  -4  -6 4891.29 269.818   9
  -8  -4   6 4870.62 269.341  16
   8  -4  -5 2566.16 220.929   9
  -8  -4   5 2825.04 234.203  16
   8   4  -5 2463.74 191.956   8
   8  -4  -4 15575.3 574.642   9
  -8  -4   4 15289.8 585.439  16
   8   4  -4 15213.9 503.080   8
   8  -4  -3 18333.8 639.898   9
  -8  -4   3 18510.6 670.426  16
   8   4  -3 17709.2 600.478  15
   8  -4  -2 815.511 134.228   6
   8  -4  -2 772.472 132.791   9
  -8  -4   2 828.019 145.899  16
   8   4  -2 726.320 137.307  15
   8  -4  -1 9822.51 481.653   6
   8  -4  -1 9556.12 430.573   9
  -8  -4   1 9516.03 480.608  16
   8  -4   0 16783.2 644.110   6
  -8  -4   0 16902.8 616.092  16
   8   4   0 17463.9 682.374  15
   8  -4   1 3844.66 304.253   6
  -8  -4  -1 3877.81 277.538  16
   8   4   1 3912.76 316.942  15
   8  -4   2 10952.6 488.184   6
   8   4   2 10984.1 492.089  15
   8  -4   3 2815.09 226.228   6
  -8  -4  -3 2440.89 228.828  17
   8  -4   4 5707.42 267.320   6
  -8  -4  -4 5770.96 304.386  17
   8  -5  -5 6354.91 259.494   9
  -8  -5   5 6362.66 281.325  16
   8  -5  -4 34518.7 666.353   9
  -8  -5   4 36317.9 762.177  16
   8  -5  -3 883.496 110.173   9
  -8  -5   3 919.734 130.297  16
   8   5  -3 961.050 116.901  15
   8  -5  -2 10808.1 418.828   6
  -8  -5   2 10831.1 461.742  16
   8   5  -2 10705.5 439.967  15
   8  -5  -1 6265.05 339.230   6
  -8  -5   1 6357.21 351.413  16
   8   5  -1 5867.03 345.744  15
   8  -5   0 46488.5 934.105   6
  -8  -5   0 46090.0 914.614  16
   8   5   0 46875.4 968.755  15
   8  -5   1 1183.60 146.885   6
  -8  -5  -1 1146.91 134.684  16
   8  -5   2 856.102 115.090   6
  -8  -5  -2 792.484 118.781  17
   8   5   2 814.265 112.961  15
   8  -5   3 1491.16 127.545   6
  -8  -5  -3 1571.19 144.006  17
  -8  -6   2 3339.01 196.286  16
   8  -6  -1 2240.13 153.624   6
  -8  -6   1 2100.73 157.269  16
   8  -6   0 15308.1 404.205   6
   8   6   0 14389.1 404.632  15
   9   0  -7 362.737 66.4700   8
   9   0  -6 3693.99 257.582   8
   9   0  -5 14741.8 580.029   8
   9   0  -4 1866.94 221.858   8
   9   0  -3 5055.87 375.932   8
   9   0  -2 10520.2 550.906   8
   9   0  -1 31627.7 958.889   8
   9   0   0 6105.91 370.740   6
   9   0   0 6274.44 423.738   8
   9   0   1 4134.90 313.938   6
   9   0   1 4467.89 344.333   8
   9   0   2 108.905 60.3420   6
   9   0   3 515.537 109.547   6
   9   0   4 67.1955 42.2313   6
   9   0   5 10916.2 343.670   6
   9   1  -7 23480.4 529.208   8
   9  -1  -6 159.635 53.8715   8
   9   1  -6 191.173 66.4800   8
   9  -1  -5 7036.11 381.440   9
   9  -1  -5 6586.55 368.724   8
   9   1  -5 5741.57 359.416   8
   9  -1  -4 17205.8 649.385   9
   9  -1  -4 16173.6 631.551   8
   9   1  -4 17260.7 658.048   8
   9  -1  -3 295.858 90.0953   9
   9  -1  -3 270.324 85.0799   8
   9   1  -3 283.160 92.3828   8
   9  -1  -2 17525.0 710.020   8
   9   1  -2 19476.8 730.196   8
   9  -1  -1 23657.7 831.347   8
   9   1  -1 21976.7 787.867  15
   9   1  -1 21439.4 758.617   8
   9  -1   0 10222.2 488.905   6
   9  -1   0 10103.7 538.750   8
   9   1   0 11384.8 545.656   8
   9   1   0 11620.2 577.807  15
   9   1   1 4681.72 325.267   6
   9   1   1 4547.85 325.147   8
   9  -1   2 1779.40 203.428   6
   9   1   2 2306.79 228.158   6
   9  -1   3 19599.0 631.580   6
   9   1   3 16705.1 578.579   6
   9  -1   4 13223.1 457.386   6
   9   1   4 13204.9 462.488   6
   9  -1   5 1308.66 113.928   6
   9   1   5 1375.22 119.841   6
   9  -2  -6 4325.45 251.147   9
   9   2  -6 4345.54 260.913   8
   9  -2  -5 278.822 80.3754   9
   9  -2  -5 335.082 76.6630   8
   9   2  -5 88.5285 54.7260   8
   9  -2  -4 3467.77 283.935   9
   9  -2  -4 3646.48 278.810   8
   9   2  -4 3679.34 289.157   8
   9  -2  -3 12278.2 548.932   9
   9  -2  -3 11725.8 535.698   8
   9  -2  -2 4614.94 350.995   8
   9   2  -2 5098.38 354.256  15
   9   2  -2 5359.04 356.145   8
   9  -2  -1 10476.4 466.288   6
   9  -2  -1 11121.9 548.980   8
   9   2  -1 10016.3 515.523  15
   9   2  -1 9371.53 463.865   8
   9  -2   0 10396.9 487.436   6
   9  -2   0 10740.2 536.610   8
   9   2   0 10537.2 464.656   8
   9   2   0 10741.3 532.701  15
   9  -2   1 565.312 120.017   6
   9   2   1 535.020 104.579   6
   9   2   1 575.433 126.935  15
   9  -2   2 14112.5 551.430   6
   9   2   2 15702.1 549.190   6
  -9  -2  -2 14708.9 546.965  17
   9  -2   3 1191.14 149.858   6
   9   2   3 1260.44 148.968   6
  -9  -2  -3 1219.94 147.874  17
   9  -2   4 1169.98 127.253   6
   9   2   4 1576.28 147.715   6
  -9  -2  -4 1278.61 129.146  17
   9  -3  -6 875.846 100.954   9
   9   3  -6 792.515 91.2928   8
   9  -3  -5 9169.29 383.768   9
  -9  -3   5 9127.73 349.988  16
   9   3  -5 9146.98 359.445   8
   9  -3  -4 14404.9 521.206   9
  -9  -3   4 13902.6 468.863  16
   9   3  -4 13050.8 462.393   8
   9  -3  -3 6069.28 350.975   9
   9  -3  -3 5823.29 327.629   8
  -9  -3   3 6229.65 324.746  16
   9   3  -3 5824.35 312.118  15
   9   3  -3 6172.84 325.127   8
   9  -3  -2 2242.53 219.943   8
   9   3  -2 1987.06 205.459  15
   9  -3  -1 2369.79 211.966   6
   9   3  -1 1866.53 207.199  15
   9  -3   0 8706.90 418.603   6
   9   3   0 9381.66 467.324  15
   9  -3   1 5383.35 331.435   6
   9   3   1 5796.42 356.593  15
   9  -3   2 5185.17 307.720   6
   9   3   2 5537.27 283.162   6
  -9  -3  -2 5112.21 311.656  17
   9   3   2 5929.97 334.010  15
   9  -3   3 896.882 116.298   6
   9   3   3 604.232 90.8802   6
  -9  -3  -3 771.773 113.013  17
   9  -4  -4 3484.95 209.991   9
  -9  -4   4 3472.18 205.154  16
  -9  -4   3 14672.9 446.009  16
  -9  -4   2 5246.64 270.168  16
   9   4  -2 4774.56 275.213  15
   9  -4  -1 6362.32 306.343   6
   9   4  -1 7700.01 371.006  15
   9  -4   0 12042.5 435.720   6
   9   4   0 11122.1 444.396  15
   9  -4   1 1523.89 151.933   6
  -9  -4  -1 1470.68 160.212  17
   9   4   1 1537.52 160.848  15
   9  -4   2 17581.1 473.087   6
  -9  -4  -2 18095.7 506.333  17
   9   5  -1 9413.69 315.779  15
  -9  -5   0 5354.69 247.203  17
   9   5   0 4804.76 226.675  15
  10   0  -5 2143.65 171.487   8
  10   0  -4 35.8542 33.0937   8
  10   0  -3 6913.29 367.521   8
  10   0  -2 2397.14 223.316   8
  10   0  -1 3205.20 256.887   8
  10   0   1 969.905 115.414   6
  10   0   2 4036.86 227.772   6
  10   0   3 915.615 97.6276   6
  10  -1  -5 5783.55 257.851   8
  10   1  -5 6333.22 285.622   8
  10  -1  -4 11685.3 429.656   8
  10   1  -4 9714.69 394.328   8
  10  -1  -3 472.813 97.8927   8
  10   1  -3 428.343 93.2302   8
  10  -1  -2 2012.48 203.574   8
  10   1  -2 1883.69 187.345   8
  10  -1  -1 18651.2 615.136   8
  10   1  -1 20992.3 614.075   8
  10  -1   0 901.221 110.467   6
  10  -1   1 17458.7 490.069   6
  10   1   1 18239.8 451.055   6
  10  -1   2 33295.0 649.711   6
  10   1   2 31759.7 589.018   6
  10  -1   3 2466.87 155.139   6
  10  -2  -4 4284.37 223.688   8
  10   2  -4 3914.68 221.154   8
  10  -2  -3 3177.37 220.963   8
  10   2  -3 1599.86 150.092   8
  10  -2  -2 1211.22 146.334   8
  10   2  -2 758.099 104.511   8
  10   2  -1 8539.35 327.403   8
  10  -2   0 9063.34 330.350   6
  10  -2   1 1230.01 125.327   6
  10  -2   2 113.219 40.3430   6
 -10  -3   0 23.9732 31.6902  17
   0   0   0    0.00    0.00   0

TITL LD1-Clfull in P2(1)/m
REM P2(1)/m (#11 in standard setting)
CELL 1.54184   8.757631   7.249852   9.005297  90.0000  96.8735  90.0000
ZERR    2.00   0.000113   0.000077   0.000092   0.0000   0.0011   0.0000
LATT  1
SYMM -x, y+1/2,-z
SFAC C H N O Cl
UNIT 24.00 20.00 2.00 6.00 2.00
TREF
HKLF 4
END
;
_shelx_hkl_checksum              21299
loop_
_space_group_symop_operation_xyz
'x, y, z'
'-x, y+1/2, -z'
loop_
_atom_site_label
_atom_site_type_symbol
_atom_site_fract_x
_atom_site_fract_y
_atom_site_fract_z
_atom_site_U_iso_or_equiv
_atom_site_adp_type
_atom_site_occupancy
_atom_site_site_symmetry_order
_atom_site_calc_flag
_atom_site_refinement_flags_adp
C1 C 0.8696(2) 0.3054(2) 0.4307(2) 0.0145(3) Uani 1 1 d U
C2 C 0.75359(18) 0.4041(3) 0.51723(17) 0.0148(3) Uani 1 1 d U
C3 C 0.59672(17) 0.4243(3) 0.43207(16) 0.0138(3) Uani 1 1 d U
C4 C 0.45542(18) 0.4273(3) 0.48925(17) 0.0161(3) Uani 1 1 d U
C5 C 0.31691(18) 0.4248(3) 0.39529(19) 0.0186(3) Uani 1 1 d U
C6 C 0.31351(19) 0.4138(3) 0.23925(19) 0.0194(3) Uani 1 1 d U
C7 C 0.45377(18) 0.4111(3) 0.18379(17) 0.0156(3) Uani 1 1 d U
C8 C 0.58913(17) 0.4255(3) 0.27891(17) 0.0137(3) Uani 1 1 d U
C9 C 0.72420(18) 0.4118(3) 0.19205(16) 0.0145(3) Uani 1 1 d U
C10 C 0.6423(2) 0.3253(3) 0.0463(2) 0.0181(4) Uani 1 1 d U
C11 C 0.9524(2) 0.0359(3) 0.1833(2) 0.0214(4) Uani 1 1 d U
C12 C 0.7983(2) 0.5972(3) 0.16444(19) 0.0173(3) Uani 1 1 d U
N1 N 0.83251(16) 0.2871(2) 0.27829(16) 0.0142(3) Uani 1 1 d U
O1 O 0.95521(14) 0.23367(19) 0.19962(14) 0.0178(3) Uani 1 1 d U
O2 O 0.98758(14) 0.2411(2) 0.49593(14) 0.0190(3) Uani 1 1 d U
O3 O 0.48151(14) 0.38468(17) 0.03789(13) 0.0188(3) Uani 1 1 d U
Cl1 Cl 0.45249(4) 0.42622(6) 0.68218(4) 0.01940(12) Uani 1 1 d U
H2A H 0.752(3) 0.329(4) 0.610(3) 0.024(6) Uiso 1 1 d .
H2B H 0.796(3) 0.517(4) 0.547(3) 0.027(7) Uiso 1 1 d .
H5 H 0.225(3) 0.418(4) 0.436(2) 0.021(5) Uiso 1 1 d .
H6 H 0.220(3) 0.396(4) 0.174(3) 0.023(6) Uiso 1 1 d .
H10A H 0.645(3) 0.189(3) 0.056(2) 0.013(5) Uiso 1 1 d .
H10B H 0.684(3) 0.370(3) -0.046(2) 0.014(5) Uiso 1 1 d .
H11A H 0.954(3) -0.030(3) 0.283(3) 0.021(6) Uiso 1 1 d .
H11B H 0.868(3) -0.005(4) 0.110(3) 0.027(6) Uiso 1 1 d .
H11C H 1.044(3) 0.007(4) 0.136(3) 0.033(7) Uiso 1 1 d .
H12A H 0.827(3) 0.655(3) 0.259(3) 0.021(6) Uiso 1 1 d .
H12B H 0.890(3) 0.582(4) 0.112(3) 0.023(6) Uiso 1 1 d .
H12C H 0.724(3) 0.679(4) 0.107(3) 0.026(6) Uiso 1 1 d .
loop_
_atom_site_aniso_label
_atom_site_aniso_U_11
_atom_site_aniso_U_22
_atom_site_aniso_U_33
_atom_site_aniso_U_23
_atom_site_aniso_U_13
_atom_site_aniso_U_12
C1 0.0122(8) 0.0142(8) 0.0165(7) -0.0003(6) -0.0002(6) -0.0023(6)
C2 0.0124(8) 0.0175(9) 0.0143(7) -0.0007(7) 0.0012(6) -0.0011(7)
C3 0.0132(7) 0.0113(7) 0.0166(7) 0.0004(7) 0.0005(5) -0.0004(8)
C4 0.0168(8) 0.0142(7) 0.0178(7) 0.0013(8) 0.0031(6) -0.0002(8)
C5 0.0122(8) 0.0180(8) 0.0261(8) 0.0017(8) 0.0047(6) -0.0016(9)
C6 0.0119(8) 0.0199(8) 0.0250(8) 0.0021(8) -0.0038(6) -0.0007(8)
C7 0.0157(8) 0.0137(8) 0.0166(7) 0.0017(7) -0.0019(6) -0.0009(7)
C8 0.0108(7) 0.0131(7) 0.0169(7) 0.0007(7) 0.0002(5) -0.0001(8)
C9 0.0135(7) 0.0169(8) 0.0126(6) 0.0019(7) -0.0006(5) -0.0016(8)
C10 0.0139(9) 0.0235(10) 0.0161(8) -0.0021(6) -0.0012(6) -0.0004(7)
C11 0.0239(11) 0.0208(11) 0.0195(9) -0.0020(7) 0.0029(8) 0.0053(7)
C12 0.0174(9) 0.0181(8) 0.0166(8) 0.0018(7) 0.0021(7) -0.0014(7)
N1 0.0102(7) 0.0187(7) 0.0143(7) -0.0005(6) 0.0035(5) 0.0020(6)
O1 0.0146(6) 0.0197(7) 0.0206(6) 0.0004(5) 0.0077(5) 0.0022(5)
O2 0.0134(6) 0.0236(6) 0.0190(6) 0.0008(5) -0.0017(4) 0.0022(5)
O3 0.0144(6) 0.0257(8) 0.0150(6) -0.0002(5) -0.0028(4) 0.0004(5)
Cl1 0.0198(2) 0.0221(2) 0.01758(18) 0.00070(17) 0.00746(13) 0.00123(18)
loop_
_atom_type_symbol
_atom_type_description
_atom_type_scat_dispersion_real
_atom_type_scat_dispersion_imag
_atom_type_scat_source
C C 0.0181 0.0091 'International Tables Vol C Tables 4.2.6.8 and 6.1.1.4'
H H 0.0000 0.0000 'International Tables Vol C Tables 4.2.6.8 and 6.1.1.4'
N N 0.0311 0.0180 'International Tables Vol C Tables 4.2.6.8 and 6.1.1.4'
O O 0.0492 0.0322 'International Tables Vol C Tables 4.2.6.8 and 6.1.1.4'
Cl Cl 0.3639 0.7018 'International Tables Vol C Tables 4.2.6.8 and 6.1.1.4'
loop_
_geom_angle_atom_site_label_1
_geom_angle_atom_site_label_2
_geom_angle_atom_site_label_3
_geom_angle
O2 C1 N1 121.90(17)
O2 C1 C2 120.63(16)
N1 C1 C2 117.43(15)
C3 C2 C1 114.13(14)
C3 C2 H2A 112.3(15)
C1 C2 H2A 104.3(15)
C3 C2 H2B 112.0(17)
C1 C2 H2B 107.0(18)
H2A C2 H2B 107(2)
C8 C3 C4 115.64(14)
C8 C3 C2 116.47(13)
C4 C3 C2 127.67(14)
C5 C4 C3 121.38(14)
C5 C4 Cl1 119.35(12)
C3 C4 Cl1 119.23(12)
C4 C5 C6 121.39(15)
C4 C5 H5 119.5(13)
C6 C5 H5 118.8(13)
C7 C6 C5 116.77(14)
C7 C6 H6 120.5(14)
C5 C6 H6 122.5(14)
O3 C7 C8 111.47(14)
O3 C7 C6 127.85(14)
C8 C7 C6 120.58(15)
C3 C8 C7 123.87(15)
C3 C8 C9 125.36(13)
C7 C8 C9 110.08(13)
N1 C9 C8 105.40(13)
N1 C9 C12 111.66(13)
C8 C9 C12 113.86(16)
N1 C9 C10 113.87(16)
C8 C9 C10 98.96(13)
C12 C9 C10 112.33(13)
O3 C10 C9 105.61(14)
O3 C10 H10A 107.9(13)
C9 C10 H10A 109.2(13)
O3 C10 H10B 108.0(13)
C9 C10 H10B 113.2(13)
H10A C10 H10B 112.6(18)
O1 C11 H11A 112.4(13)
O1 C11 H11B 112.1(16)
H11A C11 H11B 112(2)
O1 C11 H11C 104.8(17)
H11A C11 H11C 111(2)
H11B C11 H11C 104(2)
C9 C12 H12A 108.1(15)
C9 C12 H12B 111.3(15)
H12A C12 H12B 110(2)
C9 C12 H12C 110.6(15)
H12A C12 H12C 107(2)
H12B C12 H12C 110(2)
C1 N1 O1 115.11(14)
C1 N1 C9 121.99(14)
O1 N1 C9 112.75(12)
N1 O1 C11 108.65(13)
C7 O3 C10 105.64(12)
loop_
_geom_bond_atom_site_label_1
_geom_bond_atom_site_label_2
_geom_bond_distance
C1 O2 1.218(2)
C1 N1 1.379(2)
C1 C2 1.531(2)
C2 C3 1.498(2)
C2 H2A 1.00(3)
C2 H2B 0.93(3)
C3 C8 1.374(2)
C3 C4 1.397(2)
C4 C5 1.393(2)
C4 Cl1 1.7420(16)
C5 C6 1.405(2)
C5 H5 0.93(2)
C6 C7 1.381(2)
C6 H6 0.96(2)
C7 O3 1.379(2)
C7 C8 1.381(2)
C8 C9 1.498(2)
C9 N1 1.463(2)
C9 C12 1.525(3)
C9 C10 1.550(2)
C10 O3 1.465(2)
C10 H10A 0.99(2)
C10 H10B 1.00(2)
C11 O1 1.441(2)
C11 H11A 1.01(2)
C11 H11B 0.97(3)
C11 H11C 0.98(3)
C12 H12A 0.95(2)
C12 H12B 0.99(3)
C12 H12C 0.98(3)
N1 O1 1.4108(18)
loop_
_geom_torsion_atom_site_label_1
_geom_torsion_atom_site_label_2
_geom_torsion_atom_site_label_3
_geom_torsion_atom_site_label_4
_geom_torsion
O2 C1 C2 C3 -162.42(17)
N1 C1 C2 C3 15.4(2)
C1 C2 C3 C8 -25.7(3)
C1 C2 C3 C4 148.7(2)
C8 C3 C4 C5 2.2(3)
C2 C3 C4 C5 -172.2(2)
C8 C3 C4 Cl1 -179.94(16)
C2 C3 C4 Cl1 5.6(3)
C3 C4 C5 C6 1.9(3)
Cl1 C4 C5 C6 -175.92(16)
C4 C5 C6 C7 -1.9(3)
C5 C6 C7 O3 173.8(2)
C5 C6 C7 C8 -2.3(3)
C4 C3 C8 C7 -6.6(3)
C2 C3 C8 C7 168.44(19)
C4 C3 C8 C9 -176.20(18)
C2 C3 C8 C9 -1.1(3)
O3 C7 C8 C3 -169.75(17)
C6 C7 C8 C3 6.9(4)
O3 C7 C8 C9 1.2(3)
C6 C7 C8 C9 177.8(2)
C3 C8 C9 N1 35.4(3)
C7 C8 C9 N1 -135.42(17)
C3 C8 C9 C12 -87.3(2)
C7 C8 C9 C12 101.87(19)
C3 C8 C9 C10 153.30(19)
C7 C8 C9 C10 -17.5(2)
N1 C9 C10 O3 138.25(14)
C8 C9 C10 O3 26.92(17)
C12 C9 C10 O3 -93.58(16)
O2 C1 N1 O1 -15.8(2)
C2 C1 N1 O1 166.41(14)
O2 C1 N1 C9 -158.54(16)
C2 C1 N1 C9 23.6(2)
C8 C9 N1 C1 -46.7(2)
C12 C9 N1 C1 77.46(19)
C10 C9 N1 C1 -154.02(15)
C8 C9 N1 O1 169.79(13)
C12 C9 N1 O1 -66.10(17)
C10 C9 N1 O1 62.42(18)
C1 N1 O1 C11 94.02(16)
C9 N1 O1 C11 -119.80(15)
C8 C7 O3 C10 17.1(2)
C6 C7 O3 C10 -159.2(2)
C9 C10 O3 C7 -27.91(18)
