#------------------------------------------------------------------------------
#$Date: 2019-11-25 08:27:18 +0200 (Mon, 25 Nov 2019) $
#$Revision: 240511 $
#$URL: file:///home/coder/svn-repositories/cod/cif/4/12/98/4129859.cif $
#------------------------------------------------------------------------------
#
# This file is available in the Crystallography Open Database (COD),
# http://www.crystallography.net/
#
# All data on this site have been placed in the public domain by the
# contributors.
#
data_4129859
loop_
_publ_author_name
'Deng, Lin'
'Xu, Tao'
'Li, Hongbo'
'Dong, Guangbin'
_publ_section_title
;
 Enantioselective Rh-Catalyzed Carboacylation of C&#x2550;N Bonds via C-C
 Activation of Benzocyclobutenones.
;
_journal_issue                   1
_journal_name_full               'Journal of the American Chemical Society'
_journal_page_first              369
_journal_page_last               374
_journal_paper_doi               10.1021/jacs.5b11120
_journal_volume                  138
_journal_year                    2016
_chemical_absolute_configuration ad
_chemical_formula_moiety         'C12 H13 N O3'
_chemical_formula_sum            'C12 H13 N O3'
_chemical_formula_weight         219.23
_space_group_crystal_system      monoclinic
_space_group_IT_number           4
_space_group_name_Hall           'P 2yb'
_space_group_name_H-M_alt        'P 1 21 1'
_atom_sites_solution_hydrogens   difmap
_audit_creation_method           SHELXL-2014/7
_cell_angle_alpha                90
_cell_angle_beta                 95.146(2)
_cell_angle_gamma                90
_cell_formula_units_Z            2
_cell_length_a                   8.3112(15)
_cell_length_b                   7.2566(13)
_cell_length_c                   8.9068(17)
_cell_measurement_reflns_used    4883
_cell_measurement_temperature    100(2)
_cell_measurement_theta_max      74.2
_cell_measurement_theta_min      4.97
_cell_volume                     535.01(17)
_computing_cell_refinement
'CrysAlisPro V 1.171.37.31, Agilent Technologies'
_computing_data_collection
'CrysAlisPro V 1.171.37.31, Agilent Technologies'
_computing_data_reduction
'CrysAlisPro V 1.171.37.31, Agilent Technologies'
_computing_molecular_graphics    'XP SHELXTL/PC, Siemens Analytical'
_computing_publication_material  'XL SHELXTL/PC, Siemens Analytical'
_computing_structure_refinement  'Shelxl-2013, Sheldrick, G. M.'
_computing_structure_solution
;

SUPERFLIP.  Palatinus, L. and Chapuis, G., J. Appl. Cryst. 40, 786-790.
;
_diffrn_ambient_temperature      100(2)
_diffrn_measured_fraction_theta_full 1.000
_diffrn_measured_fraction_theta_max 0.986
_diffrn_measurement_device_type  'Agilent SuperNova with AtlasS2 CCD'
_diffrn_measurement_method       \w-scans
_diffrn_radiation_type           CuK\a
_diffrn_radiation_wavelength     1.54184
_diffrn_reflns_av_R_equivalents  0.0140
_diffrn_reflns_av_unetI/netI     0.0127
_diffrn_reflns_Laue_measured_fraction_full 1.000
_diffrn_reflns_Laue_measured_fraction_max 0.986
_diffrn_reflns_limit_h_max       10
_diffrn_reflns_limit_h_min       -10
_diffrn_reflns_limit_k_max       8
_diffrn_reflns_limit_k_min       -8
_diffrn_reflns_limit_l_max       10
_diffrn_reflns_limit_l_min       -11
_diffrn_reflns_number            5543
_diffrn_reflns_point_group_measured_fraction_full 1.000
_diffrn_reflns_point_group_measured_fraction_max 0.987
_diffrn_reflns_theta_full        67.684
_diffrn_reflns_theta_max         74.282
_diffrn_reflns_theta_min         4.986
_diffrn_source                   'sealed microfocus tube'
_exptl_absorpt_coefficient_mu    0.812
_exptl_absorpt_correction_T_max  1.00
_exptl_absorpt_correction_T_min  0.909
_exptl_absorpt_correction_type   multi-scan
_exptl_absorpt_process_details
;
CrysAlisPro 1.171.38.27t (Agilent, 2015)
Empirical absorption correction using spherical harmonics,
 implemented in SCALE3 ABSPACK scaling algorithm.
;
_exptl_crystal_colour            colorless
_exptl_crystal_density_diffrn    1.361
_exptl_crystal_description       prism
_exptl_crystal_F_000             232
_exptl_crystal_size_max          0.310
_exptl_crystal_size_mid          0.290
_exptl_crystal_size_min          0.140
_refine_diff_density_max         0.218
_refine_diff_density_min         -0.111
_refine_diff_density_rms         0.032
_refine_ls_abs_structure_details
;
 Refined as an inversion twin.  The Hooft y-parameter refined to -0.04(5).
;
_refine_ls_abs_structure_Flack   -0.06(19)
_refine_ls_extinction_coef       0.0129(17)
_refine_ls_extinction_expression Fc^*^=kFc[1+0.001xFc^2^\l^3^/sin(2\q)]^-1/4^
_refine_ls_extinction_method     'SHELXL-2014/7 (Sheldrick 2014'
_refine_ls_goodness_of_fit_ref   1.064
_refine_ls_hydrogen_treatment    refall
_refine_ls_matrix_type           full
_refine_ls_number_parameters     199
_refine_ls_number_reflns         2019
_refine_ls_number_restraints     1
_refine_ls_restrained_S_all      1.063
_refine_ls_R_factor_all          0.0236
_refine_ls_R_factor_gt           0.0236
_refine_ls_shift/su_max          0.021
_refine_ls_shift/su_mean         0.001
_refine_ls_structure_factor_coef Fsqd
_refine_ls_weighting_details
'w=1/[\s^2^(Fo^2^)+(0.0409P)^2^+0.0650P] where P=(Fo^2^+2Fc^2^)/3'
_refine_ls_weighting_scheme      calc
_refine_ls_wR_factor_gt          0.0632
_refine_ls_wR_factor_ref         0.0633
_reflns_Friedel_coverage         0.847
_reflns_Friedel_fraction_full    1.000
_reflns_Friedel_fraction_max     0.987
_reflns_number_gt                2014
_reflns_number_total             2019
_reflns_threshold_expression     'I > 2\s(I)'
_cod_data_source_file            ja5b11120_si_002.cif
_cod_data_source_block           shelx
_cod_original_sg_symbol_H-M      'P 21'
_cod_database_code               4129859
_shelx_shelxl_version_number     2014/7
_shelx_space_group_comment
;
The symmetry employed for this shelxl refinement is uniquely defined
by the following loop, which should always be used as a source of
symmetry information in preference to the above space-group names.
They are only intended as comments.
;
_shelx_estimated_absorpt_t_min   0.787
_shelx_estimated_absorpt_t_max   0.895
_shelx_res_file
;

    shelx.res created by SHELXL-2014/7


TITL LD1 in P2(1), colorless prisms
CELL  1.54184   8.3112   7.2566   8.9068   90.000   95.146   90.000
ZERR     2.00   0.0015   0.0013   0.0017    0.000    0.002    0.000
LATT  -1
SYMM  - X, 1/2 + Y, - Z
SFAC  C    H    N    O
UNIT  24   26   2    6
MERG   2
TWIN
FMAP   2
PLAN   25
size .14 .29 .31
ACTA
BOND   $H
CONF
LIST   4
L.S.   4
TEMP  -173.00
WGHT    0.040900    0.065000
EXTI    0.012889
BASF  -0.06459
FVAR      13.96814
C1    1    0.943124    0.450738    0.859520    11.00000    0.02201    0.01597 =
         0.01693    0.00311   -0.00106   -0.00002
C2    1    1.050141    0.356774    0.750806    11.00000    0.01860    0.01974 =
         0.02021   -0.00003   -0.00036    0.00076
C3    1    0.973014    0.337890    0.592318    11.00000    0.02281    0.01387 =
         0.01942   -0.00037    0.00144    0.00100
C4    1    1.049405    0.341451    0.458424    11.00000    0.02855    0.01836 =
         0.02420   -0.00038    0.00658   -0.00236
C5    1    0.955896    0.339834    0.320439    11.00000    0.04154    0.01929 =
         0.01845   -0.00079    0.00853   -0.00234
C6    1    0.786720    0.341217    0.308321    11.00000    0.04256    0.01933 =
         0.01644    0.00010   -0.00367   -0.00279
C7    1    0.714949    0.337026    0.442361    11.00000    0.02711    0.01507 =
         0.02037    0.00048   -0.00425   -0.00128
C8    1    0.807558    0.326846    0.578176    11.00000    0.02366    0.01348 =
         0.01657    0.00090    0.00044   -0.00016
C9    1    0.702112    0.330713    0.705788    11.00000    0.01718    0.01882 =
         0.01713   -0.00046   -0.00135    0.00086
C10   1    0.544711    0.404341    0.620704    11.00000    0.02069    0.02451 =
         0.02326   -0.00025   -0.00402    0.00387
C11   1    0.660500    0.707442    0.926530    11.00000    0.02606    0.02218 =
         0.02863   -0.00377    0.00662    0.00057
C12   1    0.679586    0.142188    0.776574    11.00000    0.02137    0.01942 =
         0.02181    0.00071    0.00098   -0.00149
N1    3    0.779962    0.462202    0.814206    11.00000    0.01942    0.01955 =
         0.01464   -0.00188    0.00322    0.00057
O1    4    0.680726    0.510623    0.928621    11.00000    0.02583    0.02145 =
         0.02011   -0.00204    0.00960   -0.00034
O2    4    1.000298    0.517291    0.977874    11.00000    0.02811    0.02490 =
         0.01718   -0.00091   -0.00399   -0.00099
O3    4    0.552435    0.351793    0.462673    11.00000    0.02512    0.02578 =
         0.02150   -0.00024   -0.00751    0.00075
H2A   2    1.072896    0.232129    0.794610    11.00000    0.02046
H2B   2    1.149399    0.431205    0.755408    11.00000    0.02624
H4    2    1.170196    0.350018    0.460337    11.00000    0.02755
H5    2    1.005062    0.346945    0.228995    11.00000    0.03219
H6    2    0.722539    0.350379    0.213025    11.00000    0.03560
H10A  2    0.444350    0.345739    0.654546    11.00000    0.02207
H10B  2    0.539681    0.539730    0.627312    11.00000    0.02773
H11A  2    0.605838    0.747674    0.827992    11.00000    0.03230
H11B  2    0.596191    0.732643    1.011588    11.00000    0.04788
H11C  2    0.765944    0.770197    0.946294    11.00000    0.02759
H12A  2    0.608649    0.151132    0.858696    11.00000    0.02867
H12B  2    0.783231    0.089857    0.813341    11.00000    0.02403
H13C  2    0.621629    0.056410    0.700793    11.00000    0.03215
HKLF    4

REM  LD1 in P2(1), colorless prisms
REM R1 =  0.0236 for    2014 Fo > 4sig(Fo)  and  0.0236 for all    2019 data
REM    199 parameters refined using      1 restraints

END

WGHT      0.0398      0.0644

REM Highest difference peak  0.218,  deepest hole -0.111,  1-sigma level  0.032
Q1    1   0.7642  0.3298  0.6434  11.00000  0.05    0.22
Q2    1   0.7628  0.3675  0.5085  11.00000  0.05    0.20
Q3    1   0.8857  0.3546  0.5833  11.00000  0.05    0.20
Q4    1   0.6233  0.3587  0.6718  11.00000  0.05    0.18
Q5    1   1.0078  0.3614  0.5324  11.00000  0.05    0.17
Q6    1   0.7380  0.4034  0.7588  11.00000  0.05    0.16
Q7    1   0.7483  0.3593  0.3744  11.00000  0.05    0.16
Q8    1   1.0003  0.3613  0.3954  11.00000  0.05    0.15
Q9    1   1.0155  0.3418  0.6704  11.00000  0.05    0.14
Q10   1   0.8718  0.3600  0.3241  11.00000  0.05    0.14
Q11   1   0.8572  0.4440  0.8357  11.00000  0.05    0.11
Q12   1   0.6414  0.3348  0.4444  11.00000  0.05    0.11
Q13   1   0.6864  0.2392  0.7383  11.00000  0.05    0.11
Q14   1   0.5967  0.4602  0.9201  11.00000  0.05    0.11
Q15   1   0.9989  0.3972  0.7964  11.00000  0.05    0.10
Q16   1   0.7549  0.4714  1.0204  11.00000  0.05    0.10
Q17   1   0.7978  0.4869  0.1184  11.00000  0.05    0.10
Q18   1   0.5132  0.3299  0.3668  11.00000  0.05    0.09
Q19   1   0.7355  0.5203  0.1634  11.00000  0.05    0.08
Q20   1   0.6854  0.5226  0.1384  11.00000  0.05    0.08
Q21   1   0.5876  0.2793  0.2187  11.00000  0.05    0.08
Q22   1   0.9415  0.4638  1.0870  11.00000  0.05    0.08
Q23   1   1.1225  0.4968  0.9848  11.00000  0.05    0.08
Q24   1   0.7414  0.4761  0.8816  11.00000  0.05    0.08
Q25   1   0.8828  0.4988  1.0779  11.00000  0.05    0.08
;
_shelx_res_checksum              54568
_shelx_hkl_file
;
   0   0   1 65650.8 336.977  10
   0   0  -1 64782.1 344.481   2
   0   0  -1 65117.0 340.527  11
   0   0  -2 17920.1 162.078   3
   0   0  -2 18003.6 258.509   2
   0   0   3 467.037 52.6635  10
   0   0  -3 426.430 47.3362   1
   0   0  -3 502.254 32.4089   3
   0   0   3 502.285 55.7407  16
   0   0  -3 416.455 48.4231   2
   0   0  -4 20058.6 384.444   1
   0   0   4 21103.6 417.374  10
   0   0   4 20069.8 417.094  16
   0   0   5 4112.38 219.076  16
   0   0   5 4498.67 225.650  10
   0   0  -5 4536.76 214.445   1
   0   0   6 7165.79 336.178  16
   0   0  -6 7655.47 307.603   1
   0   0   6 7581.56 339.667  10
   0   0   7 4857.98 305.169  10
   0   0  -7 5003.73 219.584  18
   0   0  -7 4904.54 224.016   9
   0   0   7 4857.06 310.492  16
   0   0  -7 5269.12 226.201   8
   0   0  -8 35099.2 609.699   8
   0   0  -8 35720.9 636.763   9
   0   0  -9 1578.11 126.794   9
   0   0  -9 1656.45 126.538   8
   0   0 -10 28.6190 15.5527   8
   0   0 -10 21.5908 16.5639   9
   0  -1   0 8.32100 5.48064   3
   0   1   0 29.2211 9.56728  11
   0  -1   0 37.8669 8.73919  10
   0  -1  -1 152479. 473.145   1
   0  -1   1 149800. 450.198   3
   0  -1  -1 155188. 555.804   2
   0  -1   1 152954. 674.527  10
   0   1  -1 150646. 699.956  11
   0  -1   2 113032. 734.443  10
   0  -1  -2 113711. 540.570   1
   0  -1   2 114321. 651.558  16
   0  -1  -2 113461. 652.984   2
   0  -1  -2 115032. 634.325   3
   0   1   2 111557. 629.616  10
   0   1  -2 116071. 748.576  11
   0   1  -3 135975. 973.652  11
   0  -1   3 138317. 984.160  10
   0  -1  -3 132894. 882.313   2
   0   1   3 138294. 855.814  10
   0  -1   3 133769. 898.691  16
   0  -1  -3 136057. 754.421   1
   0  -1   4 40672.3 589.017  16
   0  -1   4 39576.1 614.390  10
   0  -1  -4 38550.7 444.007   3
   0  -1  -4 38001.3 551.822   2
   0  -1  -4 38967.7 488.134   1
   0   1   4 40474.5 559.305  10
   0   1  -5 13756.7 397.746   1
   0  -1  -5 14094.3 340.968   1
   0  -1   5 13990.0 424.068  10
   0   1   5 14108.8 418.678  16
   0  -1   5 13456.1 397.650  16
   0   1   5 13821.7 386.049  10
   0  -1   6 90259.4 1226.38  10
   0   1   6 90981.0 1225.32  16
   0   1  -6 94602.7 1178.15   1
   0   1   6 93892.9 1152.46  10
   0  -1   6 90935.3 1196.50  16
   0  -1   7 70316.0 1203.91  10
   0   1  -7 70064.4 1098.08   1
   0  -1  -7 70752.6 862.962  18
   0  -1   7 69294.7 828.216  14
   0   1   7 71241.8 1201.19  16
   0   1  -7 69637.7 859.166   9
   0  -1   7 70656.2 1184.51  16
   0   1  -7 71872.7 828.479   8
   0  -1  -7 71650.1 856.220   8
   0   1   7 70565.9 1124.25  10
   0  -1  -7 68703.4 829.682   9
   0  -1  -8 55014.2 766.032   9
   0  -1  -8 56805.5 792.780   8
   0   1  -8 56712.7 753.707   8
   0  -1   8 55059.4 757.551  14
   0  -1  -8 55017.7 790.289  18
   0   1  -8 56568.9 808.199   9
   0  -1  -9 291.981 55.7406   8
   0   1  -9 319.238 57.5410   9
   0  -1   9 328.742 53.8111  14
   0  -1  -9 455.932 65.7634   9
   0   1  -9 340.050 55.3673   8
   0   1 -10 3088.63 137.602   8
   0   1 -10 3491.54 161.963   9
   0  -1 -10 3333.45 154.348   8
   0  -1 -10 3210.11 143.216   9
   0   1 -11 153.723 23.3980   9
   0   2   0 956877. 2010.07  11
   0  -2  -1 831003. 1514.50   2
   0  -2   1 868621. 2032.10  10
   0  -2   1 830265. 1696.62   3
   0   2  -1 834848. 2101.77  11
   0  -2   1 857632. 1434.68  16
   0   2  -2 4639.53 178.355  11
   0  -2  -2 4659.69 117.890   1
   0  -2   2 4811.80 139.398  16
   0  -2   2 4858.14 178.872  10
   0  -2  -2 4712.25 138.794   2
   0  -2   3 491.579 54.7947  16
   0  -2  -3 498.505 55.1083   2
   0   2  -3 626.140 44.6637  17
   0  -2   3 679.084 76.8862  10
   0   2  -3 618.820 73.9744  11
   0  -2  -3 554.034 62.2846   3
   0   2   3 525.800 54.8972  10
   0  -2  -3 520.484 44.5045   1
   0  -2   4 2434.67 167.737  10
   0   2  -4 2412.61 165.311  11
   0   2   4 2890.98 129.081  17
   0  -2  -4 2189.76 135.076   2
   0  -2   4 2353.31 146.345  16
   0  -2  -4 2352.46 136.451   3
   0   2   4 2409.25 136.747  10
   0  -2   5 16902.5 457.491  16
   0   2   5 17287.3 425.111  10
   0  -2   5 16871.7 504.437  10
   0   2   5 16671.4 473.740  16
   0  -2  -5 16335.9 382.836   3
   0   2  -6 11957.8 455.047   1
   0  -2  -6 12327.5 340.874   8
   0  -2   6 12259.4 325.504   5
   0  -2   6 12214.4 346.145  14
   0  -2   6 11712.2 430.094  16
   0   2  -6 12396.3 337.523   9
   0  -2   6 12536.4 492.376  10
   0  -2  -6 12524.8 352.631  18
   0   2   6 12514.8 412.370  10
   0   2   6 12449.9 464.498  16
   0  -2  -7 40246.8 608.721   9
   0  -2   7 39561.7 654.073  14
   0   2  -7 40032.1 602.329  12
   0  -2  -7 40135.4 659.322   8
   0   2  -7 43041.7 934.649   1
   0   2   7 41474.2 932.126  16
   0  -2  -7 39948.4 672.942  18
   0  -2   7 40236.5 950.514  10
   0  -2   7 38555.1 605.823   5
   0   2  -7 40426.5 658.625   9
   0   2  -7 41776.1 612.384   8
   0  -2  -8 15021.7 373.770   9
   0   2  -8 14628.3 352.035  12
   0   2  -8 15160.6 408.962   9
   0  -2  -8 15398.8 414.361   8
   0  -2   8 15092.1 370.206   5
   0  -2  -8 15663.5 433.293  18
   0   2  -8 14776.0 366.494   8
   0  -2   8 15467.0 403.639  14
   0  -2   9 4665.91 197.653  14
   0  -2  -9 4893.00 217.182   8
   0   2  -9 4872.55 216.735   9
   0  -2  -9 4434.57 182.020   9
   0   2  -9 4985.87 193.878   8
   0   2 -10 291.776 44.0325   9
   0  -2 -10 207.798 34.8557   8
   0  -3   0-3.28162 6.17956   2
   0   3   0 114.915 29.0102  11
   0  -3  -1 129607. 985.385   3
   0  -3  -1 126068. 664.231   2
   0  -3   1 125857. 870.218   3
   0   3   1 128722. 892.568  11
   0   3  -1 127462. 990.227  11
   0  -3   1 129332. 947.519  10
   0  -3  -2 52941.8 489.788   2
   0  -3   2 51854.5 452.079  16
   0   3   2 54152.0 600.375  11
   0  -3   2 53024.1 679.780  10
   0   3  -2 52534.0 698.861  11
   0  -3  -2 51458.2 666.117   3
   0   3   3 18441.0 369.749  11
   0  -3   3 18100.0 449.868  10
   0   3  -3 16320.3 315.356  17
   0   3   3 19145.0 351.066  10
   0  -3  -3 17204.2 409.439   3
   0  -3  -3 17547.4 334.391   2
   0   3   4 5140.45 217.150  17
   0  -3  -4 5182.30 208.266   2
   0  -3   4 5047.27 268.518  10
   0   3  -4 5643.87 278.004  11
   0  -3  -4 5223.25 240.740   3
   0  -3  -5 19740.3 496.834   3
   0   3   5 19647.4 536.906  16
   0  -3   5 20733.0 609.278  10
   0   3  -5 21184.3 607.139  11
   0  -3   6 9582.79 309.539   5
   0   3  -6 9550.12 298.578   9
   0   3  -6 9479.67 299.345  12
   0   3  -6 10219.0 445.973   1
   0  -3  -6 9645.03 317.084   8
   0  -3   6 9562.60 320.906  14
   0  -3  -6 9428.34 322.151  18
   0  -3   6 9373.78 444.213  10
   0   3   6 9427.57 417.258  16
   0   3  -7 94991.1 973.479  12
   0   3  -7 95905.8 991.329   9
   0  -3   7 93958.5 1033.26  14
   0  -3  -7 94990.7 1035.64   8
   0  -3  -7 96821.9 1081.81  18
   0  -3   7 93852.7 996.214   5
   0  -3   8 23249.2 472.693   5
   0  -3  -8 21836.0 504.818  18
   0  -3   8 22324.9 481.384  14
   0  -3  -8 22503.3 490.751   8
   0   3  -8 22238.3 446.159  12
   0   3  -8 22141.8 468.937   9
   0  -3  -9 4553.45 196.985   8
   0   3  -9 4325.53 185.706   9
   0   3  -9 4346.36 164.723  12
   0  -3   9 4334.51 182.043  14
   0  -3   9 4462.09 174.489   5
   0   3 -10 1304.84 76.9840   9
   0  -3 -10 1414.43 85.4871   8
   0  -4   0 151071. 1222.96   3
   0   4   0 149720. 1188.46  11
   0  -4   1 433999. 1963.84   3
   0  -4  -1 428579. 2146.39   3
   0   4  -1 425990. 2126.16  11
   0   4   1 429066. 1941.32  11
   0   4  -2 43575.3 731.539  11
   0  -4   2 45167.3 723.911  10
   0  -4  -2 44965.8 731.624   3
   0   4  -3 31220.7 672.224  11
   0  -4   3 29690.0 646.370  10
   0  -4  -3 29911.8 634.774   3
   0  -4   4 20284.7 586.203  10
   0   4  -4 20657.8 595.683  11
   0  -4  -4 19918.8 544.315   3
   0   4   4 19679.9 502.676  17
   0  -4  -5 6240.00 247.720   8
   0  -4   5 6379.07 263.060  14
   0  -4  -5 5962.26 209.154   4
   0  -4  -5 6232.56 251.691  18
   0   4  -5 6046.74 240.945  12
   0   4  -5 6515.76 363.790  11
   0  -4  -5 6313.87 274.757   7
   0  -4   5 6253.08 356.884  10
   0  -4   5 6220.72 250.286   5
   0  -4  -5 6471.65 322.466   3
   0   4  -6 6354.52 256.658  12
   0  -4   6 6134.34 266.636  14
   0  -4   6 6713.84 271.513   5
   0  -4  -6 6254.80 259.605   8
   0  -4  -6 6519.80 273.357  18
   0  -4   7 26484.7 545.659  14
   0  -4  -7 26331.5 555.699  18
   0  -4   7 25745.4 529.438   5
   0  -4  -7 25807.6 526.797   8
   0   4  -7 26927.9 519.651  12
   0   4  -8 12370.8 302.325   9
   0  -4   8 12617.2 339.287   5
   0  -4   8 12679.1 345.442  14
   0  -4  -8 12942.0 347.475   8
   0   4  -8 12548.7 324.663  12
   0   4  -9 11543.4 250.760  12
   0  -4  -9 11710.0 277.351   8
   0  -4   9 11810.8 265.778   5
   0  -4   9 11903.0 270.137  14
   0  -5   0 17.4883 10.2625   3
   0  -5  -1 6539.70 311.413   3
   0   5  -1 5947.97 284.321  11
   0  -5   2 22916.2 466.384  14
   0  -5  -2 22921.8 424.324   4
   0  -5  -2 22752.7 606.420   3
   0   5  -2 22165.8 590.673  11
   0   5  -2 21862.2 551.218  17
   0   5   3 14245.9 482.102  17
   0   5  -3 14028.7 498.757  11
   0  -5   3 15135.1 396.232  14
   0  -5  -3 14579.7 346.734   4
   0   5  -3 14291.3 346.382  12
   0  -5  -3 14282.8 392.935   7
   0  -5  -3 15061.8 514.043   3
   0  -5   3 14734.0 365.954   5
   0  -5   4 18063.1 429.271   5
   0   5  -4 18450.2 605.074  11
   0   5   4 17190.4 533.229  17
   0  -5  -4 17872.4 406.186   8
   0   5  -4 17959.7 411.464  12
   0  -5   4 18575.2 457.042  14
   0  -5  -4 17726.9 460.327   7
   0  -5  -4 17255.9 568.079   3
   0  -5   4 17621.9 591.743  10
   0  -5  -4 17471.8 387.805   4
   0  -5  -5 20281.9 447.320   8
   0  -5   5 20260.5 471.768   5
   0  -5   5 20898.9 495.345  14
   0  -5  -5 20064.1 451.854  18
   0  -5  -5 20463.0 413.389   4
   0   5  -5 19885.8 448.862  12
   0  -5  -5 21171.1 526.151   7
   0  -5   6 35169.9 636.779  14
   0  -5  -6 35379.7 513.327   4
   0   5  -6 35656.6 599.315  12
   0  -5  -6 33665.5 601.804  18
   0  -5  -6 34683.9 587.278   8
   0  -5   6 34529.7 613.560   5
   0  -5   7 46144.7 679.127  14
   0  -5   7 46574.5 675.756   5
   0  -5  -7 44892.3 631.571   8
   0   5  -7 46600.1 647.151  12
   0  -5  -8 7787.47 228.056   8
   0   5  -8 8177.21 233.983  12
   0  -5   8 8363.28 248.125  14
   0  -5   8 8145.03 244.964   5
   0  -5   9 5613.33 149.916   5
   0   5  -9 5390.66 139.226  12
   0   6   0 207440. 1975.56  17
   0  -6   0 202921. 1306.42   4
   0  -6   0 205012. 1427.75  14
   0  -6   1 18497.4 379.916   4
   0  -6   1 17168.6 424.439  14
   0  -6  -1 17990.9 399.729   4
   0  -6  -1 17622.5 418.611   7
   0   6   1 18573.5 599.315  17
   0   6  -1 18070.3 573.980  17
   0  -6  -1 18097.8 415.880  14
   0  -6   2 24804.7 521.954  14
   0  -6  -2 24949.8 479.388   4
   0   6  -2 24394.3 644.114  17
   0  -6  -2 22924.9 501.301   7
   0  -6  -2 24767.2 475.331  14
   0  -6   3 18581.1 418.033   5
   0  -6  -3 18200.1 461.537   7
   0  -6  -3 18218.5 411.909   4
   0  -6   3 19096.3 467.209  14
   0   6  -3 18789.4 399.921  12
   0  -6  -4 15667.0 437.797   7
   0  -6   4 15411.1 422.337  14
   0  -6  -4 15458.4 372.669   4
   0  -6   4 15105.6 389.750   5
   0   6  -4 15386.7 376.440  12
   0  -6  -5 6140.15 224.969   4
   0  -6   5 6132.27 247.765   5
   0  -6  -5 6562.03 280.464   7
   0  -6   5 6422.34 266.600  14
   0   6  -5 6237.19 238.493  12
   0  -6  -6 8294.04 232.136   4
   0  -6   6 8563.81 285.692  14
   0  -6   6 8609.29 279.339   5
   0   6  -6 8470.57 264.413  12
   0  -6  -6 8418.24 244.217   8
   0  -6  -7 8368.25 208.834   8
   0   6  -7 8679.15 237.235  12
   0  -6   7 8406.02 247.471  14
   0  -6   7 8406.47 244.307   5
   0  -6   8 21905.1 308.554  14
   0  -6   8 22059.3 316.127   5
   0   6  -8 21698.2 298.322  12
   0  -7   0-13.3348 9.41029  14
   0  -7   0 40.9058 15.5534   4
   0  -7  -1 4081.66 192.935  14
   0  -7   1 4008.47 200.779  14
   0  -7   1 4052.27 174.291   4
   0  -7  -1 4203.96 192.161   4
   0  -7  -2 3572.71 178.223   4
   0  -7   2 3765.67 197.765  14
   0  -7  -2 3489.55 182.834   7
   0  -7   3 2098.69 146.265  14
   0  -7  -3 2113.17 134.593   4
   0  -7  -3 2019.06 141.702   7
   0  -7   4 13297.6 312.320   5
   0  -7  -4 13540.3 322.454   4
   0  -7  -4 12937.1 355.303   7
   0   7  -4 13645.4 300.466  12
   0  -7   5 4325.15 187.219  14
   0   7  -5 4303.72 161.097  12
   0  -7   5 4228.02 168.916   5
   0  -7  -5 4332.97 164.687   4
   0  -7   6 6882.90 206.416  14
   0   7  -6 6948.42 182.537  12
   0  -7  -6 7029.88 169.879   4
   0  -7   6 6915.34 191.765   5
   0  -7   7 9213.39 183.615  14
   0  -8   0 51549.4 556.336   4
   0  -8   0 50443.8 585.462  14
   0  -8  -1 22408.0 380.107   4
   0  -8   1 21614.5 393.390  14
   0  -8   2 324.056 46.6077  14
   0  -8  -2 426.341 52.4351   4
   0  -8   3 3231.23 145.318  14
   0  -8  -3 3227.76 137.200   4
   0  -8  -4 5181.90 157.386   4
   0  -8   4 5018.13 165.767  14
   0  -8  -5 3941.86 109.890   4
   0  -8   5 3908.62 122.457  14
   1   0 -11 11346.2 204.950   9
   1   0 -10 4620.03 175.102   8
   1   0 -10 4760.71 191.519   9
   1   0  -9 2386.87 149.975   8
   1   0  -9 2240.65 153.832   9
   1   0  -8 3530.83 189.204   8
   1   0  -8 3115.34 187.286   9
  -1   0   7 22831.9 662.659  16
   1   0  -7 24226.0 501.775   9
   1   0  -7 23660.9 471.464   8
  -1   0   7 22607.2 658.528  10
  -1   0   6 56576.6 928.505  16
  -1   0   6 57603.5 940.100  10
   1   0  -6 59388.0 833.034   1
  -1   0   5 39220.7 673.607  10
   1   0  -5 38426.3 583.880   1
  -1   0   5 40087.5 679.001  16
   1   0  -4 10755.3 206.531   3
   1   0  -4 10411.0 296.690   2
  -1   0   4 10621.4 300.035  10
   1   0  -3 87258.3 740.609   2
  -1   0   3 85329.8 381.320  17
  -1   0   3 85300.6 725.079  10
   1   0  -3 86862.9 554.249   3
   1   0  -3 86666.3 663.119  11
  -1   0   2 85165.8 597.708  10
  -1   0   2 86168.3 405.575  17
   1   0  -1 275462. 700.233  11
   1   0  -1 276307. 867.310   2
  -1   0   0 121803. 482.626   1
   1   0   0 120887. 504.712  16
  -1   0  -1 109024. 432.269  17
  -1   0  -1 107850. 564.310   1
   1   0   1 109468. 513.120  10
   1   0   1 106880. 591.914  16
  -1   0  -2 231919. 1031.96   1
  -1   0  -2 231853. 614.967  17
   1   0   2 232685. 981.420  10
   1   0   2 234096. 1067.17  16
   1   0   3 13069.6 305.925  16
  -1   0  -3 12573.7 285.733   1
   1   0   3 12591.9 280.294  10
  -1   0  -4 13727.9 347.241   1
   1   0   4 14307.6 372.921  16
   1   0   4 13779.6 347.597  10
   1   0   5 4591.74 232.945  10
  -1   0  -5 4784.30 232.864   1
   1   0   5 4614.43 246.410  16
   1   0   6 6642.49 320.804  10
  -1   0  -6 6902.44 311.195   1
   1   0   6 6796.22 344.051  16
  -1   0  -7 50863.3 718.770   8
  -1   0  -7 49063.0 676.719  18
  -1   0  -7 48939.7 910.831   1
   1   0   7 48329.5 1023.08  16
   1   0   7 49278.8 977.205  10
  -1   0  -7 49969.0 721.378   9
  -1   0  -8 2.18463 4.29824   9
  -1   0  -8 68.7641 33.8221   8
  -1   0  -9 20966.7 450.350   8
  -1   0  -9 20707.0 452.361   9
   1   0   9 20621.7 429.124  14
  -1   0 -10 4670.56 178.316   8
  -1   0 -10 4800.57 182.818   9
   1   1 -11 487.527 42.7609   9
   1   1 -10 7461.11 201.003   8
   1   1 -10 7666.83 242.931   9
   1  -1 -10 6736.93 211.929   9
   1  -1 -10 6984.31 222.338   8
   1  -1  -9 23542.1 479.517   9
   1   1  -9 24216.8 449.926   8
   1   1  -9 25129.9 514.538   9
   1  -1  -9 24312.6 489.202   8
   1   1  -8 73510.5 918.946   9
   1   1  -8 71537.7 819.463   8
   1  -1  -8 70239.3 873.520   9
   1  -1  -8 71150.1 876.445   8
   1  -1  -7 39890.4 662.222  18
   1  -1  -7 38482.6 622.772   8
   1   1  -7 41004.1 603.682   8
   1   1  -7 38557.3 640.922   9
   1  -1  -7 39861.0 632.820   9
  -1   1   7 40225.5 860.271  10
  -1   1   7 40610.8 894.714  16
   1   1  -7 41905.5 840.454   1
  -1  -1   7 38802.2 895.461  10
  -1  -1   7 37574.0 834.443  16
  -1  -1   6 1180.80 140.160  10
  -1   1   6 1390.71 143.794  10
   1   1  -6 1387.28 139.201   1
  -1  -1   6 1456.14 146.320  16
  -1   1   6 1353.84 145.700  16
   1  -1  -5 38462.0 520.348   3
  -1   1   5 37667.9 650.966  10
  -1  -1   5 36598.1 633.994  16
  -1  -1   5 38854.9 701.302  10
   1  -1  -5 37352.9 653.841   2
   1  -1  -4 52175.1 682.952   2
   1   1  -4 51281.2 649.609   2
   1   1  -4 49740.9 661.651  11
   1  -1  -4 49081.2 549.252   3
  -1  -1   4 50722.4 631.970  16
   1  -1  -4 50605.9 491.028   1
  -1  -1   4 50173.2 689.182  10
  -1   1   4 51240.5 659.172  10
  -1   1   3 21265.5 275.513  17
   1  -1  -3 21172.4 375.803   2
  -1  -1   3 21664.5 382.430  10
   1  -1  -3 20237.6 318.646   3
   1   1  -3 20877.4 359.265   2
   1  -1  -3 21933.5 253.230   1
   1   1  -3 21119.9 377.777  11
   1  -1  -2 97748.6 340.275   1
   1  -1  -2 100629. 696.844   2
   1   1  -2 100540. 716.462  11
   1  -1  -2 98316.6 643.312   3
  -1   1   2 104496. 590.343  17
   1   1  -2 102641. 647.514   2
  -1  -1   2 102381. 682.832  10
   1   1  -1 164486. 596.595   2
   1  -1  -1 166925. 783.264   2
  -1  -1   1 162887. 641.033  10
   1   1  -1 168795. 808.783  11
  -1   1   1 166613. 715.695  17
  -1  -1   0 548708. 1364.71   1
   1  -1   0 554876. 1203.24   3
  -1   1   0 537094. 1228.60  17
   1   1   0 547528. 820.075  16
  -1   1   0 547674. 1015.77   1
   1  -1   0 539365. 1341.18  16
  -1   1   0 555384. 935.167  11
   1   1   0 550321. 1377.41  11
   1  -1   1 168691. 796.591  16
  -1   1  -1 165940. 766.612   1
  -1   1  -1 164534. 753.407  11
  -1   1  -1 164345. 652.003  17
  -1  -1  -1 163405. 763.533   1
   1  -1   1 165963. 826.819  10
   1  -1   1 160841. 558.116   3
   1   1   1 165013. 686.364  16
   1   1   1 164679. 411.590  10
  -1  -1  -2 87868.9 634.701   1
   1   1   2 88590.2 511.942  10
   1   1   2 89997.0 658.991  16
  -1   1  -2 86886.8 676.591   1
  -1  -1  -2 86950.0 571.654   3
   1  -1   2 89757.8 700.660  16
   1  -1   2 89795.0 715.670  10
  -1   1  -2 88618.8 443.240  17
   1   1   3 25675.2 427.348  16
   1  -1   3 25524.7 440.428  16
  -1  -1  -3 25307.0 334.313   3
   1  -1   3 25626.9 447.034  10
   1   1   3 25499.9 360.046  10
  -1   1  -3 24532.8 428.871   1
  -1  -1  -3 24735.2 388.964   1
   1  -1   4 111716. 1071.41  10
   1   1   4 111737. 1053.11  16
  -1  -1  -4 112280. 954.364   1
   1  -1   4 111309. 1068.59  16
   1   1   4 110143. 913.933  10
  -1   1  -4 110224. 1037.69   1
   1   1   5 34460.3 604.702  10
  -1  -1  -5 35498.7 609.592   1
  -1   1  -5 35165.6 677.782   1
   1  -1   5 35468.5 691.556  10
   1   1   5 34079.0 675.602  16
  -1   1  -6 541.939 93.2850   1
   1  -1   6 525.386 95.6011  16
   1  -1   6 497.240 93.5982  10
   1   1   6 542.118 97.2347  16
   1   1   6 698.152 98.3701  10
  -1  -1  -6 626.556 88.1567   1
   1  -1   7 6081.20 357.969  16
  -1   1  -7 5835.09 256.054  13
   1  -1   7 6183.22 360.117  10
   1   1   7 6427.10 372.247  16
  -1  -1  -7 6348.43 257.991   8
  -1   1  -7 6150.11 256.680   9
  -1  -1  -7 6065.63 252.861  18
  -1  -1  -7 5991.91 243.222   9
  -1   1  -7 6339.45 343.866   1
  -1  -1  -8 8070.12 289.104   9
  -1   1  -8 8228.44 291.364   8
  -1   1  -8 8465.28 309.385   9
  -1  -1  -8 8629.95 306.337  18
  -1  -1  -8 8822.09 309.488   8
   1  -1   8 8288.81 302.760  14
  -1  -1  -9 5490.37 229.695   8
  -1   1  -9 5533.12 235.488   9
   1  -1   9 5375.68 222.150  14
  -1  -1  -9 5394.40 219.667   9
  -1   1  -9 5506.12 223.346   8
   1   1   9 5203.15 204.583  14
  -1  -1 -10 13497.4 277.728   9
  -1   1 -10 14067.9 293.026   8
  -1  -1 -10 14508.8 313.518   8
   1  -1  10 14202.0 275.988  14
  -1   1 -10 14203.8 314.919   9
   1   2 -10 4676.72 177.274   9
   1  -2 -10 4559.26 173.975   8
   1  -2  -9 184.968 42.5578   8
   1  -2  -9 177.622 37.2985   9
  -1  -2   8 6479.39 247.080  14
  -1  -2   8 6230.75 235.446   5
   1   2  -8 5946.71 257.363   9
   1  -2  -8 6464.77 246.794   9
   1  -2  -8 6223.26 262.674   8
   1   2  -8 6062.22 231.604  12
   1   2  -7 20650.1 629.248   1
   1   2  -7 19168.8 420.608  12
   1  -2  -7 19840.5 463.538   8
  -1   2   7 19988.3 647.894  16
  -1   2   7 20567.8 605.991  10
  -1  -2   7 20212.3 446.957  14
   1   2  -7 19966.2 459.544   9
  -1  -2   7 20615.1 679.453  10
   1  -2  -7 20079.4 481.770  18
  -1  -2   7 19110.4 423.902   5
   1  -2  -7 19246.6 427.920   9
   1  -2  -6 27915.7 639.201   2
   1   2  -6 26984.9 477.224  12
  -1   2   6 28292.0 696.798  16
  -1  -2   6 27730.4 720.923  10
  -1   2   6 27848.5 645.217  10
   1  -2  -6 28481.0 533.523  18
   1  -2  -6 28841.3 519.167   8
   1   2  -6 27176.4 501.563   9
   1  -2  -5 12155.0 349.804   3
   1  -2  -5 11568.7 376.243   2
  -1  -2   5 12159.2 362.706  16
   1   2  -5 12443.8 419.019  11
  -1   2   5 12605.2 382.775  10
  -1  -2   5 12061.1 421.608  10
  -1   2   4 12063.5 273.241  17
   1  -2  -4 12087.4 341.103   2
  -1   2   4 12395.6 338.842  10
   1   2  -4 11582.3 362.596  11
  -1  -2   4 12146.3 370.222  10
  -1  -2   4 11477.4 296.386  16
   1  -2  -4 11723.1 317.744   3
  -1  -2   3 2747.66 116.839  16
   1   2  -3 2684.97 155.240  11
   1  -2  -3 2820.91 144.284   2
  -1   2   3 2620.29 126.437  17
   1  -2  -3 2795.74 143.826   3
  -1  -2   3 2745.36 152.506  10
   1  -2  -2 143132. 945.760   3
  -1  -2   2 141098. 915.101  10
  -1  -2   2 141606. 597.243  16
  -1   2   2 141341. 897.860  17
   1  -2  -2 143184. 919.691   2
   1   2  -2 142017. 1019.87  11
   1  -2  -1 233784. 1069.33   2
  -1  -2   1 228413. 935.982  10
  -1   2   1 237918. 699.969  11
   1   2  -1 235107. 1210.87  11
   1  -2  -1 230266. 1103.09   3
  -1   2   1 233604. 1104.59  17
  -1   2   0 115259. 606.750  11
  -1   2   0 114495. 746.079  17
   1   2   0 113464. 815.217  11
   1  -2   0 112128. 713.055  16
   1  -2   0 112078. 704.950   3
   1  -2   0 113390. 738.127   2
   1  -2   1 65215.6 565.106  16
  -1   2  -1 64752.2 547.372  17
   1   2   1 66199.6 620.888  11
  -1  -2  -1 62770.8 583.560   3
   1  -2   1 67315.8 648.032  10
  -1  -2  -1 64108.3 573.440   1
   1   2   1 66062.1 443.611  16
  -1   2  -1 64405.8 562.772  11
   1  -2   1 64427.6 485.967   3
  -1   2  -2 36482.8 391.426  17
  -1  -2  -2 35318.8 442.590   1
  -1   2  -2 37495.1 506.377  11
  -1  -2  -2 36792.8 476.302   3
   1  -2   2 36987.2 479.113  16
   1  -2   2 36169.0 525.293  10
   1   2   2 37728.6 305.574  10
   1   2   2 36615.3 436.070  16
   1  -2   2 37449.8 301.238   3
  -1   2  -3 11187.3 197.497  17
   1  -2   3 10733.8 295.438  16
   1   2   3 11673.2 228.510  10
  -1  -2  -3 11911.2 289.269   3
   1   2   3 11631.8 298.585  16
   1  -2   3 10992.8 329.578  10
  -1  -2  -3 11045.0 270.861   1
  -1   2  -3 11551.9 329.141  11
   1   2   4 18530.1 443.968  16
  -1  -2  -4 19463.2 401.644   1
   1  -2   4 19075.3 452.916  16
  -1  -2  -4 18483.5 382.031   3
   1   2   4 19595.9 364.849  10
  -1   2  -4 18510.6 460.504   1
   1  -2   4 19065.6 490.098  10
   1  -2   5 14597.8 482.627  10
   1   2   5 14764.1 457.449  16
  -1   2  -5 14389.2 457.879   1
   1  -2   5 14522.8 451.815  16
   1   2   6 14017.7 503.793  16
  -1   2  -6 14729.2 515.000   1
  -1  -2  -6 14367.9 380.974  18
  -1   2  -6 14115.3 343.075  12
   1  -2   6 15202.5 543.772  10
  -1  -2  -6 14263.2 370.252   8
   1  -2   6 14606.3 387.458  14
   1  -2   6 14096.0 351.276   5
  -1   2  -6 14052.6 363.663  13
   1  -2   6 14402.5 502.433  16
   1  -2   7 3894.19 281.987  16
  -1  -2  -7 4608.59 205.804   9
  -1   2  -7 4524.68 221.162   9
   1  -2   7 4154.85 199.666   5
   1  -2   7 4594.57 322.870  10
  -1   2  -7 4471.87 198.698  12
   1   2   7 4481.12 315.132  16
  -1  -2  -7 4428.77 225.577  18
  -1  -2  -7 4488.97 221.382   8
  -1   2  -7 4492.32 299.998   1
   1  -2   7 4555.42 229.337  14
  -1   2  -8 23354.8 505.475   9
  -1  -2  -8 23397.5 501.092   8
  -1   2  -8 23644.0 479.059   8
  -1  -2  -8 21571.4 439.877   9
  -1   2  -8 22774.4 426.208  12
  -1  -2  -8 22579.9 508.032  18
   1  -2   8 22688.7 453.751   5
   1  -2   8 22818.2 508.101  14
  -1  -2  -9 3174.37 170.464   8
  -1   2  -9 3127.88 169.685   9
  -1   2  -9 3073.20 156.609   8
   1  -2   9 3184.55 167.328  14
  -1   2 -10 1232.63 75.5676   8
  -1   2 -10 1278.04 88.2722   9
   1  -2  10 1342.08 81.8584  14
  -1  -2 -10 1194.00 84.8248   8
   1   3 -10 4765.64 147.940   9
   1  -3 -10 5142.83 167.499   8
   1   3  -9 3780.00 172.707   9
  -1  -3   9 3674.46 156.124  14
  -1  -3   9 4075.17 165.958   5
   1   3  -9 3600.20 155.057  12
   1  -3  -9 3868.30 183.074   8
   1   3  -8 3690.49 191.328   9
   1   3  -8 3528.95 180.609  12
  -1  -3   8 3444.31 181.287  14
   1  -3  -8 3657.79 199.608   8
  -1  -3   8 3502.08 183.917   5
  -1  -3   7 101479. 1034.96   5
  -1  -3   7 103047. 1041.46  14
   1  -3  -7 102172. 1076.87   8
   1   3  -7 103120. 1022.40  12
   1   3  -7 101475. 1014.32   9
   1   3  -6 16420.2 390.344   9
  -1   3   6 16881.5 560.981  16
   1  -3  -6 16356.5 427.505  18
  -1  -3   6 16685.3 409.135  14
   1  -3  -6 16540.1 414.613   8
  -1  -3   6 16761.2 411.772   5
  -1  -3   6 16439.6 587.189  10
   1   3  -6 17326.9 405.906  12
  -1   3   5 53192.2 811.928  10
   1  -3  -5 51253.3 814.347   2
   1   3  -5 50270.6 926.398  11
  -1  -3   5 52434.5 949.658  10
   1  -3  -5 50397.0 813.152   3
  -1   3   4 37873.8 596.842  17
   1  -3  -4 40223.3 647.150   2
  -1  -3   4 37759.5 716.783  10
  -1   3   4 40915.5 652.499  10
   1   3  -4 39895.7 756.483  11
   1  -3  -4 39734.3 686.775   3
  -1   3   3 18181.0 407.369  17
   1  -3  -3 18158.2 390.673   2
   1  -3  -3 18450.9 435.200   3
  -1  -3   3 17929.8 431.498  10
   1   3  -3 18075.5 458.010  11
   1  -3  -2 35120.2 495.851   2
  -1  -3   2 34909.0 516.301  10
   1  -3  -2 35489.9 564.541   3
   1   3  -2 36266.1 606.306  11
  -1   3   2 35284.9 549.892  17
  -1   3   1 114960. 955.266  17
   1  -3  -1 116304. 953.818   3
   1   3  -1 117426. 1024.31  11
   1  -3  -1 115599. 856.064   2
  -1   3   1 118326. 700.136  11
   1  -3   0 67941.1 668.926   2
  -1   3   0 68199.9 721.980  17
   1   3   0 68426.6 752.290  11
  -1   3   0 70906.4 610.407  11
  -1  -3   0 72528.2 726.676   3
   1  -3   0 72869.6 709.327   3
   1   3   1 149946. 1130.53  11
  -1   3  -1 145240. 1004.65  11
  -1   3  -1 146169. 1033.20  17
  -1  -3  -1 142057. 1077.93   3
   1  -3   1 140242. 918.394   3
   1  -3   1 139619. 1120.51  10
   1  -3   1 144675. 923.955  16
   1   3   1 142230. 668.449  16
   1  -3   2 1180.87 74.2994   3
   1   3   2 1121.97 99.8135  11
   1  -3   2 1144.27 90.3089  16
  -1   3  -2 1123.64 99.6708  11
   1  -3   2 1209.27 112.548  10
   1   3   2 1190.93 81.6786  16
  -1  -3  -2 1129.87 100.268   3
  -1   3  -2 1182.21 90.2693  17
  -1  -3  -3 62285.0 793.292   3
  -1  -3  -3 62084.6 687.580   1
   1  -3   3 64839.7 765.259  16
  -1   3  -3 63579.4 851.571  11
   1  -3   3 60767.2 866.769  10
  -1   3  -3 62968.9 626.659  17
   1   3   3 61957.8 722.355  16
   1   3   3 61207.4 792.673  11
   1  -3   4 53477.6 903.860  10
   1   3   4 52245.4 779.138  16
   1  -3   4 52601.1 782.240  16
  -1   3  -4 52581.4 847.361   1
  -1  -3  -4 52585.0 764.872   3
   1  -3   5 3619.94 192.494  14
  -1  -3  -5 3646.82 186.127  18
   1   3   5 3702.03 235.319  16
   1  -3   5 3533.48 176.304   5
   1  -3   5 3239.43 245.173  10
  -1   3  -5 3575.42 247.665   1
  -1   3  -6 3431.46 262.647   1
   1   3   6 3204.16 246.450  16
  -1  -3  -6 3123.31 193.963   7
   1  -3   6 3261.53 181.886   5
  -1   3  -6 3533.36 184.464  12
  -1  -3  -6 3070.13 178.756   8
   1  -3   6 3472.38 275.391  10
   1  -3   6 3240.57 194.149  14
  -1  -3  -6 3216.24 187.881  18
  -1   3  -6 3192.94 174.734   9
  -1  -3  -7 1816.16 147.587  18
  -1   3  -7 1712.30 132.680   9
  -1   3  -7 1885.27 135.437  12
   1  -3   7 1838.11 140.002   5
  -1  -3  -7 1829.77 141.924   8
   1  -3   7 1821.90 146.927  14
  -1   3  -8 15271.5 359.792  12
  -1  -3  -8 15775.6 400.961   8
   1  -3   8 16360.4 418.312  14
  -1   3  -8 15978.6 395.100   9
  -1  -3  -8 16348.0 427.615  18
  -1   3  -8 15911.7 363.254   8
   1  -3   8 16159.7 390.154   5
  -1   3  -9 203.924 32.9482  12
  -1   3  -9 162.655 30.8947   8
  -1   3  -9 217.609 39.7274   9
   1  -3   9 220.961 38.6576   5
  -1  -3  -9 170.964 36.2796   8
   1  -3   9 234.449 42.1422  14
   1  -3  10 409.873 40.0012  14
  -1   3 -10 343.702 37.1549   9
  -1  -3 -10 417.898 43.2675   8
  -1  -4   9 751.769 66.3734   5
   1  -4  -9 959.839 82.3542   8
  -1  -4   9 760.345 63.8681  14
   1   4  -9 835.472 69.0224  12
  -1  -4   8 2439.29 145.754  14
  -1  -4   8 2557.56 153.225   5
   1  -4  -8 2497.16 153.911   8
   1   4  -8 2564.45 148.454  12
   1  -4  -7 14314.4 395.471   8
  -1  -4   7 14247.5 394.399   5
   1   4  -7 14848.2 389.333  12
  -1  -4   7 14280.2 389.898  14
   1  -4  -6 13152.6 392.902  18
  -1  -4   6 13268.3 385.396  14
   1   4  -6 13578.9 374.481  12
   1  -4  -6 13580.5 386.562   8
  -1  -4   6 13233.1 382.866   5
  -1  -4   5 25809.1 523.191  14
   1   4  -5 26858.0 735.484  11
  -1  -4   5 25376.6 698.807  10
   1  -4  -5 26337.9 562.410   7
  -1  -4   5 26785.3 524.123   5
   1  -4  -5 25289.5 509.757  18
   1  -4  -5 25456.6 426.143   4
   1  -4  -5 26427.9 516.944   8
   1  -4  -5 26816.0 667.152   3
   1   4  -5 25416.9 492.840  12
   1  -4  -4 18529.5 529.219   3
  -1  -4   4 18095.3 532.065  10
   1   4  -4 18275.0 574.465  11
  -1   4   4 17311.5 472.123  17
   1  -4  -3 35825.3 704.075   3
  -1   4   3 33804.6 657.460  17
  -1  -4   3 34042.2 654.328  10
   1   4  -3 35686.6 734.165  11
   1  -4  -2 46831.8 764.468   3
  -1  -4   2 43797.0 652.455  10
  -1   4   2 45131.0 732.619  17
   1   4  -2 45550.0 785.978  11
   1   4  -1 43140.4 723.004  11
  -1   4   1 42317.1 690.203  17
   1  -4  -1 44159.7 700.238   3
   1  -4  -1 42343.9 565.839   2
  -1   4   0 27631.3 546.435  17
   1  -4   0 26767.5 467.468   2
   1   4   0 26626.5 552.627  11
   1  -4   0 26541.1 517.544   3
  -1   4   0 27137.0 454.233  11
   1  -4   1 3666.87 183.889   2
  -1   4  -1 3937.65 193.713  11
  -1  -4  -1 3206.25 190.566   3
  -1   4  -1 3701.14 199.007  17
   1   4   1 3813.67 204.630  11
   1  -4   1 4092.42 188.705   3
   1  -4   2 18101.1 495.674  10
  -1  -4  -2 17252.8 462.164   3
   1   4   2 18061.0 457.800  11
  -1   4  -2 17996.4 428.957  17
  -1   4  -2 17974.2 457.585  11
   1   4   3 31645.9 634.318  11
  -1   4  -3 31262.1 665.428  11
   1  -4   3 31540.6 713.546  10
  -1  -4  -3 30133.1 639.195   3
   1  -4   4 2528.18 149.709   5
  -1  -4  -4 2548.23 137.170   4
  -1   4  -4 2434.36 199.895   1
   1  -4   4 2458.26 215.731  10
  -1   4  -4 2561.27 208.469  11
   1  -4   4 2754.75 165.470  14
  -1  -4  -4 2627.23 167.273   7
  -1   4  -4 2660.12 151.676  12
  -1   4  -5 3480.28 184.263  12
   1  -4   5 3262.37 182.793   5
  -1  -4  -5 3346.90 187.525  18
  -1   4  -5 3454.88 259.540   1
  -1  -4  -5 3469.22 202.711   7
  -1  -4  -5 3381.04 177.388   8
   1  -4   5 3108.84 260.953  10
   1  -4   5 3454.11 198.097  14
  -1  -4  -5 3324.90 161.707   4
  -1   4  -6 16082.1 408.614  12
  -1  -4  -6 16648.5 354.746   4
   1  -4   6 16782.7 448.351  14
  -1  -4  -6 16113.7 406.318   8
  -1  -4  -6 15925.0 428.082  18
  -1  -4  -6 16681.3 463.544   7
   1  -4   6 15786.5 416.688   5
   1  -4   7 4376.57 216.006   5
  -1   4  -7 4138.10 201.453  12
  -1  -4  -7 4037.71 213.691  18
  -1   4  -7 4251.00 191.602   9
   1  -4   7 3992.08 212.459  14
  -1  -4  -7 3835.04 196.930   8
  -1  -4  -8 10059.5 317.440  18
  -1   4  -8 10219.5 284.141  12
  -1  -4  -8 10161.7 292.672   8
   1  -4   8 10057.8 297.134   5
   1  -4   8 9949.79 305.628  14
  -1   4  -8 10157.3 268.923   9
  -1   4  -9 2989.64 118.665  12
   1  -4   9 3051.81 129.095   5
  -1  -4  -9 2822.92 124.941   8
   1  -4   9 2788.27 131.377  14
   1  -5  -9 2999.46 111.311   8
   1   5  -9 2648.52 100.889  12
  -1  -5   9 2956.68 109.667   5
   1  -5  -8 43472.8 560.724   8
  -1  -5   8 42421.3 539.141  14
   1   5  -8 44181.3 550.657  12
  -1  -5   8 43567.9 568.728   5
  -1  -5   7 10518.0 317.005  14
   1  -5  -7 11171.1 326.566   8
  -1  -5   7 11090.2 329.302   5
   1   5  -7 10748.7 311.108  12
   1   5  -6 36379.2 606.955  12
  -1  -5   6 36803.9 639.296  14
   1  -5  -6 36142.1 619.012   8
  -1  -5   6 36388.2 631.414   5
   1  -5  -5 35226.4 613.765   8
   1  -5  -5 35992.4 540.618   4
   1   5  -5 35490.4 595.528  12
  -1  -5   5 36044.2 630.331   5
  -1  -5   5 35458.9 639.672  14
   1  -5  -4 12466.1 352.777   8
   1  -5  -4 13285.5 501.729   3
   1   5  -4 12822.1 343.638  12
   1  -5  -4 12649.1 328.163   4
   1   5  -4 13414.6 528.540  11
  -1  -5   4 13034.7 370.591   5
  -1  -5   4 13588.4 388.064  14
   1  -5  -4 13547.5 399.966   7
  -1   5   4 12806.0 457.267  17
   1   5  -3 2735.55 226.366  11
   1  -5  -3 2779.35 158.188   8
   1   5  -3 2608.38 146.534  12
  -1   5   3 2591.83 205.978  17
   1  -5  -3 2984.86 157.894   4
  -1  -5   3 2806.22 161.292   5
  -1  -5   3 2799.66 171.120  14
   1  -5  -3 2838.58 222.899   3
   1  -5  -3 2790.27 170.064   7
  -1  -5   2 21451.3 456.894  14
   1   5  -2 20082.8 584.688  11
   1  -5  -2 21107.5 584.996   3
  -1   5   2 19649.3 561.274  17
   1  -5  -2 22114.8 418.906   4
   1  -5  -1 7060.41 323.657   3
   1   5  -1 7913.85 352.219  11
  -1   5   1 7029.80 332.303  17
   1   5   0 97059.9 1202.94  11
  -1   5   0 96788.0 1206.57  17
   1   5   1 31145.3 666.295  11
  -1   5  -1 29326.2 650.983  17
  -1  -5  -2 7265.13 239.225   4
   1  -5   2 7401.81 262.809  14
  -1  -5  -2 7623.17 279.570   7
  -1   5  -2 7033.02 318.289  11
  -1   5  -2 7340.45 316.778  17
  -1  -5  -2 7368.34 255.600  14
  -1   5  -3 24937.4 634.701   1
  -1   5  -3 25021.5 468.497  12
   1  -5   3 25083.4 479.283   5
  -1  -5  -3 25397.4 535.270   7
  -1  -5  -3 25334.4 464.845   4
  -1   5  -3 26250.6 667.754  11
   1  -5   3 26110.0 520.990  14
  -1  -5  -4 4139.30 196.896  18
   1  -5   4 4235.28 208.481   5
  -1   5  -4 4346.67 286.117   1
  -1  -5  -4 3945.30 186.452   4
  -1  -5  -4 4266.59 229.885   7
  -1   5  -4 3681.08 188.730  12
   1   5   4 3832.04 252.789  17
   1  -5   4 3975.86 298.066  10
   1  -5   4 4047.41 214.653  14
  -1  -5  -5 8690.99 275.330   4
   1  -5   5 8974.28 311.065   5
  -1   5  -5 9005.32 303.828  12
  -1  -5  -5 9068.85 340.310   7
  -1  -5  -5 8593.96 296.773  18
   1  -5   5 8734.06 322.779  14
  -1  -5  -6 744.744 75.6114   4
   1  -5   6 815.191 93.2814   5
  -1  -5  -6 897.591 107.187   7
  -1  -5  -6 771.067 89.0320  18
  -1   5  -6 772.742 88.5379  12
  -1  -5  -6 731.086 80.1452   8
   1  -5   6 833.991 97.6404  14
  -1  -5  -7 668.784 79.6515  18
   1  -5   7 735.381 82.3176   5
  -1   5  -7 896.766 86.9959  12
  -1  -5  -7 687.762 71.8549   8
   1  -5   7 808.222 89.4088  14
   1  -5   8 3012.19 143.970   5
   1  -5   8 2965.05 145.360  14
  -1   5  -8 3152.43 139.456  12
  -1  -5  -8 2797.91 122.291   8
   1  -5   9 6978.74 159.402  14
  -1  -6   8 1368.11 73.9359  14
   1   6  -8 1431.32 76.9287  12
  -1  -6   8 1428.69 81.2405   5
   1  -6  -7 1003.39 78.8717   8
  -1  -6   7 1036.77 87.0493   5
  -1  -6   7 955.217 82.2898  14
   1   6  -7 1056.78 81.7416  12
   1  -6  -6 2067.21 112.886   4
   1   6  -6 2117.94 131.125  12
  -1  -6   6 2096.22 140.173  14
  -1  -6   6 2368.11 147.061   5
   1  -6  -6 2118.20 131.275   8
  -1  -6   5 18881.1 434.842   5
   1  -6  -5 18794.2 386.685   4
   1   6  -5 18780.5 408.811  12
  -1  -6   5 19243.2 457.933  14
   1  -6  -5 19082.9 420.097   8
   1  -6  -4 42235.0 613.928   4
   1  -6  -4 41338.7 626.866   8
  -1  -6   4 41722.9 652.237   5
   1  -6  -4 40134.5 685.008   7
  -1  -6   4 42348.2 698.686  14
   1   6  -4 41160.2 602.224  12
   1  -6  -3 41303.7 617.779   4
   1  -6  -3 40041.3 666.099   7
  -1  -6   3 40522.9 621.016   5
  -1  -6   3 40658.1 681.730  14
   1  -6  -2 6053.29 237.308   4
   1   6  -2 5732.79 336.989  11
   1   6  -2 5800.57 318.030  17
  -1  -6   2 6259.11 264.587  14
   1  -6  -1 7135.68 362.457   3
  -1  -6   1 7344.18 236.234   4
  -1   6   1 7005.72 367.388  17
   1  -6  -1 7363.47 257.410   4
  -1  -6   1 7448.36 285.716  14
  -1  -6   0 19101.7 444.754   7
  -1  -6   0 18845.8 447.494  14
   1  -6   0 19071.2 420.377  14
   1  -6   0 18731.3 403.426   4
  -1  -6   0 19614.6 404.378   4
  -1   6   0 18767.3 590.042  17
  -1  -6  -1 17601.1 426.024  14
  -1   6  -1 17686.3 561.693  17
  -1  -6  -1 17046.5 433.522   7
   1  -6   1 17362.0 375.757   4
  -1  -6  -1 16636.6 383.637   4
   1  -6   1 17926.9 419.265  14
  -1  -6  -2 2971.59 174.363  14
  -1  -6  -2 2832.24 180.979   7
   1  -6   2 2847.75 173.900  14
  -1  -6  -2 2867.22 162.350   4
  -1  -6  -3 7074.89 294.020   7
   1  -6   3 7258.42 284.100  14
  -1   6  -3 6946.80 248.349  12
  -1  -6  -3 7380.32 263.528   4
   1  -6   3 7254.12 258.565   5
  -1   6  -4 554.554 70.8881  12
   1  -6   4 548.149 78.3962  14
  -1  -6  -4 579.099 72.2782   4
   1  -6   4 547.795 72.2801   5
  -1  -6  -4 636.877 89.9853   7
   1  -6   5 1195.22 107.158   5
   1  -6   5 1052.93 106.762  14
  -1  -6  -5 1032.28 92.1855   4
  -1  -6  -5 1181.59 119.877   7
  -1   6  -5 1051.23 97.6704  12
  -1   6  -6 2820.07 149.739  12
   1  -6   6 2881.81 163.354  14
  -1  -6  -6 2640.76 130.564   4
   1  -6   6 2725.84 152.983   5
   1  -6   7 7336.36 221.024   5
   1  -6   7 6961.77 220.076  14
  -1   6  -7 7167.24 209.025  12
  -1   6  -8 603.889 46.3567  12
   1  -6   8 511.177 45.3179  14
   1  -6   8 587.057 48.2513   5
   1   7  -6 2265.79 101.040  12
  -1  -7   6 2559.57 124.905  14
  -1  -7   6 2487.65 116.299   5
   1  -7  -6 2405.14 95.8655   4
   1   7  -5 20037.9 337.502  12
  -1  -7   5 20799.8 411.043  14
   1  -7  -5 20147.9 350.232   4
  -1  -7   5 19548.4 365.027   5
   1  -7  -4 6965.56 229.205   4
  -1  -7   4 6396.01 218.501   5
  -1  -7   4 6966.20 257.468  14
  -1  -7   3 10576.9 330.192  14
   1  -7  -3 10160.8 294.931   4
   1  -7  -2 5906.65 228.212   4
  -1  -7   2 5933.06 251.783  14
   1  -7  -1 15286.0 368.199   4
  -1  -7   1 15356.8 403.143  14
  -1  -7   0 20455.4 406.855   4
  -1  -7   0 20680.5 462.078  14
   1  -7   0 20072.0 418.215  14
   1  -7   0 20254.4 415.039   4
  -1  -7  -1 1578.94 125.309  14
   1  -7   1 1588.76 110.974   4
   1  -7   1 1574.71 120.558  14
  -1  -7  -1 1596.26 117.397   4
  -1  -7  -1 1457.67 120.917   7
  -1  -7  -2 2932.38 175.322   7
   1  -7   2 2858.01 165.163  14
  -1  -7  -2 2907.95 158.864   4
  -1  -7  -3 7873.42 257.163   4
   1  -7   3 8479.16 283.895  14
  -1  -7  -3 7928.03 289.362   7
  -1  -7  -4 9881.51 272.594   4
  -1   7  -4 9464.68 252.118  12
   1  -7   4 9383.68 254.009   5
  -1  -7  -4 9762.75 313.570   7
   1  -7   4 9707.80 293.017  14
   1  -7   5 1192.57 86.1323   5
  -1  -7  -5 1287.27 88.9800   4
  -1   7  -5 1355.58 90.4850  12
   1  -7   5 1213.77 95.4579  14
  -1   7  -6 5504.36 158.690  12
  -1  -7  -6 5314.48 145.205   4
   1  -7   6 5170.64 157.249   5
   1  -7   6 5353.50 173.981  14
  -1  -8   5 458.006 42.2611  14
  -1  -8   4 11544.0 254.382  14
   1  -8  -4 11712.1 233.461   4
   1  -8  -3 2198.53 112.911   4
  -1  -8   3 2202.33 121.470  14
  -1  -8   2 1195.37 93.3538  14
   1  -8  -2 1219.69 87.4739   4
   1  -8  -1 4915.49 178.138   4
  -1  -8   1 5245.23 199.702  14
  -1  -8   0 11684.4 255.246   4
   1  -8   0 11506.1 263.553   4
  -1  -8   0 11541.8 293.734  14
   1  -8   1 6062.00 173.841   4
  -1  -8  -1 5962.76 191.810   4
  -1  -8  -2 11779.8 269.153   4
   1  -8   2 11365.8 260.948  14
  -1  -8  -2 11577.0 273.472   7
  -1  -8  -3 2617.40 120.953   4
   1  -8   3 2451.75 116.065  14
  -1  -8  -4 2420.93 104.605   4
   1  -8   4 2291.20 101.889  14
   2   0 -10 1800.46 116.053   9
   2   0 -10 1685.11 95.7952   8
   2   0  -9 12058.3 353.652   9
   2   0  -9 11312.8 310.688   8
   2   0  -8 72854.9 908.172   9
   2   0  -8 70666.7 823.488   8
   2   0  -7 23773.7 465.869   8
  -2   0   7 24142.2 689.738  10
   2   0  -7 24189.1 509.347   9
  -2   0   7 23299.4 663.465  16
  -2   0   6 1450.84 151.972  10
   2   0  -6 1314.93 141.228   2
  -2   0   6 1349.24 142.586  16
   2   0  -5 5376.45 254.074   2
  -2   0   5 5501.60 259.593  10
   2   0  -4 211179. 1202.19  11
  -2   0   4 212927. 1413.59  10
   2   0  -4 215792. 1175.43   3
   2   0  -4 211646. 1427.22   2
  -2   0   3 119091. 677.673  17
  -2   0   3 116983. 925.401  10
   2   0  -3 119547. 922.192   2
   2   0  -2 21486.9 276.535  11
   2   0  -2 22514.2 352.309   2
  -2   0   2 22507.4 292.376  17
  -2   0   1 270913. 1042.19   1
   2   0  -1 255865. 895.853  11
   2   0  -1 263766. 1086.52  16
   2   0  -1 260777. 1072.82   2
  -2   0   1 271945. 1001.39  17
  -2   0   0 21925.5 299.492   1
   2   0   0 22866.6 304.017   2
  -2   0   0 22741.5 286.947  17
   2   0   1 12284.0 217.374  10
  -2   0  -1 12391.9 210.986  17
  -2   0  -1 12658.5 251.532   1
   2   0   2 203858. 1195.10  16
  -2   0  -2 202171. 1146.47   1
   2   0   2 203353. 1020.43  10
  -2   0  -2 204717. 851.197  17
   2   0   3 12059.9 332.018  16
   2   0   3 11709.0 289.042  10
  -2   0  -3 11986.0 201.642  17
  -2   0  -3 11835.7 314.049   1
   2   0   4 224687. 1462.03  10
  -2   0  -4 229388. 1548.45   1
   2   0   4 227706. 1655.77  16
   2   0   5 11443.9 378.704  10
  -2   0  -5 11251.7 386.361   1
   2   0   5 11505.5 421.120  16
   2   0   6 51591.8 907.966  10
   2   0   6 53398.3 1015.74  16
  -2   0  -6 53008.6 931.090   1
  -2   0  -6 55259.1 748.315  13
  -2   0  -7 509.298 96.7262   1
  -2   0  -7 447.093 64.3400  18
  -2   0  -7 440.763 72.0678  13
   2   0   7 451.076 102.983  16
  -2   0  -7 430.180 65.5481   8
  -2   0  -8 35799.4 625.107   9
  -2   0  -8 37384.3 632.476   8
  -2   0  -9 1318.77 108.928   8
   2   0   9 1446.93 113.299  14
  -2   0  -9 1314.46 109.554   9
   2   0  10 10537.7 234.085  14
  -2   0 -10 10205.4 244.270   9
  -2   0 -10 10671.2 251.767   8
   2  -1 -10 7334.12 212.961   8
   2   1 -10 7620.20 237.890   9
   2  -1 -10 7315.05 217.563   9
   2  -1  -9 9569.78 302.862   9
   2   1  -9 9473.51 311.144   9
   2  -1  -9 8869.43 284.871   8
   2  -1  -8 20373.8 470.108   9
   2   1  -8 20217.2 481.356   9
   2  -1  -8 20055.1 455.137   8
  -2   1   7 47459.5 975.899  16
  -2   1   7 49098.9 979.067  10
  -2  -1   7 48843.2 1014.63  10
   2   1  -7 46083.3 628.615  12
   2  -1  -7 46732.9 698.269   9
  -2  -1   7 44388.6 885.585  16
   2  -1  -7 44749.5 668.999   8
   2   1  -7 45725.7 705.834   9
   2  -1  -6 6463.06 321.218   2
  -2  -1   6 6185.19 323.197  10
  -2  -1   6 6062.32 296.978  16
  -2   1   6 6236.47 313.592  10
   2  -1  -5 16050.9 376.392   3
  -2   1   5 16853.3 458.264  10
  -2  -1   5 16831.4 471.254  10
   2  -1  -5 17399.5 472.838   2
  -2  -1   5 17330.9 434.605  16
   2   1  -5 17104.8 441.050  11
   2   1  -5 15810.3 431.090   2
   2  -1  -4 82080.8 793.569   3
   2  -1  -4 84682.4 926.386   2
   2   1  -4 82088.3 868.628  11
  -2  -1   4 84773.0 919.091  10
  -2   1   4 85417.5 921.361  10
   2   1  -4 83942.3 880.020   2
  -2   1   4 82934.4 647.151  17
   2  -1  -3 9401.79 252.708   3
  -2   1   3 9189.53 215.478  17
   2   1  -3 9310.22 259.631  11
   2  -1  -3 8630.15 262.224   2
   2   1  -3 9246.31 252.035   2
  -2  -1   3 9146.11 255.923  10
  -2  -1   3 9082.10 191.432  17
  -2   1   2 21749.9 323.922  17
   2  -1  -2 20417.7 372.429   2
  -2  -1   2 21782.7 330.336  10
   2  -1  -2 20798.6 348.047   3
   2   1  -2 21210.0 355.781  11
  -2  -1   2 21725.3 297.342  17
   2   1  -2 21723.2 323.834   2
   2  -1  -1 39830.3 485.389   2
   2   1  -1 41215.1 470.714  11
  -2   1   1 42065.5 437.696  17
  -2  -1   1 40785.1 359.479  10
   2   1  -1 42142.7 370.834   2
  -2  -1   1 41080.8 415.244  17
   2  -1  -1 41140.7 491.869  16
  -2   1   1 41410.4 314.317   1
  -2   1   0 21517.5 274.178   1
  -2  -1   0 22670.6 309.777  17
   2   1   0 22281.2 275.829  16
  -2   1   0 22681.8 312.553  17
   2   1   0 23060.7 348.405  11
  -2  -1   0 22543.0 349.737   1
   2  -1   0 22440.2 358.560  16
   2   1   0 21895.3 244.302   2
  -2   1  -1 48335.0 446.485  17
   2  -1   1 48009.1 533.390  10
   2   1   1 49285.2 478.584  16
  -2  -1  -1 47928.7 533.347   1
  -2  -1  -1 47873.9 457.591  17
   2  -1   1 48251.2 551.125  16
  -2   1  -1 49201.8 489.642   1
  -2  -1  -2 101795. 834.178   1
  -2   1  -2 105922. 845.004   1
  -2   1  -2 103257. 630.267  17
   2  -1   2 104185. 856.097  10
   2  -1   2 104449. 887.500  16
   2   1   2 102947. 578.887  10
   2   1   2 105635. 837.143  16
  -2  -1  -3 48868.4 647.724   1
  -2   1  -3 47309.0 648.700   1
   2   1   3 49164.9 663.552  16
   2   1   3 48929.6 516.342  10
  -2   1  -3 48785.7 402.847  17
   2  -1   3 48752.7 656.735  10
  -2   1  -4 15363.6 417.543   1
   2   1   4 15499.5 430.263  16
   2   1   4 15473.1 350.068  10
   2  -1   4 15785.9 425.038  10
   2  -1   4 14961.1 432.183  16
  -2  -1  -4 15423.1 405.176   1
   2  -1   5 5174.81 287.607  16
  -2   1  -5 5220.15 271.452   1
   2   1   5 5209.01 236.621  10
   2  -1   5 5251.17 276.750  10
   2   1   5 4955.87 276.650  16
  -2  -1  -5 5384.97 265.707   1
  -2  -1  -6 39975.1 636.432  13
  -2  -1  -6 41135.5 626.606  18
  -2   1  -6 40326.1 640.319  13
   2  -1   6 38766.3 836.902  10
   2  -1   6 39014.9 564.608   5
  -2   1  -6 40177.9 838.949   1
   2  -1   6 37980.7 860.620  16
  -2  -1  -6 41221.9 808.896   1
   2   1   6 38529.3 866.629  16
  -2  -1  -6 41426.1 621.405   8
  -2   1  -7 11716.4 366.569  13
  -2  -1  -7 12050.1 358.634   8
  -2  -1  -7 11280.6 336.809   9
  -2   1  -7 12016.9 496.124   1
   2  -1   7 11792.7 494.942  10
   2  -1   7 11763.4 318.002   5
  -2  -1  -7 11637.7 350.810  18
   2  -1   7 11673.8 514.753  16
  -2  -1  -7 11688.3 366.422  13
  -2  -1  -8 11638.6 340.344   9
  -2   1  -8 12321.5 370.124   9
   2  -1   8 12192.0 368.842  14
  -2  -1  -8 12245.3 355.595  18
  -2  -1  -8 12157.3 357.770   8
  -2   1  -8 12419.0 359.864   8
  -2  -1  -9 22021.1 440.380   8
  -2  -1  -9 21339.2 415.264  18
   2  -1   9 21644.4 445.716  14
  -2   1  -9 21832.7 448.251   9
  -2  -1  -9 21582.9 416.314   9
  -2   1  -9 22888.5 443.158   8
  -2   1 -10 22262.9 362.474   9
  -2  -1 -10 20670.3 307.931   9
  -2  -1 -10 22148.0 355.198   8
  -2   1 -10 21950.0 347.743   8
   2  -1  10 21646.5 336.744  14
   2   1  10 20311.9 297.884  14
   2  -2 -10 3199.56 138.336   8
   2   2 -10 3283.23 144.428   9
   2   2  -9 1438.11 98.0686  12
   2   2  -9 1533.40 119.686   9
   2  -2  -9 1552.87 118.235   8
   2  -2  -9 1409.06 103.463   9
   2  -2  -8 10506.5 338.035   8
   2   2  -8 10593.9 308.268  12
   2   2  -8 10275.9 335.725   9
   2  -2  -8 10464.9 314.118   9
   2   2  -7 22314.2 642.928   1
  -2   2   7 23261.9 669.208  10
   2   2  -7 22399.6 463.209  12
   2  -2  -7 21963.5 461.613   9
  -2   2   7 22243.5 684.893  16
   2   2  -7 22523.4 493.015   9
  -2  -2   7 24575.3 735.143  10
  -2  -2   7 22005.5 456.114   5
   2  -2  -7 22617.1 491.849   8
   2  -2  -6 8288.17 281.158   8
   2  -2  -6 7950.43 261.073   9
   2   2  -6 7930.49 264.552  12
   2  -2  -6 7658.29 358.444   2
  -2   2   6 7934.03 359.516  10
   2   2  -6 8366.56 376.926  11
  -2  -2   6 8540.11 399.124  10
   2   2  -6 8053.99 276.261   9
  -2  -2   6 7734.05 262.609   5
   2   2  -5 35102.7 703.882  11
  -2   2   5 35883.7 691.759  10
  -2  -2   5 34311.6 712.806  10
   2  -2  -5 35340.5 702.201   2
   2  -2  -5 35024.6 627.596   3
   2  -2  -4 72483.2 848.045   3
   2  -2  -4 73881.6 914.698   2
   2   2  -4 72310.5 929.402  11
  -2  -2   4 72595.6 903.572  10
  -2   2   4 71419.6 724.330  17
  -2  -2   4 70503.6 705.462  16
   2   2  -3 25597.5 504.262  11
  -2  -2   3 25440.0 455.234  10
   2  -2  -3 26355.0 491.600   2
  -2  -2   3 25584.7 339.218  16
  -2   2   3 25336.3 427.212  17
   2  -2  -3 25256.4 463.513   3
  -2   2   2 76367.3 718.728  17
   2  -2  -2 77322.7 789.696   2
   2   2  -2 77984.4 823.682  11
  -2  -2   2 78140.5 665.586  10
   2   2  -2 78248.9 574.646   2
   2  -2  -2 78872.5 768.173   3
   2  -2  -1 39697.0 546.412   2
   2  -2  -1 39268.1 504.415   3
   2   2  -1 39512.0 553.821  11
  -2   2   1 38712.9 239.518   1
  -2  -2   1 38760.6 356.829  10
  -2   2   1 39824.1 502.463  17
   2  -2   0 71100.2 723.028   2
   2   2   0 71487.0 384.365  16
   2   2   0 75608.4 774.518  11
   2  -2   0 73017.6 719.179  16
  -2   2   0 74712.0 529.487   1
  -2  -2   0 73466.0 737.743   1
  -2   2   0 73066.4 663.290  17
   2  -2   0 72898.8 638.314   3
  -2  -2  -1 35293.7 514.383   1
   2   2   1 34043.0 523.672  11
  -2   2  -1 36071.4 462.631   1
   2   2   1 35242.3 387.366  16
  -2   2  -1 36182.8 456.550  17
   2  -2   1 36701.6 550.510  10
   2  -2   1 36338.6 519.553  16
   2  -2   1 33324.2 397.682   3
   2   2   2 1274.36 91.6131  16
   2  -2   2 1198.32 107.108  10
   2  -2   2 1133.06 100.396  16
  -2   2  -2 1202.45 80.1975  17
  -2   2  -2 1205.54 98.2087   1
  -2  -2  -2 1054.54 92.6641   1
  -2  -2  -3 225177. 1466.43   1
  -2   2  -3 236828. 1560.69   1
   2  -2   3 233238. 1621.33  10
   2  -2   3 227195. 1572.96  16
  -2   2  -3 230346. 1057.68  17
   2   2   3 231985. 1451.24  16
  -2   2  -4 55060.7 852.278   1
  -2  -2  -4 53450.3 781.573   1
   2  -2   4 54763.5 865.723  10
   2   2   4 52991.9 802.489  16
   2   2   5 26607.1 651.148  16
  -2   2  -5 28309.9 678.375   1
  -2  -2  -5 27871.4 614.385   1
   2  -2   5 27082.4 679.295  10
   2  -2   5 27069.6 668.389  16
  -2  -2  -6 2889.25 175.719  18
  -2  -2  -6 2641.03 161.154   8
  -2  -2  -6 2774.19 169.683   7
  -2   2  -6 2796.82 154.806  12
  -2   2  -6 3054.90 241.756   1
  -2   2  -6 3038.00 173.336  13
   2  -2   6 2520.40 226.491  10
   2  -2   6 2758.93 232.640  16
   2   2   6 2693.12 232.112  16
  -2  -2  -6 2799.87 167.931  13
   2  -2   6 2836.53 178.661  14
   2  -2   6 2845.45 161.825   5
  -2   2  -7 27309.3 546.174  13
  -2  -2  -7 27101.2 537.306   8
  -2   2  -7 28839.7 497.552  12
   2  -2   7 28407.7 527.567   5
  -2  -2  -7 28848.3 572.487  18
   2  -2   7 28468.7 579.080  14
   2  -2   8 28661.0 564.536  14
  -2  -2  -8 26948.7 543.087  18
   2  -2   8 27193.2 489.133   5
  -2   2  -8 27996.1 543.237   9
  -2  -2  -8 27581.8 531.528   8
  -2   2  -8 28675.6 527.992   8
  -2   2  -9 748.815 75.9647   8
  -2   2  -9 760.221 79.5831   9
  -2  -2  -9 738.295 79.7415  18
   2  -2   9 752.959 80.6716  14
  -2  -2  -9 710.014 76.0518   8
  -2   2 -10 5660.77 169.090   9
  -2  -2 -10 5463.81 163.096   8
  -2   2 -10 5562.06 153.779   8
   2  -2  10 5455.21 158.986  14
  -2  -3  10 8593.12 210.963   6
   2   3 -10 8258.41 184.993   9
   2  -3 -10 8668.29 209.296   8
   2   3  -9 10361.1 277.454   9
   2   3  -9 10056.4 257.965  12
  -2  -3   9 10429.7 256.632   5
   2  -3  -9 10807.7 297.731   8
   2   3  -8 2423.15 149.393  12
  -2  -3   8 2348.78 146.198   5
   2  -3  -8 2289.31 155.135   8
   2   3  -8 2244.10 146.806   9
   2  -3  -7 22048.1 495.838   8
   2   3  -7 22317.2 477.528  12
  -2  -3   7 22225.4 484.002   5
  -2  -3   7 22471.0 458.852  14
   2   3  -7 22388.7 472.871   9
   2   3  -6 36212.5 595.020  12
  -2  -3   6 35819.0 608.639   5
   2   3  -6 35967.8 847.023  11
  -2  -3   6 37271.3 878.527  10
   2  -3  -6 36653.3 793.385   2
   2  -3  -6 37785.3 763.356   3
   2   3  -6 35774.1 578.088   9
   2  -3  -6 37572.3 628.680   8
  -2  -3   6 35697.3 581.681  14
  -2   3   6 36216.1 773.272  10
  -2  -3   5 6085.56 319.498  10
   2  -3  -5 6128.84 238.371   8
   2  -3  -5 5959.10 292.247   3
   2   3  -5 6085.66 326.469  11
  -2   3   5 6192.01 300.688  10
   2  -3  -5 6157.99 303.672   2
   2   3  -5 6090.49 229.465  12
  -2  -3   5 6292.37 240.134   5
   2  -3  -4 7474.05 309.826   3
   2   3  -4 7416.51 330.196  11
  -2  -3   4 7197.71 309.353  10
   2  -3  -4 7529.14 306.458   2
  -2   3   4 7263.53 275.096  17
   2   3  -3 62429.4 904.598  11
   2  -3  -3 60046.4 797.699   2
  -2  -3   3 61372.7 778.298  10
   2  -3  -3 59826.2 827.561   3
  -2   3   3 58480.4 765.562  17
   2  -3  -2 18916.7 427.627   2
   2   3  -2 18944.3 467.212  11
  -2  -3   2 18897.1 360.087  10
   2  -3  -2 19712.2 443.301   3
  -2   3   2 18915.6 417.287  17
  -2   3   1 2994.54 163.028  17
   2  -3  -1 2912.71 162.799   2
   2  -3  -1 3060.10 165.036   3
   2  -3   0 13531.8 354.633   2
   2   3   0 13594.5 376.982  11
  -2   3   0 14087.0 260.090   1
  -2   3   0 12890.1 328.116  17
   2  -3   0 12974.4 319.305   3
   2  -3   0 13180.0 336.733  16
  -2   3  -1 37882.1 557.084  17
   2   3   1 40016.6 668.245  11
   2  -3   1 39733.8 517.946   3
   2  -3   1 38998.8 593.797  16
  -2   3  -1 38658.9 526.849   1
   2  -3   2 14193.3 419.431  10
   2   3   2 13757.3 397.959  11
  -2   3  -2 13830.4 360.661   1
  -2  -3  -2 14030.4 378.671   1
   2  -3   2 13631.2 372.737  16
  -2   3  -2 13306.6 322.980  17
  -2  -3  -3 1833.74 142.335   1
   2  -3   3 2027.66 171.945  10
   2   3   3 1812.35 154.121  11
   2   3   3 2039.58 138.908  16
  -2   3  -3 1776.10 147.247   1
  -2   3  -3 1781.04 113.146  17
   2  -3   3 1975.56 154.284  16
   2  -3   4 21941.0 566.924  16
  -2   3  -4 22691.4 584.431   1
   2  -3   4 23263.6 633.956  10
   2   3   4 22343.5 531.499  16
   2  -3   5 6075.65 238.661   5
  -2  -3  -5 6136.91 252.366   7
   2  -3   5 6179.37 353.723  10
  -2   3  -5 6301.91 338.000   1
  -2   3  -5 6340.80 238.524  12
   2  -3   5 6117.72 329.007  16
   2   3   5 6492.20 325.496  16
  -2  -3  -5 5785.44 206.478   4
   2  -3   5 6417.11 264.182  14
  -2  -3  -5 6092.55 229.808   8
  -2  -3  -5 6372.40 255.935  18
  -2   3  -6 7103.84 258.700  13
   2  -3   6 6800.62 265.718   5
  -2   3  -6 6969.16 259.380  12
  -2  -3  -6 7248.16 286.718  18
  -2   3  -6 7247.35 387.378   1
   2  -3   6 7203.17 292.654  14
   2   3   6 7369.03 381.793  16
  -2  -3  -6 7065.86 265.300   8
   2  -3   6 6847.15 400.425  10
  -2  -3  -6 6958.12 284.379   7
  -2   3  -7 27951.4 510.400  12
   2  -3   7 27409.0 534.594   5
  -2   3  -7 27355.1 530.282   9
  -2  -3  -7 27922.1 536.243   8
  -2  -3  -7 28229.9 577.675  18
   2  -3   7 27110.1 573.616  14
  -2   3  -8 2893.17 147.535  12
   2  -3   8 2925.62 175.586  14
  -2   3  -8 2901.17 163.029   9
  -2   3  -8 2646.44 150.104   8
   2  -3   8 3023.65 163.158   5
  -2  -3  -8 2722.55 157.148   8
  -2  -3  -8 2891.70 173.757  18
  -2   3  -9 7086.67 203.128   8
  -2  -3  -9 7267.70 217.650   8
  -2  -3  -9 7459.92 241.310  18
   2  -3   9 7362.27 205.295   5
  -2   3  -9 7403.66 221.198   9
   2  -3   9 7664.77 236.631  14
   2   4  -9 5188.88 169.772  12
   2  -4  -9 5293.91 188.314   8
  -2  -4   9 5214.48 170.302   5
  -2  -4   9 4866.07 166.286   6
  -2  -4   8 4688.87 203.195   5
   2   4  -8 5100.46 206.719  12
   2  -4  -8 5166.37 219.731   8
  -2  -4   8 4904.56 189.328  14
  -2  -4   7 14651.4 396.457   5
  -2  -4   7 14870.6 376.922  14
   2  -4  -7 15529.0 412.086   8
   2   4  -7 14431.7 382.452  12
  -2  -4   6 13564.6 391.353   5
   2   4  -6 13993.1 381.746  12
   2  -4  -6 14247.7 400.148   8
  -2  -4   6 13691.5 375.510  14
   2   4  -5 39574.7 623.063  12
   2  -4  -5 42591.8 871.201   3
  -2  -4   5 40557.9 656.146   5
   2   4  -5 41306.6 921.201  11
  -2  -4   5 40609.7 643.480  14
   2  -4  -5 42227.8 665.399   8
  -2  -4   4 7332.29 263.589   5
   2   4  -4 7125.67 246.050  12
   2  -4  -4 6936.48 256.789   8
   2   4  -4 7681.27 377.649  11
   2  -4  -4 7385.06 314.115   2
  -2   4   4 7201.98 316.226  17
  -2  -4   4 7477.62 264.391  14
   2  -4  -4 7541.37 353.857   3
  -2   4   3 29805.6 630.570  17
   2  -4  -3 31175.4 607.305   2
   2   4  -3 31737.0 728.498  11
   2  -4  -3 32178.9 692.952   3
   2   4  -2 3444.19 229.472  11
   2  -4  -2 3737.07 203.099   2
  -2   4   2 3574.73 211.754  17
   2  -4  -2 3849.98 225.293   3
   2  -4  -1 31770.0 615.479   3
   2  -4  -1 30771.3 580.243   2
   2   4  -1 31513.3 666.217  11
  -2   4   1 31586.4 613.724  17
   2  -4   0 15050.7 416.938   2
   2  -4   0 15414.0 410.295   3
   2   4   0 14422.7 440.517  11
  -2   4   0 14646.1 412.932  17
   2  -4   1 5477.79 260.812   2
   2  -4   1 5981.63 238.850   3
   2   4   1 6054.78 290.312  11
  -2   4  -1 5776.68 256.085  17
  -2   4  -2 11907.7 369.685   1
  -2   4  -2 12294.7 365.836  17
   2   4   2 12559.5 432.998  11
  -2   4  -3 125623. 1348.05   1
   2   4   3 125481. 1427.31  11
   2  -4   3 123529. 1501.89  10
  -2  -4  -4 45865.6 710.940   7
   2  -4   4 49105.3 675.841   5
  -2  -4  -4 43978.1 595.578   4
   2  -4   4 44601.6 684.359  14
   2  -4   4 45626.4 977.043  10
  -2   4  -4 46589.2 654.232  12
  -2   4  -4 45967.2 903.373   1
  -2  -4  -4 43560.4 651.015  18
   2   4   4 46338.9 905.737  11
   2  -4   5 20092.3 457.345   5
  -2   4  -5 19721.7 445.556  12
  -2  -4  -5 19304.7 402.241   4
   2  -4   5 20392.5 694.040  10
  -2  -4  -5 19812.9 465.229  18
  -2  -4  -5 20495.5 493.835   7
   2  -4   5 20963.0 492.239  14
  -2   4  -5 21036.5 653.407   1
  -2  -4  -6 993.533 88.1403   4
   2  -4   6 1085.85 109.085   5
  -2  -4  -6 999.905 95.8277   8
  -2  -4  -6 1107.22 111.749  18
  -2  -4  -6 994.183 113.111   7
  -2   4  -6 959.564 98.7195  12
   2  -4   6 977.104 108.694  14
  -2   4  -7 20560.6 436.998  12
  -2  -4  -7 20509.7 473.550  18
   2  -4   7 20455.2 453.578   5
  -2  -4  -7 20040.4 417.427   8
   2  -4   7 20631.5 476.135  14
  -2   4  -7 20643.7 415.096   9
  -2   4  -8 2262.15 124.960  12
   2  -4   8 2159.58 137.467  14
   2  -4   8 2509.46 141.168   5
  -2   4  -8 1946.06 109.722   8
  -2   4  -8 2365.48 124.575   9
  -2  -4  -8 2193.31 140.750  18
  -2  -4  -8 2128.96 120.606   8
  -2  -4  -9 1091.46 64.5603   8
  -2   4  -9 1064.36 61.0889  12
   2  -4   9 1130.17 72.1242   5
   2  -4   9 1094.75 77.4477  14
   2   5  -9 1404.78 70.9825  12
  -2  -5   9 1396.78 71.1387   5
   2  -5  -9 1433.01 75.9091   8
  -2  -5   8 6621.37 192.659  14
   2   5  -8 7152.86 214.891  12
  -2  -5   8 6821.34 219.345   5
   2  -5  -8 6864.81 221.769   8
   2   5  -7 2690.36 151.933  12
   2  -5  -7 2581.90 157.064   8
  -2  -5   7 2809.49 162.626   5
  -2  -5   7 2554.38 147.436  14
   2   5  -6 10348.3 317.839  12
   2  -5  -6 10077.7 330.619   8
  -2  -5   6 10153.6 323.613  14
  -2  -5   6 9983.43 330.318   5
   2   5  -5 6045.56 243.811  12
   2  -5  -5 6111.23 219.489   4
  -2  -5   5 6664.61 271.408   5
   2  -5  -5 6410.50 266.189   8
  -2  -5   5 6110.95 259.051  14
   2   5  -4 2560.53 153.322  12
   2  -5  -4 2815.27 154.638   4
   2   5  -4 2650.95 240.579  11
   2  -5  -4 2696.85 168.471   8
  -2  -5   4 2701.44 169.226   5
   2  -5  -4 2753.35 231.991   3
  -2   5   4 2602.96 210.373  17
  -2  -5   4 2587.71 168.588  14
   2  -5  -3 33786.4 579.983   8
   2   5  -3 36075.7 543.588  12
   2  -5  -3 36697.4 825.855   3
  -2  -5   3 34642.3 582.872   7
   2   5  -3 36071.1 851.120  11
   2  -5  -3 36076.0 555.107   4
  -2  -5   3 36241.7 616.832  14
  -2  -5   3 36643.1 596.203   5
  -2   5   3 35747.1 780.246  17
  -2   5   2 2653.63 209.574  17
  -2  -5   2 2812.23 164.733   7
   2  -5  -2 2994.51 157.840   4
   2  -5  -2 2637.58 155.748   8
   2   5  -2 3342.54 251.603  11
  -2  -5   2 2958.52 159.596   5
   2  -5  -2 2900.53 223.618   3
  -2  -5   2 2941.89 171.147  14
  -2  -5   1 909.747 94.1480   7
   2  -5  -1 975.253 122.693   3
   2   5  -1 1038.51 134.953  11
   2  -5  -1 1072.07 93.4607   4
  -2   5   1 1337.29 146.127  17
  -2  -5   1 1018.37 99.1045  14
  -2  -5   0 34087.6 582.818   7
   2  -5   0 35039.1 528.645   4
  -2  -5   0 33311.3 564.009  14
   2   5   0 33710.6 764.192  11
  -2   5   0 33560.7 717.228  17
  -2  -5  -1 47209.7 700.273   7
  -2  -5  -1 48369.1 679.664  14
   2   5   1 45802.1 885.432  11
  -2  -5  -1 47219.3 603.979   4
   2  -5   1 47702.5 606.449   4
  -2   5  -1 46395.0 834.066  17
  -2  -5  -2 3511.83 196.886   7
  -2   5  -2 3301.65 216.381  17
  -2  -5  -2 3443.06 169.317   4
  -2   5  -2 3497.23 171.644  12
   2   5   2 3482.56 244.120  11
   2  -5   2 3600.94 163.320   4
   2  -5   2 3484.14 178.815  14
  -2  -5  -2 3603.13 187.513  14
  -2  -5  -3 9688.93 293.705   4
  -2   5  -3 9461.14 296.737  12
   2  -5   3 9415.86 296.910   5
   2  -5   3 9583.94 315.364  14
  -2   5  -4 7542.60 273.652  12
   2  -5   4 7443.19 290.475  14
  -2  -5  -4 7218.00 267.236  18
   2  -5   4 7463.53 277.263   5
  -2  -5  -4 7512.29 305.681   7
  -2  -5  -4 7294.46 259.880   4
  -2  -5  -5 6976.96 249.926   4
   2  -5   5 7140.52 277.188   5
   2  -5   5 7046.91 288.192  14
  -2   5  -5 6801.52 263.051  12
  -2  -5  -5 7010.59 296.509   7
  -2  -5  -5 7037.16 270.597  18
  -2  -5  -6 13174.0 317.369   4
  -2   5  -6 13394.1 357.026  12
  -2  -5  -6 13000.5 363.742  18
   2  -5   6 13164.8 368.055   5
   2  -5   6 13271.7 380.694  14
  -2  -5  -6 13653.3 403.110   7
   2  -5   7 5966.80 225.695   5
  -2   5  -7 5723.34 210.880  12
  -2  -5  -7 5491.19 219.512  18
   2  -5   7 5876.40 230.425  14
  -2   5  -8 8422.18 211.672  12
   2  -5   8 8613.04 226.261   5
   2  -5   8 8418.84 230.410  14
   2   6  -8 4042.28 122.078  12
  -2  -6   8 4248.12 134.253   5
  -2  -6   7 9.21583 9.16470  14
   2   6  -7 26.5239 11.3625  12
  -2  -6   7 45.3389 18.7032   5
   2  -6  -7 29.2683 14.9635   8
   2  -6  -6 881.158 69.5123   4
  -2  -6   6 818.454 84.7671   5
   2  -6  -6 800.190 82.0940   8
   2   6  -6 768.294 76.4875  12
  -2  -6   6 797.563 81.2288  14
  -2  -6   5 17420.8 417.746   5
   2   6  -5 17733.2 385.903  12
   2  -6  -5 17510.5 362.366   4
  -2  -6   5 17641.3 425.105  14
   2  -6  -5 17716.3 415.497   8
  -2  -6   4 9321.64 320.119  14
  -2  -6   4 8957.22 301.052   5
   2  -6  -4 8928.17 277.811   4
   2   6  -4 9016.32 274.787  12
   2  -6  -4 8757.11 300.136   8
   2  -6  -3 12139.4 336.089   4
  -2  -6   3 11889.9 339.410   5
  -2  -6   3 11602.9 362.815  14
  -2  -6   2 6277.66 254.641   7
   2  -6  -2 6883.95 254.146   4
  -2  -6   2 6756.38 276.374  14
   2  -6  -1 14681.3 369.892   4
  -2  -6   1 14248.1 393.988   7
   2   6  -1 14340.8 544.243  11
  -2  -6   1 14601.1 403.160  14
  -2  -6   0 16776.4 372.977   4
   2  -6   0 16207.2 385.120   4
  -2  -6   0 16172.6 432.499   7
  -2  -6   0 16617.8 429.021  14
  -2  -6  -1 2532.45 173.799   7
  -2  -6  -1 2376.46 145.673   4
   2  -6   1 2368.56 143.400   4
  -2   6  -2 27933.2 488.082  12
  -2  -6  -2 26998.1 501.147   4
   2  -6   2 28196.7 470.811   4
  -2  -6  -2 28488.7 587.920   7
   2  -6   2 28503.2 531.390  14
  -2  -6  -2 27575.2 548.797  14
  -2  -6  -3 12635.2 345.205   4
  -2  -6  -3 13060.8 402.348   7
  -2   6  -3 11916.4 331.004  12
   2  -6   3 12725.2 337.576   5
   2  -6   3 12294.4 356.752  14
  -2  -6  -4 64164.7 761.069   4
  -2   6  -4 62231.4 758.916  12
  -2  -6  -4 64662.1 885.518   7
   2  -6   4 62118.6 766.356   5
   2  -6   4 62542.6 814.135  14
   2  -6   5 4402.10 198.997   5
  -2   6  -5 4526.58 199.144  12
  -2  -6  -5 4562.56 191.512   4
   2  -6   5 4545.37 212.186  14
  -2  -6  -5 4644.65 228.998   7
  -2  -6  -6 3881.04 153.473   4
  -2   6  -6 3809.78 167.790  12
   2  -6   6 3637.71 168.314   5
  -2  -6  -6 3518.81 155.409  18
   2  -6   6 3652.35 174.183  14
  -2   6  -7 869.643 68.5476  12
   2  -6   7 857.619 70.3821   5
   2  -6   7 871.953 71.3189  14
  -2  -7   6 3510.95 137.922  14
  -2  -7   6 3369.47 131.199   5
   2   7  -6 3300.05 111.908  12
   2   7  -5 806.444 62.5708  12
   2  -7  -5 854.764 68.1436   4
  -2  -7   5 837.182 73.9454   5
  -2  -7   5 941.382 83.8302  14
   2  -7  -4 5152.49 191.422   4
  -2  -7   4 5020.40 190.056   5
  -2  -7   4 5383.96 220.944  14
   2  -7  -3 11332.8 303.427   4
  -2  -7   3 11411.4 336.848  14
   2  -7  -2 4586.13 199.556   4
  -2  -7   2 4411.66 214.485  14
   2  -7  -1 5063.83 212.165   4
  -2  -7   1 4794.66 214.645   7
  -2  -7   1 5020.85 230.330  14
  -2  -7   0 5408.85 237.203   7
  -2  -7   0 5735.58 211.309   4
   2  -7   0 5686.78 220.906   4
  -2  -7   0 5817.80 247.713  14
  -2  -7  -1 2547.00 166.026   7
  -2  -7  -1 2452.06 142.798   4
   2  -7   1 2553.71 140.660   4
  -2  -7  -1 2401.40 156.765  14
  -2  -7  -2 2370.01 141.551   4
  -2  -7  -2 2511.85 165.461   7
   2  -7   2 2298.84 136.960  14
  -2  -7  -3 884.375 84.9547   4
  -2   7  -3 937.894 79.2380  12
  -2  -7  -3 960.088 98.8905   7
   2  -7   3 884.522 84.4582  14
  -2  -7  -4 4358.04 175.783   4
  -2   7  -4 4115.01 162.636  12
  -2  -7  -4 4360.23 205.359   7
   2  -7   4 3979.90 174.270  14
  -2   7  -5 5137.55 168.529  12
   2  -7   5 4789.07 158.823   5
  -2  -7  -5 5260.34 172.019   4
   2  -7   5 4760.57 173.182  14
  -2  -7  -5 5267.67 205.320   7
  -2   7  -6 5154.04 142.548  12
   2  -7   6 4928.22 135.807   5
   2  -7   6 5025.53 147.585  14
   2  -8  -4 17607.8 269.936   4
  -2  -8   4 17057.5 295.306  14
   2  -8  -3 459.622 48.5958   4
  -2  -8   3 461.486 53.8665  14
   2  -8  -2 166.885 31.8240   4
  -2  -8   2 199.201 37.2249  14
   2  -8  -1 5238.62 179.346   4
  -2  -8   1 5378.97 199.137  14
  -2  -8   0 1626.12 89.0244   4
   2  -8   0 1739.85 99.6458   4
  -2  -8   0 1833.04 115.483  14
  -2  -8  -1 2600.06 118.912   4
   2  -8   1 2543.03 109.859   4
  -2  -8  -1 2507.27 128.562   7
  -2  -8  -2 1812.07 99.5255   4
  -2  -8  -2 1856.41 110.685   7
  -2  -8  -3 17468.1 293.645   4
  -2  -8  -3 16940.9 319.954   7
   3   0 -10 96.7292 25.2210   9
  -3   0  10 79.3686 22.6464   6
   3   0  -9 4971.55 219.904   9
   3   0  -8 528.904 77.5756   9
   3   0  -7 8842.26 312.218   9
  -3   0   7 9437.80 442.565  10
  -3   0   7 8989.25 412.997  16
  -3   0   6 29696.5 719.848  10
   3   0  -6 30736.5 544.058   9
   3   0  -6 30120.4 708.556   2
  -3   0   5 34757.0 693.205  10
   3   0  -5 34356.9 692.257   2
   3   0  -5 34791.0 571.768   3
   3   0  -4 11399.0 274.413  11
  -3   0   4 11850.0 361.050  10
   3   0  -4 12538.7 373.378   2
  -3   0   4 11850.9 265.688  17
   3   0  -3 146123. 883.240  11
   3   0  -3 145365. 1139.08   2
   3   0  -2 17.2538 14.6058   2
  -3   0   2 20.0049 7.23636  17
   3   0  -1 79076.3 630.740  11
   3   0  -1 80795.3 731.042   2
   3   0  -1 78731.4 737.398  16
  -3   0   1 79317.3 703.533   1
  -3   0   0 316881. 1439.56   1
   3   0   0 315393. 1498.07  16
  -3   0  -1 261031. 1396.63   1
   3   0   1 262060. 1457.67  16
  -3   0  -2 29334.3 511.298   1
   3   0   2 28127.3 436.737  10
   3   0   2 28030.2 516.701  16
  -3   0  -2 29011.4 404.363  17
  -3   0  -3 2057.04 149.659   1
   3   0   3 1935.50 150.769  16
   3   0   3 2121.55 133.949  10
  -3   0  -3 2225.29 112.038  17
   3   0   4 25403.5 603.496  16
   3   0   4 24872.6 513.576  10
   3   0   5 3914.69 226.745  10
   3   0   5 3853.28 263.542  16
  -3   0  -5 4314.31 264.188   1
  -3   0  -6 4940.08 233.277  13
  -3   0  -6 5061.16 311.245   1
  -3   0  -6 4968.48 211.115  18
   3   0   6 4750.71 318.701  16
  -3   0  -7 2445.03 169.431  13
  -3   0  -7 2483.17 161.049   8
  -3   0  -8 4819.81 220.222   9
  -3   0  -8 4479.76 212.534   8
  -3   0  -9 49.3836 19.5907   9
  -3   0  -9 49.6421 19.5899   8
   3   0   9 90.5714 26.2010  14
  -3   0 -10 2980.01 112.827   9
  -3   0 -10 2973.36 117.011   8
   3   0  10 2834.91 111.522  14
  -3   1  10 71.9014 18.3042   6
   3  -1 -10 51.2855 19.5607   9
   3   1 -10 84.5448 24.3789   9
   3  -1 -10 73.4260 17.5683   8
   3   1  -9 2803.09 164.019   9
   3  -1  -9 2862.45 160.943   9
   3  -1  -9 2743.25 146.826   8
   3   1  -8 1247.46 117.911   9
   3  -1  -8 1470.65 117.439   8
   3  -1  -8 1298.54 117.355   9
   3   1  -8 1339.27 105.613  12
   3  -1  -7 421.290 89.7508   2
  -3   1   7 389.944 90.0026  10
   3   1  -7 350.804 61.4817   9
   3   1  -7 367.177 56.5416  12
  -3  -1   7 396.518 92.9293  10
   3  -1  -7 476.945 70.8856   9
   3  -1  -7 415.239 61.6538   8
   3  -1  -6 9410.49 284.598   8
   3   1  -6 9364.98 281.341  12
  -3   1   6 9735.48 410.579  10
  -3  -1   6 9178.50 404.816  10
   3  -1  -6 9891.58 305.753   9
   3   1  -6 10396.5 319.071   9
  -3  -1   6 9041.73 364.553  16
   3  -1  -6 9872.33 416.184   2
   3   1  -6 9253.38 384.004   2
   3  -1  -5 19735.3 468.006   3
   3   1  -5 20310.6 485.286  11
  -3   1   5 20037.6 537.733  10
  -3  -1   5 19369.6 526.167  10
   3  -1  -5 20330.1 542.767   2
   3   1  -5 20908.7 525.397   2
   3   1  -4 158948. 1295.85   2
  -3   1   4 162610. 1077.43  17
   3   1  -4 163719. 1255.92  11
  -3  -1   4 158658. 1319.08  10
   3  -1  -4 166786. 1420.28   2
   3  -1  -4 162151. 1281.02   3
   3  -1  -3 89830.0 896.611   3
  -3   1   3 90051.5 795.709  17
  -3  -1   3 88739.6 742.099  17
   3   1  -3 87056.0 848.272  11
  -3  -1   3 85429.3 839.452  10
   3  -1  -3 85687.6 925.941   2
   3   1  -3 86029.4 836.282   2
  -3  -1   2 32289.2 449.318  17
   3   1  -2 32141.5 489.560  11
  -3   1   2 33572.7 478.678  17
  -3  -1   2 32480.7 447.313  10
   3  -1  -2 34326.3 553.581   2
   3   1  -2 33989.6 462.914   2
  -3   1   1 7739.55 190.767   1
   3  -1  -1 7828.05 253.002   2
   3   1  -1 8171.50 210.431  16
  -3  -1   1 7717.01 248.469   1
  -3   1   1 7753.87 225.736  17
   3  -1  -1 7714.55 254.631  16
   3  -1  -1 8126.53 146.175  11
   3   1  -1 7390.89 198.647   2
  -3  -1   1 7600.94 218.277  17
   3  -1   0 38111.3 560.413   2
  -3   1   0 38643.1 493.649  17
   3   1   0 37580.6 432.707   2
  -3   1   0 38123.1 468.126   1
   3  -1   0 38351.6 571.534  16
  -3  -1   0 38465.2 553.410   1
   3   1   0 38450.1 535.291  11
   3   1   0 38757.5 479.293  16
  -3  -1   0 39454.7 498.776  17
  -3   1  -1 8122.12 222.263  17
   3  -1   1 8125.87 274.011  16
   3   1   1 8323.17 244.700  16
  -3  -1  -1 7973.40 226.407  17
  -3  -1  -1 8579.61 271.966   1
  -3   1  -1 8155.82 241.121   1
   3  -1   2 85942.6 951.398  16
   3  -1   2 86895.6 894.024  10
  -3  -1  -2 86037.0 916.874   1
  -3   1  -2 86761.5 713.249  17
  -3  -1  -2 85114.4 751.696  17
  -3   1  -2 84143.9 864.159   1
   3   1   2 85270.0 867.196  16
  -3  -1  -3 67922.5 881.701   1
  -3   1  -3 68105.8 861.283   1
   3  -1   3 71010.7 874.744  10
   3   1   3 68284.2 878.911  16
   3  -1   3 67938.0 920.439  16
  -3   1  -3 68570.3 621.069  17
  -3  -1  -4 26781.9 603.318   1
   3  -1   4 23948.4 564.735  10
  -3   1  -4 27315.7 607.207   1
   3  -1   4 25387.6 620.396  16
   3   1   4 25496.1 601.269  16
  -3  -1  -5 13508.1 468.904   1
   3  -1   5 12501.3 448.127  10
  -3   1  -5 13249.4 471.784   1
   3   1   5 12862.6 476.141  16
   3  -1   5 12511.5 482.240  16
  -3  -1  -6 294.442 55.8452  13
  -3   1  -6 270.349 54.4480  13
  -3  -1  -6 248.628 47.3015  18
  -3  -1  -6 250.327 66.6356   1
  -3   1  -6 346.694 82.5239   1
   3   1   6 286.025 73.9955  16
   3  -1   6 343.611 87.4127  16
   3  -1   6 294.446 51.4159   5
   3  -1   6 215.577 63.0592  10
  -3  -1  -6 304.069 53.5080   8
  -3   1  -7 6016.36 265.409  13
  -3  -1  -7 5816.50 258.737  13
  -3  -1  -7 5875.19 248.920  18
  -3  -1  -7 5794.42 246.751   8
   3  -1   7 5960.40 229.187   5
  -3   1  -8 26816.1 541.899  13
  -3   1  -8 27594.8 532.433   9
  -3  -1  -8 27320.3 506.034  18
  -3  -1  -8 26869.4 496.431   9
  -3  -1  -8 27966.8 521.310   8
  -3   1  -8 27614.7 521.438   8
   3  -1   8 27729.9 549.991  14
  -3   1  -9 1114.13 93.6462   9
  -3  -1  -9 1100.74 84.3306  18
  -3  -1  -9 1067.45 84.4238   9
  -3  -1  -9 1074.50 89.4031   8
  -3   1  -9 1207.00 95.0060   8
   3  -1   9 1027.49 92.8622  14
  -3   1 -10 539.503 48.6853   9
  -3   1 -10 484.206 45.2649   8
  -3  -1 -10 463.041 43.4850   8
   3  -1  10 431.257 43.6965  14
   3   1  10 426.758 39.1519  14
  -3  -2  10 278.323 42.3042   6
   3   2 -10 298.531 40.2349   9
   3  -2 -10 257.825 35.2092   8
   3  -2  -9 4332.57 186.201   8
   3   2  -9 4299.05 167.163  12
   3   2  -9 4232.58 191.052   9
   3  -2  -9 4141.08 172.437   9
   3  -2  -8 2211.95 143.522   9
   3   2  -8 2444.62 147.390  12
   3   2  -8 2463.20 161.428   9
   3  -2  -8 2254.10 149.845   8
   3   2  -7 4476.01 208.542  12
   3  -2  -7 4234.94 210.344   8
   3   2  -7 4084.29 210.191   9
  -3  -2   7 4216.67 199.737   5
   3  -2  -7 4227.48 204.423   9
   3   2  -6 2845.23 162.465  12
   3   2  -6 2770.22 163.895   9
   3   2  -6 2932.36 221.893  11
  -3   2   6 3236.92 239.222  10
  -3  -2   6 2697.91 225.869  10
   3  -2  -6 2875.87 162.785   9
   3  -2  -6 2794.74 226.296   2
  -3  -2   6 2967.20 165.884   5
   3  -2  -6 2907.87 167.596   8
   3   2  -5 12573.7 433.795  11
  -3   2   5 13255.7 457.237  10
  -3  -2   5 12611.7 436.529  10
   3  -2  -5 13057.2 457.940   2
   3  -2  -5 13037.6 416.037   3
   3  -2  -4 13584.9 399.980   3
  -3   2   4 13943.8 358.843  17
   3   2  -4 13143.7 407.701  11
  -3  -2   4 13365.5 396.599  10
   3  -2  -4 14005.6 433.405   2
   3   2  -4 13625.5 364.061   2
   3   2  -3 32349.2 491.869   2
   3   2  -3 32360.1 605.739  11
   3  -2  -3 34376.5 631.258   2
  -3  -2   3 32916.0 535.582  10
  -3   2   3 33728.2 546.348  17
   3  -2  -3 34412.7 603.644   3
   3  -2  -2 38443.0 635.265   2
   3   2  -2 37414.5 619.640  11
  -3  -2   2 37105.1 472.642  10
  -3   2   2 39335.2 575.255  17
   3   2  -2 39431.6 455.088   2
   3  -2  -2 39458.9 611.512   3
   3  -2  -1 59463.3 778.116   2
  -3   2   1 58375.5 689.096  17
   3   2  -1 58345.2 760.947  11
  -3  -2   1 57327.9 438.412  10
   3  -2   0 10602.3 324.623   2
   3   2   0 10954.9 220.963  16
  -3   2   0 11282.6 252.154   1
   3   2   0 11273.0 338.038  11
  -3  -2   0 10180.0 324.601   1
  -3   2   0 10698.1 287.838  17
   3  -2   0 10541.8 323.534  16
   3  -2   0 10384.0 285.427   3
  -3   2  -1 35692.7 518.614  17
   3   2   1 36092.7 613.808  11
  -3  -2  -1 35823.0 608.924   1
  -3   2  -1 35705.4 515.405   1
   3   2   1 34084.8 467.845  16
   3  -2   1 35918.3 619.201  16
   3  -2   1 34428.4 486.646   3
  -3   2  -2 80009.3 871.204   1
   3  -2   2 83851.8 997.496  10
  -3   2  -2 83303.9 776.773  17
   3   2   2 81038.9 824.187  16
   3  -2   2 83162.3 998.025  16
  -3  -2  -2 82775.3 967.630   1
  -3  -2  -3 20719.0 513.565   1
  -3   2  -3 21376.8 505.965   1
   3  -2   3 19981.3 520.816  10
  -3   2  -3 20885.7 371.979  17
   3   2   3 19970.0 468.826  16
   3  -2   3 20121.7 534.866  16
  -3   2  -4 1405.04 143.611   1
   3  -2   4 1397.04 150.965  10
   3  -2   4 1400.45 153.135  16
   3   2   4 1238.34 132.323  16
  -3  -2  -4 1293.15 137.353   1
  -3  -2  -5 791.941 84.4646  13
  -3   2  -5 933.376 94.6782  13
  -3   2  -5 833.606 82.8418  12
  -3  -2  -5 987.066 99.2054  18
  -3   2  -5 846.111 122.272   1
   3  -2   5 1094.47 144.367  10
  -3  -2  -5 922.957 122.805   1
   3   2   5 851.430 121.011  16
   3  -2   5 981.111 92.9513   5
   3  -2   5 908.740 132.510  16
  -3  -2  -5 882.596 85.8320   8
  -3  -2  -6 5502.93 238.182  13
  -3   2  -6 5389.99 217.782  12
   3  -2   6 5246.67 339.329  10
  -3  -2  -6 5480.83 246.774  18
  -3   2  -6 5834.80 349.378   1
   3  -2   6 5334.58 250.684  14
   3   2   6 5112.77 326.575  16
   3  -2   6 5110.58 341.165  16
   3  -2   6 5488.47 231.785   5
  -3   2  -6 5431.40 240.967  13
  -3  -2  -6 5614.42 232.691   8
  -3   2  -7 20597.3 410.951  12
  -3   2  -7 19938.9 468.516  13
  -3  -2  -7 20882.3 484.653  18
  -3  -2  -7 20306.1 450.594   8
   3  -2   7 20172.3 442.643   5
   3  -2   7 20515.5 496.012  14
   3  -2   8 387.914 55.6623   5
  -3   2  -8 389.446 59.5504   9
  -3  -2  -8 295.427 52.8744  18
  -3  -2  -8 412.984 59.0868   8
   3  -2   8 354.034 61.7286  14
   3  -2   9 1960.51 121.149  14
  -3  -2  -9 1934.19 111.776   8
  -3   2  -9 1939.33 114.906   8
  -3  -2  -9 1980.06 116.556  18
  -3   2  -9 1869.22 115.310   9
  -3   2 -10 3523.88 112.707   9
  -3  -3  10 15954.9 265.350   6
   3  -3 -10 16725.8 256.209   8
   3   3  -9 348.546 48.2728   9
  -3  -3   9 244.918 44.8682   6
   3  -3  -9 390.045 54.4764   8
   3   3  -9 257.657 39.0499  12
  -3  -3   8 7853.10 261.749   5
   3   3  -8 7536.53 259.071   9
   3   3  -8 7957.61 265.562  12
   3  -3  -8 8186.10 285.022   8
   3   3  -7 7899.17 276.828   9
   3   3  -7 8218.48 288.363  12
   3  -3  -7 7875.43 293.727   8
  -3  -3   7 7797.47 284.393   5
   3   3  -6 17496.4 403.342   9
   3  -3  -6 16540.9 419.330   8
  -3  -3   6 17013.1 422.880   5
   3   3  -6 17037.2 414.753  12
   3   3  -6 18141.7 600.091  11
  -3   3   6 17390.3 571.919  10
  -3  -3   6 17355.7 588.783  10
   3  -3  -6 18205.5 564.278   3
   3  -3  -6 18245.4 591.249   2
  -3  -3   5 23557.7 478.527   5
   3   3  -5 23195.9 461.886  12
   3   3  -5 23587.5 657.373  11
  -3   3   5 25267.1 659.595  10
  -3  -3   5 23294.5 622.203  10
   3  -3  -5 24482.8 645.707   2
   3  -3  -5 23453.2 613.230   3
   3  -3  -5 24308.2 487.502   8
  -3   3   4 6670.92 282.000  17
   3   3  -4 6770.74 333.568  11
  -3  -3   4 7218.41 304.604  10
   3  -3  -4 7005.14 323.240   2
   3  -3  -4 7186.78 325.329   3
  -3   3   3 18038.5 454.336  17
   3   3  -3 18375.4 515.699  11
   3  -3  -3 18221.5 496.333   2
   3  -3  -3 18987.7 497.992   3
   3  -3  -2 20778.9 510.847   2
   3  -3  -2 20923.2 494.304   3
   3   3  -2 20739.5 528.147  11
  -3   3   2 20393.7 473.376  17
   3  -3  -1 8168.76 315.186   2
  -3   3   1 8302.56 294.480  17
   3   3  -1 8453.85 328.223  11
   3  -3  -1 8490.80 297.573   3
   3  -3   0 6436.57 283.608   2
   3   3   0 6641.94 292.789  11
   3  -3   0 6044.47 237.937   3
  -3   3   0 6127.07 248.631  17
   3  -3   0 6393.26 273.613  16
   3  -3   1 2647.77 186.224   2
   3  -3   1 2769.29 184.873  16
   3   3   1 2882.03 199.735  11
  -3   3  -1 2686.18 161.590  17
   3  -3   1 2885.44 155.696   3
  -3   3  -1 2865.16 153.805   1
   3   3   2 11498.8 407.888  11
  -3  -3  -2 11503.2 396.637   1
  -3   3  -2 11926.1 359.144   1
  -3   3  -2 11648.3 329.273  17
   3  -3   2 11679.6 401.655  16
   3   3   3 28555.1 681.071  11
  -3   3  -3 28608.8 619.137   1
   3  -3   3 30229.1 719.921  10
  -3  -3  -3 28741.9 653.926   1
   3  -3   3 27807.0 658.166  16
  -3  -3  -4 7521.43 268.886  18
  -3   3  -4 7512.85 255.703  12
  -3   3  -4 7408.56 346.555   1
  -3  -3  -4 7288.60 344.095   1
   3  -3   4 7170.88 373.985  10
   3  -3   4 7073.32 357.527  16
   3  -3   4 6995.37 247.996   5
  -3  -3  -4 7181.91 234.215   4
   3  -3   4 7466.61 270.088  14
  -3   3  -5 558.236 72.2310  13
  -3  -3  -5 466.711 62.8615   4
  -3  -3  -5 457.208 70.6623   7
   3  -3   5 322.697 82.3404  16
  -3   3  -5 420.112 62.6904  12
   3  -3   5 493.439 106.518  10
   3  -3   5 494.193 69.0923   5
  -3  -3  -5 495.389 74.1559  18
  -3   3  -5 427.293 90.2675   1
   3  -3   5 445.787 70.5102  14
   3  -3   6 2883.72 174.292   5
  -3   3  -6 2940.50 168.196  12
  -3  -3  -6 2858.60 162.663   8
  -3  -3  -6 2645.45 176.012  18
  -3   3  -6 2950.62 170.951  13
  -3  -3  -6 2790.52 175.414   7
   3  -3   6 2974.11 188.923  14
  -3   3  -7 18848.2 423.318  13
  -3   3  -7 18805.5 403.869  12
  -3  -3  -7 18677.6 454.693  18
  -3  -3  -7 18261.8 405.008   8
   3  -3   7 18018.1 424.853   5
   3  -3   7 18527.1 459.471  14
  -3   3  -8 198.579 41.2250   9
  -3   3  -8 135.824 27.1772  12
  -3  -3  -8 249.688 48.2675  18
   3  -3   8 203.298 44.5965  14
  -3  -3  -8 188.632 35.5121   8
   3  -3   8 256.483 44.7226   5
  -3  -3  -9 4769.37 170.004  18
   3  -3   9 4467.66 141.325   5
  -3   3  -9 4539.80 156.059   9
  -3  -3  -9 4268.76 137.766   8
   3  -3   9 4483.83 165.273  14
   3   4  -9 3545.01 133.424  12
   3  -4  -9 3698.21 146.602   8
  -3  -4   9 3461.69 131.625   6
  -3  -4   9 3503.36 127.869   5
   3   4  -8 1278.56 99.7779  12
  -3  -4   8 1171.51 96.6506   6
  -3  -4   8 1179.30 97.3633   5
   3  -4  -8 1507.97 114.382   8
   3   4  -7 6974.69 259.102  12
  -3  -4   7 6533.13 251.350   6
  -3  -4   7 6701.01 263.523   5
   3  -4  -7 7008.25 271.890   8
  -3  -4   6 5713.73 251.123   5
   3   4  -6 5604.92 240.100  12
   3  -4  -6 5589.09 251.845   8
  -3  -4   6 5763.01 231.220  14
   3   4  -5 5547.14 233.821  12
  -3  -4   5 5799.65 252.226   5
   3   4  -5 6044.53 362.406  11
  -3   4   5 6022.67 330.411  10
  -3  -4   5 5489.00 230.549   6
   3  -4  -5 5997.59 343.462   3
   3  -4  -5 5959.41 325.366   2
   3  -4  -5 5820.50 252.716   8
  -3  -4   5 5631.58 231.971  14
  -3   4   4 2328.05 186.439  17
   3   4  -4 2459.47 148.304  12
   3  -4  -4 2575.32 214.030   3
  -3  -4   4 2434.60 157.426   5
   3  -4  -4 2509.20 137.588   4
   3   4  -4 2632.21 229.339  11
   3  -4  -4 2468.54 200.729   2
   3  -4  -4 2422.91 131.827  15
   3  -4  -4 2351.18 154.082   8
  -3  -4   4 2330.13 146.234  14
   3   4  -3 3237.71 244.942  11
   3  -4  -3 3089.88 215.243   2
  -3   4   3 3406.89 224.263  17
   3  -4  -3 3035.15 168.139   8
  -3  -4   3 3196.92 171.873   5
   3  -4  -3 3418.43 237.403   3
   3  -4  -2 54558.4 893.076   2
   3   4  -2 53456.4 961.646  11
   3  -4  -2 52271.1 894.628   3
  -3   4   2 51281.3 856.677  17
   3  -4  -1 32905.4 670.775   3
   3  -4  -1 32521.9 679.741   2
   3   4  -1 31668.5 722.575  11
  -3   4   1 31513.6 660.224  17
   3  -4   0 15582.8 438.198   3
   3  -4   0 15399.9 481.652   2
  -3   4   0 14454.4 438.808  17
   3   4   0 15439.2 502.769  11
  -3   4  -1 20613.5 513.691  17
   3  -4   1 21508.0 586.022   2
   3   4   1 19311.6 572.987  11
   3  -4   1 20653.3 534.403  16
   3  -4   1 20718.0 470.594   3
   3   4   2 44903.0 904.429  11
   3  -4   2 45055.0 889.556   2
  -3   4  -2 47480.6 760.202  17
   3  -4   2 47592.3 847.545  16
  -3  -4  -3 35472.7 613.737   7
  -3  -4  -3 35223.2 540.039   4
  -3  -4  -3 34928.1 572.717  18
   3   4   3 36406.1 848.941  11
  -3   4  -3 33774.4 710.969   1
   3  -4   3 35199.7 556.758   5
   3  -4   3 35591.0 576.159  14
  -3   4  -3 34940.2 563.870  12
  -3  -4  -4 11556.3 361.933   7
  -3  -4  -4 11669.2 322.789   4
  -3  -4  -4 11934.3 356.351  18
  -3   4  -4 11972.8 343.532  12
   3   4   4 12107.4 506.414  11
   3  -4   4 12016.3 344.161   5
  -3   4  -4 12724.5 477.989   1
   3  -4   4 11541.7 352.430  14
  -3  -4  -5 4129.18 191.465   4
   3  -4   5 4001.11 204.929   5
  -3   4  -5 4432.32 213.533  12
  -3  -4  -5 3992.21 212.260  18
   3  -4   5 4328.09 223.817  14
  -3  -4  -5 4181.07 221.955   7
  -3   4  -6 5029.12 223.131  12
  -3  -4  -6 5133.44 238.644  18
   3  -4   6 4824.37 225.873   5
   3  -4   6 5060.07 239.838  14
  -3  -4  -6 4793.74 234.921   7
  -3   4  -7 370.287 54.5738  12
  -3   4  -7 286.199 45.7992   9
  -3  -4  -7 304.650 53.7468  18
   3  -4   7 286.830 50.0759   5
   3  -4   7 387.104 60.3124  14
  -3   4  -8 677.822 61.7822  12
  -3  -4  -8 630.262 69.1494  18
   3  -4   8 657.490 67.2615   5
  -3   4  -8 657.229 58.9490   9
  -3   4  -8 479.415 53.0779   8
   3  -4   8 652.645 69.3432  14
   3  -4   9 8120.65 181.416  14
   3   5  -8 1376.32 88.7347  12
  -3  -5   8 1446.96 94.5932   5
   3  -5  -8 1573.43 100.518   8
   3  -5  -7 2745.98 155.439   8
  -3  -5   7 2806.40 156.726   5
   3   5  -7 2782.30 147.913  12
  -3  -5   7 2533.24 131.058  14
   3   5  -6 4714.08 207.738  12
   3  -5  -6 4719.25 224.275   8
  -3  -5   6 4683.98 204.091  14
  -3  -5   6 4545.22 219.087   5
   3   5  -5 6228.53 243.550  12
   3  -5  -5 6244.71 218.647   4
  -3  -5   5 6528.96 258.776   7
   3  -5  -5 6653.07 276.350   8
  -3  -5   5 6590.37 269.666   5
  -3  -5   5 6692.82 259.251  14
  -3  -5   4 20693.3 480.917   7
   3   5  -4 21716.8 442.457  12
   3  -5  -4 21578.8 429.312   4
  -3  -5   4 21577.9 483.464   5
   3  -5  -4 21623.6 495.469   8
  -3  -5   4 21536.8 475.154  14
  -3  -5   3 9663.92 327.253   7
   3   5  -3 8986.32 271.331  12
   3  -5  -3 9644.66 293.529   4
   3   5  -3 8746.85 436.720  11
  -3  -5   3 9555.32 312.031   5
  -3   5   3 9377.39 410.067  17
   3  -5  -3 9747.21 443.547   3
   3  -5  -3 9475.13 320.518   8
  -3  -5   3 9329.70 311.384  14
  -3  -5   2 8065.35 297.929   7
   3   5  -2 7673.29 400.879  11
   3  -5  -2 7713.15 263.528   4
  -3  -5   2 7418.89 264.063   5
  -3   5   2 7979.98 374.656  17
   3  -5  -2 7887.42 388.554   3
   3  -5  -2 7622.67 257.341  15
  -3  -5   2 7764.30 282.693  14
  -3  -5   1 12161.6 365.730   7
   3   5  -1 12684.6 507.259  11
   3  -5  -1 12242.2 330.531   4
  -3   5   1 12368.9 460.863  17
   3  -5  -1 12955.0 474.158   3
   3  -5  -1 12430.1 327.914  15
  -3  -5   1 12164.1 352.277  14
  -3  -5   0 16540.2 427.382   7
  -3  -5   0 16256.6 355.057   4
  -3   5   0 16702.6 526.315  17
   3  -5   0 16070.9 498.480   3
   3   5   0 16095.1 567.817  11
   3  -5   0 16322.7 379.207   4
  -3  -5   0 16233.4 406.570  14
  -3  -5  -1 27292.6 530.621  14
  -3  -5  -1 27557.4 561.060   7
  -3  -5  -1 27290.4 477.315   4
  -3   5  -1 26275.9 473.721  12
   3   5   1 27903.5 746.638  11
   3  -5   1 26730.5 479.114   4
  -3   5  -1 27907.9 663.622  17
  -3  -5  -2 8849.70 323.372   7
   3  -5   2 8442.61 409.140   2
  -3  -5  -2 8613.00 276.823   4
  -3   5  -2 8230.69 275.168  12
   3   5   2 8487.46 417.157  11
   3  -5   2 8582.51 265.727   4
  -3   5  -2 8537.22 357.886  17
  -3  -5  -2 8543.31 304.122  14
  -3  -5  -3 14610.9 369.361   4
  -3   5  -3 14162.7 372.106  12
  -3  -5  -3 14827.3 375.014  18
  -3  -5  -3 15233.6 431.697   7
   3   5   3 14536.3 555.786  11
   3  -5   3 14397.5 369.956   5
   3  -5   3 14673.4 382.833  14
  -3  -5  -4 25791.8 566.154   7
  -3  -5  -4 26025.1 496.339   4
  -3   5  -4 25627.9 510.671  12
   3  -5   4 26431.5 516.563   5
  -3  -5  -4 25464.0 510.057  18
   3  -5   4 24927.5 519.873  14
  -3  -5  -5 13425.4 344.249   4
  -3   5  -5 13233.0 364.072  12
  -3  -5  -5 12772.4 362.054  18
   3  -5   5 12978.9 362.879   5
   3  -5   5 13548.5 380.264  14
  -3  -5  -5 13569.5 401.049   7
  -3   5  -6 19406.8 411.825  12
  -3  -5  -6 19173.7 426.047  18
   3  -5   6 19004.2 419.575   5
   3  -5   6 19637.5 435.128  14
  -3  -5  -6 19584.6 452.513   7
  -3   5  -7 5292.40 188.496  12
  -3  -5  -7 5341.52 200.966  18
   3  -5   7 5605.59 202.846   5
   3  -5   7 5248.81 199.393  14
  -3   5  -8 2082.65 90.1680  12
   3  -5   8 2108.58 99.8286   5
   3  -5   8 2084.74 99.4365  14
  -3  -6   7 153.777 31.8855   5
   3   6  -7 163.612 28.3414  12
  -3  -6   7 164.988 26.7508  14
   3   6  -6 3879.18 160.772  12
  -3  -6   6 4292.06 186.249   5
  -3  -6   6 4056.41 169.787  14
   3   6  -5 1313.67 99.0526  12
  -3  -6   5 1306.69 110.225   5
   3  -6  -5 1166.04 88.7945   4
  -3  -6   5 1331.81 110.325  14
  -3  -6   4 267.129 50.1004   7
   3   6  -4 205.491 37.2590  12
   3  -6  -4 200.743 40.0350   4
  -3  -6   4 185.921 43.5571   5
  -3  -6   4 273.624 51.7166  14
  -3  -6   3 10616.3 336.011   7
   3  -6  -3 10981.5 316.941   4
  -3  -6   3 10946.2 325.785   5
  -3  -6   3 11055.5 344.946  14
  -3  -6   2 1810.40 142.867   7
   3  -6  -2 1958.11 137.101   4
  -3  -6   2 1938.69 131.866   5
  -3  -6   2 1992.85 149.119  14
  -3  -6   1 7274.05 292.555   7
   3  -6  -1 7454.87 268.469   4
  -3  -6   1 7352.79 286.676  14
  -3  -6   0 40499.3 699.992   7
  -3  -6   0 41260.4 585.582   4
   3  -6   0 41451.6 626.538   4
  -3  -6   0 41230.8 680.427  14
  -3  -6  -1 15066.7 431.214   7
  -3  -6  -1 14395.8 357.996   4
  -3  -6  -1 15025.8 409.802  14
   3  -6   1 14925.2 367.651   4
  -3  -6  -2 6127.72 274.177   7
  -3  -6  -2 6078.17 236.379   4
  -3   6  -2 6052.00 231.385  12
   3  -6   2 5969.39 222.196   4
  -3  -6  -3 4223.35 225.495   7
  -3  -6  -3 4086.22 193.461   4
   3  -6   3 4197.46 188.899   5
  -3   6  -3 4149.16 195.058  12
   3  -6   3 4080.91 192.324  14
  -3  -6  -4 6321.46 269.381   7
  -3  -6  -4 6052.81 228.628   4
  -3   6  -4 6018.76 231.025  12
   3  -6   4 6097.88 230.006   5
   3  -6   4 5973.90 234.054  14
  -3  -6  -5 343.848 59.8376   7
  -3   6  -5 390.080 55.9679  12
  -3  -6  -5 305.042 47.8249   4
   3  -6   5 299.998 50.3868   5
   3  -6   5 276.937 45.1961  14
  -3   6  -6 7181.79 212.656  12
  -3  -6  -6 6779.01 196.368  18
   3  -6   6 6731.01 209.918   5
   3  -6   6 6854.90 211.297  14
  -3   6  -7 2115.50 94.1036  12
   3  -6   7 2099.65 96.1573   5
   3  -6   7 2023.16 90.9770  14
  -3  -7   6 1416.13 77.8441   5
  -3  -7   6 1347.77 72.7577  14
   3  -7  -5 1454.39 82.3705   4
  -3  -7   5 1387.36 89.7809   5
  -3  -7   5 1521.23 97.8320  14
  -3  -7   4 4483.50 186.907  14
   3  -7  -4 4477.19 168.613   4
  -3  -7   4 4288.80 168.559   5
   3  -7  -3 3014.78 150.917   4
  -3  -7   3 3012.47 165.461  14
  -3  -7   2 3329.78 173.395   7
   3  -7  -2 3720.24 175.047   4
  -3  -7   2 3571.53 186.208  14
  -3  -7   1 3335.94 183.196   7
   3  -7  -1 3542.37 172.195   4
  -3  -7   1 3567.17 189.174  14
  -3  -7   0 9568.86 317.885   7
   3  -7   0 9430.07 279.283   4
  -3  -7   0 9304.26 256.135   4
  -3  -7   0 9680.89 312.297  14
  -3  -7  -1 3423.59 161.818   4
   3  -7   1 3393.77 160.295   4
  -3  -7  -1 3491.82 194.224   7
  -3  -7  -2 1055.85 90.5660   4
   3  -7   2 975.510 77.2274   4
  -3  -7  -2 958.621 100.107   7
  -3  -7  -3 2452.90 154.663   7
  -3  -7  -3 2573.79 136.333   4
  -3   7  -3 2546.96 125.399  12
  -3  -7  -4 2448.80 123.291   4
  -3   7  -4 2314.12 114.817  12
  -3  -7  -4 2466.32 144.942   7
  -3   7  -5 9228.89 204.957  12
  -3  -7  -5 9261.76 247.691   7
   3  -8  -4 4647.31 122.700   4
  -3  -8   4 4417.94 133.195  14
   3  -8  -3 5015.38 150.398   4
  -3  -8   3 4845.11 161.113  14
   3  -8  -2 267.039 37.7055   4
  -3  -8   2 277.446 41.4988  14
   3  -8  -1 9303.21 224.328   4
  -3  -8   1 9529.59 250.905  14
  -3  -8   0 2114.19 113.278   7
   3  -8   0 2098.19 103.817   4
  -3  -8  -1 3993.36 158.854   7
   3  -8   1 4212.25 131.930   4
  -3  -8  -2 1352.52 89.5672   7
  -3  -8  -3 1087.83 74.4956   7
  -4   0  10 610.897 56.5664   6
   4   0 -10 610.718 58.7539   9
  -4   0   9 332.270 54.9016   6
   4   0  -9 306.033 50.8575   9
   4   0  -8 8537.72 303.280   9
   4   0  -7 23498.5 513.299   9
  -4   0   6 2316.82 208.500  10
   4   0  -6 2346.95 140.997  12
   4   0  -6 2159.64 149.894   9
   4   0  -6 2425.12 212.214   2
   4   0  -5 78501.8 1108.58   2
   4   0  -5 79215.1 1004.25   3
  -4   0   4 50209.3 810.619  10
   4   0  -4 48570.1 800.757   2
  -4   0   4 49830.9 655.211  17
   4   0  -3 48078.4 731.645   2
  -4   0   3 46353.7 637.723  17
   4   0  -2 46757.1 540.423  11
   4   0  -2 45764.2 680.324   2
  -4   0   1 2817.78 160.211   1
   4   0  -1 2828.57 161.081   2
   4   0  -1 2876.31 143.863  11
  -4   0   1 2992.00 157.212  17
   4   0  -1 2703.97 163.379  16
  -4   0   0 212391. 1324.02  17
   4   0   0 214887. 1483.58  16
  -4   0   0 213782. 1425.29   1
   4   0   1 42419.9 645.965   2
   4   0   1 42236.1 689.521  16
  -4   0  -1 42446.2 674.896   1
  -4   0  -1 42069.8 587.387  17
  -4   0  -2 8469.91 319.624   1
  -4   0  -2 8945.38 269.812  17
   4   0   2 8815.60 337.936  16
  -4   0  -3 2379.00 182.744   1
   4   0   3 2485.25 195.442  16
  -4   0  -4 4806.34 283.101   1
   4   0   4 5090.00 302.508  16
  -4   0  -5 30.1961 24.6810   1
   4   0   5 79.5716 24.4040   5
   4   0   5 113.123 50.7615  16
  -4   0  -5 79.8602 29.3958  18
  -4   0  -6 41501.8 688.982  13
  -4   0  -6 40429.4 618.142  18
   4   0   6 40839.4 583.346   5
  -4   0  -7 559.872 79.1111  13
  -4   0  -7 580.326 75.5362   8
  -4   0  -8 810.227 89.8851  13
  -4   0  -8 694.512 78.2636   9
  -4   0  -8 825.847 85.9145   8
  -4   0  -9 41.2407 13.1313   9
  -4   0  -9 69.8823 20.8798   8
   4   0   9 43.5298 14.4415  14
  -4  -1  10 7285.20 204.331   6
   4  -1 -10 7045.16 183.325   9
   4   1 -10 7552.45 202.473   9
   4  -1  -9 5843.35 218.028   9
  -4   1   9 5773.33 204.355   6
  -4  -1   9 6022.53 235.757   6
   4   1  -9 6180.64 230.992   9
   4   1  -8 16359.3 416.872   9
   4  -1  -8 15620.3 399.760   9
  -4   1   8 15802.0 388.834   6
   4  -1  -7 11920.4 358.612   9
   4   1  -7 12516.1 340.703  12
   4   1  -7 12403.1 370.959   9
   4  -1  -7 12442.9 333.760   8
   4   1  -6 17616.4 400.218  12
  -4   1   6 18233.3 589.595  10
  -4  -1   6 18119.8 585.020  10
   4  -1  -6 17648.8 423.986   9
   4   1  -6 17841.8 430.819   9
   4  -1  -6 17730.0 591.365   2
   4   1  -6 17520.5 545.395   2
   4   1  -5 20854.4 415.299  12
  -4   1   5 19811.3 576.351  10
  -4  -1   5 20273.0 561.768  10
   4   1  -5 21161.8 440.379   9
   4  -1  -5 21157.4 601.121   2
   4   1  -5 19976.3 543.698   2
   4  -1  -5 20895.1 536.147   3
   4  -1  -5 20355.0 426.117   9
   4   1  -4 9029.42 306.458  11
  -4  -1   4 8611.19 325.269  10
   4  -1  -4 8570.77 350.789   2
  -4   1   4 8705.96 289.242  17
   4   1  -4 8673.45 324.635   2
  -4  -1   4 9079.78 281.706  17
   4  -1  -4 9124.50 346.913   3
   4  -1  -3 12698.1 384.783   3
   4   1  -3 11288.2 331.724  11
   4  -1  -3 12159.9 395.209   2
  -4  -1   3 12611.1 350.654  10
   4   1  -3 11830.3 343.607   2
  -4   1   3 11487.9 329.948  17
  -4  -1   3 11518.9 319.780  17
   4  -1  -2 43270.3 706.675   2
   4   1  -2 44690.9 644.754  11
  -4  -1   2 44934.4 590.255  10
   4   1  -2 45458.9 616.039   2
  -4   1   2 46057.7 649.617  17
  -4  -1   2 45444.3 635.711  17
   4   1  -1 27668.2 474.031  16
  -4  -1   1 28620.2 560.730   1
   4  -1  -1 28564.3 563.090   2
   4   1  -1 28861.1 530.173  11
   4   1  -1 29090.5 468.963   2
  -4   1   1 28706.4 462.426   1
   4  -1  -1 28258.6 564.592  16
  -4   1   1 27994.8 496.919  17
  -4  -1   1 29356.3 507.449  17
   4  -1   0 18598.5 457.870   2
   4   1   0 18943.8 372.872   2
  -4  -1   0 17804.6 445.081   1
  -4   1   0 17835.1 390.782   1
  -4   1   0 18538.6 399.660  17
  -4  -1   0 18681.6 404.693  17
   4  -1   0 18303.3 462.381  16
   4   1   0 17688.0 396.295  16
   4  -1   1 110621. 1177.80  16
  -4   1  -1 107912. 1034.07   1
   4  -1   1 110404. 1133.78   2
  -4   1  -1 108685. 957.039  17
  -4  -1  -1 110599. 991.533  17
   4   1   1 108095. 1045.57  16
  -4  -1  -1 108905. 1136.30   1
  -4  -1  -2 27062.6 600.917   1
  -4   1  -2 27342.8 479.859  17
  -4   1  -2 27864.1 575.366   1
  -4  -1  -2 26877.0 494.053  17
   4   1   2 26549.6 566.432  16
   4  -1   2 27748.4 623.375  16
  -4  -1  -3 19325.1 542.121   1
  -4   1  -3 18263.6 382.446  17
   4   1   3 17942.0 506.572  16
   4  -1   3 18310.2 548.575  16
  -4   1  -3 17931.5 503.378   1
  -4  -1  -4 17290.4 549.696   1
   4  -1   4 16658.2 504.697  10
   4   1   4 16911.1 537.052  16
   4  -1   4 17677.0 583.061  16
  -4   1  -4 17272.0 537.751   1
  -4  -1  -5 17753.9 431.074  13
  -4   1  -5 18170.0 442.102  13
  -4  -1  -5 18550.0 611.855   1
   4  -1   5 18147.4 565.964  10
   4   1   5 17959.7 600.818  16
   4  -1   5 18864.3 646.397  16
  -4  -1  -5 18479.6 429.119  18
   4  -1   5 18370.4 402.380   5
  -4   1  -5 18632.0 609.797   1
  -4  -1  -6 18354.1 453.698  13
  -4   1  -6 17909.3 456.187  13
   4  -1   6 18337.5 415.039   5
  -4  -1  -6 18353.0 441.960  18
  -4  -1  -6 19030.9 429.384   8
  -4  -1  -7 3982.11 208.216  13
  -4   1  -7 3787.68 207.009  13
  -4  -1  -7 3514.79 187.205  18
   4  -1   7 3747.35 180.156   5
  -4  -1  -7 4090.70 198.963   8
  -4   1  -8 4021.02 195.245  13
  -4  -1  -8 3921.49 176.111  18
  -4  -1  -8 3795.41 172.421   9
  -4  -1  -8 4061.15 182.189   8
  -4   1  -8 4158.81 188.622   8
   4  -1   8 3836.39 192.870  14
  -4  -1  -9 90.9118 21.1561   9
  -4   1  -9 130.145 28.4526   9
  -4  -1  -9 81.8497 20.9222   8
  -4   1  -9 78.3667 20.9857   8
   4  -1   9 117.498 28.4927  14
   4   1   9 111.035 25.5701  14
  -4  -2  10 3976.01 141.473   6
   4   2 -10 3914.33 129.387   9
   4   2  -9 1247.35 96.7624   9
  -4  -2   9 1103.25 96.9015   6
   4  -2  -9 1140.41 83.9939   9
   4  -2  -9 1204.84 87.4172   8
   4   2  -8 1754.52 122.825  12
   4  -2  -8 1718.93 122.268   9
   4   2  -8 1741.91 130.867   9
   4  -2  -8 1761.90 125.276   8
   4   2  -7 17038.6 408.338  12
  -4  -2   7 16656.5 393.629   5
   4   2  -7 16544.9 418.520   9
   4  -2  -7 16447.4 401.785   9
   4  -2  -7 17160.7 411.861   8
   4  -2  -6 48131.7 683.136   9
  -4   2   6 51689.9 1010.78  10
  -4  -2   6 43671.3 918.095  10
  -4  -2   6 46728.2 675.050   5
   4   2  -6 47449.3 694.183   9
   4  -2  -6 49848.0 1017.36   2
   4   2  -6 47385.4 683.619  12
   4  -2  -6 47180.0 679.050   8
   4   2  -5 14201.0 359.492   9
   4   2  -5 14078.6 356.774  12
   4  -2  -5 13836.8 350.018   9
   4   2  -5 14612.0 477.385  11
  -4   2   5 14668.1 511.947  10
  -4  -2   5 13364.0 460.262  10
  -4  -2   5 13939.5 357.381   5
   4  -2  -5 13817.5 351.077   8
   4  -2  -5 14233.1 512.008   2
   4  -2  -5 13802.2 462.179   3
   4   2  -4 9835.99 375.749  11
  -4  -2   4 9613.84 347.261  10
   4  -2  -4 10515.1 412.425   2
  -4   2   4 9761.40 334.421  17
   4  -2  -4 9505.79 371.333   3
   4   2  -3 11620.3 391.236  11
   4  -2  -3 12540.8 426.574   2
  -4  -2   3 11963.5 338.083  10
  -4   2   3 12099.1 367.231  17
   4  -2  -3 12112.9 400.790   3
   4  -2  -2 28507.2 619.026   2
   4   2  -2 27186.9 579.290  11
  -4   2   2 27619.4 545.655  17
   4  -2  -1 92944.9 1104.49   2
   4   2  -1 95485.9 1093.01  11
  -4   2   1 94417.7 985.844  17
   4  -2   0 119565. 1263.41  16
   4  -2   0 118121. 1263.36   2
  -4   2   0 121727. 988.789   1
   4   2   0 121576. 1264.87  11
  -4   2   0 119492. 1094.68  17
  -4  -2   0 119458. 1265.54   1
   4  -2   0 119363. 1106.39   3
  -4   2  -1 51946.8 724.590   1
   4  -2   1 55244.3 877.807   2
   4  -2   1 54109.8 882.260  16
   4   2   1 57011.7 877.346  11
   4  -2   1 58235.7 734.604   3
  -4  -2  -1 54014.3 869.618   1
  -4   2  -1 54774.4 731.490  17
   4   2   1 52153.4 678.885  16
  -4  -2  -2 1300.02 138.928   1
  -4   2  -2 1229.22 108.167  17
   4   2   2 1502.53 130.254  16
   4  -2   2 1344.96 144.740  16
  -4   2  -2 1318.29 125.798   1
  -4  -2  -3 8583.01 376.507   1
  -4   2  -3 8619.66 353.300   1
   4   2   3 8396.74 340.202  16
   4  -2   3 7934.95 376.247  16
  -4   2  -4 834.123 89.5627  13
   4  -2   4 829.749 85.1192   5
  -4  -2  -4 875.717 89.8157   6
  -4   2  -4 735.179 78.9545  12
  -4  -2  -4 856.243 92.2774  18
   4   2   4 688.159 107.420  16
   4  -2   4 870.003 133.104  16
  -4  -2  -4 838.008 123.970   1
  -4   2  -4 793.881 117.915   1
  -4  -2  -5 7681.89 276.776  13
  -4   2  -5 6951.40 271.988  13
  -4   2  -5 7279.11 254.402  12
  -4  -2  -5 7384.65 283.415  18
   4  -2   5 7434.19 414.545  16
   4  -2   5 7598.35 397.322  10
   4  -2   5 7841.94 275.525   5
   4   2   5 7080.31 373.402  16
  -4   2  -5 8147.23 408.090   1
  -4  -2  -5 7814.97 402.571   1
  -4  -2  -6 25975.9 518.984  13
  -4   2  -6 26316.0 542.776  13
  -4   2  -6 26695.6 481.821  12
  -4  -2  -6 27070.6 553.457  18
   4  -2   6 27064.1 523.952   5
  -4  -2  -6 27269.4 498.667   8
   4  -2   6 28310.3 572.329  14
  -4   2  -7 7902.56 287.837  13
  -4  -2  -7 8157.15 291.791  18
   4  -2   7 7625.18 263.823   5
  -4  -2  -7 8009.62 263.538   8
   4  -2   7 8400.87 303.090  14
  -4  -2  -7 7719.82 274.528  13
  -4  -2  -8 5979.73 221.924  18
   4  -2   8 5934.30 201.212   5
  -4   2  -8 6095.34 225.352   9
  -4  -2  -8 5527.65 196.062   8
  -4   2  -8 5824.53 216.071   8
   4  -2   8 5984.37 231.781  14
  -4  -2  -9 1250.94 78.0868  18
  -4   2  -9 1393.03 87.1510   9
   4  -2   9 1252.61 84.9092  14
  -4  -2  -9 1294.36 71.9790   8
  -4   2  -9 1265.88 81.1246   8
  -4  -3   9 1747.28 109.417   6
   4   3  -9 1740.93 95.4675   9
   4  -3  -9 1822.38 103.005   8
   4   3  -8 3874.50 177.333  12
  -4  -3   8 3984.34 196.144   6
  -4  -3   8 3743.54 169.990   5
   4   3  -8 4014.55 176.911   9
   4  -3  -8 4050.41 186.528   8
  -4  -3   7 32390.7 602.887   6
  -4  -3   7 32307.1 565.964   5
   4   3  -7 32240.0 540.999   9
   4  -3  -7 31217.6 565.047   8
   4  -3  -6 8768.14 305.365   8
   4   3  -6 8807.02 300.526  12
   4   3  -6 8793.12 285.153   9
  -4  -3   6 8724.34 315.342   6
  -4  -3   6 8822.33 307.452   5
   4  -3  -5 3479.03 254.293   3
   4   3  -5 3265.79 177.782  12
   4   3  -5 3174.99 247.391  11
  -4   3   5 3586.59 263.858  10
  -4  -3   5 3320.23 188.990   6
  -4  -3   5 3298.25 184.917   5
   4  -3  -5 3335.98 254.445   2
   4  -3  -5 3248.99 182.850   8
   4   3  -4 4860.20 204.867  12
   4   3  -4 4399.45 278.130  11
  -4  -3   4 4571.41 210.661   6
   4  -3  -4 4630.34 286.300   2
  -4  -3   4 4691.56 214.395   5
  -4   3   4 4594.12 251.904  17
   4  -3  -4 4639.95 183.541  15
   4  -3  -4 4509.56 206.053   8
   4  -3  -4 4632.12 279.989   3
   4   3  -3 24000.5 636.462  11
   4  -3  -3 23799.0 629.507   2
  -4   3   3 23966.0 572.346  17
   4  -3  -3 24537.3 615.093   3
   4  -3  -2 4367.10 248.429   3
   4  -3  -2 4214.20 258.645   2
   4   3  -2 4071.21 254.992  11
  -4   3   2 4353.56 238.499  17
  -4   3   1 8461.86 324.643  17
   4  -3  -1 7982.36 352.037   2
   4   3  -1 8745.17 367.010  11
   4  -3  -1 8768.79 335.724   3
   4  -3   0 38891.2 796.886   2
   4   3   0 38647.3 789.219  11
  -4   3   0 37843.1 681.302  17
   4  -3   0 38052.1 763.222  16
   4  -3   0 39205.8 677.514   3
   4  -3   1 10867.1 429.043   2
   4   3   1 10133.7 417.496  11
  -4   3  -1 10464.5 353.059  17
   4  -3   1 10481.0 412.220  16
   4  -3   1 10813.9 334.664   3
   4   3   2 17604.2 564.613  11
  -4  -3  -2 17607.4 555.859   1
  -4   3  -2 17730.9 451.100  17
   4  -3   2 17498.5 557.948  16
  -4   3  -2 18434.4 487.906   1
  -4  -3  -3 7489.84 376.798   1
  -4  -3  -3 7248.45 242.290   4
  -4   3  -3 7244.76 250.216  13
  -4  -3  -3 7460.37 266.308   7
  -4  -3  -3 7192.75 264.127  18
  -4   3  -3 7168.55 253.037  12
   4   3   3 6619.74 363.092  11
   4  -3   3 6797.50 366.054  16
  -4   3  -3 6904.32 328.175   1
   4  -3   3 6974.15 245.255   5
  -4  -3  -4 14106.2 375.672   7
  -4   3  -4 14106.7 366.153  13
  -4   3  -4 14487.1 372.843  12
   4   3   4 13548.3 546.902  11
  -4  -3  -4 13992.2 390.642  18
   4  -3   4 14484.6 382.764  14
  -4   3  -4 14314.1 515.808   1
   4  -3   4 13717.3 547.241  16
  -4  -3  -4 14170.3 537.378   1
   4  -3   4 14152.3 370.091   5
  -4   3  -5 6279.85 250.345  13
  -4   3  -5 5828.15 238.876  12
  -4  -3  -5 6254.96 268.300  18
   4  -3   5 6107.52 253.367   5
   4  -3   5 6172.58 263.012  14
  -4   3  -6 7736.75 276.529  13
  -4   3  -6 7715.54 267.747  12
   4  -3   6 7573.55 278.086   5
  -4  -3  -6 7665.83 297.069  18
   4  -3   6 7908.28 300.008  14
  -4   3  -7 10457.7 301.016  13
  -4   3  -7 10392.4 279.004  12
  -4  -3  -7 11002.6 331.995  18
   4  -3   7 10858.3 311.132   5
   4  -3   7 10891.2 331.538  14
  -4  -3  -8 1147.14 93.0428  18
   4  -3   8 1090.23 83.5322   5
  -4   3  -8 1137.11 85.8062   9
   4  -3   8 1112.08 90.8121  14
  -4   3  -9 4208.68 121.977   9
   4  -3   9 4279.74 133.756  14
  -4  -4   9 56.1081 12.8691   6
   4  -4  -9 80.9712 19.5781   8
   4   4  -8 4041.40 165.866  12
  -4  -4   8 3713.90 152.166   7
  -4  -4   8 4008.08 167.257   6
  -4  -4   8 4078.02 168.203   5
   4  -4  -8 4269.70 177.582   8
   4   4  -7 15648.6 371.578  12
  -4  -4   7 14188.7 358.197   6
  -4  -4   7 14331.8 368.831   5
   4  -4  -7 15206.0 383.305   8
   4   4  -6 14288.4 374.269  12
   4  -4  -6 14182.5 392.326   8
  -4  -4   6 14258.6 378.954   6
  -4  -4   6 14695.9 398.805   5
   4   4  -5 4355.69 205.394  12
  -4  -4   5 4764.28 219.233   6
  -4  -4   5 4751.08 231.504   5
   4  -4  -5 4999.43 235.653   8
   4   4  -5 4529.14 186.635  15
   4  -4  -4 34364.4 824.444   3
   4  -4  -4 33829.0 802.160   2
   4   4  -4 32943.7 549.937  12
   4   4  -4 33770.8 848.154  11
   4  -4  -4 32458.7 505.895   4
  -4  -4   4 32250.9 556.487   6
  -4  -4   4 33767.0 600.832   5
  -4   4   4 31988.8 724.799  17
   4  -4  -4 32421.3 508.506  15
   4  -4  -4 32184.6 590.581   8
   4  -4  -3 13546.6 505.772   3
   4   4  -3 12872.3 326.970  12
   4   4  -3 13055.5 516.917  11
   4  -4  -3 13342.9 493.686   2
   4  -4  -3 13246.0 329.571   4
  -4  -4   3 13487.5 369.583   5
  -4   4   3 12766.7 455.659  17
   4  -4  -3 13356.8 371.892   8
   4  -4  -3 13168.7 329.809  15
  -4  -4   3 12619.4 336.422  14
  -4  -4   2 7295.18 281.802   7
   4  -4  -2 6743.28 349.698   2
   4   4  -2 6237.45 349.853  11
  -4  -4   2 6928.74 255.299   5
  -4   4   2 6629.45 326.031  17
   4  -4  -2 6981.46 239.399  15
   4  -4  -2 7224.03 353.505   3
  -4  -4   2 6894.80 247.350  14
   4  -4  -1 24063.4 443.252  15
  -4  -4   1 24331.5 505.151   7
   4  -4  -1 23548.6 648.832   2
   4   4  -1 23105.8 666.084  11
  -4  -4   1 23626.5 459.368   5
  -4   4   1 22977.4 595.047  17
   4  -4  -1 23682.7 612.357   3
  -4  -4   1 24154.8 462.244  14
  -4   4   0 30095.0 672.790  17
   4  -4   0 30227.7 752.485   2
  -4   4   0 30580.6 501.642  12
   4   4   0 28451.7 747.312  11
   4  -4   0 31000.0 664.531   3
   4  -4   0 30357.9 491.836  15
  -4  -4   0 30962.7 529.724  14
  -4  -4  -1 17857.8 377.147   4
  -4  -4  -1 18357.5 437.216   7
   4  -4   1 18362.0 607.283   2
  -4  -4  -1 17950.0 413.780  14
  -4   4  -1 17505.0 505.358  17
  -4   4  -1 17798.1 394.418  12
   4   4   1 18024.5 603.602  11
   4  -4   1 17969.7 568.658  16
   4  -4   1 17967.6 375.623  15
  -4  -4  -2 18790.9 403.003   4
   4  -4   2 18833.1 634.499   2
  -4  -4  -2 19912.3 463.189   7
  -4   4  -2 18998.5 422.346  12
   4   4   2 18722.4 639.129  11
  -4   4  -2 19218.2 515.705  17
   4  -4   2 19369.3 382.694  15
   4  -4   2 19266.2 607.613  16
  -4  -4  -2 19288.6 429.934  18
   4  -4   2 19141.9 404.942   5
  -4  -4  -3 11583.2 346.196  18
   4  -4   3 11774.1 521.695   2
  -4  -4  -3 11638.1 326.317   4
  -4  -4  -3 11440.1 358.624   7
  -4   4  -3 12022.2 346.836  12
   4   4   3 12010.2 526.259  11
   4  -4   3 11792.4 490.637  16
   4  -4   3 11427.8 331.891   5
  -4  -4  -4 4055.81 215.437   7
  -4  -4  -4 4041.90 194.725   4
  -4   4  -4 4385.68 212.098  12
  -4  -4  -4 4055.10 212.211  18
   4  -4   4 4105.56 205.048   5
   4  -4   4 3980.39 202.243  14
  -4   4  -5 5588.41 237.528  12
   4  -4   5 5185.15 232.937   5
  -4  -4  -5 5290.87 243.882  18
   4  -4   5 5342.21 237.111  14
  -4  -4  -5 5274.35 240.467   7
  -4   4  -6 1209.24 104.131  12
  -4  -4  -6 1247.52 113.260  18
   4  -4   6 1277.28 110.257   5
   4  -4   6 1234.84 110.213  14
  -4  -4  -6 1201.67 108.608   7
  -4   4  -7 7195.05 220.940  12
  -4  -4  -7 6994.54 244.735  18
   4  -4   7 7291.29 238.833   5
  -4   4  -7 7299.12 216.586   9
   4  -4   7 6797.46 234.402  14
  -4   4  -8 745.709 52.2863  12
  -4  -4  -8 810.098 68.6866  18
   4  -4   8 846.631 65.9953   5
  -4   4  -8 742.125 52.7411   9
   4  -4   8 776.855 64.6851  14
   4   5  -8 19133.7 301.321  12
  -4  -5   8 19404.9 313.875   5
   4   5  -7 8119.00 235.496  12
  -4  -5   7 8143.55 251.413   5
   4  -5  -7 8465.02 256.779   8
   4   5  -6 8871.36 270.577  12
  -4  -5   6 9140.80 295.408   5
   4  -5  -6 9334.16 300.693   8
   4   5  -5 3309.09 154.127  15
   4   5  -5 3303.38 169.781  12
  -4  -5   5 3537.99 195.178   7
   4  -5  -5 3553.71 157.273   4
  -4  -5   5 3331.16 189.360   5
   4  -5  -5 3409.21 191.777   8
  -4  -5   5 3473.98 173.628  14
   4   5  -4 4371.64 194.343  12
  -4  -5   4 4450.55 226.934   7
   4  -5  -4 3978.93 216.078   8
   4  -5  -4 4294.50 188.454   4
  -4  -5   4 4627.33 224.245   5
  -4  -5   4 4553.53 208.713  14
  -4  -5   3 11938.1 379.332   7
   4  -5  -3 11692.9 326.709   4
  -4  -5   3 11613.9 349.270   5
   4  -5  -3 11542.0 322.631  15
  -4  -5   3 11359.8 337.432  14
  -4  -5   2 4344.48 228.131   7
   4  -5  -2 4078.45 195.775   4
  -4  -5   2 4200.48 205.351   5
   4  -5  -2 4124.84 196.536  15
  -4  -5   2 4065.21 203.886  14
  -4  -5   1 16434.8 443.130   7
   4  -5  -1 16518.5 567.554   2
   4   5  -1 16841.9 616.896  11
   4  -5  -1 16474.1 397.125   4
  -4   5   1 16479.5 549.593  17
   4  -5  -1 17237.7 567.147   3
   4  -5  -1 16358.9 391.102  15
  -4  -5   1 16920.8 418.751  14
  -4  -5   0 16888.4 372.394   4
  -4  -5   0 16715.7 447.766   7
   4  -5   0 16407.4 573.143   2
  -4   5   0 16225.3 375.747  12
   4   5   0 17909.0 637.520  11
  -4   5   0 16594.2 545.236  17
   4  -5   0 16292.5 386.974  15
  -4  -5   0 16377.2 416.896  14
  -4  -5  -1 1711.54 123.404   4
  -4  -5  -1 2019.04 156.798   7
   4  -5   1 1699.12 186.588   2
  -4   5  -1 1611.66 121.679  12
   4   5   1 1816.22 201.581  11
  -4   5  -1 1938.53 182.775  17
  -4  -5  -1 1842.79 141.744  14
  -4  -5  -2 11251.0 323.446   4
  -4  -5  -2 12093.3 384.721   7
  -4   5  -2 11243.1 331.606  12
  -4  -5  -3 8236.59 316.585   7
  -4  -5  -3 8153.60 279.054   4
  -4  -5  -3 7806.54 276.513  18
  -4   5  -3 8151.08 284.986  12
   4  -5   3 7850.14 252.233   4
   4  -5   3 8059.72 274.737   5
  -4  -5  -4 2030.06 152.512   7
  -4  -5  -4 2056.23 137.288   4
  -4   5  -4 2014.31 140.070  12
  -4  -5  -4 2011.87 142.360  18
   4  -5   4 1918.64 136.780   5
   4  -5   4 2021.03 136.197  14
  -4   5  -5 6015.45 232.950  12
  -4  -5  -5 5584.03 229.903  18
   4  -5   5 5888.78 233.360   5
   4  -5   5 5686.42 224.979  14
  -4  -5  -5 6245.96 254.009   7
  -4   5  -6 2897.44 146.723  12
  -4  -5  -6 2715.97 148.644  18
   4  -5   6 2776.19 147.362   5
   4  -5   6 2617.98 139.728  14
  -4  -5  -6 2720.65 151.006   7
  -4   5  -7 16800.2 293.275  12
  -4  -5  -7 16749.6 315.800  18
   4  -5   7 17135.7 314.554   5
   4   6  -6 149.734 27.7973  12
  -4  -6   6 143.527 31.4471   5
  -4  -6   5 5730.12 209.976   7
   4   6  -5 5530.64 185.638  12
   4  -6  -5 5511.27 178.129   4
  -4  -6   5 5575.15 216.772   5
   4   6  -5 5551.02 176.958  15
  -4  -6   5 5494.22 199.116  14
  -4  -6   4 8638.89 288.246   7
   4  -6  -4 8986.22 261.467   4
  -4  -6   4 9169.27 290.999   5
  -4  -6   4 9374.82 287.210  14
  -4  -6   3 23610.1 506.776   7
   4  -6  -3 24342.2 458.376   4
  -4  -6   3 23348.1 467.613   5
  -4  -6   3 24062.2 484.802  14
  -4  -6   2 1175.07 117.067   7
   4  -6  -2 1070.98 99.1895   4
  -4  -6   2 1005.19 101.119  14
  -4  -6   1 5091.28 246.874   7
   4  -6  -1 4780.26 214.137   4
  -4  -6   1 4610.33 221.968  14
  -4  -6   0 19976.5 401.782   4
  -4  -6   0 21870.5 514.643   7
   4  -6   0 20645.2 442.246   4
  -4  -6   0 21581.9 485.859  14
  -4  -6  -1 10585.3 301.991   4
  -4   6  -1 10522.5 294.102  12
   4  -6   1 10693.6 311.554   4
  -4  -6  -2 2903.73 184.588   7
  -4  -6  -2 2580.58 150.372   4
  -4   6  -2 2451.73 145.964  12
   4  -6   2 2496.93 143.199   4
  -4  -6  -3 1224.26 117.575   7
  -4  -6  -3 1203.33 101.383   4
  -4   6  -3 1261.04 104.285  12
  -4  -6  -4 1124.14 105.321   7
  -4   6  -4 1045.25 91.6067  12
   4  -6   4 1025.28 87.0567   5
  -4   6  -5 1345.88 94.8748  12
  -4  -6  -5 1246.91 84.7269  18
   4  -6   5 1162.41 86.7802   5
   4  -6   5 1176.52 80.4588  14
  -4  -6  -5 1411.03 108.054   7
  -4   6  -6 89.8395 22.4058  12
  -4  -6  -6 61.0446 16.6482  18
   4  -6   6 79.6268 17.4832   5
   4  -6   6 28.8429 9.70476  14
   4  -7  -5 603.907 44.3006   4
  -4  -7   5 552.414 48.6753  14
  -4  -7   4 7372.45 199.591   7
   4  -7  -4 7881.87 202.461   4
   4   7  -4 7646.06 194.822  15
  -4  -7   4 7659.80 216.375  14
  -4  -7   3 8166.48 246.229   7
   4  -7  -3 8731.52 238.761   4
  -4  -7   3 8805.03 257.174  14
  -4  -7   2 5203.03 212.927   7
   4  -7  -2 5485.41 200.894   4
  -4  -7   2 5488.01 214.102  14
  -4  -7   1 963.441 96.0833   7
   4  -7  -1 900.297 83.4873   4
  -4  -7   1 869.666 88.2035  14
  -4  -7   0 4281.43 205.697   7
   4  -7   0 4560.86 184.923   4
  -4  -7  -1 552.612 73.2161   7
   4  -7   1 323.013 46.0083   4
  -4  -7  -2 2719.77 158.657   7
   4  -7   2 2828.90 124.275   4
  -4  -7  -3 7999.12 254.192   7
  -4   7  -3 7291.03 195.149  12
  -4   7  -4 7453.75 182.109  12
  -4  -7  -4 7888.35 229.345   7
   4  -8  -3 4023.50 114.477   4
   4   8  -3 3580.33 102.742  15
   4  -8  -2 6780.32 165.456   4
   4   8  -2 6418.43 157.165  15
  -4  -8   1 5710.53 160.460   7
   4  -8  -1 6086.02 161.287   4
   4   8  -1 5860.15 156.711  15
  -4  -8   0 5380.61 166.053   7
   4  -8   0 5707.18 150.257   4
   4   8   0 5719.91 148.188  15
   4  -8   1 5022.10 122.133   4
   4   8   1 4695.42 116.697  15
  -4  -8  -1 5184.60 162.132   7
  -4  -8  -2 1010.76 67.5038   7
   5   0 -10 1530.45 78.3491   9
  -5   0   9 2841.94 141.848   6
   5   0  -9 2789.93 142.959   9
  -5   0   8 11948.9 341.957   6
   5   0  -8 12053.7 340.313   9
  -5   0   7 3329.52 191.648   6
   5   0  -7 3361.63 192.098   9
  -5   0   6 24426.4 522.805   6
   5   0  -6 23999.9 511.146   9
  -5   0   5 924.328 96.4550   6
  -5   0   5 982.545 130.646  10
   5   0  -5 864.768 92.9020   9
   5   0  -5 942.258 130.506   2
   5   0  -5 949.341 124.337   3
   5   0  -4 24292.8 617.083   2
  -5   0   4 24346.8 609.625  10
   5   0  -4 25288.3 478.565   9
  -5   0   4 24243.7 530.234  17
   5   0  -3 6025.11 290.617   2
  -5   0   3 6088.87 266.825  17
   5   0  -2 2418.86 178.747   2
  -5   0   2 2411.85 167.014  17
   5   0  -1 11006.1 366.752   2
   5   0  -1 10874.7 320.199  11
  -5   0   1 10991.5 351.731  17
  -5   0   1 11132.3 373.728   1
   5   0  -1 10956.8 379.406  16
   5   0   0 7267.80 302.613   2
  -5   0   0 7027.56 304.253   1
   5   0   0 7358.75 281.595  11
  -5   0   0 6947.97 279.016  17
   5   0   0 7014.40 310.547  16
   5   0   1 4180.16 235.324   2
  -5   0  -1 3788.81 207.219  17
  -5   0  -1 3614.41 226.800   1
   5   0   1 4036.10 250.020  16
   5   0   2 3099.94 211.499   2
  -5   0  -2 3139.68 223.699   1
  -5   0  -2 3405.80 195.217  17
   5   0   2 3154.02 228.964  16
  -5   0  -3 4.26665 11.2876  17
   5   0   3-13.3416 23.3826  16
  -5   0  -3-20.5822 11.1900   1
  -5   0  -4 15212.7 401.635  13
  -5   0  -4 15210.9 378.371  18
  -5   0  -4 14992.8 401.527   6
  -5   0  -4 14976.7 556.369   1
   5   0   4 14686.1 564.297  16
   5   0   4 14539.2 349.658   5
  -5   0  -5 103514. 1087.67  13
  -5   0  -5 102602. 996.990  18
   5   0   5 101341. 946.817   5
  -5   0  -6 1899.48 148.757  13
  -5   0  -6 2012.48 135.587  18
   5   0   6 2091.26 133.290   5
  -5   0  -7 16083.9 406.603  13
  -5   0  -7 16002.4 371.737   8
  -5   0  -8 12556.6 297.813   9
  -5   0  -8 11852.0 279.174   8
   5   0   8 12518.3 313.550  14
  -5   0  -8 12297.5 311.749  13
  -5   0  -9 377.501 37.2716   9
  -5   0  -9 331.808 34.2563   8
   5   0   9 371.840 41.4880  14
  -5  -1  10 2276.54 93.4697   6
   5   1 -10 2491.28 97.0776   9
  -5  -1   9 494.048 60.9404   6
   5  -1  -9 424.917 53.0337   9
   5   1  -9 474.197 58.2808   9
  -5   1   8 6669.85 234.102   6
  -5  -1   8 6694.65 260.485   6
   5  -1  -8 7015.58 253.379   9
   5   1  -8 6987.27 256.261   9
  -5   1   7 954.642 96.2587   6
  -5  -1   7 1061.20 112.067   6
   5  -1  -7 874.539 94.7527   9
   5   1  -7 1094.28 108.305   9
  -5   1   6 327.854 58.0235   6
  -5  -1   6 392.923 66.9989   6
   5   1  -6 474.379 72.6113   9
   5  -1  -6 313.427 56.1131   9
   5   1  -5 8588.12 283.912  12
  -5   1   5 8448.17 284.630   6
  -5  -1   5 8467.37 307.000   6
  -5   1   5 8814.25 407.604  10
  -5  -1   5 8091.49 371.449  10
   5  -1  -5 8362.70 289.170   9
   5   1  -5 8518.96 292.595   9
   5  -1  -5 8819.41 413.705   2
   5   1  -5 8496.50 374.872   2
   5  -1  -5 8112.03 368.090   3
  -5  -1   4 11470.5 339.470   6
  -5  -1   4 11253.7 395.748  10
   5  -1  -4 11062.4 439.841   2
   5  -1  -4 11448.1 321.748   9
   5   1  -4 11171.7 317.018   9
  -5   1   4 11614.0 381.128  17
  -5  -1   4 11058.6 361.040  17
   5   1  -4 11540.6 404.603   2
   5  -1  -4 11302.7 431.703   3
   5  -1  -3 25360.5 618.412   3
   5   1  -3 26169.2 566.195   2
  -5  -1   3 24273.4 528.381  10
   5  -1  -3 23154.4 610.128   2
  -5   1   3 24903.9 556.521  17
  -5  -1   3 24945.4 544.281  17
   5  -1  -2 15424.5 482.751   2
   5   1  -2 15476.9 422.234  11
   5   1  -2 14741.9 399.580   2
  -5   1   2 15293.9 426.592  17
  -5  -1   2 15173.2 425.136  17
  -5   1   1 16503.4 418.967   1
   5  -1  -1 15312.0 470.146   2
   5   1  -1 16617.0 453.285  11
   5   1  -1 16929.1 414.123   2
  -5   1   1 16385.5 436.604  17
  -5  -1   1 16582.8 444.168  17
   5  -1   0 62601.6 973.416   2
   5   1   0 59304.1 766.476   2
   5   1   0 60839.0 907.187  11
  -5   1   0 61791.9 845.224  17
  -5  -1   0 59536.2 836.604  17
   5   1   0 60835.9 859.171  16
   5  -1   0 60326.6 963.804  16
  -5  -1   0 60541.1 952.929   1
  -5   1   0 63092.2 866.321   1
   5  -1   1 25428.1 629.675   2
  -5  -1  -1 25538.6 634.607   1
   5   1   1 25154.3 604.668  11
  -5   1  -1 26832.4 605.016   1
  -5   1  -1 25836.3 543.218  17
  -5  -1  -1 26341.8 557.828  17
   5   1   1 25334.8 591.927  16
   5  -1   1 26371.2 666.965  16
   5  -1   2 7613.62 359.272   2
  -5   1  -2 8741.81 367.708   1
  -5   1  -2 8083.78 302.565  17
  -5  -1  -2 8140.61 313.728  17
   5   1   2 7888.06 349.327  16
   5  -1   2 8244.57 389.774  16
  -5  -1  -2 8014.21 373.853   1
  -5  -1  -3 40520.8 609.598  13
  -5   1  -3 42231.1 641.102  13
  -5   1  -3 41227.2 620.535   6
  -5   1  -3 41569.9 856.693   1
  -5  -1  -3 40844.7 630.492   6
   5   1   3 37821.9 824.802  16
   5  -1   3 39437.2 895.641  16
  -5  -1  -3 39412.1 868.784   1
   5  -1   3 40316.4 578.278   5
  -5  -1  -4 93491.4 981.466  13
  -5   1  -4 95402.5 1009.98  13
  -5   1  -4 96423.2 1399.34   1
  -5   1  -4 95556.7 1004.62   6
  -5  -1  -4 95777.0 1021.74   6
  -5   1  -4 92538.5 878.996  12
  -5  -1  -4 96026.6 994.533  18
  -5  -1  -4 97513.0 1444.72   1
   5   1   4 93125.5 1384.48  16
   5  -1   4 92440.6 1454.30  16
   5  -1   4 96047.3 935.513   5
   5   1   4 95927.0 872.367   5
  -5  -1  -5 9220.02 319.044  13
  -5   1  -5 9058.37 323.271  13
  -5  -1  -5 9438.65 316.993  18
   5  -1   5 9351.69 297.785   5
   5   1   5 9099.98 267.840   5
  -5  -1  -6 28260.1 554.339  13
  -5   1  -6 27803.4 565.695  13
  -5  -1  -6 28209.8 538.345  18
   5  -1   6 27553.5 505.166   5
  -5  -1  -6 27762.3 494.338   8
  -5  -1  -7 6238.40 245.984  13
  -5   1  -7 6436.56 256.211  13
  -5  -1  -7 6135.97 230.400  18
   5  -1   7 6294.78 219.290   5
  -5  -1  -7 5952.09 215.493   8
   5  -1   7 6412.84 250.622  14
  -5  -1  -8 3721.28 145.384  18
  -5  -1  -8 3689.35 146.687   9
  -5   1  -8 3788.78 164.978   9
  -5  -1  -8 3317.43 136.690   8
  -5   1  -8 3454.56 152.574   8
   5  -1   8 3859.94 170.427  14
  -5   1  -8 3658.01 166.496  13
  -5   1  -9 2091.01 91.2966   9
  -5   1  -9 1855.10 82.3548   8
   5  -1   9 1917.05 90.5523  14
   5   1   9 2044.02 94.1010  14
  -5  -2   9 733.218 70.3536   6
   5  -2  -9 694.005 56.9250   9
   5   2  -9 705.364 64.1894   9
   5  -2  -8 237.715 42.1625   9
  -5  -2   8 215.625 45.4739   6
   5   2  -8 249.263 45.6342   9
   5   2  -7 12470.3 344.095  12
  -5  -2   7 12192.3 373.900   6
   5  -2  -7 11437.4 328.122   9
   5   2  -7 12167.6 346.426   9
   5  -2  -7 12038.0 320.598   8
   5   2  -6 8965.62 301.554  12
  -5  -2   6 8964.82 325.247   6
  -5  -2   6 9287.94 301.653   5
   5  -2  -6 8980.85 298.636   9
   5   2  -6 8728.70 298.927   9
   5  -2  -6 9323.54 293.685   8
   5   2  -5 650.656 80.0425  12
  -5  -2   5 739.252 91.3574   6
  -5   2   5 903.184 138.040  10
  -5  -2   5 726.750 85.4082   5
   5  -2  -5 917.702 94.0710   9
   5   2  -5 728.134 82.3920   9
   5  -2  -5 885.645 137.336   2
   5  -2  -5 700.616 77.9061   8
   5   2  -5 742.759 74.7929  15
   5  -2  -5 773.343 119.313   3
   5   2  -4 8085.51 269.884  12
  -5  -2   4 8407.27 298.075   6
  -5  -2   4 8224.60 282.040   5
   5  -2  -4 8229.14 397.135   2
   5  -2  -4 7887.12 264.280   9
   5   2  -4 7771.58 262.723   9
  -5   2   4 8366.92 340.545  17
   5  -2  -4 8032.86 263.178   8
   5  -2  -4 7801.95 246.514  15
   5   2  -4 8063.71 250.282  15
   5  -2  -4 8750.79 394.137   3
   5   2  -3 4191.58 185.276  12
   5   2  -3 4070.26 247.853  11
  -5  -2   3 4117.96 198.114   6
   5  -2  -3 4062.15 271.374   2
  -5  -2   3 4256.14 197.684   5
  -5   2   3 4028.54 234.529  17
   5  -2  -3 4371.83 269.002   3
   5  -2  -2 2183.58 194.753   2
   5   2  -2 2193.16 180.984  11
  -5   2   2 2302.43 176.285  17
   5  -2  -2 2369.82 192.750   3
   5  -2  -1 35639.5 773.710   2
   5   2  -1 35256.3 735.795  11
  -5   2   1 36178.2 686.252  17
   5  -2  -1 37069.3 731.536   3
   5  -2   0 10644.8 434.148   2
  -5  -2   0 10835.9 435.595   1
   5   2   0 10543.5 416.236  11
  -5   2   0 10589.1 366.700  17
   5  -2   0 10218.5 422.799  16
   5  -2   0 10936.6 382.083   3
   5  -2   1 5486.59 317.344   2
  -5  -2  -1 5947.74 330.607   1
  -5   2  -1 5800.44 276.338   1
   5   2   1 5999.25 324.977  11
  -5   2  -1 5630.43 264.140  17
   5  -2   1 5855.28 329.058  16
   5  -2   1 6554.13 282.266   3
   5  -2   2 14064.4 522.429   2
  -5   2  -2 14860.9 476.730   1
   5   2   2 13924.6 509.456  11
  -5  -2  -2 13980.3 520.953   1
  -5   2  -2 14232.1 416.433  17
   5  -2   2 14013.1 533.833  16
  -5   2  -3 10368.5 321.570  13
  -5   2  -3 10463.2 433.326   1
  -5   2  -3 10474.2 310.923   6
  -5  -2  -3 10590.5 322.272   6
  -5  -2  -3 10226.4 462.015   1
  -5   2  -3 10558.4 308.812  12
   5   2   3 10680.8 472.288  11
   5  -2   3 10416.6 479.784  16
   5  -2   3 11073.2 312.944   5
  -5  -2  -4 20817.2 447.725  13
  -5   2  -4 20906.1 475.504  13
  -5   2  -4 21336.3 659.276   1
  -5  -2  -4 21952.7 700.902   1
  -5  -2  -4 21022.1 470.882   6
  -5   2  -4 21441.6 447.734  12
  -5  -2  -4 21578.9 489.648  18
   5  -2   4 20385.4 701.421  16
   5  -2   4 21334.7 455.294   5
  -5  -2  -5 24383.3 495.066  13
  -5   2  -5 25478.1 534.816  13
  -5   2  -5 24210.0 469.101  12
  -5  -2  -5 25022.0 530.921  18
   5  -2   5 24634.3 499.396   5
   5  -2   5 24676.5 513.861  14
  -5  -2  -6 24630.9 488.865  13
  -5   2  -6 26052.5 533.338  13
  -5   2  -6 26233.3 455.102  12
  -5  -2  -6 26770.3 535.921  18
   5  -2   6 25284.8 493.858   5
   5  -2   6 26181.9 527.320  14
  -5   2  -7 747.630 82.2350  13
  -5  -2  -7 652.911 76.5326  18
   5  -2   7 717.724 74.6014   5
   5  -2   7 650.324 77.4389  14
  -5  -2  -8 4649.73 167.818  18
   5  -2   8 4745.62 154.849   5
  -5   2  -8 4924.17 177.123   9
  -5   2  -8 4721.89 170.398   8
   5  -2   8 4892.06 178.327  14
  -5  -3   9 1633.49 84.8322   7
   5   3  -9 1708.95 75.5772   9
  -5  -3   8 224.854 42.4470   6
   5   3  -8 207.925 33.8016   9
   5  -3  -8 212.024 37.9964   8
   5   3  -7 8294.67 272.849  12
  -5  -3   7 8314.78 291.721   6
  -5  -3   7 7871.51 266.647   5
   5   3  -7 8027.04 252.127   9
   5  -3  -7 8228.71 270.008   8
   5   3  -6 3138.06 176.254  12
  -5  -3   6 3070.94 185.081   6
  -5  -3   6 3081.84 179.695   5
   5   3  -6 2925.63 159.666   9
   5  -3  -6 3204.50 178.640   8
   5   3  -5 13862.9 369.595  12
  -5  -3   5 13450.2 389.492   6
  -5  -3   5 13328.8 380.905   5
   5  -3  -5 12875.7 333.631   9
   5   3  -5 13074.5 336.707   9
   5   3  -5 13595.4 326.820  15
   5  -3  -5 13982.3 377.928   8
   5   3  -4 15202.0 377.872  12
   5   3  -4 15050.3 539.021  11
  -5  -3   4 15542.2 408.748   6
  -5  -3   4 15834.5 412.876   5
   5  -3  -4 16942.9 593.534   2
  -5   3   4 15183.4 491.192  17
   5  -3  -4 15826.0 398.422   8
   5  -3  -4 15849.7 361.944  15
   5  -3  -4 16278.6 561.571   3
   5   3  -4 16193.7 366.357  15
   5   3  -3 6867.16 242.503  12
   5   3  -3 6622.70 353.300  11
  -5  -3   3 6917.05 261.375   6
   5  -3  -3 7510.66 389.709   2
  -5  -3   3 7253.80 272.756   5
  -5   3   3 7096.69 334.318  17
   5  -3  -3 7182.64 247.324  15
   5  -3  -3 7296.33 364.853   3
   5   3  -3 7162.80 243.505  15
  -5   3   2 6459.87 243.115  13
   5  -3  -2 6476.76 356.465   2
   5   3  -2 5815.19 328.287  11
  -5  -3   2 6236.15 239.232   6
  -5   3   2 6092.31 308.691  17
   5  -3  -2 6599.21 234.486  15
   5  -3  -2 6533.12 334.425   3
  -5  -3   1 10170.6 319.996   7
   5  -3  -1 9487.80 427.636   2
   5   3  -1 9492.93 420.325  11
  -5   3   1 9923.13 390.403  17
   5  -3  -1 10252.1 289.157  15
   5  -3  -1 9262.46 385.159   3
  -5  -3   0 14439.1 373.442   7
   5  -3   0 14096.6 534.512   2
   5   3   0 14293.5 527.240  11
  -5   3   0 13705.8 450.193  17
   5  -3   0 14289.0 336.390  15
   5  -3   0 14103.2 452.650   3
  -5   3  -1 18044.0 401.984  13
  -5  -3  -1 17672.1 412.637   7
   5  -3   1 17667.1 615.661   2
   5  -3   1 17810.6 602.340  16
  -5  -3  -1 17659.2 393.675   6
  -5   3  -1 18189.7 407.594  12
   5   3   1 18143.2 610.762  11
  -5   3  -1 17912.2 505.653  17
   5  -3   1 17625.4 368.071  15
   5   3   1 18452.7 364.522  15
   5  -3   1 17623.3 372.590   5
  -5  -3  -2 1695.54 191.242   1
  -5   3  -2 1687.08 125.378  13
  -5  -3  -2 1867.56 134.890   7
   5  -3   2 1494.88 180.100   2
  -5  -3  -2 1463.78 115.229   6
  -5   3  -2 1574.29 121.658  12
   5   3   2 1632.36 190.367  11
  -5   3  -2 1580.48 145.747  17
   5  -3   2 1469.71 177.469  16
   5  -3   2 1798.45 114.771  15
   5  -3   2 1553.40 116.525   5
  -5   3  -3 40906.8 860.818   1
   5  -3   3 39403.6 965.285   2
  -5  -3  -3 37972.9 613.900   7
  -5   3  -3 39574.1 624.144  13
  -5  -3  -3 37869.9 603.746   6
  -5   3  -3 39359.5 628.249  12
   5   3   3 38668.0 954.277  11
  -5  -3  -3 40221.3 961.777   1
  -5  -3  -3 39407.0 656.808  18
   5  -3   3 38532.7 951.158  16
   5  -3   3 39361.0 612.081   5
  -5   3  -4 29786.8 553.160  13
  -5  -3  -4 29348.1 539.083   6
  -5   3  -4 29325.4 544.553  12
  -5  -3  -4 29945.2 585.426  18
   5  -3   4 29951.5 550.354   5
  -5   3  -5 3308.99 183.065  13
  -5   3  -5 3252.28 175.703  12
  -5  -3  -5 3179.00 191.042  18
   5  -3   5 2914.75 174.221   5
   5  -3   5 3080.38 177.863  14
  -5   3  -6 2607.19 154.311  13
  -5   3  -6 2582.18 144.485  12
  -5  -3  -6 2916.80 173.430  18
   5  -3   6 2730.58 158.965   5
   5  -3   6 2656.21 158.480  14
  -5   3  -7 13251.9 304.420  13
  -5   3  -7 12671.5 266.582  12
  -5  -3  -7 13338.3 330.181  18
   5  -3   7 13375.8 312.981   5
   5  -3   7 13360.6 318.807  14
  -5  -3  -8 10389.6 234.194  18
   5  -3   8 10192.7 212.652   5
  -5   3  -8 9991.61 214.936   9
   5  -3   8 9809.46 218.069  14
  -5  -4   8 376.924 45.4138   7
  -5  -4   8 449.568 48.9793   6
   5   4  -7 3912.75 171.658  12
  -5  -4   7 3569.53 166.754   6
  -5  -4   7 3947.97 179.761   5
   5  -4  -7 4119.28 181.032   8
   5   4  -6 113.939 31.0150  12
  -5  -4   6 132.179 34.3604   6
   5  -4  -6 105.108 32.7451   8
  -5  -4   6 161.618 41.0098   5
   5   4  -5 18499.2 419.303  12
  -5  -4   5 18027.4 421.548   6
  -5  -4   5 18676.3 452.332   5
   5  -4  -5 18206.0 439.796   8
   5  -4  -5 18260.4 364.551  15
   5   4  -5 18788.3 381.703  15
   5   4  -4 1775.72 127.430  12
  -5  -4   4 1596.75 125.731   6
   5  -4  -4 1685.33 115.080   4
  -5  -4   4 1611.95 134.575   5
   5  -4  -4 1827.47 124.241  15
   5   4  -4 1826.92 125.867  15
   5   4  -3 19990.5 414.438  12
  -5  -4   3 19730.3 495.876   7
  -5  -4   3 19867.0 434.327   6
   5  -4  -3 19850.2 414.714   4
  -5  -4   3 19742.2 466.269   5
   5  -4  -3 20449.9 431.298  15
  -5  -4   2 4921.75 242.290   7
   5   4  -2 4838.66 326.240  11
   5  -4  -2 4904.92 326.159   2
  -5   4   2 5176.56 305.347  17
   5  -4  -2 4593.82 206.362  15
   5  -4  -2 4986.82 314.169   3
  -5  -4   1 24743.3 535.486   7
   5  -4  -1 25648.8 743.982   2
  -5   4   1 23909.3 467.589  12
   5   4  -1 24886.6 740.065  11
  -5   4   1 25226.0 665.902  17
   5  -4  -1 24303.2 473.327  15
   5  -4  -1 25451.2 679.988   3
  -5  -4   1 24477.6 473.831  14
  -5  -4   0 2778.84 178.213   7
   5  -4   0 2922.73 254.325   2
  -5   4   0 2792.49 162.759  12
   5   4   0 2808.94 250.134  11
  -5   4   0 2797.80 217.968  17
   5  -4   0 2930.53 161.619  15
   5  -4   0 2834.13 214.950   3
  -5  -4   0 2796.66 163.695  14
  -5  -4  -1 7950.43 300.576   7
   5  -4   1 8403.93 446.463   2
  -5   4  -1 8332.11 286.230  12
   5   4   1 8153.40 435.905  11
  -5   4  -1 8131.63 363.827  17
   5  -4   1 8293.06 267.318  15
  -5  -4  -2 1014.14 107.708   7
  -5  -4  -2 901.650 97.9427  18
  -5   4  -2 940.803 97.9083  12
   5  -4   2 983.720 146.963  16
   5  -4   2 925.360 85.6638  15
   5  -4   2 1036.07 97.1672   5
  -5  -4  -3 11145.7 350.938   7
  -5   4  -3 10318.0 328.572  12
   5  -4   3 11103.6 329.732   5
  -5  -4  -3 11004.8 348.267  18
  -5  -4  -4 19090.2 445.250   7
  -5  -4  -4 19276.2 462.121  18
  -5   4  -4 18876.0 436.916  12
   5  -4   4 19686.7 444.568   5
  -5   4  -5 2770.37 158.047  12
  -5  -4  -5 2841.94 172.575  18
   5  -4   5 2894.48 165.328   5
   5  -4   5 2756.90 153.068  14
  -5  -4  -5 3089.40 166.141   7
  -5   4  -6 16050.2 344.226  12
  -5  -4  -6 16809.0 385.513  18
   5  -4   6 17279.1 371.958   5
   5  -4   6 15796.9 341.342  14
  -5   4  -7 2288.82 103.962  12
  -5  -4  -7 2352.49 123.179  18
   5  -4   7 2347.95 117.550   5
  -5   4  -7 2427.78 103.977   9
   5  -4   7 2152.08 106.312  14
  -5  -5   7 5686.91 173.857   7
   5   5  -6 2096.88 120.126  12
  -5  -5   6 1939.82 125.024   7
  -5  -5   6 1940.34 126.907   5
   5   5  -5 4316.06 182.506  12
  -5  -5   5 4308.22 211.262   7
  -5  -5   5 4641.00 213.040   5
   5   5  -5 4275.98 168.683  15
   5   5  -4 20540.9 400.373  12
  -5  -5   4 20902.5 489.685   7
   5  -5  -4 20188.4 393.886   4
  -5  -5   4 20707.8 464.461   5
   5   5  -4 21022.6 416.507  15
  -5  -5   3 4353.01 229.052   7
   5  -5  -3 4186.58 192.760   4
   5  -5  -3 4398.60 199.469  15
  -5  -5   3 4347.85 196.773  14
  -5  -5   2 13999.5 413.170   7
   5  -5  -2 13849.4 361.988   4
   5  -5  -2 13295.3 355.910  15
  -5  -5   2 13582.5 360.301  14
  -5  -5   1 1225.51 121.546   7
   5  -5  -1 1372.79 115.796   4
   5  -5  -1 1286.35 110.609  15
  -5  -5   1 1318.34 115.582  14
  -5  -5   0 5878.96 268.033   7
  -5   5   0 6206.31 238.239  12
   5  -5   0 5889.42 236.456  15
  -5  -5   0 5964.91 250.213  14
  -5  -5  -1 34892.0 650.524   7
  -5   5  -1 34861.2 582.669  12
   5  -5   1 34610.6 553.988  15
  -5  -5  -2 10484.6 353.378   7
  -5   5  -2 10069.8 315.086  12
  -5  -5  -2 9791.44 302.183  18
  -5  -5  -3 42899.8 689.255   7
  -5   5  -3 42541.7 639.229  12
  -5  -5  -3 42649.5 636.141  18
   5  -5   3 42452.0 608.696   5
  -5  -5  -4 10317.0 317.799   7
  -5   5  -4 10510.9 304.654  12
   5  -5   4 10519.5 299.992   5
  -5  -5  -4 10148.8 304.573  18
  -5  -5  -5 277.910 46.4616  18
  -5  -5  -5 273.816 45.2877   7
  -5   5  -5 315.212 49.2642  12
   5  -5   5 260.257 42.1606   5
  -5   5  -6 5048.33 167.862  12
  -5  -5  -6 5209.56 178.722  18
   5  -5   6 5501.16 180.017   5
   5  -5   7 3533.89 112.850   5
  -5  -6   6 2161.63 94.9381   7
  -5  -6   5 3126.48 146.552   7
   5   6  -5 3088.33 119.876  15
  -5  -6   4 4980.73 209.430   7
   5  -6  -4 5000.65 176.004   4
   5   6  -4 5110.71 181.697  15
  -5  -6   4 5101.73 181.560  14
  -5  -6   3 1460.11 121.483   7
   5  -6  -3 1455.77 104.837   4
   5   6  -3 1382.78 101.739  15
  -5  -6   3 1418.47 104.978  14
  -5  -6   2 7648.45 287.343   7
   5  -6  -2 7553.95 252.992   4
  -5  -6   2 7475.69 257.526  14
  -5  -6   1 19387.6 470.119   7
   5  -6  -1 19233.4 414.236   4
  -5  -6   1 19597.7 431.604  14
  -5  -6   0 364.993 64.5678   7
   5  -6   0 318.129 54.3265   4
  -5  -6  -1 10480.3 343.985   7
  -5   6  -1 10510.6 282.888  12
   5  -6   1 10410.3 294.375   4
  -5  -6  -2 5089.85 229.598   7
  -5   6  -2 5064.95 199.023  12
   5  -6   2 5396.12 198.330   4
  -5  -6  -3 4390.72 201.781   7
  -5   6  -3 4377.00 180.649  12
   5  -6   3 4358.05 156.109   4
  -5   6  -4 2268.64 121.159  12
   5  -6   4 2220.19 109.004   5
  -5  -6  -4 2435.20 135.223   7
  -5   6  -5 6582.76 181.232  12
   5  -6   5 6365.23 164.654   5
  -5  -7   4 11355.6 224.274   7
   5  -7  -4 11882.9 207.463   4
   5   7  -4 11756.0 207.854  15
  -5  -7   3 7946.09 223.150   7
   5  -7  -3 8337.63 205.781   4
   5   7  -3 8077.22 201.403  15
  -5  -7   2 793.292 76.9433   7
   5  -7  -2 790.542 68.1837   4
   5   7  -2 885.195 69.7684  15
  -5  -7   1 1717.35 117.817   7
   5  -7  -1 1748.66 104.535   4
   5   7  -1 1754.44 100.900  15
  -5  -7   0 4963.28 202.270   7
   5  -7   0 5000.74 174.754   4
   5   7   0 4964.09 164.654  15
  -5  -7  -1 2937.08 152.284   7
   5  -7   1 3018.85 128.008   4
   5   7   1 3095.07 119.023  15
  -5  -7  -2 1110.37 89.0457   7
   5  -7   2 1172.04 69.1520   4
  -5   7  -3 3550.61 112.291  12
  -5  -7  -3 3593.51 144.465   7
  -6   0   9 1.39412 4.47916   6
   6   0  -9 14.8088 3.71208   9
  -6   0   8 1468.51 106.889   6
   6   0  -8 1476.74 108.658   9
  -6   0   7 224.859 45.1262   6
   6   0  -7 238.790 48.1141   9
  -6   0   6 34146.3 607.707   6
   6   0  -6 33431.5 600.074   9
  -6   0   5 6170.26 260.223   6
   6   0  -5 6202.89 255.965   9
   6   0  -5 6311.30 225.769  15
  -6   0   4 88594.5 966.701   6
  -6   0   4 84284.4 1203.85  10
   6   0  -4 88228.8 1268.55   2
  -6   0   4 86691.8 1125.52  17
   6   0  -4 88081.2 861.952  15
  -6   0   3 119090. 1093.11   6
  -6   0   3 114284. 1324.65  10
   6   0  -3 116183. 1402.07   2
   6   0  -3 120190. 1070.35   9
  -6   0   3 119903. 1337.01  17
   6   0  -3 120630. 1004.77  15
  -6   0   2 19882.2 441.229  13
   6   0  -2 20717.3 430.688   9
  -6   0   2 19998.9 435.594   6
   6   0  -2 19201.6 554.999   2
  -6   0   2 18985.8 531.927  17
   6   0  -2 20387.1 408.044  15
  -6   0   1 10127.3 309.836  13
   6   0  -1 10204.8 401.394   2
  -6   0   1 10125.6 305.181   6
   6   0  -1 10496.0 301.867   9
  -6   0   1 10221.9 387.480  17
   6   0  -1 10211.0 283.259  15
  -6   0   0 18415.3 417.636  13
   6   0   0 17946.2 528.556   2
  -6   0   0 18623.4 416.328   6
  -6   0   0 17777.8 509.651  17
   6   0   0 17727.9 559.388  16
   6   0   0 17832.0 367.532  15
  -6   0   0 18301.9 564.013   1
  -6   0  -1 31593.5 557.002  13
   6   0   1 31827.4 728.327   2
  -6   0  -1 32146.1 772.681   1
  -6   0  -1 31020.4 549.134   6
   6   0   1 32008.4 707.250  11
  -6   0  -1 31866.8 681.904  17
   6   0   1 30741.5 765.406  16
   6   0   1 31134.4 476.788  15
  -6   0  -2 3679.69 195.256  13
  -6   0  -2 3585.78 192.757   6
  -6   0  -2 3597.64 226.796  17
   6   0   2 3307.99 263.972  16
  -6   0  -2 3521.93 267.288   1
  -6   0  -3 9338.27 318.020  13
  -6   0  -3 8049.11 298.517   6
   6   0   3 8072.10 426.146  16
  -6   0  -3 8434.75 432.943   1
  -6   0  -4 112531. 1129.19  13
  -6   0  -4 113053. 1060.95  18
  -6   0  -4 110514. 1135.06   6
   6   0   4 111150. 1013.28   5
  -6   0  -5 501.576 74.8515  13
  -6   0  -5 375.119 58.7980  18
   6   0   5 445.947 61.9379   5
   6   0   6 57.3086 19.7695   5
  -6   0  -6 100.469 34.4299  13
  -6   0  -6 58.3846 19.7216   8
  -6   0  -7 12804.9 321.911  13
  -6   0  -7 11459.7 261.396   8
  -6   0  -8 59.6691 15.8510   9
   6   0   8 73.8818 19.7118  14
   6  -1  -9 976.784 67.2380   9
  -6  -1   9 983.995 71.7617   6
   6   1  -9 966.401 69.3240   9
  -6   1   8 3762.56 151.895   6
  -6  -1   8 4068.24 182.574   6
   6  -1  -8 3957.02 171.922   9
   6   1  -8 3969.43 174.152   9
  -6   1   7 439.331 62.1576   6
  -6  -1   7 299.340 55.1954   6
   6  -1  -7 275.083 50.4271   9
   6   1  -7 308.470 55.8430   9
  -6   1   6 9953.23 308.361   6
  -6  -1   6 9932.73 338.248   6
   6  -1  -6 9856.36 321.464   9
   6   1  -6 10070.2 323.500   9
  -6   1   5 3236.76 178.190   6
  -6  -1   5 3063.43 187.447   6
   6  -1  -5 3184.43 182.132   9
   6   1  -5 2909.36 175.013   9
   6  -1  -5 2853.55 152.884  15
   6   1  -5 2970.02 156.005  15
   6  -1  -4 32231.0 803.177   2
  -6   1   4 30732.8 546.511   6
  -6  -1   4 31329.4 589.369   6
  -6   1   4 31823.8 783.491  10
   6  -1  -4 30603.5 557.160   9
   6   1  -4 29899.6 545.025   9
  -6   1   4 30596.8 683.425  17
   6  -1  -4 30252.5 510.189  15
   6   1  -4 30456.5 510.196  15
   6  -1  -4 32688.9 811.250   3
   6  -1  -3 41011.6 880.024   3
   6  -1  -3 41361.5 626.940   9
  -6   1   3 39173.4 602.589   6
  -6  -1   3 39605.0 645.178   6
   6  -1  -3 40388.4 879.406   2
   6   1  -3 40415.5 615.087   9
  -6   1   3 41351.2 797.545  17
  -6  -1   3 39560.1 774.033  17
   6  -1  -3 40613.0 592.280  15
   6   1  -3 40757.3 587.470  15
  -6  -1   2 12758.5 345.500  13
  -6   1   2 12769.4 361.044  13
  -6   1   2 13178.0 342.935   6
  -6  -1   2 13306.8 364.532   6
   6  -1  -2 12245.0 479.682   2
   6  -1  -2 13192.0 348.016   9
   6   1  -2 13332.7 343.369   9
  -6   1   2 12798.9 443.264  17
  -6  -1   2 12542.7 438.292  17
   6  -1  -2 13176.0 333.322  15
   6   1  -2 13430.0 333.446  15
  -6   1   1 8061.32 284.951  13
   6  -1  -1 8207.31 387.792   2
  -6   1   1 8100.46 266.396   6
  -6  -1   1 7918.39 278.149   6
   6  -1  -1 8334.77 272.177   9
   6   1  -1 7871.33 259.028   9
  -6   1   1 7784.60 343.389  17
  -6  -1   1 7958.12 347.895  17
   6  -1  -1 7887.82 253.316  15
   6   1  -1 8281.49 256.809  15
  -6  -1   0 10796.7 312.285  13
  -6   1   0 10627.5 325.132  13
   6  -1   0 10628.6 445.783   2
  -6   1   0 11128.3 416.355   1
  -6   1   0 10852.4 311.509   6
  -6  -1   0 10773.4 323.429   6
   6   1   0 11128.0 430.938  11
  -6   1   0 10699.8 398.573  17
  -6  -1   0 10469.1 400.579  17
   6  -1   0 10595.3 455.707  16
  -6  -1   0 10774.9 457.313   1
   6  -1   0 11062.9 294.162  15
   6   1   0 11189.8 291.807  15
  -6   1  -1 15205.9 513.236   1
  -6  -1  -1 15275.6 377.522  13
  -6   1  -1 15566.6 397.883  13
   6  -1   1 15409.2 548.731   2
  -6   1  -1 15057.0 375.260   6
  -6  -1  -1 16029.6 400.684   6
   6   1   1 14921.3 522.447  11
  -6   1  -1 15163.7 469.285  17
  -6  -1  -1 15528.1 487.291  17
   6   1   1 15435.3 512.347  16
   6  -1   1 14822.3 556.308  16
  -6  -1  -1 15207.3 561.376   1
   6  -1   1 15646.0 343.673  15
   6   1   1 15553.3 336.118  15
  -6  -1  -2 29660.7 540.756  13
  -6   1  -2 30867.0 572.569  13
   6  -1   2 30568.1 793.347   2
  -6   1  -2 30901.4 556.481   6
  -6  -1  -2 30422.0 570.168   6
  -6   1  -2 29798.8 521.438  12
   6   1   2 29392.4 764.922  11
  -6  -1  -2 31386.0 827.334   1
  -6   1  -2 30165.2 654.605  17
  -6   1  -2 30507.0 767.029   1
   6   1   2 30186.1 759.500  16
   6  -1   2 30418.8 827.675  16
  -6  -1  -3 13899.2 381.079  13
  -6   1  -3 14425.4 402.204  13
   6  -1   3 13685.2 544.935   2
  -6  -1  -3 14547.3 584.979   1
  -6   1  -3 13606.6 383.507   6
  -6  -1  -3 13940.0 395.868   6
  -6   1  -3 13875.6 355.846  12
   6   1   3 14072.6 556.714  11
  -6   1  -3 14528.0 558.680   1
   6   1   3 13794.1 537.603  16
   6  -1   3 14568.0 596.804  16
   6  -1   3 13716.0 360.556   5
  -6  -1  -4 39368.3 655.158  13
  -6   1  -4 39837.4 680.757  13
  -6   1  -4 39102.2 666.165   6
  -6  -1  -4 39106.0 675.043   6
  -6   1  -4 39998.6 587.725  12
  -6  -1  -4 39889.4 660.039  18
   6  -1   4 39868.6 621.994   5
   6   1   4 40127.8 590.233   5
  -6  -1  -5 22382.8 486.881  13
  -6   1  -5 22643.2 508.463  13
  -6  -1  -5 22877.1 487.253  18
   6  -1   5 22760.4 463.505   5
   6   1   5 22463.0 423.263   5
  -6  -1  -6 6428.16 246.682  13
  -6   1  -6 6440.45 256.576  13
  -6  -1  -6 6667.01 243.459  18
   6  -1   6 6712.06 235.010   5
   6  -1   6 6524.84 241.527  14
  -6  -1  -7 7099.15 227.811  13
  -6   1  -7 7188.16 238.623  13
  -6  -1  -7 6969.11 208.977  18
   6  -1   7 7094.21 203.966   5
  -6   1  -7 6350.02 202.102   8
   6  -1   7 6856.89 223.154  14
  -6   1  -8 1214.95 75.0083   9
  -6   1  -8 926.018 59.6511   8
   6  -1   8 1116.28 70.7239  14
   6   1   8 1149.40 75.1819  14
  -6  -2   9 118.979 23.1527   6
   6   2  -9 178.262 25.0290   9
  -6  -2   8 2193.14 129.801   6
   6  -2  -8 1994.54 108.487   9
   6   2  -8 1958.98 112.203   9
  -6  -2   7 10043.2 316.046   6
   6  -2  -7 9299.90 275.131   9
   6   2  -7 9327.85 279.834   9
  -6  -2   6 1024.23 107.194   6
   6  -2  -6 1045.33 99.0058   9
   6   2  -6 1090.30 101.209   9
  -6  -2   5 23910.9 528.892   6
   6  -2  -5 24695.3 494.577   9
   6   2  -5 24608.1 489.166   9
   6  -2  -5 24798.5 445.944  15
   6   2  -5 25409.2 454.053  15
  -6  -2   4 102145. 1076.88   6
   6  -2  -4 104189. 1007.68   9
   6   2  -4 99296.2 964.922   9
  -6   2   4 103294. 1295.60  17
   6  -2  -4 101145. 950.938  15
   6   2  -4 99505.5 935.698  15
  -6  -2   3 54740.8 776.608   6
   6  -2  -3 56638.7 1102.43   2
   6  -2  -3 52727.3 707.655   9
   6   2  -3 52310.9 680.756   9
  -6   2   3 55228.1 953.356  17
   6  -2  -3 53694.8 695.170  15
   6   2  -3 51623.3 677.433  15
   6  -2  -3 54532.5 1035.08   3
  -6   2   2 28557.8 551.387  13
  -6  -2   2 28963.8 551.163   6
   6  -2  -2 27489.9 758.574   2
   6   2  -2 29212.7 712.911  11
   6  -2  -2 28728.4 513.822   9
   6   2  -2 28491.7 489.761   9
  -6   2   2 29680.5 693.332  17
   6  -2  -2 29546.1 515.318  15
   6   2  -2 29058.5 499.894  15
   6  -2  -2 29619.3 754.364   3
  -6   2   1 26653.7 524.521  13
  -6  -2   1 25793.4 500.221   7
   6  -2  -1 27009.5 746.818   2
  -6  -2   1 26742.1 520.332   6
   6   2  -1 27376.6 706.086  11
   6   2  -1 27075.9 469.262   9
  -6   2   1 26942.8 656.114  17
   6  -2  -1 27166.3 486.533  15
   6   2  -1 26338.0 469.893  15
   6  -2  -1 26674.9 697.564   3
  -6   2   0 15727.0 402.361  13
   6  -2   0 14346.7 552.391   2
  -6  -2   0 14634.5 383.476   6
   6   2   0 14455.1 531.668  11
  -6   2   0 14814.5 483.612  17
   6  -2   0 13984.8 551.207  16
   6  -2   0 14764.4 351.875  15
   6   2   0 15445.4 351.704  15
   6  -2   0 14936.5 497.086   3
   6  -2   1 68.3458 39.2798   2
   6  -2   1 94.0344 30.1143   5
  -6   2  -1 106.688 30.9032  13
   6   2   1 164.753 57.2435  11
  -6   2  -1 114.569 30.1714   6
  -6  -2  -1 80.2718 21.5589   6
  -6   2  -1 91.6268 40.8683  17
   6  -2   1 145.090 57.5901  16
   6  -2   1 105.674 24.5634  15
   6   2   1 100.294 28.6302  15
  -6  -2  -1 55.3148 25.5973   1
   6  -2   2 596.644 115.194   2
  -6   2  -2 609.957 81.5290  13
  -6   2  -2 582.373 72.9064   6
  -6  -2  -2 608.809 81.7412   6
  -6  -2  -2 665.101 123.232   1
  -6   2  -2 914.300 96.1154  12
   6   2   2 547.011 108.581  11
  -6   2  -2 523.214 86.3381  17
   6  -2   2 599.137 117.336  16
   6  -2   2 524.043 70.4604   5
  -6  -2  -3 68688.7 806.359  13
  -6   2  -3 68907.8 832.036   6
  -6  -2  -3 68561.1 874.098   6
  -6   2  -3 67933.9 818.381  12
   6  -2   3 69691.9 826.714   5
  -6  -2  -4 34867.4 579.873  13
  -6   2  -4 35939.4 636.101  13
  -6  -2  -4 36084.4 633.214   6
  -6   2  -4 35339.7 575.064  12
  -6  -2  -4 35554.1 634.872  18
   6  -2   4 35386.6 593.721   5
   6   2   4 35766.7 525.880   5
  -6  -2  -5 15260.1 372.632  13
  -6   2  -5 15053.3 401.712  13
  -6   2  -5 14742.6 347.633  12
  -6  -2  -5 15310.7 403.824  18
   6  -2   5 15030.9 378.592   5
   6  -2   5 14748.0 364.312  14
  -6  -2  -6 2516.00 138.067  13
  -6   2  -6 2658.15 157.462  13
  -6  -2  -6 2853.23 160.342  18
   6  -2   6 2611.32 145.965   5
   6  -2   6 2544.36 143.533  14
  -6   2  -7 1597.70 104.660  13
  -6  -2  -7 1450.42 96.8752  18
   6  -2   7 1451.48 92.4918   5
   6  -2   7 1370.17 90.9678  14
  -6   2  -8 1412.16 73.5834   9
  -6   2  -8 779.040 51.5072   8
  -6  -3   8 3583.24 147.254   6
   6   3  -8 3328.11 113.828   9
  -6  -3   7 4102.92 185.762   6
   6   3  -7 3852.55 152.952   9
  -6  -3   6 5320.74 231.411   6
   6  -3  -6 5127.81 195.317   9
   6   3  -6 5112.76 194.571   9
  -6  -3   5 5422.79 243.294   6
   6  -3  -5 5370.82 213.060   9
   6   3  -5 5497.91 211.014   9
   6  -3  -5 5623.46 208.400  15
   6   3  -5 5362.55 205.996  15
  -6  -3   4 1690.44 135.346   6
   6  -3  -4 1512.08 116.131   9
   6  -3  -4 1529.45 115.611  15
   6   3  -4 1424.50 111.729  15
  -6   3   3 10541.7 336.725  13
  -6  -3   3 11109.1 347.362   6
   6  -3  -3 11269.1 318.060   9
   6  -3  -3 11222.0 324.018  15
   6   3  -3 10776.7 313.628  15
  -6   3   2 5594.93 241.890  13
  -6  -3   2 5563.23 252.536   7
  -6  -3   2 5396.99 238.111   6
   6   3  -2 5963.97 351.257  11
   6  -3  -2 5402.04 352.811   2
  -6   3   2 5736.13 319.810  17
   6  -3  -2 5711.61 231.957  15
   6   3  -2 5595.88 224.580  15
   6  -3  -2 5722.02 337.759   3
  -6   3   1 11761.9 347.515  13
  -6  -3   1 11656.9 359.783   7
   6  -3  -1 11714.2 517.720   2
  -6  -3   1 11986.2 348.836   6
   6   3  -1 11108.0 486.265  11
  -6   3   1 11491.0 448.868  17
   6  -3  -1 11402.9 326.406  15
   6   3  -1 11526.3 319.036  15
   6  -3  -1 11378.7 462.283   3
  -6   3   0 6151.59 250.791  13
  -6  -3   0 6107.17 253.651   7
   6  -3   0 5986.37 374.871   2
  -6  -3   0 6156.21 248.411   6
  -6   3   0 5966.24 246.737  12
   6   3   0 5971.07 365.703  11
  -6   3   0 6316.43 327.702  17
   6  -3   0 5876.52 230.046  15
   6   3   0 6204.98 229.089  15
   6  -3   0 6041.50 321.007   3
   6  -3   0 6073.60 221.649   5
  -6   3  -1 10638.4 331.636  13
  -6  -3  -1 10704.5 329.639   7
   6  -3   1 10840.9 517.356   2
  -6  -3  -1 10837.4 331.805   6
  -6   3  -1 10606.2 332.301  12
   6   3   1 11391.7 517.394  11
  -6   3  -1 11197.0 429.682  17
   6  -3   1 10586.7 502.518  16
   6  -3   1 10521.8 298.747  15
   6   3   1 10911.0 294.281  15
   6  -3   1 10854.0 308.772   5
  -6   3  -2 10279.7 327.113  13
  -6  -3  -2 10057.6 321.001   6
  -6   3  -2 10024.9 322.489  12
   6  -3   2 10335.6 279.421  15
   6  -3   2 10369.4 313.544   5
  -6   3  -3 41473.5 659.630  13
  -6  -3  -3 41363.7 648.434   6
  -6   3  -3 43143.6 663.917  12
  -6  -3  -3 42027.4 696.333  18
   6  -3   3 42009.6 647.061   5
  -6   3  -4 28842.7 542.114  13
  -6  -3  -4 29100.8 530.950   6
  -6  -3  -4 30476.7 582.718  18
  -6   3  -4 29729.6 535.532  12
   6  -3   4 30311.7 547.811   5
  -6   3  -5 128.810 32.6459  13
  -6   3  -5 137.623 33.5216  12
  -6  -3  -5 153.437 41.2897  18
   6  -3   5 94.5823 25.6701   5
  -6   3  -6 14674.1 327.377  13
  -6   3  -6 14501.5 295.038  12
  -6  -3  -6 15395.7 356.280  18
   6  -3   6 15167.7 336.127   5
   6  -3   6 14132.3 296.085  14
  -6  -3  -7 913.239 72.1111  18
   6  -3   7 837.845 65.3516   5
   6  -3   7 808.352 56.8299  14
  -6   3  -7 804.082 61.0815  13
  -6   4   7 1910.83 100.037  13
  -6  -4   7 1993.18 117.936   7
  -6  -4   7 2053.71 108.918   6
  -6   4   6 2209.36 127.113  13
  -6  -4   6 2246.92 144.843   7
  -6  -4   6 2202.92 130.332   6
  -6   4   5 39214.0 583.380  13
  -6  -4   5 39758.3 662.573   7
  -6  -4   5 38429.7 589.121   6
   6  -4  -5 38692.2 511.476  15
   6   4  -5 38910.6 526.328  15
  -6   4   4 42154.4 629.017  13
  -6  -4   4 42648.4 709.715   7
  -6  -4   4 41744.1 628.859   6
   6  -4  -4 41927.6 549.205   4
   6  -4  -4 42516.9 596.392  15
   6   4  -4 42948.7 603.680  15
  -6   4   3 31747.6 552.182  13
  -6  -4   3 31276.0 618.067   7
  -6  -4   3 29830.7 535.438   6
   6  -4  -3 30460.7 509.707   4
   6  -4  -3 31998.7 544.953  15
   6   4  -3 31095.1 534.356  15
  -6   4   2 29510.9 529.628  13
  -6  -4   2 28728.3 590.505   7
  -6   4   2 28240.8 511.128  12
  -6  -4   2 28796.4 522.373   6
   6  -4  -2 29063.2 530.566  15
   6   4  -2 28535.2 513.712  15
  -6   4   1 28716.3 520.302  13
  -6  -4   1 28886.4 581.604   7
  -6   4   1 28468.2 528.458  12
  -6  -4   1 28590.8 514.750   6
   6  -4  -1 28393.1 523.558  15
   6   4  -1 28805.4 511.096  15
  -6   4   0 5828.75 234.078  13
  -6  -4   0 5905.95 260.234   7
  -6  -4   0 5867.31 231.180   6
  -6   4   0 5986.33 246.476  12
   6  -4   0 5905.02 233.120  15
   6   4   0 6010.17 227.964  15
  -6   4  -1 7021.90 255.343  13
  -6  -4  -1 7056.05 280.215   7
  -6   4  -1 7255.60 272.174  12
   6  -4   1 6964.03 245.045  15
   6   4   1 7542.22 244.254  15
   6  -4   1 7101.72 242.080   5
  -6   4  -2 21306.0 441.171  13
  -6  -4  -2 22026.0 482.832   7
  -6   4  -2 22610.6 479.640  12
  -6  -4  -2 21734.7 481.465  18
   6  -4   2 22500.0 413.106  15
   6  -4   2 21027.7 434.349   5
  -6  -4  -3 60335.3 760.454   7
  -6   4  -3 58970.4 713.587  13
  -6   4  -3 59419.1 765.228  12
  -6  -4  -3 59061.9 786.804  18
   6  -4   3 58436.4 734.049   5
  -6   4  -4 11956.2 304.854  13
  -6   4  -4 12858.0 335.412  12
  -6  -4  -4 12369.8 348.386  18
   6  -4   4 12185.3 327.631   5
  -6   4  -5 3813.15 166.854  12
  -6  -4  -5 3912.38 181.580  18
   6  -4   5 4080.68 177.020   5
  -6   4  -6 1952.20 99.2366  12
  -6  -4  -6 2026.06 113.694  18
   6  -4   6 1979.21 107.293   5
  -6  -4  -7 8372.78 178.806  18
   6  -4   7 8696.36 173.993   5
  -6  -5   6 1084.86 84.1266   7
  -6  -5   5 1283.14 104.767   7
   6   5  -5 1394.81 87.7033  15
  -6  -5   4 13773.3 372.080   7
   6  -5  -4 13097.9 286.217   4
   6   5  -4 13404.7 310.239  15
  -6  -5   3 13250.5 381.312   7
   6  -5  -3 12867.3 318.630   4
   6  -5  -3 13123.7 330.581  15
   6   5  -3 12612.9 320.869  15
  -6  -5   2 2174.67 157.157   7
   6  -5  -2 2099.55 135.579   4
   6  -5  -2 2210.54 139.950  15
   6   5  -2 2181.81 136.298  15
  -6  -5   1 17299.5 445.179   7
  -6   5   1 17779.5 381.582  12
   6  -5  -1 17219.5 399.587   4
   6  -5  -1 17889.7 403.663  15
   6   5  -1 17735.8 389.430  15
  -6  -5   0 18938.1 462.734   7
  -6   5   0 19145.4 410.926  12
   6  -5   0 18583.4 405.116  15
   6   5   0 18914.9 392.012  15
  -6  -5  -1 8989.83 312.938   7
  -6   5  -1 8955.16 285.774  12
   6   5   1 9249.41 257.514  15
  -6  -5  -2 287.175 52.3510   7
  -6  -5  -2 315.807 50.3598  18
  -6  -5  -3 44968.1 626.166   7
   6  -5   3 46178.1 557.635   4
  -6  -5  -3 44700.5 599.387  18
   6  -5   3 44012.2 556.354   5
  -6   5  -4 16461.0 341.017  12
  -6  -5  -4 16660.7 344.822  18
   6  -5   4 16116.6 323.247   5
  -6  -5  -4 16579.8 333.990   7
  -6   5  -5 17675.4 309.703  12
  -6  -5  -5 17598.6 313.400  18
   6  -5   5 17886.3 306.151   5
  -6  -6   5 8619.49 210.523   7
   6   6  -5 8524.87 161.967  15
   6  -6  -4 32725.2 374.851   4
   6   6  -4 33332.0 406.747  15
  -6  -6   3 36498.0 547.831   7
   6  -6  -3 35652.9 458.170   4
   6   6  -3 36474.5 470.538  15
  -6  -6   2 2651.89 155.861   7
   6  -6  -2 2793.93 138.605   4
   6   6  -2 2670.13 132.660  15
   6  -6  -1 253.085 41.9689   4
   6   6  -1 315.242 46.0218  15
  -6  -6   0 8883.93 288.320   7
  -6   6   0 9077.37 229.875  12
   6  -6   0 9217.28 261.086   4
   6   6   0 9093.02 238.925  15
  -6  -6  -1 27744.8 493.350   7
  -6   6  -1 28252.9 419.877  12
   6  -6   1 28010.3 436.305   4
   6   6   1 27859.5 384.361  15
  -6  -6  -2 18043.2 374.741   7
  -6   6  -2 18007.6 332.075  12
   6  -6   2 17939.9 319.913   4
  -6  -6  -3 13127.7 287.614   7
  -6   6  -3 13204.6 268.428  12
   6  -6   3 12770.6 222.383   4
  -6   6  -4 26806.8 340.344  12
  -6  -6  -4 23993.9 316.464   7
  -6  -7   3 37.2368 10.5544   7
   6  -7  -3 46.1296 12.6735   4
   6   7  -3 50.0660 13.7856  15
  -6  -7   2 2264.49 108.844   7
   6  -7  -2 2261.90 95.1034   4
   6   7  -2 2258.82 93.3720  15
  -6  -7   1 361.418 44.9661   7
   6  -7  -1 355.663 39.3930   4
   6   7  -1 295.294 33.7405  15
  -6  -7   0 8128.81 214.878   7
   6  -7   0 8214.63 186.095   4
   6   7   0 8127.05 167.699  15
  -6  -7  -1 39.6309 14.0198   7
   6  -7   1 37.3365 13.5428   4
  -6  -7  -2 13043.9 233.802   7
  -7   0   8 3565.74 134.968   6
   7   0  -8 3752.88 146.087   9
  -7   0   7 1042.61 88.9839   6
   7   0  -7 1063.94 91.1964   9
  -7   0   6 2005.63 137.361   6
   7   0  -6 1736.89 128.220   9
  -7   0   5 9421.07 312.479   6
   7   0  -5 9307.15 308.571   9
   7   0  -5 9307.96 274.349  15
  -7   0   4 2789.88 176.948  13
  -7   0   4 2764.92 173.438   6
   7   0  -4 2898.56 174.716   9
   7   0  -4 2553.27 151.491  15
  -7   0   3 66783.8 869.872  13
  -7   0   3 65752.9 846.407   6
   7   0  -3 65140.2 827.120   9
   7   0  -3 66045.5 791.383  15
  -7   0   2 18139.4 447.598  13
  -7   0   2 18219.4 442.920   6
   7   0  -2 18335.2 433.589   9
  -7   0   2 17466.1 558.150  17
   7   0  -2 18138.5 413.079  15
  -7   0   1 1157.24 112.401  13
  -7   0   1 1227.43 114.096   6
  -7   0   1 1118.99 141.073  17
   7   0  -1 1282.18 107.380  15
  -7   0   0 6.84779 7.48498  13
  -7   0   0 17.8019 12.7036   6
  -7   0   0 40.1015 28.9289  17
   7   0   0 9.35710 9.01675  15
  -7   0  -1 21844.4 491.770  13
  -7   0  -1 22415.4 710.686   1
  -7   0  -1 21140.5 485.619   6
   7   0   1 19938.4 665.948  16
   7   0   1 20801.0 408.827  15
  -7   0  -2 16967.9 437.027  13
  -7   0  -2 16395.6 432.661   6
  -7   0  -2 16742.9 387.630  12
  -7   0  -3 4775.81 231.000  13
  -7   0  -3 4848.46 236.782   6
   7   0   3 4350.26 203.858   5
  -7   0  -4 5550.65 246.489  13
  -7   0  -4 5725.13 251.376   6
  -7   0  -4 5570.27 226.523  18
   7   0   4 5942.65 230.714   5
   7   0   5 5.31680 7.39687   5
  -7   0  -5-10.5193 10.4759  13
  -7   0  -6 4238.18 180.487  13
   7   0   6 4283.42 155.147   5
   7   0   6 4227.82 162.302  14
  -7   0  -7 10650.1 232.998  13
   7   0   7 9946.37 198.695  14
  -7   1   8 4298.87 161.305  13
  -7  -1   8 4559.88 159.960   6
   7  -1  -8 4608.51 155.117   9
   7   1  -8 4509.48 154.764   9
  -7  -1   7 982.730 82.7370  13
  -7   1   7 1232.54 85.9404   6
  -7  -1   7 1136.88 96.6365   6
   7  -1  -7 1174.93 93.6802   9
   7   1  -7 1141.30 91.9764   9
  -7   1   6 2960.05 156.496   6
  -7  -1   6 2805.21 166.038   6
   7  -1  -6 2906.30 162.278   9
   7   1  -6 2702.77 155.952   9
  -7  -1   5 10519.0 322.775  13
  -7   1   5 11142.6 318.923   6
  -7  -1   5 10807.1 345.967   6
   7  -1  -5 11004.8 332.711   9
   7   1  -5 10708.6 325.687   9
   7  -1  -5 10513.7 289.788  15
   7   1  -5 10940.5 295.592  15
  -7  -1   4 77715.5 894.354  13
  -7   1   4 79324.0 961.425  13
  -7   1   4 78689.6 873.243   6
  -7  -1   4 78248.9 939.875   6
   7  -1  -4 78610.2 907.614   9
   7   1  -4 77095.8 879.806   9
   7  -1  -4 78906.6 845.054  15
   7   1  -4 77917.6 834.161  15
  -7  -1   3 4997.65 227.127  13
  -7   1   3 5061.07 243.183  13
  -7   1   3 5164.32 225.646   6
  -7  -1   3 5263.13 243.383   6
   7  -1  -3 5185.66 233.654   9
   7  -1  -3 4974.01 217.040  15
   7   1  -3 5023.31 216.100  15
   7   1  -3 5043.53 225.797   9
  -7  -1   2 23218.1 485.967  13
  -7   1   2 23495.3 519.940  13
  -7   1   2 23728.5 484.342   6
  -7  -1   2 23573.0 514.883   6
   7  -1  -2 23631.3 495.964   9
   7   1  -2 23724.9 484.663   9
   7  -1  -2 23004.8 467.468  15
   7   1  -2 23070.3 463.652  15
  -7  -1   1 12842.1 361.491  13
  -7   1   1 13402.0 391.223  13
  -7   1   1 13096.5 362.525   6
  -7  -1   1 13141.0 382.796   6
   7  -1  -1 13161.0 527.230   2
  -7   1   1 12831.4 479.872  17
  -7  -1   1 12441.4 476.758  17
   7  -1  -1 12688.8 342.299  15
   7   1  -1 12847.7 341.095  15
  -7  -1   0 23266.9 487.985  13
  -7   1   0 22540.0 506.214  13
  -7   1   0 22466.5 481.034   6
   7  -1   0 22795.0 693.956   2
  -7  -1   0 22794.8 505.468   6
   7  -1   0 23842.4 457.643  15
   7   1   0 22570.9 439.570  15
  -7  -1  -1 6380.25 256.567  13
  -7   1  -1 6375.06 270.885  13
  -7   1  -1 6577.75 264.178   6
  -7  -1  -1 6590.85 273.905   6
   7  -1   1 6514.56 231.267  15
   7   1   1 6735.16 232.123  15
  -7  -1  -2 1315.43 118.179  13
  -7   1  -2 1116.92 112.976  13
  -7   1  -2 1128.28 111.726   6
  -7  -1  -2 1114.69 113.069   6
  -7   1  -2 1160.27 105.451  12
   7  -1   2 1113.40 103.430   5
  -7  -1  -3 1840.61 139.629  13
  -7   1  -3 1761.92 143.274  13
  -7   1  -3 1714.53 136.555   6
  -7  -1  -3 1783.05 143.046   6
  -7   1  -3 1716.36 124.454  12
   7  -1   3 1738.37 130.013   5
   7   1   3 1885.26 131.421   5
  -7  -1  -4 9527.24 307.915  13
  -7   1  -4 9572.78 322.923  13
  -7  -1  -4 9049.68 316.324   6
  -7   1  -4 9101.30 262.749  12
  -7  -1  -4 9258.24 305.425  18
   7  -1   4 9903.42 302.739   5
   7   1   4 8932.36 270.866   5
   7  -1   5 278.633 46.7758   5
   7   1   5 315.890 44.8461   5
  -7  -1  -5 347.851 56.6079  13
  -7   1  -5 272.800 51.7429  13
  -7  -1  -5 318.972 53.5364  18
  -7  -1  -6 257.925 41.1902  13
  -7   1  -6 232.805 41.3858  13
  -7  -1  -6 286.085 42.1279  18
  -7   1  -6 177.483 30.2419   8
   7  -1   6 253.739 37.4705  14
   7  -1   6 242.955 38.5552   5
  -7   1  -7 2189.72 104.280  13
   7   1   7 2040.88 90.9974  14
  -7   2   8 5778.15 173.845  13
  -7  -2   8 6189.36 177.155   6
   7  -2  -8 5735.07 144.021   9
   7   2  -8 6125.56 154.592   9
  -7   2   7 1896.53 120.144  13
  -7  -2   7 1744.96 113.878   6
   7  -2  -7 1600.94 99.2404   9
   7   2  -7 1679.40 101.385   9
  -7  -2   6 4173.44 198.568   6
   7  -2  -6 4006.26 179.348   9
   7   2  -6 4341.68 183.393   9
   7   2  -6 4300.17 156.027  15
  -7   2   5 3659.71 199.019  13
  -7  -2   5 3662.23 197.694   6
   7  -2  -5 3451.39 178.492   9
   7   2  -5 3635.59 178.545   9
   7  -2  -5 3248.29 156.508  15
   7   2  -5 3550.60 165.064  15
  -7   2   4 15261.4 417.873  13
  -7  -2   4 14835.7 408.363   6
   7  -2  -4 14725.1 380.644   9
   7   2  -4 14918.8 368.296   9
   7  -2  -4 14554.9 359.312  15
   7   2  -4 14527.8 357.578  15
  -7   2   3 29672.6 588.020  13
  -7  -2   3 30007.3 584.281   6
   7  -2  -3 29974.1 550.254   9
   7   2  -3 28948.3 514.730   9
   7  -2  -3 30234.5 536.205  15
   7   2  -3 29510.9 524.062  15
  -7   2   2 15817.8 426.443  13
  -7  -2   2 15592.0 406.812   7
  -7  -2   2 16235.1 429.799   6
   7   2  -2 15606.9 374.211   9
   7  -2  -2 15711.1 390.769  15
   7   2  -2 16324.2 389.612  15
  -7   2   1 10825.7 352.923  13
  -7  -2   1 10945.6 349.544   6
   7  -2  -1 11430.6 329.132  15
   7   2  -1 10834.8 313.502  15
   7  -2   0 169.357 41.8111   5
  -7   2   0 126.136 36.6783  13
  -7  -2   0 115.032 34.0260   6
   7  -2   0 143.705 38.1698  15
   7   2   0 72.2430 19.3121  15
  -7   2  -1 2904.55 182.047  13
  -7   2  -1 2999.44 168.786   6
  -7  -2  -1 3038.87 185.476   6
  -7   2  -1 2993.92 177.133  12
   7  -2   1 2888.85 154.892  15
   7   2   1 3008.79 154.721  15
   7  -2   1 2939.62 164.489   5
  -7   2  -2 20304.8 479.757  13
  -7   2  -2 20510.1 445.356   6
  -7  -2  -2 20399.0 478.874   6
  -7   2  -2 20537.3 458.807  12
   7  -2   2 20881.6 447.513   5
  -7  -2  -3 17857.2 398.797  13
  -7   2  -3 19095.5 456.789  13
  -7   2  -3 18587.7 422.779   6
  -7  -2  -3 19138.1 458.448   6
  -7   2  -3 18747.6 421.426  12
  -7  -2  -3 19055.2 460.989  18
   7  -2   3 18812.1 426.466   5
  -7  -2  -4 1263.14 99.5373  13
  -7   2  -4 1215.29 112.003  13
  -7  -2  -4 1147.78 107.053   6
  -7   2  -4 1251.54 100.582  12
  -7  -2  -4 1247.94 112.028  18
   7  -2   4 1499.60 115.631   5
   7   2   4 1285.56 94.5398   5
  -7  -2  -5 2631.42 132.496  13
  -7   2  -5 3003.40 162.237  13
  -7   2  -5 2729.43 128.607  12
  -7  -2  -5 2929.26 158.181  18
   7  -2   5 2772.30 147.311   5
  -7   2  -6 1079.55 83.9577  13
  -7  -2  -6 1134.89 84.4793  18
   7  -2   6 1140.49 81.4021   5
  -7   2  -7 1491.33 75.5993  13
  -7   3   7 2435.07 119.710  13
  -7  -3   7 2456.63 127.821   7
  -7  -3   7 2461.12 121.944   6
  -7   3   6 4948.72 199.528  13
  -7  -3   6 5279.98 203.828   6
   7  -3  -6 5125.55 171.367   9
  -7   3   5 18943.1 423.495  13
  -7  -3   5 19002.7 420.841   6
   7  -3  -5 18479.3 367.273   9
   7  -3  -5 18448.1 352.893  15
   7   3  -5 18279.3 356.759  15
  -7   3   4 10349.2 326.187  13
  -7  -3   4 10520.2 339.885   7
  -7  -3   4 10463.1 326.132   6
   7  -3  -4 10557.8 296.767  15
   7   3  -4 10082.0 289.077  15
  -7   3   3 18105.9 439.008  13
  -7  -3   3 18185.1 452.842   7
  -7  -3   3 18079.9 437.783   6
   7  -3  -3 18491.0 415.268  15
   7   3  -3 18002.0 404.372  15
  -7   3   2 7666.29 287.904  13
  -7  -3   2 7889.40 296.318   7
  -7  -3   2 7833.61 289.639   6
   7  -3  -2 7842.88 274.875  15
   7   3  -2 7599.87 263.934  15
  -7   3   1 25154.5 520.366  13
  -7  -3   1 24850.8 511.484   7
  -7  -3   1 25591.9 520.601   6
  -7   3   1 25766.0 517.224  12
   7  -3  -1 26176.8 498.358  15
   7   3  -1 25001.2 476.127  15
  -7   3   0 2300.98 156.944  13
  -7  -3   0 2373.38 152.494   7
  -7  -3   0 2401.35 159.211   6
  -7   3   0 2462.60 160.903  12
   7  -3   0 2457.56 149.150  15
   7   3   0 2528.89 146.275  15
   7  -3   0 2385.02 138.829   5
  -7   3  -1 6627.92 264.371  13
  -7  -3  -1 6441.33 260.505   6
  -7   3  -1 6983.03 268.494  12
   7  -3   1 6709.05 233.054  15
   7   3   1 7077.85 232.113  15
   7  -3   1 6701.23 242.227   5
  -7   3  -2 4309.61 210.846  13
  -7  -3  -2 4721.11 218.031   6
  -7   3  -2 4615.26 214.416  12
   7  -3   2 4778.18 207.602   5
  -7   3  -3 2347.57 150.712  13
  -7  -3  -3 2337.87 148.063   6
  -7   3  -3 2285.09 144.061  12
  -7  -3  -3 2323.81 155.644  18
   7  -3   3 2288.48 143.171   5
  -7   3  -4 913.481 87.5487  13
  -7   3  -4 756.920 76.5050  12
  -7  -3  -4 766.250 83.5676  18
   7  -3   4 790.487 80.1689   5
  -7   3  -5 11994.2 286.289  13
  -7   3  -5 11406.1 258.006  12
  -7  -3  -5 12215.0 304.024  18
   7  -3   5 11950.5 286.013   5
  -7   3  -6 273.337 35.0069  13
  -7  -3  -6 298.130 39.5729  18
   7  -3   6 297.891 38.6616   5
  -7  -4   7 1234.82 74.4006   7
  -7   4   6 302.488 37.7680  13
  -7  -4   6 318.362 46.3906   7
  -7  -4   6 282.863 38.4053   6
  -7   4   5 2428.64 127.128  13
  -7  -4   5 2170.28 136.909   7
  -7  -4   5 2284.48 126.157   6
   7  -4  -5 2256.99 109.910  15
   7   4  -5 2288.83 113.534  15
  -7   4   4 21098.5 406.451  13
  -7  -4   4 21422.1 459.690   7
  -7  -4   4 21116.3 410.779   6
   7  -4  -4 21469.5 392.327  15
   7   4  -4 21652.6 395.378  15
  -7   4   3 8356.42 268.166  13
  -7  -4   3 8148.72 292.017   7
  -7   4   3 8474.35 251.937  12
  -7  -4   3 8340.09 267.046   6
   7  -4  -3 8046.18 240.012   4
   7  -4  -3 8372.19 263.580  15
   7   4  -3 8456.57 261.185  15
  -7   4   2 5216.01 216.762  13
  -7  -4   2 5304.54 236.400   7
  -7   4   2 5343.66 214.695  12
  -7  -4   2 5455.49 219.700   6
   7  -4  -2 5682.50 224.627  15
   7   4  -2 5528.18 216.649  15
  -7   4   1 2337.81 145.452  13
  -7  -4   1 2501.53 161.356   7
  -7  -4   1 2310.51 142.690   6
  -7   4   1 2459.18 150.856  12
   7  -4  -1 2325.30 143.478  15
   7   4  -1 2482.06 145.531  15
  -7   4   0 8730.59 279.158  13
  -7  -4   0 8783.41 298.413   7
  -7  -4   0 8486.45 270.479   6
  -7   4   0 8965.46 293.579  12
   7  -4   0 8858.29 273.511  15
   7   4   0 8938.97 264.772  15
  -7   4  -1 8212.45 264.402  13
  -7  -4  -1 8289.89 277.266   7
  -7  -4  -1 7954.01 255.774   6
  -7   4  -1 8198.73 277.479  12
  -7  -4  -1 7868.56 273.814  18
   7  -4   1 8070.85 246.572  15
   7   4   1 8500.18 241.602  15
  -7   4  -2 6541.16 228.039  13
  -7   4  -2 6626.05 242.712  12
  -7  -4  -2 6358.28 243.662  18
   7  -4   2 6296.42 218.796   5
  -7   4  -3 10609.6 273.036  13
  -7   4  -3 10153.2 284.670  12
  -7  -4  -3 10165.4 296.885  18
   7  -4   3 9922.89 270.502   5
  -7   4  -4 2208.63 110.870  13
  -7   4  -4 2237.29 120.784  12
  -7  -4  -4 2324.88 131.287  18
   7  -4   4 2133.29 117.365   5
  -7   4  -5 1211.95 75.3935  12
  -7  -4  -5 1147.16 80.0685  18
   7  -4   5 1195.06 77.4920   5
  -7  -5   6 2256.28 94.9976   7
  -7  -5   5 10179.0 248.803   7
   7   5  -5 9696.44 188.889  15
  -7  -5   4 3912.11 172.608   7
   7   5  -4 3667.89 141.319  15
  -7  -5   3 5877.28 224.208   7
   7  -5  -3 5892.57 184.360   4
   7  -5  -3 6060.13 200.303  15
   7   5  -3 5801.77 192.576  15
  -7  -5   2 1719.96 124.347   7
   7  -5  -2 1703.11 107.489   4
   7  -5  -2 1729.71 113.008  15
   7   5  -2 1695.63 107.829  15
  -7  -5   1 12879.7 342.717   7
  -7   5   1 12741.2 294.121  12
   7  -5  -1 12729.3 309.154   4
   7  -5  -1 12924.3 308.863  15
   7   5  -1 12874.3 298.436  15
  -7  -5   0 11771.7 322.751   7
  -7   5   0 11907.5 294.447  12
   7  -5   0 11983.6 302.052   4
   7  -5   0 11604.8 286.345  15
   7   5   0 11743.6 273.315  15
  -7  -5  -1 1828.20 120.838   7
  -7   5  -1 1918.81 117.803  12
   7  -5   1 1911.58 117.356   4
  -7  -5  -1 1764.83 104.910  18
   7   5   1 1749.05 95.8871  15
  -7  -5  -2 2144.93 119.795   7
  -7   5  -2 2334.51 126.148  12
   7  -5   2 2221.49 117.804   4
  -7  -5  -2 2164.61 115.509  18
  -7   5  -3 900.798 72.8162  12
   7  -5   3 872.308 63.5783   4
  -7  -5  -3 844.881 68.1250  18
   7  -5   3 797.562 58.7080   5
  -7   5  -4 5224.96 154.477  12
  -7  -5  -4 5130.21 147.861  18
   7  -5   4 5039.65 133.680   5
  -7  -6   4 475.044 45.3273   7
  -7  -6   3 3050.59 130.346   7
   7  -6  -3 2814.68 98.8941   4
   7   6  -3 3052.61 110.781  15
  -7  -6   2 2711.17 130.430   7
   7  -6  -2 2567.07 108.344   4
   7   6  -2 2699.07 111.013  15
  -7  -6   1 1358.15 93.4655   7
   7  -6  -1 1314.05 81.7145   4
   7   6  -1 1313.93 77.4390  15
  -7  -6   0 2900.45 134.621   7
   7  -6   0 3075.42 125.720   4
   7   6   0 3041.98 110.373  15
  -7  -6  -1 1272.46 82.6477   7
  -7   6  -1 1262.66 70.7588  12
   7  -6   1 1340.46 78.2040   4
  -7  -6  -2 1842.48 86.3224   7
  -7   6  -2 1899.55 83.4274  12
   7  -6   2 1862.20 79.3775   4
  -8   0   7 64.9579 19.2246  13
  -8   0   7 71.8219 16.5122   6
   8   0  -7 50.9022 16.1025   9
  -8   0   6 139.306 32.6088  13
  -8   0   6 137.932 28.9567   6
   8   0  -6 186.215 35.7807   9
   8   0  -6 172.031 27.6129  15
  -8   0   5 2353.84 145.184  13
  -8   0   5 2572.89 148.427   6
   8   0  -5 2588.22 149.388   9
   8   0  -5 2369.05 126.813  15
  -8   0   4 28.9522 5.97353   6
   8   0  -4 44.2795 19.5860   9
   8   0  -4 38.6300 17.0328  15
  -8   0   3 2457.96 159.278  13
  -8   0   3 2629.35 163.738   6
   8   0  -3 2485.48 157.594   9
   8   0  -3 2525.64 149.945  15
  -8   0   2 1582.51 130.127  13
  -8   0   2 1371.41 119.618   6
   8   0  -2 1386.32 113.616  15
  -8   0   1 555.072 76.9195  13
  -8   0   1 564.882 76.9132   6
   8   0  -1 537.084 69.5986  15
  -8   0   0 55093.6 776.934  13
  -8   0   0 55953.4 780.634   6
   8   0   0 54448.6 680.591  15
  -8   0  -1 22927.9 495.078  13
  -8   0  -1 22930.3 502.789   6
  -8   0  -1 22949.8 453.752  12
   8   0   1 22249.3 407.795  15
  -8   0  -2 7549.27 280.132  13
  -8   0  -2 7740.01 287.625   6
  -8   0  -2 7581.95 243.619  12
   8   0   2 8210.98 271.943   5
  -8   0  -3 5796.73 234.782  13
  -8   0  -3 5601.68 235.030   6
  -8   0  -3 5410.13 214.662  18
   8   0   3 5571.84 214.493   5
   8   0   4 221.497 37.9575   5
  -8   0  -4 270.949 46.9602  13
  -8   0  -4 164.560 32.6990  18
  -8   0  -5 5148.63 182.640  13
   8   0   5 5234.78 166.229   5
  -8   0  -6 27944.5 340.540  13
  -8   1   7 3243.03 132.990  13
  -8  -1   7 3349.74 131.622   6
   8  -1  -7 3295.15 127.194   9
   8   1  -7 3219.10 124.478   9
  -8  -1   6 271.330 40.4887  13
  -8   1   6 246.020 43.5748  13
  -8  -1   6 295.093 46.4092   6
   8  -1  -6 332.443 47.6707   9
   8   1  -6 305.471 45.2098   9
   8   1  -6 290.835 35.8323  15
  -8  -1   5 2484.67 136.676  13
  -8   1   5 2571.78 155.092  13
  -8   1   5 2670.45 136.924   6
  -8  -1   5 2458.55 146.878   6
   8  -1  -5 2616.05 146.787   9
   8   1  -5 2629.11 144.141   9
   8  -1  -5 2555.89 129.466  15
   8   1  -5 2586.23 130.861  15
  -8  -1   4 3306.11 168.536  13
  -8   1   4 3550.99 190.978  13
  -8   1   4 3657.84 173.605   6
  -8  -1   4 3543.82 188.159   6
   8  -1  -4 3569.07 181.338   9
   8   1  -4 3632.17 179.973   9
   8  -1  -4 3420.32 166.634  15
   8   1  -4 3586.00 170.322  15
  -8  -1   3 3871.97 189.448  13
  -8   1   3 4342.14 216.347  13
  -8   1   3 4151.15 193.697   6
  -8  -1   3 4049.80 206.332   6
   8   1  -3 4225.35 198.538   9
   8  -1  -3 4318.99 196.300  15
   8   1  -3 3954.40 186.612  15
  -8  -1   2 2560.68 156.407  13
  -8   1   2 2624.59 170.892  13
  -8   1   2 2559.86 155.515   6
  -8  -1   2 2579.51 167.782   6
   8  -1  -2 2421.48 148.267  15
   8   1  -2 2561.98 152.539  15
  -8  -1   1 7485.52 272.577  13
  -8   1   1 7987.92 298.567  13
  -8   1   1 8055.21 281.959   6
  -8  -1   1 7934.75 299.231   6
   8  -1  -1 7802.85 265.715  15
   8   1  -1 7951.38 265.083  15
  -8  -1   0 3788.10 194.509  13
  -8   1   0 4283.13 219.915  13
  -8   1   0 4184.29 204.829   6
  -8  -1   0 4035.33 213.023   6
   8  -1   0 4040.27 185.078  15
   8   1   0 4440.42 191.907  15
  -8  -1  -1 4242.76 202.599  13
  -8   1  -1 4359.98 219.209  13
  -8   1  -1 4369.43 209.186   6
  -8  -1  -1 4345.09 218.710   6
  -8   1  -1 4588.24 209.522  12
   8  -1   1 4342.57 180.114  15
   8   1   1 4569.49 182.435  15
   8  -1   1 4715.38 207.021   5
  -8  -1  -2 1000.31 96.2118  13
  -8   1  -2 1123.51 108.692  13
  -8   1  -2 1004.47 99.5577   6
  -8  -1  -2 980.150 101.946   6
  -8   1  -2 920.381 88.5625  12
   8  -1   2 951.315 92.2015   5
  -8  -1  -3 8008.86 262.771  13
  -8   1  -3 8051.16 279.347  13
  -8   1  -3 7832.61 268.312   6
  -8  -1  -3 8095.14 282.173   6
  -8   1  -3 7791.06 234.587  12
  -8  -1  -3 7980.62 270.331  18
   8  -1   3 8096.33 258.410   5
   8   1   3 8445.21 256.431   5
  -8  -1  -4 3090.12 150.537  13
  -8   1  -4 3189.45 164.812  13
  -8  -1  -4 3194.17 155.521  18
   8  -1   4 3161.69 150.362   5
   8   1   4 3166.85 142.015   5
  -8  -1  -5 978.055 73.1632  13
  -8   1  -5 1077.02 84.1231  13
  -8  -1  -5 982.835 72.5065  18
   8  -1   5 1034.30 75.5024   5
   8   1   5 1015.56 65.5923   5
  -8   1  -6 4846.08 142.524  13
  -8   2   7 5116.89 154.678  13
  -8  -2   7 4882.28 150.803   7
  -8  -2   7 5161.37 154.263   6
  -8   2   6 1946.41 115.716  13
  -8  -2   6 1881.14 112.108   7
  -8  -2   6 1943.74 114.015   6
   8   2  -6 1959.13 100.668   9
   8   2  -6 1926.97 85.2873  15
  -8   2   5 7902.63 258.246  13
  -8  -2   5 7796.56 250.689   7
  -8  -2   5 8131.53 258.627   6
   8   2  -5 7760.65 225.180   9
   8  -2  -5 7711.54 213.339  15
   8   2  -5 7601.90 214.284  15
  -8   2   4 13550.7 360.870  13
  -8  -2   4 13215.2 339.793   7
  -8  -2   4 13671.0 358.478   6
   8   2  -4 13630.0 319.085   9
   8  -2  -4 13919.0 325.490  15
   8   2  -4 13396.7 317.772  15
  -8   2   3 2993.52 176.002  13
  -8  -2   3 2734.58 154.657   7
  -8  -2   3 2738.66 165.997   6
   8  -2  -3 2763.22 153.380  15
   8   2  -3 2752.85 150.768  15
  -8   2   2 1389.30 121.708  13
  -8  -2   2 1535.38 126.641   6
   8  -2  -2 1685.83 122.231  15
   8   2  -2 1498.26 114.088  15
  -8   2   1 15349.0 407.416  13
  -8  -2   1 15642.0 409.472   6
   8  -2  -1 14956.7 363.930  15
   8   2  -1 15126.5 357.920  15
   8  -2  -1 15204.8 338.241   5
  -8   2   0 20820.0 474.543  13
  -8  -2   0 22225.9 487.369   6
  -8   2   0 22113.9 467.176  12
   8  -2   0 21370.1 419.966  15
   8   2   0 22047.4 418.569  15
   8  -2   0 21573.1 420.502   5
  -8   2  -1 6894.69 268.069  13
  -8   2  -1 6614.33 233.967   6
  -8  -2  -1 6620.51 261.662   6
  -8   2  -1 6954.76 256.670  12
   8  -2   1 6625.61 217.284  15
   8   2   1 6619.24 212.745  15
   8  -2   1 6620.06 235.557   5
  -8   2  -2 1660.61 129.432  13
  -8   2  -2 1481.37 108.463   6
  -8  -2  -2 1521.38 122.273   6
  -8   2  -2 1517.43 114.293  12
   8  -2   2 1431.69 108.966   5
  -8   2  -3 695.938 79.3685  13
  -8  -2  -3 540.875 68.6147   6
  -8   2  -3 553.760 64.5219  12
  -8  -2  -3 611.664 75.9710  18
   8  -2   3 552.816 66.0014   5
   8   2   3 549.725 61.4192   5
  -8   2  -4 4851.47 192.484  13
  -8   2  -4 4797.28 159.359  12
  -8  -2  -4 4987.95 191.729  18
   8  -2   4 4864.25 179.183   5
   8   2   4 4803.42 153.186   5
  -8   2  -5 203.696 32.9410  13
  -8  -2  -5 225.030 34.2706  18
   8  -2   5 215.249 32.7535   5
  -8   3   6 1864.08 96.7476  13
  -8  -3   6 1857.67 100.505   7
  -8  -3   6 1778.31 95.5698   6
  -8   3   5 3627.77 156.422  13
  -8  -3   5 3350.03 153.905   7
  -8  -3   5 3489.90 153.487   6
   8  -3  -5 3317.92 126.140  15
   8   3  -5 3307.70 128.992  15
  -8   3   4 12.0176 11.4838  13
  -8  -3   4 20.0513 15.0551   7
  -8   3   4 0.58298 9.97415  12
  -8  -3   4 44.4593 15.5043   6
   8  -3  -4 20.4633 14.1835  15
   8   3  -4-5.15375 7.19798  15
  -8   3   3 1983.15 132.577  13
  -8  -3   3 1970.06 129.183   7
  -8   3   3 2080.29 128.486  12
  -8  -3   3 1977.49 131.644   6
   8  -3  -3 1970.19 106.112   4
   8  -3  -3 1974.38 121.850  15
   8   3  -3 1886.35 117.989  15
  -8   3   2 5416.21 225.406  13
  -8  -3   2 5159.86 208.841   7
  -8  -3   2 5409.46 223.757   6
  -8   3   2 5292.35 214.849  12
   8  -3  -2 5302.46 208.435  15
   8   3  -2 5229.51 202.298  15
  -8   3   1 1906.67 135.254  13
  -8  -3   1 1942.45 123.789   7
  -8  -3   1 2007.11 137.346   6
  -8   3   1 1956.61 132.941  12
   8  -3  -1 2014.95 127.657  15
   8   3  -1 1839.96 119.274  15
  -8   3   0 6748.25 252.449  13
  -8  -3   0 6389.26 243.063   6
  -8   3   0 6658.42 244.320  12
   8  -3   0 6303.98 218.186  15
   8   3   0 6570.43 216.014  15
   8  -3   0 6128.31 201.179   5
  -8   3  -1 1308.21 108.127  13
  -8  -3  -1 1353.84 109.019   6
  -8   3  -1 1333.75 106.725  12
   8  -3   1 1313.35 91.9202  15
   8   3   1 1285.77 87.5407  15
   8  -3   1 1324.42 96.9345   5
   8  -3   2 68.0886 22.9840   5
  -8   3  -2 80.0173 28.1187  13
  -8   3  -2 60.2891 22.6365  12
  -8  -3  -2 60.2843 26.4162   6
  -8  -3  -2 35.7437 14.7193  18
  -8   3  -3 2370.57 130.716  13
  -8  -3  -3 2279.45 125.443   6
  -8   3  -3 2236.70 121.546  12
  -8  -3  -3 2207.17 130.799  18
   8  -3   3 2245.24 120.777   5
  -8   3  -4 3350.45 137.803  13
  -8   3  -4 3286.65 125.750  12
  -8  -3  -4 3509.74 147.356  18
   8  -3   4 3466.01 137.473   5
  -8  -3  -5 2147.40 95.2625  18
   8  -3   5 2177.48 91.2812   5
  -8   4   5 2479.17 97.1704  13
  -8  -4   5 2584.14 117.786   7
  -8  -4   5 2460.59 100.047   6
   8   4  -5 2537.30 93.0036  15
  -8   4   4 6860.04 189.300  13
  -8  -4   4 6629.32 208.919   7
  -8  -4   4 6575.85 188.196   6
   8  -4  -4 6826.63 185.505  15
   8   4  -4 6794.99 185.987  15
  -8   4   3 742.669 67.2041  13
  -8  -4   3 761.028 74.9683   7
  -8   4   3 825.906 66.4196  12
  -8  -4   3 723.370 66.7508   6
   8  -4  -3 759.115 59.9474   4
   8  -4  -3 750.507 68.2902  15
   8   4  -3 738.176 66.3581  15
  -8   4   2 1155.93 87.6428  13
  -8  -4   2 1256.61 96.8364   7
  -8  -4   2 1096.68 85.5031   6
  -8   4   2 1180.10 87.4501  12
   8  -4  -2 1195.35 85.2120   4
   8  -4  -2 1205.09 89.6707  15
   8   4  -2 1254.87 89.7108  15
  -8   4   1 22567.0 395.482  13
  -8  -4   1 21918.3 398.813   7
  -8  -4   1 21627.2 383.892   6
  -8   4   1 22744.6 405.494  12
   8  -4  -1 23247.4 397.870  15
   8   4  -1 22744.4 381.360  15
  -8   4   0 12884.7 295.178  13
  -8  -4   0 12885.6 291.057   7
  -8  -4   0 12922.0 290.820   6
  -8   4   0 13602.7 313.979  12
  -8  -4   0 12273.7 296.504  18
   8  -4   0 12974.2 285.404  15
   8   4   0 12813.9 271.920  15
  -8   4  -1 2962.04 135.825  13
  -8  -4  -1 2832.37 128.640   6
  -8   4  -1 3049.18 146.442  12
  -8  -4  -1 2742.84 139.291  18
   8  -4   1 2761.02 119.346  15
   8   4   1 2935.29 115.194  15
  -8   4  -2 168.006 30.2547  13
  -8   4  -2 154.304 29.7270  12
  -8  -4  -2 141.558 31.8740  18
   8  -4   2 177.399 28.1978   5
  -8   4  -3 1251.99 71.2361  13
  -8   4  -3 1297.07 81.7901  12
  -8  -4  -3 1295.12 84.8246  18
   8  -4   3 1280.04 74.4807   5
  -8   4  -4 9316.01 180.147  12
  -8  -4  -4 9498.87 197.006  18
  -8  -5   4 280.775 33.9268   7
   8   5  -4 269.370 28.4978  15
  -8  -5   3 4972.31 159.490   7
   8   5  -3 5023.26 142.666  15
  -8  -5   2 80.6829 22.1763   7
   8  -5  -2 99.8649 21.4217   4
   8   5  -2 128.302 24.8149  15
  -8  -5   1 2268.98 112.011   7
  -8   5   1 2001.37 92.6613  12
   8  -5  -1 2060.04 100.549   4
   8   5  -1 2109.69 96.2470  15
  -8  -5   0 175.382 28.8557   7
  -8   5   0 164.059 27.8012  12
   8  -5   0 159.753 28.4119   4
   8   5   0 110.699 19.7322  15
  -8   5  -1 6395.76 170.492  12
   8  -5   1 6293.76 168.948   4
  -8   5  -2 1014.54 63.3078  12
   8  -5   2 1105.17 62.2000   4
  -9   0   5 333.432 43.0143  13
  -9   0   5 326.198 41.0360   6
   9   0  -5 344.950 38.2325  15
  -9   0   4 1230.21 91.7276  13
  -9   0   4 1296.28 92.7737   6
   9   0  -4 1216.33 85.1841  15
  -9   0   3 6015.45 216.475  13
  -9   0   3 6444.35 221.515   6
   9   0  -3 6145.70 206.174  15
  -9   0   2 444.793 61.0194  13
  -9   0   2 500.390 65.1172   6
   9   0  -2 477.811 57.3777  15
  -9   0   1 413.221 59.3242  13
  -9   0   1 430.811 59.9231   6
   9   0  -1 531.516 61.9799  15
  -9   0   0 6250.32 229.753  13
  -9   0   0 6479.27 236.303   6
  -9   0   0 6299.19 216.129  12
   9   0   0 6330.24 202.520  15
  -9   0  -1 11743.5 307.690  13
  -9   0  -1 12004.0 316.776   6
  -9   0  -1 11669.8 271.371  12
   9   0   1 11682.3 247.498  15
   9   0   1 12118.6 294.914   5
  -9   0  -2 6661.88 220.274  13
  -9   0  -2 6774.37 227.699   6
   9   0   2 6793.07 211.424   5
  -9   0  -3 421.114 50.8352  13
  -9   0  -3 338.234 40.9929  18
   9   0   3 441.684 49.1046   5
  -9   0  -4 1482.06 81.9772  13
   9   0   4 1602.43 81.0403   5
  -9   1   6 2508.12 100.165  13
  -9  -1   6 2661.40 100.643   6
  -9   1   5 2262.61 114.490  13
  -9  -1   5 2256.08 112.504   6
   9  -1  -5 2123.29 93.3254  15
   9   1  -5 2168.52 95.1252  15
  -9  -1   4 1281.38 82.5124  13
  -9   1   4 1318.85 97.8448  13
  -9   1   4 1383.18 84.4380   6
  -9  -1   4 1394.49 98.7149   6
   9  -1  -4 1288.60 86.3223  15
   9   1  -4 1513.09 93.8460  15
  -9  -1   3 5255.97 182.954  13
  -9   1   3 5374.90 208.034  13
  -9   1   3 5456.52 185.648   6
  -9  -1   3 5484.55 208.302   6
   9  -1  -3 5248.19 187.285  15
   9   1  -3 5265.97 186.354  15
  -9  -1   2 3720.22 160.824  13
  -9   1   2 3992.32 185.981  13
  -9   1   2 4158.67 172.250   6
  -9  -1   2 3847.66 181.732   6
   9  -1  -2 4056.63 169.039  15
   9   1  -2 4241.50 172.172  15
   9  -1  -2 3732.45 146.215   5
  -9  -1   1 1119.28 89.5162  13
  -9   1   1 1011.28 94.1452  13
  -9   1   1 1042.92 88.2181   6
  -9  -1   1 1069.18 96.7383   6
  -9   1   1 1002.01 89.4393  12
   9  -1  -1 1018.81 84.6102  15
   9   1  -1 1067.49 86.0271  15
   9  -1  -1 1017.80 82.1223   5
  -9  -1   0 2933.03 144.991  13
  -9   1   0 2939.24 160.638  13
  -9   1   0 2980.07 150.268   6
  -9  -1   0 2993.48 162.934   6
  -9   1   0 2895.62 149.120  12
  -9  -1   0 2843.08 133.649  12
   9  -1   0 2881.08 135.199  15
   9   1   0 2848.47 132.449  15
   9  -1   0 2937.35 142.452   5
  -9  -1  -1 567.881 61.0917  13
  -9   1  -1 605.387 70.0168  13
  -9   1  -1 626.945 67.9601   6
  -9  -1  -1 651.126 74.0156   6
  -9   1  -1 611.143 64.1543  12
   9  -1   1 591.959 54.2214  15
   9  -1   1 636.719 65.1625   5
   9   1   1 612.107 65.1141   5
   9  -1   2 125.894 28.4332   5
   9   1   2 139.330 29.7359   5
  -9  -1  -2 200.390 34.3579  13
  -9   1  -2 107.586 28.6801  13
  -9   1  -2 111.409 24.6091  12
  -9   1  -2 164.216 34.3269   6
  -9  -1  -2 123.964 30.5550   6
  -9  -1  -2 115.273 29.4224  18
  -9  -1  -3 4365.29 145.359  13
  -9   1  -3 4626.47 171.113  13
  -9  -1  -3 4417.50 168.676   6
  -9  -1  -3 4342.24 156.326  18
   9  -1   3 4463.90 156.111   5
   9   1   3 4520.69 150.793   5
  -9   1  -4 9293.63 209.982  13
  -9  -1  -4 8829.88 179.009  18
   9  -1   4 9291.47 195.995   5
   9   1   4 9136.87 171.939   5
  -9   2   5 1361.77 82.6819  13
  -9   2   5 1164.50 65.8795  12
  -9  -2   5 1194.29 78.1883   6
   9  -2  -5 1233.57 63.9121  15
   9   2  -5 1200.05 64.4593  15
  -9   2   4 7906.82 225.187  13
  -9  -2   4 7770.38 221.501   6
  -9   2   4 7858.22 208.379  12
   9  -2  -4 7400.67 193.726  15
   9   2  -4 7688.83 197.471  15
  -9   2   3 1673.30 110.651  13
  -9  -2   3 1697.78 111.879   6
  -9   2   3 1675.93 105.870  12
   9  -2  -3 1558.83 97.2467  15
   9   2  -3 1645.17 99.0334  15
  -9   2   2 860.259 81.6721  13
  -9  -2   2 872.666 82.6353   6
  -9   2   2 783.195 76.1339  12
   9  -2  -2 892.569 75.7524  15
   9   2  -2 895.173 75.0374  15
  -9   2   1 1471.73 109.427  13
  -9  -2   1 1410.31 107.969   6
  -9   2   1 1459.31 104.553  12
   9  -2  -1 1338.62 92.0083  15
   9   2  -1 1438.33 94.1383  15
   9  -2  -1 1382.38 83.5440   5
  -9   2   0 8464.89 261.286  13
  -9  -2   0 8327.25 259.059   6
  -9   2   0 8828.51 252.562  12
   9  -2   0 8273.42 218.555  15
   9   2   0 8371.10 215.372  15
   9  -2   0 7868.26 211.469   5
  -9  -2  -1 1052.39 87.7808   6
  -9   2  -1 1129.02 85.6546  12
   9  -2   1 935.833 64.5908  15
   9  -2   1 996.451 76.0421   5
  -9   2  -2 4067.67 165.349  13
  -9  -2  -2 3599.25 154.590   6
  -9   2  -2 3684.00 141.918  12
  -9  -2  -2 3604.00 154.906  18
   9  -2   2 3740.49 143.046   5
   9   2   2 3981.74 143.762   5
  -9   2  -3 3989.65 148.017  13
  -9   2  -3 4015.27 121.501  12
  -9  -2  -3 3954.63 144.244  18
   9  -2   3 4219.47 142.048   5
   9   2   3 3925.12 120.826   5
  -9   2  -4 2176.72 90.0860  13
   9  -2   4 2219.60 86.6514   5
  -9   3   4 271.443 36.2492  13
  -9  -3   4 331.900 39.1066   6
  -9   3   4 273.854 30.9216  12
   9  -3  -4 269.003 31.6272  15
   9   3  -4 298.521 34.7182  15
  -9   3   3 4751.38 164.454  13
  -9  -3   3 4840.12 165.411   6
  -9   3   3 4933.43 156.519  12
   9  -3  -3 4783.50 153.006  15
   9   3  -3 4607.48 149.192  15
  -9   3   2 3223.45 141.528  13
  -9  -3   2 3077.64 138.826   6
  -9   3   2 3327.39 138.701  12
   9  -3  -2 2906.01 110.040   4
   9  -3  -2 3084.22 129.102  15
   9   3  -2 3266.28 130.726  15
  -9   3   1 10694.2 262.226  13
  -9  -3   1 10403.2 257.718   6
  -9   3   1 10659.9 256.166  12
   9  -3  -1 10511.9 237.578  15
   9   3  -1 10350.1 229.545  15
  -9   3   0 398.737 49.8586  13
  -9   3   0 335.325 44.6664  12
  -9  -3   0 303.701 43.0807   6
  -9  -3   0 217.043 38.5960  18
   9  -3   0 311.611 38.4062  15
   9   3   0 329.463 37.8685  15
  -9   3  -1 482.315 52.9421  13
  -9  -3  -1 462.090 50.4831   6
  -9   3  -1 524.338 53.2803  12
  -9  -3  -1 445.825 52.2453  18
   9  -3   1 430.539 41.1633   5
   9   3   2 56.2878 12.4465   5
  -9   3  -2 82.2933 18.8705  13
  -9   3  -2 86.0214 20.6398  12
  -9  -3  -2 19.0559 6.88575   6
  -9  -3  -2 30.6242 14.8215  18
   9  -3   2 23.7406 8.27527   5
  -9  -3  -3 3861.99 124.951  18
   9   4  -3 1577.59 71.2680  15
  -9   4   2 1720.83 76.5102  12
   9  -4  -2 1803.67 83.0891  15
   9   4  -2 1749.07 79.4666  15
  -9   4   1 4071.13 128.509  12
   9  -4  -1 3829.11 117.999   4
   9  -4  -1 4020.60 123.262  15
   9   4  -1 3847.13 114.804  15
  -9   4   0 6196.76 160.546  12
   9  -4   0 6045.33 152.791   4
  -9   4  -1 5175.10 140.116  12
   9  -4   1 4847.37 130.685   4
 -10   0   3 7100.97 160.742   6
 -10   0   3 7060.59 170.290  12
  10   0  -3 7046.94 160.915  15
 -10   0   2 1960.03 91.1619  13
 -10   0   2 1939.60 92.3680   6
 -10   0   2 1967.27 93.0865  12
  10   0  -2 1872.10 87.0118  15
  10   0  -2 1863.17 78.1700   5
 -10   0   1 6940.96 177.099  13
 -10   0   1 6742.30 167.261  12
  10   0  -1 6972.15 164.175  15
  10   0  -1 6671.52 162.248   5
 -10   0   0 1130.54 69.9203  13
 -10   0   0 1115.22 72.4197   6
 -10   0   0 955.013 56.1889  12
  10   0   0 1062.96 56.0775  15
  10   0   0 1097.70 67.4963   5
  10   0   1 26.8587 10.3910   5
 -10   0  -1 26.5320 11.2343   6
  10   0   2 2159.63 82.4631   5
 -10   1   3 1411.92 75.2468  13
 -10  -1   3 1482.09 77.6568   6
 -10   1   3 1404.54 74.4489  12
  10  -1  -3 1496.40 72.0752  15
  10   1  -3 1371.14 68.8261  15
 -10   1   2 871.280 63.4046  13
 -10  -1   2 915.961 66.1278   6
 -10   1   2 861.607 61.8768  12
 -10  -1   2 807.838 52.9364  12
  10  -1  -2 806.062 55.9358  15
  10   1  -2 815.996 56.0558  15
  10   1  -2 867.446 56.0304   5
 -10   1   1 2682.44 114.853  13
 -10  -1   1 2754.74 117.137   6
 -10   1   1 2665.01 108.149  12
  10  -1  -1 2645.74 98.0051  15
  10   1  -1 2633.91 96.6710  15
  10   1  -1 2602.92 102.995   5
 -10   1   0 1130.20 73.5324  13
 -10  -1   0 1170.13 75.5727   6
 -10   1   0 1121.46 65.6854  12
  10  -1   0 1086.65 61.3122   5
  10   1   0 1050.31 65.6466   5
  10  -1   1 184.809 24.3182   5
  10   1   1 142.669 22.8725   5
 -10   1  -1 143.050 24.7495  13
 -10  -1  -1 174.819 27.9836   6
 -10  -1  -1 121.068 21.3030  18
 -10   2   2 4841.12 137.684  13
 -10  -2   2 4712.50 136.754   6
 -10   2   2 4618.72 129.571  12
  10  -2  -2 4662.16 120.607  15
  10   2  -2 4596.70 118.218  15
 -10   2   1 3824.14 125.901  13
 -10  -2   1 3599.72 122.552   6
 -10   2   1 3582.05 116.858  12
  10  -2  -1 3454.05 100.602  15
  10   2  -1 3554.17 111.637   5
 -10   2   0 3565.22 119.035  13
 -10  -2   0 3406.51 116.361   6
 -10   2   0 3603.38 111.016  12
  10   2   0 3561.57 108.829   5
   0   0   0    0.00    0.00   0

TITL LD1 in P2(1)/m
REM P2(1)/m (#11 in standard setting)
CELL 1.54184   8.311153   7.256587   8.906785  90.0000  95.1457  90.0000
ZERR    2.00   0.000093   0.000104   0.000115   0.0000   0.0012   0.0000
LATT  1
SYMM -x, y+1/2,-z
SFAC C H N O
UNIT 24.00 20.00 2.00 6.00
TREF
HKLF 4
END
;
_shelx_hkl_checksum              8578
loop_
_space_group_symop_operation_xyz
'x, y, z'
'-x, y+1/2, -z'
loop_
_atom_site_label
_atom_site_type_symbol
_atom_site_fract_x
_atom_site_fract_y
_atom_site_fract_z
_atom_site_U_iso_or_equiv
_atom_site_adp_type
_atom_site_occupancy
_atom_site_site_symmetry_order
_atom_site_calc_flag
C1 C 0.94312(18) 0.4507(2) 0.85952(16) 0.0185(3) Uani 1 1 d
C2 C 1.05014(17) 0.3568(2) 0.75081(17) 0.0196(3) Uani 1 1 d
C3 C 0.97301(17) 0.3379(2) 0.59232(16) 0.0187(3) Uani 1 1 d
C4 C 1.04940(19) 0.3415(3) 0.45842(17) 0.0234(3) Uani 1 1 d
C5 C 0.9559(2) 0.3398(3) 0.32044(18) 0.0261(3) Uani 1 1 d
C6 C 0.7867(2) 0.3412(3) 0.30832(17) 0.0265(4) Uani 1 1 d
C7 C 0.71495(18) 0.3370(2) 0.44236(17) 0.0212(3) Uani 1 1 d
C8 C 0.80756(18) 0.3268(2) 0.57818(16) 0.0180(3) Uani 1 1 d
C9 C 0.70211(16) 0.3307(2) 0.70579(15) 0.0179(3) Uani 1 1 d
C10 C 0.54471(19) 0.4043(2) 0.62070(19) 0.0232(4) Uani 1 1 d
C11 C 0.6605(2) 0.7074(3) 0.9265(2) 0.0254(4) Uani 1 1 d
C12 C 0.67959(19) 0.1422(2) 0.77657(17) 0.0209(3) Uani 1 1 d
N1 N 0.77996(15) 0.46220(19) 0.81421(14) 0.0178(3) Uani 1 1 d
O1 O 0.68073(13) 0.51062(18) 0.92862(12) 0.0220(3) Uani 1 1 d
O2 O 1.00030(14) 0.51729(19) 0.97787(12) 0.0238(3) Uani 1 1 d
O3 O 0.55244(13) 0.35179(18) 0.46267(12) 0.0247(3) Uani 1 1 d
H2A H 1.073(2) 0.232(3) 0.795(2) 0.020(5) Uiso 1 1 d
H2B H 1.149(3) 0.431(3) 0.755(2) 0.026(5) Uiso 1 1 d
H4 H 1.170(2) 0.350(4) 0.460(2) 0.028(5) Uiso 1 1 d
H5 H 1.005(3) 0.347(4) 0.229(2) 0.032(5) Uiso 1 1 d
H6 H 0.723(3) 0.350(4) 0.213(3) 0.036(6) Uiso 1 1 d
H10A H 0.444(2) 0.346(3) 0.655(2) 0.022(5) Uiso 1 1 d
H10B H 0.540(3) 0.540(3) 0.627(2) 0.028(5) Uiso 1 1 d
H11A H 0.606(3) 0.748(3) 0.828(3) 0.032(6) Uiso 1 1 d
H11B H 0.596(3) 0.733(4) 1.012(3) 0.048(7) Uiso 1 1 d
H11C H 0.766(3) 0.770(3) 0.946(2) 0.028(5) Uiso 1 1 d
H12A H 0.609(3) 0.151(3) 0.859(2) 0.029(5) Uiso 1 1 d
H12B H 0.783(2) 0.090(3) 0.813(2) 0.024(5) Uiso 1 1 d
H13C H 0.622(3) 0.056(3) 0.701(3) 0.032(6) Uiso 1 1 d
loop_
_atom_site_aniso_label
_atom_site_aniso_U_11
_atom_site_aniso_U_22
_atom_site_aniso_U_33
_atom_site_aniso_U_23
_atom_site_aniso_U_13
_atom_site_aniso_U_12
C1 0.0220(7) 0.0160(8) 0.0169(7) 0.0031(6) -0.0011(5) 0.0000(6)
C2 0.0186(6) 0.0197(9) 0.0202(7) 0.0000(7) -0.0004(5) 0.0008(6)
C3 0.0228(7) 0.0139(7) 0.0194(7) -0.0004(6) 0.0014(5) 0.0010(6)
C4 0.0285(7) 0.0184(8) 0.0242(8) -0.0004(7) 0.0066(6) -0.0024(7)
C5 0.0415(9) 0.0193(8) 0.0185(7) -0.0008(7) 0.0085(6) -0.0023(8)
C6 0.0426(9) 0.0193(8) 0.0164(7) 0.0001(6) -0.0037(6) -0.0028(8)
C7 0.0271(7) 0.0151(8) 0.0204(7) 0.0005(7) -0.0043(6) -0.0013(7)
C8 0.0237(7) 0.0135(8) 0.0166(7) 0.0009(6) 0.0004(5) -0.0002(6)
C9 0.0172(6) 0.0188(8) 0.0171(7) -0.0005(6) -0.0014(5) 0.0009(6)
C10 0.0207(7) 0.0245(10) 0.0233(8) -0.0002(6) -0.0040(6) 0.0039(6)
C11 0.0261(8) 0.0222(9) 0.0286(8) -0.0038(7) 0.0066(7) 0.0006(7)
C12 0.0214(7) 0.0194(8) 0.0218(7) 0.0007(6) 0.0010(6) -0.0015(6)
N1 0.0194(6) 0.0196(7) 0.0146(6) -0.0019(5) 0.0032(4) 0.0006(5)
O1 0.0258(5) 0.0215(6) 0.0201(5) -0.0020(5) 0.0096(4) -0.0003(5)
O2 0.0281(5) 0.0249(6) 0.0172(5) -0.0009(5) -0.0040(4) -0.0010(5)
O3 0.0251(5) 0.0258(7) 0.0215(5) -0.0002(5) -0.0075(4) 0.0008(5)
loop_
_atom_type_symbol
_atom_type_description
_atom_type_scat_dispersion_real
_atom_type_scat_dispersion_imag
_atom_type_scat_source
C C 0.0181 0.0091 'International Tables Vol C Tables 4.2.6.8 and 6.1.1.4'
H H 0.0000 0.0000 'International Tables Vol C Tables 4.2.6.8 and 6.1.1.4'
N N 0.0311 0.0180 'International Tables Vol C Tables 4.2.6.8 and 6.1.1.4'
O O 0.0492 0.0322 'International Tables Vol C Tables 4.2.6.8 and 6.1.1.4'
loop_
_geom_angle_atom_site_label_1
_geom_angle_atom_site_label_2
_geom_angle_atom_site_label_3
_geom_angle
O2 C1 N1 121.72(15)
O2 C1 C2 121.36(14)
N1 C1 C2 116.88(12)
C3 C2 C1 114.28(12)
C3 C2 H2A 109.6(12)
C1 C2 H2A 104.9(12)
C3 C2 H2B 112.0(12)
C1 C2 H2B 105.2(13)
H2A C2 H2B 110.7(18)
C8 C3 C4 116.75(13)
C8 C3 C2 115.53(13)
C4 C3 C2 127.60(13)
C5 C4 C3 119.41(14)
C5 C4 H4 119.5(12)
C3 C4 H4 121.0(12)
C4 C5 C6 122.98(14)
C4 C5 H5 120.6(13)
C6 C5 H5 116.2(13)
C7 C6 C5 116.19(14)
C7 C6 H6 121.0(13)
C5 C6 H6 122.8(12)
C8 C7 O3 111.41(13)
C8 C7 C6 120.65(14)
O3 C7 C6 127.85(14)
C3 C8 C7 123.68(14)
C3 C8 C9 125.42(13)
C7 C8 C9 110.31(13)
N1 C9 C8 104.98(12)
N1 C9 C12 112.01(12)
C8 C9 C12 113.53(14)
N1 C9 C10 113.69(14)
C8 C9 C10 99.29(12)
C12 C9 C10 112.49(13)
O3 C10 C9 105.83(12)
O3 C10 H10A 106.7(12)
C9 C10 H10A 113.2(12)
O3 C10 H10B 108.8(13)
C9 C10 H10B 110.7(13)
H10A C10 H10B 111.3(19)
O1 C11 H11A 110.3(14)
O1 C11 H11B 104.2(18)
H11A C11 H11B 113(2)
O1 C11 H11C 110.7(14)
H11A C11 H11C 110.4(19)
H11B C11 H11C 108(2)
C9 C12 H12A 110.7(15)
C9 C12 H12B 110.6(14)
H12A C12 H12B 110.4(18)
C9 C12 H13C 110.2(13)
H12A C12 H13C 104.9(19)
H12B C12 H13C 109.9(19)
C1 N1 O1 115.19(11)
C1 N1 C9 121.10(12)
O1 N1 C9 112.68(11)
N1 O1 C11 108.24(12)
C7 O3 C10 105.86(11)
loop_
_geom_bond_atom_site_label_1
_geom_bond_atom_site_label_2
_geom_bond_distance
C1 O2 1.217(2)
C1 N1 1.3822(19)
C1 C2 1.532(2)
C2 C3 1.503(2)
C2 H2A 1.00(2)
C2 H2B 0.98(2)
C3 C8 1.372(2)
C3 C4 1.401(2)
C4 C5 1.394(2)
C4 H4 1.00(2)
C5 C6 1.401(2)
C5 H5 0.94(2)
C6 C7 1.382(2)
C6 H6 0.96(2)
C7 C8 1.376(2)
C7 O3 1.3829(19)
C8 C9 1.4965(19)
C9 N1 1.466(2)
C9 C12 1.525(2)
C9 C10 1.547(2)
C10 O3 1.465(2)
C10 H10A 1.01(2)
C10 H10B 0.99(2)
C11 O1 1.438(2)
C11 H11A 1.00(2)
C11 H11B 0.98(3)
C11 H11C 0.99(2)
C12 H12A 0.98(2)
C12 H12B 0.97(2)
C12 H13C 1.01(2)
N1 O1 1.4117(16)
loop_
_geom_torsion_atom_site_label_1
_geom_torsion_atom_site_label_2
_geom_torsion_atom_site_label_3
_geom_torsion_atom_site_label_4
_geom_torsion
O2 C1 C2 C3 -161.06(15)
N1 C1 C2 C3 16.6(2)
C1 C2 C3 C8 -27.9(2)
C1 C2 C3 C4 147.94(17)
C8 C3 C4 C5 2.1(3)
C2 C3 C4 C5 -173.72(17)
C3 C4 C5 C6 2.3(3)
C4 C5 C6 C7 -2.4(3)
C5 C6 C7 C8 -1.8(3)
C5 C6 C7 O3 174.46(18)
C4 C3 C8 C7 -6.5(3)
C2 C3 C8 C7 169.85(17)
C4 C3 C8 C9 -176.80(16)
C2 C3 C8 C9 -0.5(3)
O3 C7 C8 C3 -170.34(16)
C6 C7 C8 C3 6.4(3)
O3 C7 C8 C9 1.3(2)
C6 C7 C8 C9 178.07(16)
C3 C8 C9 N1 37.1(2)
C7 C8 C9 N1 -134.34(14)
C3 C8 C9 C12 -85.6(2)
C7 C8 C9 C12 102.99(16)
C3 C8 C9 C10 154.82(17)
C7 C8 C9 C10 -16.62(18)
N1 C9 C10 O3 136.37(13)
C8 C9 C10 O3 25.40(16)
C12 C9 C10 O3 -94.97(15)
O2 C1 N1 O1 -16.0(2)
C2 C1 N1 O1 166.33(13)
O2 C1 N1 C9 -157.39(16)
C2 C1 N1 C9 24.9(2)
C8 C9 N1 C1 -49.34(18)
C12 C9 N1 C1 74.30(17)
C10 C9 N1 C1 -156.79(13)
C8 C9 N1 O1 168.40(12)
C12 C9 N1 O1 -67.96(15)
C10 C9 N1 O1 60.95(17)
C1 N1 O1 C11 92.72(15)
C9 N1 O1 C11 -122.67(14)
C8 C7 O3 C10 16.00(19)
C6 C7 O3 C10 -160.50(18)
C9 C10 O3 C7 -26.24(17)
