#------------------------------------------------------------------------------
#$Date: 2019-11-25 08:12:03 +0200 (Mon, 25 Nov 2019) $
#$Revision: 240464 $
#$URL: file:///home/coder/svn-repositories/cod/cif/4/12/98/4129811.cif $
#------------------------------------------------------------------------------
#
# This file is available in the Crystallography Open Database (COD),
# http://www.crystallography.net/
#
# All data on this site have been placed in the public domain by the
# contributors.
#
data_4129811
loop_
_publ_author_name
'Guo, Yunlong'
'Shoyama, Kazutaka'
'Sato, Wataru'
'Matsuo, Yutaka'
'Inoue, Kento'
'Harano, Koji'
'Liu, Chao'
'Tanaka, Hideyuki'
'Nakamura, Eiichi'
_publ_section_title
;
 Chemical Pathways Connecting Lead(II) Iodide and Perovskite via Polymeric
 Plumbate(II) Fiber.
;
_journal_issue                   50
_journal_name_full               'Journal of the American Chemical Society'
_journal_page_first              15907
_journal_page_last               15914
_journal_paper_doi               10.1021/jacs.5b10599
_journal_volume                  137
_journal_year                    2015
_chemical_formula_moiety         'C2 I2 O2 Pb S2, 4(C0.50)'
_chemical_formula_sum            'C4 I2 O2 Pb S2'
_chemical_formula_weight         605.15
_chemical_name_common            INT-1
_space_group_crystal_system      orthorhombic
_space_group_IT_number           65
_space_group_name_Hall           '-C 2 2'
_space_group_name_H-M_alt        'C m m m'
_atom_sites_solution_hydrogens   notdet
_atom_sites_solution_primary     direct
_atom_sites_solution_secondary   difmap
_audit_creation_method           SHELXL-2014/7
_cell_angle_alpha                90
_cell_angle_beta                 90
_cell_angle_gamma                90
_cell_formula_units_Z            2
_cell_length_a                   11.0774(7)
_cell_length_b                   13.8442(8)
_cell_length_c                   4.5169(3)
_cell_measurement_reflns_used    398
_cell_measurement_temperature    293(2)
_cell_measurement_theta_max      68.153
_cell_measurement_theta_min      5.114
_cell_volume                     692.70(8)
_computing_cell_refinement       'Rapid Auto (Rigaku)'
_computing_data_collection       'Rapid Auto (Rigaku)'
_computing_data_reduction        'Rapid Auto (Rigaku)'
_computing_molecular_graphics    Mercury
_computing_publication_material  Mercury
_computing_structure_refinement  'SHELXL-2014/7 (Sheldrick, 2014)'
_computing_structure_solution    'SHELXT-2014/5 (Sheldrick, 2014)'
_diffrn_ambient_temperature      293(2)
_diffrn_measured_fraction_theta_full 0.995
_diffrn_measured_fraction_theta_max 0.995
_diffrn_measurement_device_type  'Rigaku Rapid II'
_diffrn_measurement_method       'rotation method'
_diffrn_radiation_type           CuK\a
_diffrn_radiation_wavelength     1.54187
_diffrn_reflns_av_R_equivalents  0.1488
_diffrn_reflns_av_unetI/netI     0.0716
_diffrn_reflns_Laue_measured_fraction_full 0.995
_diffrn_reflns_Laue_measured_fraction_max 0.995
_diffrn_reflns_limit_h_max       12
_diffrn_reflns_limit_h_min       -13
_diffrn_reflns_limit_k_max       16
_diffrn_reflns_limit_k_min       -16
_diffrn_reflns_limit_l_max       5
_diffrn_reflns_limit_l_min       -5
_diffrn_reflns_number            3710
_diffrn_reflns_point_group_measured_fraction_full 0.995
_diffrn_reflns_point_group_measured_fraction_max 0.995
_diffrn_reflns_theta_full        67.687
_diffrn_reflns_theta_max         68.153
_diffrn_reflns_theta_min         5.114
_diffrn_source                   'fine-focus sealed tube'
_exptl_absorpt_coefficient_mu    61.241
_exptl_absorpt_correction_T_max  1.0000
_exptl_absorpt_correction_T_min  0.3458
_exptl_absorpt_correction_type   multi-scan
_exptl_absorpt_process_details
'Empirical Absorption Correction March 2001 T Higashi'
_exptl_crystal_colour            colorless
_exptl_crystal_density_diffrn    2.901
_exptl_crystal_density_method    'not measured'
_exptl_crystal_description       needle
_exptl_crystal_F_000             520
_exptl_crystal_size_max          0.400
_exptl_crystal_size_mid          0.080
_exptl_crystal_size_min          0.080
_refine_diff_density_max         2.193
_refine_diff_density_min         -1.091
_refine_diff_density_rms         0.292
_refine_ls_extinction_coef       0.0075(5)
_refine_ls_extinction_expression Fc^*^=kFc[1+0.001xFc^2^\l^3^/sin(2\q)]^-1/4^
_refine_ls_extinction_method     'SHELXL-2014/7 (Sheldrick 2014'
_refine_ls_goodness_of_fit_ref   1.193
_refine_ls_hydrogen_treatment    undef
_refine_ls_matrix_type           full
_refine_ls_number_parameters     32
_refine_ls_number_reflns         398
_refine_ls_number_restraints     0
_refine_ls_restrained_S_all      1.193
_refine_ls_R_factor_all          0.0484
_refine_ls_R_factor_gt           0.0470
_refine_ls_shift/su_max          0.000
_refine_ls_shift/su_mean         0.000
_refine_ls_structure_factor_coef Fsqd
_refine_ls_weighting_details
'w=1/[\s^2^(Fo^2^)+(0.0315P)^2^+4.0515P] where P=(Fo^2^+2Fc^2^)/3'
_refine_ls_weighting_scheme      calc
_refine_ls_wR_factor_gt          0.1057
_refine_ls_wR_factor_ref         0.1079
_reflns_Friedel_coverage         0.000
_reflns_number_gt                385
_reflns_number_total             398
_reflns_threshold_expression     'I > 2\s(I)'
_cod_data_source_file            ja5b10599_si_002.cif
_cod_data_source_block           PbI2DMSO2
_cod_database_code               4129811
_shelx_shelxl_version_number     2014/7
_shelx_space_group_comment
;
The symmetry employed for this shelxl refinement is uniquely defined
by the following loop, which should always be used as a source of
symmetry information in preference to the above space-group names.
They are only intended as comments.
;
_shelx_estimated_absorpt_t_min   0.016
_shelx_estimated_absorpt_t_max   0.084
_shelx_res_file
;

    ydkr_f_b.res created by SHELXL-2014/7

TITL ydkr_f_b_a.res in Cmmm
REM  Yadorkari-X generated
CELL 1.54187 11.0774 13.8442 4.5169 90.0000 90.0000 90.0000
ZERR 2.0 0.0007 0.0008 0.0003 0.0000 0.0000 0.0000
LATT 7
SYMM -X, -Y, +Z
SYMM +X, -Y, -Z
SYMM -X, +Y, -Z
REM  SPGR Cmmm orthorhombic
SFAC Pb I O S C
UNIT 2 4 4 4 8
SIZE 0.40 0.08 0.08
TEMP 20.0
L.S. 10
FMAP 2
PLAN -40
ACTA
CONF
LIST 4
BOND $H
MERG 2
OMIT    5    7    3

WGHT    0.031500    4.051500
EXTI    0.007499
FVAR       0.30399
PB1   1    0.500000    0.500000    0.500000    10.12500    0.02898    0.02565 =
         0.05857    0.00000    0.00000    0.00000
I1    2    0.290310    0.500000    0.000000    10.25000    0.03164    0.06231 =
         0.05623    0.00000    0.00000    0.00000
S1    4    0.572948    0.757747    0.654759    10.25000    0.05361    0.04599 =
         0.08256    0.00456    0.00201   -0.00526
O1    3    0.500000    0.679910    0.500000    10.25000    0.04314    0.03435 =
         0.19718    0.00000    0.00000    0.00000
C1    5    0.500000    0.865884    0.500000    10.25000    0.09602    0.02378 =
         0.19209    0.00000    0.00000    0.00000
C2    5    0.710872    0.748127    0.500000    10.25000    0.01821    0.07981 =
         0.20848    0.00000    0.00000    0.00954
HKLF 4 1 1 0 0   0 1 0   0 0 1

REM  ydkr_f_b_a.res in Cmmm
REM R1 =  0.0470 for     385 Fo > 4sig(Fo)  and  0.0484 for all     398 data
REM     32 parameters refined using      0 restraints

END

WGHT      0.0315      4.0515

REM Highest difference peak  2.193,  deepest hole -1.091,  1-sigma level  0.292
Q1    1   0.5000  0.5000  0.7346  10.25000  0.05    2.19
Q2    1   0.7110  0.5000  0.2228  10.50000  0.05    1.69
Q3    1   0.0828  0.5000  0.4054  10.50000  0.05    1.07
Q4    1   0.5630  0.5984  0.5000  10.50000  0.05    0.83
Q5    1   0.7406  0.6892  0.5000  10.50000  0.05    0.72
Q6    1   0.1363  0.5000  0.1213  10.50000  0.05    0.59
Q7    1   0.1865  0.5000  0.3120  10.50000  0.05    0.58
Q8    1   0.5000  0.8550  0.3024  10.50000  0.05    0.57
Q9    1   0.2434  0.4052  0.0000  10.50000  0.05    0.54
Q10   1   0.6907  0.7564  0.3208  11.00000  0.05    0.49
Q11   1   0.6381  0.6038  0.0000  10.50000  0.05    0.45
Q12   1   0.0000  0.4839  0.1712  10.50000  0.05    0.44
Q13   1   0.5910  0.5000  0.1627  10.50000  0.05    0.43
Q14   1   0.6112  0.5339  0.5000  10.50000  0.05    0.41
Q15   1   0.2229  0.4508  0.5000  10.50000  0.05    0.40
Q16   1   0.5703  0.5000  0.0000  10.25000  0.05    0.39
Q17   1   0.1800  0.4476  0.0000  10.50000  0.05    0.37
Q18   1   0.5000  0.7582  1.1173  10.50000  0.05    0.37
Q19   1   0.5000  0.7967  0.5000  10.25000  0.05    0.37
Q20   1   0.1570  0.4278  0.1185  11.00000  0.05    0.37
Q21   1   0.5398  0.8077  1.0000  10.50000  0.05    0.35
Q22   1   0.5000  0.6233  0.0000  10.25000  0.05    0.33
Q23   1   0.5867  0.7921  0.5000  10.50000  0.05    0.33
Q24   1   0.7500  0.7500  1.0000  10.25000  0.05    0.32
Q25   1   0.5800  0.7513  0.2684  11.00000  0.05    0.32
Q26   1   0.5579  0.6981  0.0000  10.50000  0.05    0.30
Q27   1   0.5224  0.7511  0.3556  11.00000  0.05    0.28
Q28   1   0.1956  0.2971  0.0000  10.50000  0.05    0.28
Q29   1   0.5000  0.9562  0.6935  10.50000  0.05    0.28
Q30   1   0.2084  0.3605  0.2059  11.00000  0.05    0.27
Q31   1   0.5000  0.6990  0.3008  10.50000  0.05    0.26
Q32   1   0.2469  0.3069  0.2416  11.00000  0.05    0.26
Q33   1   0.6399  0.5875  0.3338  11.00000  0.05    0.23
Q34   1   0.5000  0.6881  0.1322  10.50000  0.05    0.21
Q35   1   0.6846  0.6297  0.1704  11.00000  0.05    0.17
Q36   1   0.1165  0.3984  0.3901  11.00000  0.05    0.16
Q37   1   0.1005  0.3602  0.3093  11.00000  0.05    0.16
Q38   1   0.5728  0.6574  0.2782  11.00000  0.05    0.11
Q39   1   0.6935  0.6251  0.5000  10.50000  0.05    0.10
Q40   1   0.0451  0.3968  0.1393  11.00000  0.05    0.07
;
_shelx_res_checksum              92848
_shelx_hkl_file
;
   0   0   1  211.43   17.98
   0   0   1  211.95   15.98
   0   0  -1  217.24   12.23
   0   0   1  186.33   22.50
   0   0  -1  214.33   23.99
   0   0  -1  183.71   13.43
   0   0   1  188.83   10.08
   0   0   1  186.99   16.02
   0   0  -1  195.88   16.97
   0   0   2 3445.32  691.83
   0   0   2 2815.15  527.83
   0   0   2 2809.02  451.49
   0   0  -2 2787.00  455.04
   0   0  -2 2798.97  551.03
   0   0  -2 2381.59  485.47
   0   0  -2 2490.33  400.78
   0   0   2 2799.47  523.60
   0   0   2 3636.11  685.39
   0   0   3  107.05   21.10
   0   0  -3   96.73   24.73
   0   0   3  101.53   19.45
   0   0   4  519.47   92.41
   0   0  -4  631.51  198.94
   0   0   4  648.96  160.94
   0   0   5    1.05    1.08
   0   0  -5    0.21    1.20
   0   0   5    0.47    1.20
   0   2   0 2168.80  263.71
   0  -2   0 1855.36  235.70
   0   2   0 1992.64  377.38
   0  -2   0 1506.72  332.97
   0  -2   0 1546.97  204.87
   0   2   0 2646.11  313.80
   0   2   0 2812.77  466.95
   0  -2   1  763.61   79.95
   0   2   1  749.38   72.30
   0   2   1  728.76   67.84
   0   2   1  585.80   56.57
   0  -2  -1  680.48   51.86
   0   2  -1  753.81   83.69
   0  -2   1  763.34   71.37
   0   2  -1  628.30   92.44
   0  -2   1  648.82   84.38
   0   2   1  677.92   88.45
   0  -2  -1  620.99  108.44
   0   2  -1  668.69   63.77
   0  -2  -1  737.46   79.62
   0   2   1  796.83   87.34
   0   2  -1  566.87   56.48
   0  -2   1  726.37   68.18
   0   2  -1  846.85  105.63
   0   2   1  765.66   75.08
   0   2   2 3218.50  651.66
   0  -2   2 3277.41  575.27
   0   2   2 2739.27  505.81
   0   2   2 2190.47  365.34
   0  -2   2 2426.15  428.22
   0  -2  -2 2657.18  404.94
   0   2  -2 3414.81  562.97
   0  -2  -2 2430.25  520.46
   0  -2   2 2248.38  491.73
   0   2  -2 3439.44  610.95
   0  -2  -2 2461.95  505.08
   0   2  -2 2791.54  453.01
   0  -2  -2 2554.91  423.45
   0   2   2 3087.43  512.78
   0   2  -2 2392.57  360.26
   0   2   2 2895.82  528.59
   0   2  -2 2758.86  501.31
   0  -2   2 3073.18  525.59
   0   2   2 3163.98  570.90
   0   2   3    3.80    3.11
   0  -2   3    8.15    2.80
   0  -2  -3    0.82    4.42
   0   2  -3    6.88    5.10
   0  -2   3    9.28    4.02
   0   2   3    6.49    3.58
   0   2   4  592.02  113.68
   0  -2   4  604.17  136.30
   0  -2  -4  686.66  205.00
   0   2  -4  838.54  167.87
   0   2   4  737.40  150.04
   0  -2   4  815.36  149.84
   0  -2  -5    9.27    7.35
   0   2   5    6.86    6.99
   0  -2   5   12.63    6.45
   0  -4   0 6890.26 2154.48
   0   4   0 8919.73 2455.58
   0  -4   0 3680.50 1021.33
   0   4   0 4786.14 1095.26
   0   4   0 9999.00 2758.97
   0   4   1   16.04    3.53
   0   4   1   14.37    1.73
   0  -4   1   11.28    2.91
   0   4  -1   12.12    3.24
   0  -4   1    6.75    4.86
   0   4  -1    7.14    4.34
   0  -4  -1   12.58    4.86
   0   4   1   20.02    5.43
   0  -4  -1   14.69    2.64
   0   4  -1   12.76    1.81
   0   4   1   16.22    2.96
   0   4  -1   11.19    2.94
   0   4  -1   18.16    2.74
   0  -4   1   10.62    3.07
   0   4   1   11.08    4.29
   0  -4  -1   15.65    3.68
   0   4   2 2555.24  434.99
   0  -4   2 2816.83  430.06
   0   4   2 2432.62  403.45
   0  -4   2 1865.83  330.29
   0   4  -2 2764.12  441.56
   0  -4  -2 1456.93  361.14
   0  -4   2 1695.07  442.83
   0   4  -2 2761.33  490.95
   0  -4  -2 2005.33  413.22
   0  -4  -2 2164.05  349.26
   0   4  -2 2057.64  302.04
   0   4   2 2512.55  405.25
   0   4  -2 2106.65  323.16
   0   4  -2 2184.55  382.91
   0   4   2 2318.45  409.07
   0  -4   2 2669.05  441.61
   0   4   2 2626.97  467.25
   0   4   3   82.13   16.41
   0  -4   3   74.83   12.10
   0   4  -3   78.34   12.22
   0  -4  -3   75.34   30.19
   0   4  -3   58.23   20.87
   0   4   3   92.70   33.76
   0  -4   3   73.68   16.28
   0   4   4  424.68  111.62
   0  -4   4  574.57   99.31
   0  -4  -4  358.99  175.49
   0   4  -4  461.80  111.60
   0   4   4  523.10  111.05
   0  -4   4  508.66  104.06
   0   4   5   11.40    6.30
   0  -4   5    5.51    4.35
   0  -4  -5    2.49    6.77
   0   4  -5   29.29   25.75
   0   4   5   17.97    6.06
   0  -4   5   26.47   21.15
   0  -6   0 2836.35  555.36
   0  -6   0 3492.19  733.78
   0   6   0 4092.03  796.20
   0  -6   0 2806.35  568.64
   0   6   0 2578.04  523.98
   0   6   0 3222.52  623.41
   0  -6   0 2441.67  575.24
   0   6   1   41.84    3.36
   0  -6  -1   36.06    6.70
   0  -6   1   45.01    7.18
   0   6  -1   46.14    7.61
   0  -6   1   26.17   10.95
   0   6  -1   26.31   22.45
   0  -6  -1   21.08   22.44
   0   6   1   39.46   12.35
   0  -6  -1   38.34    6.92
   0   6  -1   30.90    4.42
   0   6   1   41.80    7.59
   0   6  -1   49.12    8.04
   0   6  -1   40.58    6.24
   0   6   1   38.83   17.53
   0  -6   1   11.16   18.73
   0  -6  -1   37.96    7.96
   0   6   2 2343.27  365.51
   0   6   2 2270.20  361.02
   0  -6   2 1918.56  337.03
   0   6  -2 2487.80  387.17
   0  -6   2 1861.09  580.65
   0   6  -2 1592.25  396.35
   0  -6  -2 1286.92  310.12
   0  -6  -2 2179.79  344.88
   0   6   2 2072.23  337.61
   0   6   2 1923.74  333.04
   0   6  -2 1961.20  335.52
   0  -6   2 1508.34  291.29
   0   6   2 1554.60  309.51
   0   6   3   10.72    3.35
   0   6  -3    7.66    5.19
   0   6   3    1.06    6.87
   0   6   3   12.67    4.49
   0  -6   3    3.11    4.17
   0   6   4  607.05  126.36
   0  -6  -4  465.08  203.28
   0   6  -4  771.35  396.44
   0   6   4  484.96  117.94
   0  -6   4  744.25  348.79
   0   6   5    9.57    4.26
   0  -6  -5    1.65   10.27
   0   6  -5    8.12   13.73
   0   6   5    4.99    4.40
   0  -6   5   14.68    8.91
   0  -8   0 3225.54  764.07
   0  -8   0 4085.06  957.76
   0   8   0 5288.69 1161.35
   0  -8   0 3075.34  732.58
   0   8   0 2996.13  666.15
   0   8   0 3886.51  840.64
   0  -8   0 3111.21  774.50
   0  -8  -1   21.86    5.24
   0  -8   1   20.64    6.46
   0  -8   1   18.23    9.00
   0  -8  -1   30.99   17.75
   0   8  -1   37.71   16.96
   0   8   1   21.57    8.70
   0  -8  -1   26.04    7.01
   0   8   1   22.04    7.09
   0   8  -1   24.69    6.93
   0   8  -1   15.91    5.19
   0  -8   1   45.37   14.49
   0   8   1   37.89   14.64
   0  -8  -1   16.48    6.70
   0   8  -2  765.61  331.02
   0   8   2 1341.63  204.88
   0   8   2 1157.88  186.93
   0  -8   2  672.56  273.07
   0  -8   3   13.73    6.49
   0  -8  -3   19.47   12.18
   0   8   3   14.90   10.08
   0   8   3   11.22    7.00
   0  -8   3    5.86   14.69
   0  -8   4  350.56   65.31
   0  -8  -4  328.75  125.63
   0   8  -4  242.91  175.59
   0   8   4  317.22   71.20
   0  -8   4  152.15  122.98
   0 -10   0 1433.56  298.70
   0  10   0 1973.81  365.29
   0  10   0 1408.82  272.03
   0  10   0 1507.36  263.79
   0 -10   0 1235.85  312.07
   0 -10   1    3.76    2.08
   0  10  -1    1.40    1.46
   0  10   1    0.75    2.05
   0 -10   1    2.10    1.35
   0 -10   2 1104.31  234.81
   0  10  -2 1648.52  464.78
   0  10   2 1156.66  244.32
   0  10   2 1052.08  222.42
   0 -10   2 1896.65  546.67
   0 -10   3   22.15   11.01
   0 -10  -3   30.48   18.75
   0  10  -3   34.88   26.09
   0  10   3   10.79   18.07
   0  10   3   17.66   16.81
   0 -10   3   36.45   20.66
   0 -10   4  297.00   79.01
   0 -10  -4  305.49   96.91
   0  10  -4  594.74  217.72
   0  10   4  300.19   56.70
   0 -12   0 1287.91  350.13
   0  12   0 1622.99  377.89
   0  12   0 1421.69  304.36
   0 -12   1   72.86   29.45
   0  12  -1   70.76   21.38
   0  12   1   72.35   22.23
   0  12  -1   72.36   20.50
   0  12   1   72.66   24.20
   0 -12   2  599.16  131.94
   0 -12  -2  523.35  154.15
   0  12  -2  526.95  104.39
   0  12   2  732.05  149.58
   0 -12   3    8.38    3.45
   0 -12  -3    0.14    5.54
   0  12  -3    3.25    2.40
   0  12   3    4.28    4.36
   0 -14   0  352.20   57.07
   0  14   0  419.80   71.67
   0  14   0  415.41   76.02
   0 -14   1   12.66    6.64
   0  14  -1   11.93    9.16
   0  14   1   20.24    6.18
   0  14   1   18.36    7.80
   0  14  -1   14.34    5.83
   0 -14   2  280.33   84.61
   0 -14  -2  339.40   93.49
   0  14  -2  337.99   54.85
   0  14   2  484.45   88.27
   0  16   0  519.80   86.56
   0 -16   1   62.28    9.43
   0 -16  -1   42.69   13.83
   0  16   1   81.78   15.38
   1   1   0 1318.69  184.89
  -1  -1   0 1214.37  153.24
   1   1   0 1012.93  120.37
  -1  -1   0 1167.46  149.42
   1  -1   0 1166.26   96.84
  -1   1   0 1125.25   95.73
  -1   1   0 1131.62  186.06
  -1  -1   0 1092.37  108.13
   1   1   0 1018.89   88.79
   1   1   0 1399.96  138.19
   1  -1   0 1146.42  105.22
  -1   1   0 1003.91   84.85
   1   1   0  934.51   94.90
  -1  -1   0 1152.81  190.49
   1   1   0 1493.28  230.80
   1  -1  -1  533.15   52.81
   1   1   1  589.07   58.64
   1   1   1  604.96   63.56
  -1   1  -1  541.54   61.40
  -1  -1   1  557.13   43.44
  -1  -1   1  478.54   54.15
  -1   1  -1  517.50   58.05
   1  -1  -1  509.13   61.33
   1   1   1  622.15   43.52
   1  -1  -1  532.81   56.75
  -1  -1   1  513.80   43.82
  -1   1  -1  518.18   43.55
  -1  -1   1  624.98   57.75
   1   1   1  599.13   57.49
   1   1  -1  505.43   50.37
  -1   1   1  742.25   71.63
  -1  -1  -1  565.71   61.31
   1  -1   1  616.45   53.13
  -1  -1  -1  558.77   63.88
   1  -1   1  576.77   92.80
   1   1  -1  612.79   60.10
  -1  -1  -1  603.22   61.66
  -1  -1  -1  530.25   38.45
  -1   1   1  549.43   45.61
   1   1  -1  506.72   42.30
  -1   1   1  531.58   46.63
   1  -1   1  661.80   69.86
   1   1  -1  634.87   84.00
   1   1   2 1331.23  198.77
  -1  -1   2 1544.47  214.00
   1   1   2 1405.71  207.08
   1   1   2 1317.15  175.41
  -1  -1   2 1255.22  145.82
  -1   1  -2 1387.88  178.21
   1  -1  -2 1342.06  215.77
  -1   1  -2 1373.71  213.78
   1  -1  -2 1414.34  174.42
   1   1   2 1334.80  141.26
   1   1   2 1272.90  183.06
  -1  -1   2 1329.51  186.38
   1   1   2 1548.59  222.18
   1  -1   2 1382.50  191.36
  -1   1   2 1535.37  212.12
  -1   1   2 1154.71  110.18
   1  -1   2 1318.65  161.13
  -1  -1  -2 1338.61  174.51
   1  -1   2 1176.96  187.61
  -1  -1  -2 1159.68  237.58
   1   1  -2 1437.32  198.52
  -1  -1  -2 1249.75  188.98
  -1  -1  -2 1174.28  123.77
   1   1  -2 1103.95  125.50
  -1   1   2 1283.81  149.48
   1   1  -2 1258.44  171.47
   1  -1   2 1371.13  180.15
  -1   1   2 1403.11  186.93
  -1   1   2 1633.71  217.57
  -1   1  -3  228.42   36.61
  -1   1  -3  189.10   43.80
   1  -1  -3  207.29   44.79
   1   1   3  243.50   40.07
  -1  -1   3  200.64   32.18
   1  -1   3  191.31   20.10
   1   1  -3  195.19   38.06
  -1  -1  -3  178.57   46.50
   1  -1   3  208.23   32.06
  -1   1   3  221.39   34.64
   1   1   4  231.29   52.37
  -1  -1   4  372.60   97.43
   1  -1  -4  257.99   79.59
  -1   1  -4  261.18   74.54
   1   1   4  270.80   60.28
  -1  -1   4  275.29   63.09
   1  -1   4  225.15   46.67
  -1   1   4  388.01   99.62
  -1  -1  -4  228.92   88.93
   1   1  -4  300.26  110.10
  -1   1   4  256.69   86.15
   1  -1   4  288.53   87.33
  -1  -1   5   23.92    9.98
   1  -1  -5   22.11   10.69
  -1   1  -5   12.02   11.69
   1   1   5   29.75   11.01
  -1  -1   5   11.99   11.60
   1  -1   5   12.82    6.86
  -1  -1  -5   12.49    8.30
   1   1  -5    9.09    7.08
  -1   1   5    9.27    8.01
   1  -1   5   16.64    7.56
   1  -3   0 1552.28  173.64
   1   3   0 1855.47  291.11
  -1   3   0 1543.37  220.03
  -1  -3   0 1549.58  188.85
  -1  -3   0 1593.99  240.72
  -1   3   0 1878.13  229.42
  -1  -3   0 1378.08  208.82
   1  -3   0 1518.05  376.33
  -1   3   0 3004.11  548.16
  -1  -3   0 2358.37  395.71
   1   3   0 1511.38  282.06
  -1  -3   0 1628.51  241.01
   1  -3   0 1434.24  183.87
   1   3   0 1904.69  257.29
  -1   3   0 1517.22  187.36
  -1  -3   0 3000.78  574.53
   1  -3  -1  519.05   42.51
   1   3   1  460.62   41.23
  -1  -3   1  553.11   54.19
   1   3   1  540.41   60.16
   1   3   1  539.51   56.88
  -1  -3   1  460.52   46.47
  -1   3  -1  560.67   52.21
  -1  -3   1  403.04   55.59
  -1   3  -1  387.66   60.24
   1  -3  -1  317.96   65.38
   1   3   1  437.03   59.70
  -1   3  -1  502.42   37.60
   1   3   1  471.14   44.54
   1  -3  -1  471.91   43.98
  -1   3  -1  514.24   52.83
  -1  -3   1  422.41   52.98
   1   3   1  529.45   71.36
   1  -3   1  519.81   37.93
   1   3  -1  462.35   36.69
  -1  -3  -1  419.20   61.76
   1  -3   1  542.41   52.42
   1   3  -1  583.99   52.85
   1  -3   1  373.20   64.56
   1   3  -1  469.32   53.39
  -1  -3  -1  482.77   60.27
  -1   3   1  379.47   68.71
   1   3  -1  526.96   55.07
  -1  -3  -1  492.92   57.56
  -1   3   1  487.53   45.44
   1   3  -1  361.05   44.88
  -1   3   1  456.72   38.60
   1  -3   1  502.34   43.49
  -1  -3  -1  453.07   61.94
   1   3   2 1185.08  162.79
  -1  -3   2 1262.70  151.21
   1   3   2 1604.95  193.58
   1   3   2  976.77  124.78
  -1  -3   2  921.44  119.02
  -1   3  -2 1179.22  166.76
   1  -3  -2  917.64  166.82
  -1  -3   2  889.10  180.58
  -1   3  -2 1267.39  191.56
   1  -3  -2  978.26  180.00
   1  -3  -2 1058.19  145.14
   1   3   2 1069.96  126.67
   1   3   2 1037.41  156.02
  -1   3  -2 1049.03  131.90
  -1  -3   2 1146.86  156.63
   1   3   2 1329.41  190.14
   1  -3   2 1343.47  192.09
  -1   3   2 1295.71  172.92
  -1  -3  -2  958.80  111.89
   1  -3   2 1115.99  142.71
   1   3  -2 1167.47  137.48
  -1  -3  -2  899.13  171.16
   1  -3   2 1024.35  201.35
   1   3  -2 1436.83  231.80
  -1  -3  -2  976.90  185.81
   1   3  -2 1113.83  141.34
  -1  -3  -2 1036.15  117.26
  -1   3   2 1201.33  148.02
   1   3  -2  966.62  121.96
  -1   3   2 1152.71  150.76
   1   3  -2  968.38  146.08
   1  -3   2 1083.51  154.39
  -1   3   2 1192.38  152.77
  -1  -3   3  163.19   24.96
  -1   3  -3  183.67   24.13
   1  -3  -3  161.15   71.39
  -1   3  -3  162.81   39.22
   1  -3  -3  156.30   18.85
   1   3   3  155.14   54.35
  -1  -3   3  158.01   29.24
   1  -3   3  192.00   29.04
   1  -3   3  163.54   23.74
  -1  -3  -3  129.83   49.10
   1   3  -3  172.20   34.98
  -1   3   3  149.27   21.16
  -1   3   3  176.74   34.22
   1  -3   3  159.78   42.82
   1   3   4  215.39   45.32
  -1  -3   4  258.90   49.32
   1  -3  -4  199.02   83.38
  -1   3  -4  202.10   61.80
   1   3   4  200.47   62.34
  -1  -3   4  218.04   54.59
   1  -3   4  201.71   36.04
  -1   3   4  354.56   92.83
  -1  -3  -4  194.36   93.35
   1   3  -4  220.08   55.19
  -1   3   4  214.96   51.68
   1  -3   4  248.27   50.29
  -1  -3   5   13.87    7.88
   1  -3  -5   17.91    9.37
  -1   3  -5    4.70   14.39
   1   3   5   21.81    9.25
  -1  -3   5   12.25   14.35
   1  -3   5   26.77    8.49
   1   3  -5   10.29   10.10
  -1  -3  -5   14.34   11.79
  -1   3   5   25.49   10.53
   1  -3   5   25.58    9.97
  -1  -5   0 1823.21  307.26
  -1   5   0 1826.52  271.26
   1  -5   0 1986.64  487.98
  -1  -5   0 2020.47  356.37
  -1   5   0 2934.39  604.07
   1   5   0 2287.96  366.16
  -1  -5   0 2041.54  336.44
   1  -5   0 1689.76  261.90
   1   5   0 2009.69  315.12
  -1   5   0 1785.04  263.12
   1   5   0 2448.01  460.18
  -1   5   0 1611.75  256.02
  -1  -5   0 2557.05  471.77
   1  -5   0 1647.47  285.99
   1   5   1  644.94   59.97
   1   5   1  775.71   73.33
  -1  -5   1  670.95   85.33
  -1   5  -1  885.99   96.66
  -1  -5   1  621.85   92.31
   1  -5  -1  418.42  171.82
  -1   5  -1  539.04  161.48
   1   5   1  802.27  110.72
   1  -5  -1  682.98   78.15
  -1   5  -1  645.41   59.46
   1   5   1  701.27   84.09
  -1   5  -1  652.92   66.36
   1   5   1  664.21  250.98
  -1  -5   1  683.79  171.61
   1  -5  -1  864.61   88.99
  -1   5   1  885.09   89.38
  -1   5   1  741.46   61.68
  -1  -5  -1  585.40   78.28
   1  -5   1  704.37  101.80
   1   5  -1  594.78  130.91
  -1  -5  -1  847.25   95.48
   1  -5   1  577.76   73.52
   1   5  -1  687.15   79.19
  -1   5   1  758.86  110.06
   1   5  -1  601.49   83.38
   1  -5   1  787.25  188.33
  -1  -5  -1  459.11   86.25
   1   5   2 1306.68  201.85
  -1  -5   2 1236.50  141.39
   1   5   2 1373.42  194.00
  -1  -5   2  963.40  164.00
  -1   5  -2 1348.15  169.64
  -1  -5   2 1141.21  222.74
  -1   5  -2  837.22  159.64
   1  -5  -2  677.42  155.79
   1  -5  -2 1147.19  145.25
   1   5   2  958.58  154.22
   1   5   2  810.24  135.75
  -1   5  -2 1054.82  133.38
  -1  -5   2  907.38  145.72
   1   5   2  917.55  161.28
   1  -5   2 1308.63  145.21
  -1   5   2 1131.78  152.35
  -1   5   2 1304.17  158.70
  -1  -5  -2  728.63  124.29
   1  -5   2 1024.94  143.81
  -1  -5  -2 1020.43  189.53
   1  -5   2  742.07  295.08
   1   5  -2  951.48  156.01
  -1  -5  -2  829.81  153.66
  -1  -5  -2 1249.64  176.25
   1   5  -2 1165.91  166.51
  -1   5   2 1217.15  160.46
   1   5  -2  821.39  139.71
  -1   5   2 1203.84  158.01
   1  -5   2  988.82  140.10
  -1   5   2 1102.04  157.49
   1   5   3  225.41   39.95
  -1  -5   3  183.39   28.38
  -1  -5   3  230.01   32.79
  -1   5  -3  228.29   32.20
   1  -5  -3  128.86   59.23
  -1   5  -3  133.19   45.19
   1   5   3  177.14   43.87
  -1  -5   3  150.58   36.42
   1  -5   3  186.98   24.19
  -1   5   3  168.30   41.42
  -1  -5  -3  202.91   99.68
   1   5  -3  150.35   38.51
  -1   5   3  211.65   34.60
  -1   5   3  223.24   39.25
   1  -5   3  162.52   32.91
   1   5   4  169.25   32.88
  -1  -5   4  169.40   34.59
   1  -5  -4  149.10   77.44
  -1   5  -4  138.79   48.09
   1   5   4  163.26   49.25
  -1  -5   4  155.62   41.94
  -1   5   4  233.35   51.79
  -1  -5  -4  236.85   91.18
   1   5  -4  148.14   45.37
  -1   5   4  206.39   43.92
   1  -5   4  163.98   41.66
   1   5   5   23.34    7.07
   1  -5  -5   19.46   15.85
  -1   5  -5   10.35   20.94
   1   5   5    0.46    7.42
  -1  -5   5   16.29   16.13
  -1   5   5   10.25   10.34
  -1  -5  -5   17.03    9.47
   1   5  -5   45.69   22.26
  -1   5   5   20.34    8.23
   1  -5   5   24.91   17.34
  -1  -7   0 1391.24  248.09
   1  -7   0 1635.75  317.85
  -1  -7   0 1528.30  270.16
   1   7   0 1712.07  279.03
  -1   7   0 2032.51  359.04
   1  -7   0 1414.85  239.55
  -1  -7   0 1403.49  246.26
   1   7   0 1447.80  240.39
  -1   7   0 1346.92  207.21
   1   7   0 1826.17  289.18
  -1   7   0 1341.55  207.47
   1  -7   0 1378.15  233.05
  -1  -7   0 1796.77  330.38
  -1  -7   1  481.66   66.13
   1  -7  -1  285.23   56.65
  -1  -7   1  431.23   60.36
  -1   7  -1  462.56   55.83
  -1  -7   1  388.62   59.23
  -1   7  -1  274.99  130.54
   1  -7  -1  307.66  145.88
   1   7   1  465.64   67.07
   1  -7  -1  394.68   50.94
  -1   7  -1  384.72   38.03
   1   7   1  429.06   60.04
  -1   7  -1  352.16   39.02
   1   7   1  292.72  118.72
  -1  -7   1  379.49  120.42
   1  -7  -1  429.58   49.33
  -1  -7  -1  398.98   47.80
  -1  -7  -1  313.10  100.52
   1   7  -1  345.38   98.43
  -1   7   1  308.27   67.80
  -1  -7  -1  432.20   53.96
   1   7  -1  394.87   45.11
  -1   7   1  424.32   71.23
   1   7  -1  376.25   51.81
   1   7  -1  246.62   44.06
  -1   7   1  226.88   79.73
   1  -7   1  452.33   90.14
  -1  -7  -1  283.92   54.57
   1   7   2  700.54   87.07
   1   7   2  581.83   72.15
  -1  -7   2  780.47  110.68
  -1   7  -2  740.40   98.53
  -1  -7   2  803.80  172.13
  -1   7  -2  527.90  198.90
   1   7   2  620.58  127.10
  -1   7  -2  619.54   80.59
  -1  -7   2  602.92  201.40
  -1   7   2  647.77   89.55
  -1  -7  -2  680.72  134.18
   1   7  -2  536.96  178.85
  -1  -7  -2  586.80  186.03
  -1  -7  -2  740.31   98.88
   1   7  -2  667.46   83.00
  -1   7   2  680.63  100.97
  -1   7   2  657.15   92.36
  -1   7   2  740.68  234.78
   1  -7   2  643.00  170.83
   1   7   3   90.02   17.64
  -1  -7   3  133.13   26.17
  -1   7  -3  117.85   21.36
   1  -7  -3   54.89   43.97
  -1   7  -3   99.13   70.42
   1   7   3   94.37   30.94
  -1  -7   3  117.52   63.01
  -1   7   3  104.53   26.53
  -1  -7  -3  260.34   60.10
   1   7  -3  102.62   67.91
  -1   7   3   94.94   47.05
  -1   7   3  133.43   45.48
   1  -7   3  140.03   96.03
   1   7   4  148.73   32.98
   1  -7  -4   71.37   72.42
  -1   7  -4  129.47  101.22
   1   7   4  126.72   42.05
  -1  -7   4  131.10   79.43
  -1   7   4  126.19   36.28
   1  -7   4  164.84   36.01
  -1  -7  -4  175.55   69.96
   1   7  -4  131.82   92.68
  -1   7   4  153.84   35.29
   1  -7   4  117.96   76.44
  -1  -9   0  719.58  136.66
   1  -9   0  773.36  131.95
  -1  -9   0  837.00  137.83
   1  -9   0  956.88  172.19
   1   9   0  885.68  139.67
  -1   9   0 1011.39  175.87
  -1  -9   0  737.66  134.06
   1  -9   0  732.47  124.93
  -1   9   0  628.44   99.77
   1   9   0  713.88  121.21
  -1   9   0  707.57  100.61
   1   9   0  889.28  131.25
  -1  -9   0  836.64  148.40
   1  -9   0  592.23  124.53
  -1  -9   1  255.06   50.66
  -1  -9   1  241.28   46.83
  -1   9  -1  400.29  156.25
   1   9   1  264.05   44.46
   1   9   1  272.24   52.33
  -1   9  -1  203.75   27.46
  -1   9  -1  213.04   30.63
  -1  -9   1  210.91   63.50
   1  -9  -1  236.07   35.66
  -1  -9  -1  222.79   32.99
   1   9  -1  206.19   62.18
  -1   9   1  238.68   51.46
   1   9  -1  266.36   50.18
  -1   9   1  234.93   56.31
  -1   9   1  238.32   47.47
   1  -9   1  189.81   33.76
  -1  -9  -1  200.00   46.05
  -1  -9   2  559.42   94.76
  -1   9  -2  444.27  197.99
   1   9   2  508.96   92.97
   1   9   2  378.64   80.63
  -1  -9   2  559.55  175.29
  -1  -9  -2  507.44  119.17
   1   9  -2  502.08  184.55
  -1   9   2  534.06   94.97
  -1   9   2  476.82   78.02
   1  -9   2  601.32  153.70
  -1  -9   3  143.94   31.79
   1  -9  -3   85.83   51.26
  -1   9  -3   72.87   85.74
   1   9   3   83.09   29.94
   1   9   3  122.98   36.08
  -1  -9   3   82.46   64.67
   1  -9   3  145.18   33.75
  -1  -9  -3  128.17   60.87
   1   9  -3   72.31   80.85
  -1   9   3  136.75   63.24
  -1   9   3  135.78   33.95
   1  -9  -4  113.62   66.25
  -1   9  -4  165.86   97.09
   1   9   4  129.06   39.13
  -1  -9   4  182.94   70.13
   1  -9   4  142.40   34.51
  -1  -9  -4  145.28   53.69
   1   9  -4  181.17   76.63
  -1   9   4  121.68   28.62
   1 -11   0  968.85  193.83
  -1 -11   0  857.05  233.12
  -1  11   0 1347.89  252.81
   1  11   0 1174.33  248.22
   1  11   0  947.80  189.03
  -1  11   0  910.58  220.63
  -1 -11   0  956.37  229.51
  -1 -11   1  452.84   99.68
  -1  11  -1  410.62   86.87
   1  11   1  430.13   76.91
   1  11   1  508.17  103.54
  -1  11  -1  359.87   56.95
  -1 -11   1  365.73   63.43
   1 -11   1  515.22  103.54
  -1 -11  -1  370.38   64.80
   1  11  -1  423.78   78.49
  -1  11   1  515.25  108.93
   1  11  -1  448.03   78.99
  -1  11   1  412.63   83.75
  -1 -11  -1  378.62   91.44
  -1 -11   2  410.73   82.44
  -1  11  -2  304.37  112.39
   1  11   2  411.20   84.40
   1  11   2  382.82   80.05
  -1 -11   2  308.54   55.54
   1 -11   2  417.06   86.66
  -1 -11  -2  352.48  100.54
   1  11  -2  320.29   70.27
  -1  11   2  478.26   98.31
  -1 -11   3   85.97   20.66
   1 -11  -3   61.11   35.93
  -1  11  -3   64.13   30.68
   1  11   3   89.63   34.50
   1  11   3   91.37   36.68
  -1 -11   3   50.08   12.00
   1 -11   3   97.35   24.69
  -1 -11  -3   87.73   36.76
   1  11  -3   62.56   17.50
  -1  11   3   90.18   32.97
   1 -11  -4  130.17   39.97
  -1  11  -4   67.39   15.06
   1  11   4  100.59   15.29
   1 -11   4   75.19   22.86
  -1 -11  -4   75.02   21.21
  -1 -13   0  297.31   57.38
   1 -13   0  241.27   48.59
   1  13   0  345.36   62.44
  -1  13   0  336.46   64.29
   1  13   0  311.12   65.58
  -1  13   0  289.29   58.15
  -1 -13   0  252.27   50.83
  -1 -13   1  154.44   60.36
  -1  13  -1  154.97   36.84
   1  13   1  142.17   31.42
   1  13   1  143.91   61.92
   1 -13   1  141.31   40.75
   1  13  -1  153.75   51.61
  -1  13   1  167.87   42.97
   1  13  -1  161.00   38.39
  -1  13   1  171.02   44.34
  -1 -13   2  212.39   87.38
   1 -13  -2  241.12   88.72
  -1  13  -2  233.66   49.10
   1  13   2  312.25   68.02
   1  13   2  264.08   55.27
   1 -13   2  248.10   54.68
  -1 -13  -2  203.37   66.71
   1  13  -2  216.23   40.46
  -1  13   2  334.45   72.01
  -1 -13   3   72.28   17.27
   1 -13  -3   95.06   40.44
  -1  13  -3   72.50   15.73
   1  13   3  153.24   25.42
   1  13   3   74.29   15.92
   1 -13   3   87.64   21.70
  -1 -13  -3   71.65   25.81
  -1  13   3  129.90   31.23
  -1 -15   0  225.96   34.21
  -1  15   0  242.39   44.05
   1  15   0  261.50   48.57
  -1  15   0  280.55   50.59
  -1 -15   1  114.00   21.11
  -1  15  -1  116.73   22.49
   1  15   1  119.07   27.23
   1 -15   1  106.97   19.58
  -1 -15  -1   89.62   30.40
   1  15  -1  120.99   20.64
  -1  15   1  133.85   28.78
  -1 -15   2  109.29   18.58
   1 -15  -2  112.75   36.84
  -1  15  -2  103.76   17.18
   1  15   2  154.34   26.44
   1 -15   2   92.90   17.99
  -1  15   2  186.90   50.23
  -2   0   0   93.10   24.75
   2   0   0  115.69   33.38
  -2   0   0   91.63   15.91
  -2   0   0   92.95   30.79
   2   0  -1 2692.54  561.31
  -2   0   1 4496.27  780.62
   2   0   1 2853.73  584.48
  -2   0  -1 3461.82  656.24
  -2   0   1 3437.68  575.06
   2   0   1 3420.34  597.49
  -2   0  -1 2900.19  526.31
  -2   0   1 2801.02  475.74
   2   0  -1 3510.67  617.27
   2   0   1 3435.42  615.21
  -2   0  -1 3456.79  623.82
   2   0   1 3497.27  516.05
   2   0  -1 3525.09  601.45
   2   0   1 3627.95  519.14
  -2   0   1 3364.74  574.36
   2   0  -1 3158.71  551.19
   2   0   1 2760.06  482.08
  -2   0   1 3869.80  653.80
   2   0  -2   14.24    3.01
   2   0   2   12.60    3.16
  -2   0   2    7.31    3.02
   2   0   2   20.06    6.15
   2   0   2   10.96    1.93
  -2   0  -2   12.60    3.74
  -2   0  -2   17.83    3.93
   2   0  -2   10.23    4.96
   2   0  -2    8.84    1.65
  -2   0   2    7.89    2.89
   2   0   2   11.47    2.54
   2   0   3 1518.13  350.39
  -2   0   3 1191.61  244.18
   2   0   3 1213.49  178.67
  -2   0  -3 1376.54  205.34
   2   0  -3 1389.05  250.50
  -2   0  -3 1182.77  257.48
   2   0   3 1388.92  236.01
  -2   0   3 1335.16  217.38
   2   0   4    1.02    4.92
  -2   0   4   15.77    5.62
   2   0  -4    7.88    6.12
  -2   0  -4   15.11    7.54
   2   0   4    8.01    5.01
  -2   0   4   11.52    5.71
   2   0   5  175.68   50.37
  -2   0   5  180.95   48.70
  -2   0  -5  145.90   53.01
   2   0  -5  184.58   45.71
   2   0   5  202.31   48.33
  -2   0   5  181.87   51.24
   2   2   0  380.86   66.91
  -2  -2   0  281.50   79.10
  -2   2   0  192.03   42.70
   2   2   0  258.68   39.31
  -2  -2   0  236.20   34.95
   2  -2   0  235.63   20.72
  -2   2   0  253.04   23.70
  -2   2   0  231.84   66.69
   2  -2   0  177.40   75.50
   2   2   0  228.61   31.27
   2  -2   0  226.82   15.81
   2   2   0  422.06   95.63
  -2  -2   0  351.08   86.12
   2  -2  -1 2542.33  513.68
  -2  -2   1 3303.73  534.15
   2   2   1 2471.89  460.49
  -2   2  -1 2989.65  495.96
  -2  -2   1 3314.27  553.85
   2   2   1 2613.68  445.58
  -2   2  -1 2744.11  498.71
  -2  -2   1 2352.06  416.94
  -2  -2   1 2278.29  394.24
  -2   2  -1 3057.71  545.94
   2   2   1 3025.45  475.83
   2  -2  -1 2875.86  469.18
  -2  -2   1 2427.92  410.00
  -2  -2   1 3503.63  591.52
   2   2  -1 2484.36  467.05
  -2   2   1 3088.90  512.13
  -2  -2  -1 2673.14  484.96
  -2  -2  -1 2357.59  415.11
   2  -2   1 2790.58  462.44
  -2  -2  -1 2418.29  430.49
   2   2  -1 3953.57  587.88
   2  -2   1 2262.24  435.67
  -2  -2  -1 2777.80  464.31
  -2   2   1 3655.51  625.46
  -2  -2  -1 2756.99  459.00
  -2   2   1 2601.96  427.03
   2   2  -1 2725.26  446.08
   2   2  -1 2152.35  403.36
   2  -2   1 3574.21  525.90
  -2   2   1 2961.53  482.70
  -2  -2  -1 2767.71  505.37
  -2   2   1 3513.15  537.21
   2   2   2    7.40    2.10
  -2  -2   2   12.44    2.67
   2   2   2    4.53    2.21
  -2  -2   2    6.24    1.27
   2   2   2    3.59    1.22
  -2  -2   2    4.74    1.54
  -2   2  -2    4.33    1.78
   2  -2  -2    4.82    2.52
  -2   2  -2   11.89    4.94
   2  -2  -2    4.78    1.48
   2   2   2    5.20    0.69
  -2  -2   2    4.30    1.30
   2   2   2    7.67    2.08
  -2  -2   2    9.57    2.03
   2   2  -2    5.75    1.95
   2  -2   2   10.86    2.00
  -2   2   2   10.03    2.17
   2  -2   2    6.74    1.92
  -2  -2  -2    4.38    1.55
   2  -2   2    8.34    3.14
   2   2  -2    5.10    1.91
  -2  -2  -2    8.84    2.15
   2   2  -2    6.06    1.27
  -2   2   2    5.75    1.56
   2   2  -2    6.90    2.33
   2  -2   2    4.40    1.53
  -2   2   2    4.07    1.82
   2   2   3 1760.17  450.11
  -2  -2   3 1868.73  378.07
  -2   2  -3 1593.00  315.82
   2  -2  -3 1556.03  401.93
  -2   2  -3 1732.82  363.32
   2  -2  -3 1430.49  269.08
   2   2   3 1673.01  410.17
  -2  -2   3 1625.19  300.70
  -2   2   3 1373.92  299.26
   2  -2   3 1607.17  341.64
   2  -2   3 1410.75  233.48
  -2  -2  -3 1393.16  333.66
   2   2  -3 1709.14  294.61
  -2   2   3 1567.39  277.03
  -2   2   3 1593.22  277.80
   2  -2   3 1567.03  262.10
  -2   2  -4    4.53    3.73
   2   2   4    0.30    3.24
  -2  -2   4    6.14    3.26
   2  -2   4    0.97    1.83
  -2   2   4    0.33    2.50
   2   2  -4    5.05    2.34
   2  -2   4    2.56    2.10
  -2   2   4    5.10    3.69
   2   2   5  175.74   45.16
  -2  -2   5  138.27   41.05
  -2   2  -5  120.23   46.32
   2  -2  -5  177.98   42.54
  -2  -2   5  136.57   72.06
   2   2   5  140.71   41.97
  -2   2   5  164.28   48.45
   2  -2   5  164.61   40.88
  -2  -2  -5  183.58   49.86
   2   2  -5  149.00   39.40
   2  -2   5  171.39   42.20
  -2   2   5  170.79   43.91
   2   4   0   25.65    4.12
  -2  -4   0   32.62    4.44
  -2   4   0   22.49    5.51
  -2  -4   0   33.50    7.85
   2  -4   0   28.96    2.71
  -2   4   0   35.08    6.27
  -2  -4   0   30.82    6.71
  -2  -4   0   22.35    5.01
   2  -4   0   14.92   17.42
  -2   4   0   64.88   32.10
   2   4   0   29.14    4.88
   2   4   0   31.69   10.85
   2  -4   0   27.89    3.68
  -2   4   0   26.66    5.25
   2   4   0   74.48   37.54
  -2  -4   0   48.11   22.33
   2  -4  -1 2784.26  442.25
  -2  -4   1 2179.72  380.43
   2   4   1 2205.68  393.81
   2   4   1 3148.54  548.56
  -2  -4   1 3311.36  571.66
   2  -4  -1 2671.52  362.31
  -2   4  -1 2793.68  473.77
  -2  -4   1 2632.00  548.86
  -2  -4   1 2827.75  480.75
  -2   4  -1 1789.45  499.96
   2   4   1 3099.41  521.09
  -2   4  -1 2543.86  377.23
   2  -4  -1 2573.98  430.92
  -2   4  -1 2596.54  388.51
  -2  -4   1 3989.15 1032.97
   2   4   1 1646.58  509.26
   2   4  -1 2589.19  425.45
  -2   4   1 2398.26  383.81
  -2  -4  -1 1969.95  372.68
   2  -4   1 2624.73  421.62
   2   4  -1 2506.44  415.94
  -2  -4  -1 1889.89  344.93
  -2   4   1 1929.08  418.04
  -2  -4  -1 2888.61  468.87
   2   4  -1 3723.00  588.39
   2  -4   1 1793.64  298.21
  -2   4   1 2630.70  416.08
   2   4  -1 2771.79  468.39
  -2   4   1 2686.37  387.01
   2  -4   1 2263.64  345.58
  -2   4   1 2944.19  457.92
   2   4   2   39.09    7.17
  -2  -4   2   29.47    5.14
   2   4   2   32.63    6.09
   2   4   2   38.01    5.77
  -2  -4   2   33.33    6.01
  -2  -4   2   26.49    5.33
  -2   4  -2   33.89    5.97
  -2  -4   2   39.89   10.42
   2  -4  -2   21.19    9.86
  -2   4  -2   21.85    9.44
   2   4   2   28.00    7.93
   2  -4  -2   38.99    9.55
   2   4   2   16.32    7.60
  -2  -4   2   22.28    7.76
   2   4   2   32.40    9.28
   2   4  -2   34.59    5.16
   2  -4   2   38.78    5.54
  -2   4   2   33.41    9.11
  -2  -4  -2   25.97    8.51
   2  -4   2   38.60    6.57
  -2  -4  -2   37.59   10.14
   2  -4   2   34.25   14.49
   2   4  -2   31.62    6.94
  -2  -4  -2   26.80    7.44
   2   4  -2   31.86    6.91
  -2  -4  -2   32.57    4.79
  -2   4   2   36.19    6.55
   2   4  -2   22.69    5.52
   2   4  -2   21.03   12.42
  -2   4   2   48.50    8.08
   2  -4   2   29.11    5.22
  -2   4   2   40.62    9.73
   2   4   3 1126.05  199.98
  -2  -4   3 1027.92  158.20
  -2   4  -3 1200.21  180.72
   2  -4  -3  922.62  213.70
  -2   4  -3  878.82  197.83
   2   4   3  863.39  189.89
  -2  -4   3  889.43  172.48
   2  -4   3 1102.54  180.93
  -2   4   3 1096.89  257.05
  -2  -4  -3 1182.42  277.81
   2   4  -3 1113.91  200.14
  -2   4   3 1151.54  189.71
  -2   4   3 1162.04  196.56
   2  -4   3 1093.47  180.02
   2   4   4    6.22    3.68
  -2  -4   4    5.50    3.48
   2  -4  -4    9.97    6.88
   2   4   4    1.36    5.23
   2  -4   4    6.09    2.73
  -2   4   4    5.87    4.76
  -2  -4  -4    3.47    8.25
   2   4  -4    7.28    4.29
  -2   4   4   12.44    3.92
   2  -4   4    2.53    3.96
   2   4   5  176.01   38.51
  -2  -4   5   89.89   40.46
   2  -4  -5  102.86   73.97
  -2   4  -5  291.25  111.75
   2   4   5   76.04   56.62
  -2  -4   5  222.46   88.17
  -2   4   5  183.47   52.44
   2  -4   5  144.15   28.77
  -2  -4  -5  193.96   45.24
   2   4  -5  248.80   96.99
  -2   4   5  184.22   39.09
   2  -4   5  207.87  127.53
   2   6   0   11.32    1.39
  -2  -6   0   17.40    4.40
   2  -6   0   12.36    1.83
  -2   6   0   10.78    2.74
   2  -6   0   10.42    6.76
  -2  -6   0   11.76    3.31
  -2   6   0    9.52    7.24
   2   6   0   15.62    3.30
   2  -6   0   13.63    2.71
   2   6   0    8.40    3.94
  -2   6   0   15.94    2.51
  -2   6   0   10.69    1.54
   2   6   0   12.04    5.30
  -2  -6   0   14.33    7.11
   2  -6   0    8.28    2.36
   2   6   1 2454.46  389.00
  -2  -6   1 3035.24  468.76
   2   6   1 2574.55  501.05
   2  -6  -1 1580.11  299.38
  -2  -6   1 3032.55  549.28
  -2  -6   1 2405.12  463.55
  -2   6  -1 3165.10  533.84
  -2  -6   1 3038.54  511.22
   2  -6  -1 1717.40  670.09
  -2   6  -1 1542.65  630.64
   2   6   1 3568.24  590.15
   2  -6  -1 2419.97  421.05
  -2   6  -1 2533.04  384.61
   2   6   1 2770.35  541.60
  -2   6  -1 2175.45  343.76
   2   6   1 1572.78  582.62
  -2  -6   1 1473.85  559.08
   2   6  -1 2103.95  289.00
  -2   6   1 2013.00  342.07
  -2  -6  -1 2838.12  479.06
   2  -6   1 2570.47  420.43
   2   6  -1 1747.28  469.83
  -2  -6  -1 1893.28  470.45
   2  -6   1 2054.29  359.29
  -2  -6  -1 2722.65  456.62
   2   6  -1 2852.86  460.26
  -2   6   1 2436.11  396.83
   2   6  -1 2866.34  484.14
  -2   6   1 2186.22  323.16
  -2   6   1 1856.87  429.43
   2  -6   1 1348.04  371.34
   2   6   2   30.25    9.64
   2   6   2   17.60    4.26
  -2  -6   2   28.95    6.53
  -2  -6   2   20.43    6.34
  -2   6  -2   25.93    6.25
  -2  -6   2   25.94    9.84
  -2   6  -2   16.36   27.87
   2  -6  -2   24.27   32.13
   2  -6  -2   37.35    6.26
   2   6   2   16.57    6.02
  -2   6  -2   17.64    3.21
   2   6   2   40.28   28.68
  -2   6   2   24.57    3.92
  -2   6   2   23.69    3.87
  -2  -6  -2   11.39    4.45
  -2  -6  -2   21.61    7.54
   2  -6   2    3.09   20.04
   2   6  -2   15.72    9.07
  -2  -6  -2   14.75    5.53
  -2  -6  -2   23.16    4.34
   2   6  -2   23.81    7.46
  -2   6   2   23.10    5.44
   2   6  -2    8.85    4.90
  -2   6   2   21.72    3.90
   2   6  -2   17.34   13.07
   2  -6   2   10.47    4.09
  -2   6   2   16.16    4.63
   2   6   3 1091.60  175.37
  -2  -6   3 1218.63  187.02
  -2   6  -3 1190.63  176.70
   2  -6  -3  558.88  201.06
  -2   6  -3  660.43  259.86
   2   6   3  713.93  189.79
  -2  -6   3  603.07  206.77
  -2   6   3 1028.25  180.17
  -2  -6  -3 1240.21  366.73
   2   6  -3  737.44  212.33
  -2   6   3 1212.14  204.35
  -2   6   3 1176.21  186.15
   2  -6   3  774.99  149.64
   2  -6  -4   20.40   17.75
  -2   6  -4   12.54   27.04
  -2  -6   4   18.81   21.86
  -2   6   4    2.91    3.25
   2   6  -4    9.61    6.55
  -2   6   4    2.58    2.30
   2  -6   4    7.25    9.45
   2  -6  -5   69.25   58.52
  -2   6  -5  190.85   86.63
   2   6   5   80.46   43.26
  -2  -6   5  120.36   56.94
  -2  -6  -5  146.14   28.06
  -2  -8   0   34.97   17.62
   2  -8   0   41.55   15.93
  -2  -8   0   33.35    9.14
  -2   8   0   45.35   16.38
   2   8   0   34.39    8.95
   2  -8   0   28.16   14.97
   2   8   0   38.21   10.04
  -2   8   0   35.08   12.11
   2   8   0   46.89   11.75
  -2  -8   0   49.89   14.69
  -2  -8   1 2122.30  464.34
  -2  -8   1 2081.63  451.02
  -2   8  -1 2119.56  416.51
  -2  -8   1 2122.83  412.89
  -2   8  -1 3152.71  847.07
   2  -8  -1 3502.82  945.94
   2   8   1 2242.03  429.90
   2  -8  -1 1933.05  384.43
  -2   8  -1 1886.53  361.42
   2   8   1 2188.57  460.99
   2   8   1 4694.03 1038.96
  -2  -8   1 3928.65  911.82
  -2  -8  -1 2050.85  349.21
   2  -8   1 1411.80  347.57
  -2  -8  -1 3006.61  594.28
   2   8  -1 2071.69  432.07
  -2   8   1 2226.83  469.57
   2  -8   1 1519.91  294.39
  -2  -8  -1 2031.70  355.06
   2   8  -1 1855.20  318.40
  -2   8   1 1719.99  298.38
   2   8  -1 2037.55  364.05
   2   8  -1 1538.15  310.23
  -2  -8  -1 1303.21  315.63
   2   8   2    3.32    4.17
  -2  -8  -2    7.91    2.11
   2   8  -2    0.00    1.27
  -2  -8   3  681.29  117.79
  -2   8  -3  605.45   98.32
  -2   8  -3  418.94  293.64
   2   8   3  401.20  131.18
  -2  -8   3  318.56  213.01
  -2  -8  -3  675.74  243.11
   2   8  -3  358.96  218.41
  -2   8   3  652.88  131.06
  -2   8   3  600.94  100.86
   2  -8  -4    2.68   11.49
  -2   8  -4   17.91   19.10
   2   8   4   10.75    7.36
   2  -8   4    1.35    3.39
  -2  -8  -4    8.70    4.79
  -2   8   4    5.97    3.95
   2 -10   0   20.39    6.87
  -2 -10   0   18.50    7.17
  -2  10   0   20.25   10.80
   2  10   0   15.55    9.03
   2  10   0   18.77    7.10
  -2  10   0   16.78    8.44
  -2 -10   0   16.31    8.31
  -2 -10   1 1314.08  278.08
  -2  10  -1 1317.36  282.52
   2  10   1 1358.47  235.24
   2  10   1 1499.49  301.65
  -2  10  -1 1114.36  217.00
  -2 -10   1 1311.89  249.40
  -2 -10  -1 1282.48  225.07
   2  10  -1 1544.46  276.14
  -2  10   1 1766.03  364.34
   2  10  -1 1319.96  299.56
  -2  10   1 1090.61  208.90
  -2 -10  -1 1231.04  279.13
  -2 -10   2   43.39   17.01
  -2  10  -2   73.37   43.59
   2  10   2   47.24   28.14
  -2 -10   2   50.16   58.06
  -2 -10  -2   21.90   13.55
   2  10  -2   25.57   15.62
   2  10  -2   39.46   13.79
  -2  10   2   33.86   12.85
  -2 -10   3  581.67  117.91
   2 -10  -3  384.61  195.27
  -2  10  -3  837.45  304.71
   2  10   3  545.03  148.58
  -2 -10   3  847.23  244.29
   2 -10   3  575.40  119.31
  -2 -10  -3  536.89  218.55
   2  10  -3  839.52  330.00
  -2  10   3  666.55  153.91
   2 -10  -4   41.78   16.52
  -2  10  -4   25.87   33.84
   2  10   4    1.10    8.31
  -2 -10   4   20.65    5.68
   2 -10   4    9.13    4.58
   2 -12   0   70.73   19.77
  -2 -12   0   75.92   19.78
  -2  12   0  109.56   44.95
   2  12   0   73.78   21.06
  -2  12   0   59.39   13.22
  -2 -12   0   80.78   19.48
  -2 -12   1  750.18  219.81
  -2  12  -1  882.78  172.70
   2  12   1  979.67  194.86
  -2 -12   1  714.03  124.87
   2 -12   1  879.43  179.18
  -2 -12  -1  825.55  185.80
  -2  12   1 1081.54  227.34
   2  12  -1  934.26  176.28
  -2  12   1  857.48  180.23
  -2 -12  -1  898.82  196.63
  -2 -12   2   18.73   11.14
  -2  12  -2   17.35    8.00
   2  12   2   19.72    8.62
   2  12   2   11.89    8.17
  -2 -12   2   13.93    4.92
   2 -12   2   27.31   10.24
  -2 -12  -2   21.05   11.11
  -2  12   2   17.90   12.97
  -2 -12   3  237.89   46.00
   2 -12  -3  291.03  108.27
  -2  12  -3  227.16   49.54
   2  12   3  408.67  100.38
   2  12   3  354.56   94.41
   2 -12   3  282.17   60.23
  -2 -12  -3  225.74   59.21
  -2  12   3  409.06   83.89
  -2 -14   0   30.00    9.03
  -2  14   0   30.75   11.85
   2  14   0   32.20   12.71
  -2  14   0   33.24   11.66
  -2 -14   0   30.87    8.98
  -2 -14   1  423.10   77.87
  -2  14  -1  429.82  118.22
   2  14   1  434.60   79.65
  -2 -14   1  382.89   63.66
   2 -14   1  405.52  117.64
  -2  14   1  458.65   94.19
   2  14  -1  496.69   91.46
  -2  14   1  502.09  101.74
  -2 -14   2   32.72    9.82
   2 -14  -2   37.86   21.43
  -2  14  -2   36.48   10.85
   2  14   2   46.65   13.52
   2  14   2   32.69    9.87
  -2 -14   2   32.62   11.94
   2 -14   2   50.18   14.78
  -2  14   2   52.47   37.46
  -2 -16   0   66.10   10.18
  -2  16   0   69.71   13.32
   2  16   0   76.71   14.98
  -2  16   0  101.10   26.67
  -2 -16   1  255.36   32.62
   2 -16  -1  240.44   60.61
  -2  16  -1  254.96   36.34
   2  16   1  310.01   45.68
  -2  16   1  397.81   75.02
   3  -1   0   18.38    4.96
  -3  -1   0   19.64    6.32
   3   1   0   21.90   14.35
  -3   1   0    3.23    6.65
  -3  -1   0   14.82    4.78
   3  -1   0   11.54    2.84
  -3   1   0    9.19    2.61
   3  -1   0    9.94    2.04
  -3   1   0    9.73    4.43
   3  -1   0    9.50    1.27
  -3  -1   0    9.39    2.08
   3   1   0    3.96    5.27
  -3   1   0   11.28    1.05
  -3  -1   0   21.66    7.21
   3  -1  -1 1692.67  327.55
  -3  -1   1 2174.26  359.71
   3   1   1 1690.04  323.78
  -3   1  -1 1920.46  345.43
   3   1   1 2636.50  394.62
  -3  -1   1 2569.12  360.60
  -3   1  -1 2261.24  343.45
  -3  -1   1 1569.55  258.91
  -3   1  -1 2462.14  394.81
   3   1   1 2052.56  297.29
   3  -1  -1 2481.57  358.25
  -3  -1   1 2733.31  391.70
   3  -1  -1 2719.39  359.76
  -3  -1   1 2646.32  397.62
  -3   1   1 2172.88  394.88
  -3  -1  -1 1822.05  388.05
  -3  -1  -1 2437.25  418.03
   3  -1   1 2639.05  436.15
  -3   1   1 2514.40  341.90
   3  -1   1 2575.89  465.45
  -3  -1  -1 2517.30  405.62
   3   1  -1 3503.84  498.95
   3  -1   1 2839.90  363.94
  -3   1   1 2536.67  406.22
   3   1  -1 2625.73  423.03
   3  -1   1 2754.87  402.09
   3   1  -1 2413.13  409.20
  -3   1   1 2951.18  467.32
  -3  -1  -1 2773.17  463.91
   3  -1  -2   14.05    4.69
   3   1   2    9.93    4.59
  -3  -1   2    8.55    4.07
   3   1   2   14.76    4.66
   3   1   2   14.85    3.04
  -3  -1   2   16.13    1.89
  -3   1  -2   24.22    5.55
  -3  -1   2   13.11    2.17
   3  -1  -2   20.03    4.11
  -3   1  -2    3.84    9.36
   3  -1  -2   18.90    4.39
  -3  -1   2   13.98    2.94
   3   1   2   19.72    3.51
  -3  -1   2   10.05    3.62
   3   1  -2    9.05    5.01
   3  -1   2   10.38    4.32
  -3   1   2   13.97    4.69
   3  -1   2   17.77    3.96
  -3  -1  -2   15.68    3.50
   3  -1   2   17.79    4.33
   3   1  -2   16.89    3.34
  -3  -1  -2   25.84    4.97
  -3  -1  -2   12.35    3.50
   3   1  -2   12.48    2.82
  -3   1   2   16.50    2.94
   3   1  -2   17.56    3.78
  -3   1   2   19.71    2.86
   3   1   3 1117.05  230.90
  -3  -1   3 1114.59  193.04
   3   1   3 1000.57  148.39
  -3   1  -3 1189.16  191.20
   3  -1  -3 1213.06  213.61
  -3   1  -3 1117.64  231.25
  -3  -1   3 1004.65  155.91
   3   1   3 1237.50  215.53
  -3  -1   3 1139.14  190.08
   3  -1   3 1168.71  227.95
  -3   1   3 1167.24  204.92
  -3  -1  -3 1064.41  176.41
  -3  -1  -3 1052.75  229.18
   3   1  -3 1289.54  201.67
   3   1  -3 1074.31  169.14
  -3   1   3 1127.68  168.66
   3  -1   3 1158.86  186.49
  -3   1   3 1083.90  214.17
   3   1   4    2.71    2.65
   3  -1  -4    5.08    2.88
  -3  -1   4    1.24    2.82
  -3   1   4    6.54    4.16
   3   1  -4    2.66    3.73
  -3  -1  -4    2.12    4.99
   3  -1   4    9.17    5.08
  -3   1   4    5.91    3.71
   3   1   5   57.41   26.90
  -3  -1   5  103.42   53.57
  -3   1  -5  122.19   37.17
   3  -1  -5  138.66   29.62
   3   1   5  133.62   31.51
  -3  -1   5  116.06   50.99
   3  -1   5  115.70   57.79
  -3   1   5  123.63   41.78
  -3  -1  -5  141.88   40.02
   3   1  -5  123.69   30.21
   3  -1   5  148.99   33.88
  -3   1   5  126.80   34.35
   3   3   0   14.02    6.93
  -3   3   0   12.51    8.62
  -3  -3   0   15.55    3.89
   3   3   0    9.62    4.58
  -3  -3   0   14.89    4.02
   3  -3   0   11.90    1.59
  -3   3   0   10.64    1.84
   3  -3   0    9.36    3.65
  -3   3   0   10.27    8.46
   3   3   0   16.85    3.76
   3  -3   0   10.71    1.60
  -3   3   0   11.57    1.63
   3   3   0   25.22    7.74
  -3  -3   0   24.69   10.00
   3  -3  -1 2171.10  361.49
  -3  -3   1 1588.25  347.95
   3   3   1 1535.62  347.35
  -3   3  -1 2349.06  370.05
   3   3   1 2081.13  418.83
  -3  -3   1 2366.59  395.33
  -3   3  -1 2428.74  374.54
  -3  -3   1 1906.81  339.94
  -3  -3   1 2626.46  369.15
  -3   3  -1 1442.80  395.80
   3   3   1 2195.38  350.17
   3  -3  -1 2549.34  382.72
  -3   3  -1 2377.15  293.10
  -3  -3   1 3548.68  873.18
   3   3  -1 1894.07  347.88
  -3   3   1 1817.16  320.04
  -3  -3  -1 2056.29  374.73
  -3  -3  -1 1904.56  338.43
   3  -3   1 2696.12  446.48
  -3  -3  -1 2460.97  361.72
   3  -3   1 1797.06  338.15
   3   3  -1 2739.04  385.87
  -3  -3  -1 2162.81  332.28
  -3   3   1 2520.61  433.23
  -3   3   1 2386.67  391.87
   3   3  -1 2211.02  360.05
  -3   3   1 2425.06  325.50
   3  -3   1 2712.91  362.99
  -3  -3  -1 1473.46  305.93
  -3   3   1 2574.67  346.81
   3  -3  -2    8.23    3.10
   3   3   2    8.21    3.24
   3   3   2   10.88    3.85
  -3  -3   2    9.90    2.05
  -3   3  -2   11.17    2.87
   3  -3  -2   13.63    3.84
  -3   3  -2   10.20    4.40
   3  -3  -2   14.30    2.80
   3   3   2    9.42    2.86
   3   3   2    3.53    3.20
  -3  -3   2    8.96    3.70
   3   3  -2    6.55    2.68
   3  -3   2    8.39    2.67
  -3  -3  -2   10.87    2.30
   3  -3   2   10.98    4.11
  -3  -3  -2    7.34    4.89
   3   3  -2    8.17    2.28
  -3  -3  -2    3.59    3.43
   3   3  -2    2.14    3.45
  -3   3   2    6.15    2.49
   3   3  -2    8.67    3.37
  -3   3   2    7.56    1.71
  -3   3   2    8.27    1.83
   3   3   3 1114.58  224.67
  -3  -3   3  915.64  153.05
  -3   3  -3 1099.95  168.54
   3  -3  -3 1031.31  267.58
  -3   3  -3  807.49  188.96
   3   3   3  877.17  175.11
  -3  -3   3  837.13  158.14
   3  -3   3 1246.29  277.50
  -3   3   3  988.56  190.57
  -3  -3  -3 1109.15  238.17
   3   3  -3 1138.71  185.61
  -3   3   3 1080.74  171.68
   3  -3   3  949.70  180.25
  -3   3   3 1018.94  163.12
  -3  -3   4    2.13    3.57
  -3   3  -4    4.44    4.58
   3   3   4    8.41    4.24
   3  -3   4    5.50    2.70
  -3   3   4    1.27    4.02
   3  -3   4    7.71    3.03
  -3   3   4    2.29    3.21
   3   3   5  129.23   53.92
  -3  -3   5   87.59   38.96
   3  -3  -5  123.99   31.02
  -3   3  -5  206.17  103.53
   3   3   5   93.86   31.36
  -3  -3   5  170.55   79.54
   3  -3   5  127.14   27.41
  -3   3   5  125.53   65.95
  -3  -3  -5  155.59   32.68
   3   3  -5  208.45  115.71
   3  -3   5   88.25   42.26
  -3   3   5  127.46   29.52
   3  -5   0  145.24   10.40
   3   5   0  156.05   14.64
  -3  -5   0  190.45   17.63
  -3   5   0  132.17   13.69
  -3  -5   0  147.53   23.23
   3  -5   0  152.38   11.55
  -3  -5   0  150.39   23.13
  -3   5   0  183.21   24.23
   3  -5   0  125.08   34.16
  -3  -5   0  165.82   13.35
  -3   5   0  163.41   38.83
   3   5   0  145.14   33.93
   3  -5   0  139.32   14.22
  -3   5   0  131.00   12.39
   3   5   0  140.56   21.11
   3   5   0  187.50   33.38
  -3  -5   0  180.27   37.51
   3  -5  -1 2643.88  410.08
   3   5   1 2152.47  425.14
  -3  -5   1 1491.85  323.20
  -3   5  -1 2395.92  356.51
   3   5   1 2950.98  497.25
  -3  -5   1 2703.74  487.66
   3  -5  -1 2298.69  301.18
  -3   5  -1 2496.96  405.94
  -3  -5   1 2273.99  438.95
  -3  -5   1 3019.81  493.40
  -3   5  -1 1775.22  650.20
   3  -5  -1 1074.21  510.05
   3   5   1 2532.89  443.55
   3  -5  -1 2313.63  375.06
  -3   5  -1 2216.55  310.09
   3   5   1 1481.83  578.34
  -3  -5   1 1661.98  603.52
   3   5  -1 2485.65  395.47
  -3   5   1 1904.28  409.37
  -3  -5  -1 2167.54  362.02
  -3  -5  -1 2821.96  542.37
   3  -5   1 2563.09  405.79
  -3  -5  -1 2504.20  391.62
  -3  -5  -1 1840.24  399.73
   3   5  -1 1326.72  354.27
  -3   5   1 1414.13  350.41
   3   5  -1 3238.60  526.05
   3  -5   1 1852.10  306.70
  -3   5   1 2498.08  398.31
   3   5  -1 2685.74  504.98
  -3   5   1 2272.33  317.42
  -3   5   1 2539.93  499.72
   3   5   2   54.56   11.43
   3  -5  -2   57.87    8.89
  -3  -5   2   34.12    9.46
   3   5   2   40.17    8.48
   3   5   2   70.09    9.70
  -3  -5   2   61.58   10.72
  -3  -5   2   35.14    9.84
  -3   5  -2   57.09   10.91
  -3  -5   2   48.96   11.83
  -3   5  -2   17.20   23.40
   3   5   2   39.94    9.25
   3  -5  -2   69.33   15.50
  -3  -5   2   83.15   57.33
   3   5   2   32.48   22.74
   3   5  -2   52.29    7.66
   3  -5   2   57.68    7.39
  -3   5   2   38.00    9.28
   3  -5   2   68.08   16.93
  -3  -5  -2   38.84    9.18
  -3  -5  -2   61.65   12.38
   3  -5   2   45.38   31.28
   3   5  -2   29.44    8.71
  -3  -5  -2   35.78    8.71
   3   5  -2   51.19   10.89
   3   5  -2   33.90   10.12
  -3   5   2   61.78   17.52
   3   5  -2   33.99   27.86
  -3   5   2   53.08    6.69
   3  -5   2   41.92    6.48
  -3   5   2   45.87    7.48
   3   5   3 1054.42  196.56
  -3  -5   3  607.32  105.73
  -3   5  -3  960.44  135.62
   3  -5  -3  701.19  160.77
  -3   5  -3  525.44  150.47
   3   5   3  511.73  144.37
  -3  -5   3  540.66  176.02
   3  -5   3  848.83  122.95
  -3   5   3  698.79  128.69
  -3  -5  -3 1009.66  194.10
   3   5  -3  651.52  120.43
  -3   5   3  991.99  154.44
  -3   5   3  858.33  124.12
   3  -5   3  629.17  109.84
   3   5   4    8.67    4.20
  -3  -5   4    5.42    6.77
  -3   5  -4    6.80    3.38
   3  -5  -4   14.13    8.05
  -3   5  -4   18.18   24.55
   3   5   4    1.17    6.46
  -3   5   4   11.52    5.20
  -3  -5  -4    1.25    6.54
   3   5  -4    1.06    6.08
  -3   5   4    8.31    3.82
   3   5   5  156.53   28.47
   3  -5  -5  109.59   56.10
  -3   5  -5  165.13  110.09
   3   5   5   33.79   45.61
  -3  -5   5   95.02   70.92
  -3   5   5  147.86   45.63
  -3  -5  -5  105.10   19.94
  -3  -7   0   51.66   11.03
  -3   7   0   46.36    7.44
   3  -7   0   43.18   17.98
  -3  -7   0   49.91    7.32
  -3   7   0   68.88   19.95
   3   7   0   38.36   10.58
   3  -7   0   42.30    7.70
   3   7   0   40.77   11.45
   3   7   0   76.95   15.61
  -3  -7   0   73.78   18.55
  -3  -7   1 1807.70  346.84
  -3  -7   1 1572.14  315.41
  -3   7  -1 1839.58  304.17
  -3  -7   1 1781.02  276.00
  -3   7  -1 2342.43  648.42
   3  -7  -1 1606.92  271.71
   3   7   1 1711.73  373.30
  -3   7  -1 1468.06  210.29
   3   7   1 3348.36  733.12
  -3  -7   1 2811.01  654.72
  -3  -7  -1 1980.11  306.86
   3  -7   1 1057.28  254.03
  -3  -7  -1 2159.29  393.57
   3   7  -1 1571.22  279.70
  -3   7   1 1205.63  294.67
   3  -7   1 1323.60  222.92
   3   7  -1 1799.15  272.61
  -3   7   1 1637.61  248.96
   3   7  -1 1796.72  290.87
   3   7  -1 1194.42  240.02
  -3  -7  -1 1104.46  260.27
   3   7   2   27.35    6.18
   3   7   2    8.24    7.24
  -3   7  -2   26.83    7.12
  -3   7  -2    7.18   23.76
   3   7   2   28.20    8.18
  -3  -7   2    6.33   22.22
  -3  -7  -2   11.43    6.73
  -3  -7  -2   28.11    8.35
   3   7  -2   11.59   15.63
  -3   7   2   10.03   11.43
   3   7  -2   30.14    6.39
  -3   7   2   31.63    7.44
   3   7   3  531.24   79.26
  -3  -7   3  634.53  131.14
  -3   7  -3  628.34   90.21
   3  -7  -3  237.29  123.21
  -3   7  -3  528.56  253.66
   3   7   3  240.33  120.61
  -3  -7   3  422.74  215.11
  -3   7   3  483.11  112.81
  -3  -7  -3  660.49  136.52
  -3   7   3  673.66  125.28
   3   7   4    1.95    1.40
   3  -7  -4   12.04    5.62
   3   7   4    4.99    3.95
  -3  -7   4    7.18    6.68
  -3   7   4   13.66   10.03
  -3  -7  -4    7.85    6.66
  -3  -9   0   36.84   10.26
  -3   9   0   46.22   18.05
   3   9   0   37.68   10.38
  -3   9   0   30.24    6.69
  -3  -9   0   46.97   14.37
  -3  -9   1 1147.15  292.00
  -3   9  -1 1033.74  172.51
  -3   9  -1 1122.43  319.33
   3   9   1 1245.85  231.02
  -3  -9   1 1160.22  226.84
  -3  -9  -1 1234.67  207.63
  -3   9   1 1327.70  295.17
   3   9  -1 1127.90  194.39
  -3   9   1 1039.37  185.46
  -3  -9  -1 1188.65  252.26
  -3  -9   2   45.27   13.38
  -3   9  -2   29.42   10.66
  -3   9  -2   24.68   38.15
   3   9   2   40.93   15.66
  -3  -9   2   57.92   32.95
  -3  -9  -2   24.64   11.32
  -3   9   2   24.41   18.03
   3   9  -2   34.19    8.80
  -3   9   2   40.31   11.43
  -3  -9   3  417.47   93.93
  -3   9  -3  403.59   63.76
   3  -9  -3  145.14  119.71
  -3   9  -3  502.64  233.23
   3   9   3  298.60  108.65
  -3  -9   3  535.38  177.14
  -3  -9  -3  425.60   97.65
  -3   9   3  517.55  110.55
   3  -9  -4    2.51    7.58
  -3   9  -4   23.54   11.58
   3   9   4    1.69    4.79
  -3  -9   4    8.64    7.89
   3  -9   4   12.09    4.65
  -3  -9  -4    9.81    4.17
  -3   9   4    3.67    4.63
   3 -11   0  194.10   38.72
  -3 -11   0  187.62   39.45
  -3  11   0  252.01   64.96
   3  11   0  171.09   39.12
  -3  11   0  176.39   33.34
  -3 -11   0  193.23   64.64
  -3 -11   1  855.11  179.44
  -3  11  -1  987.60  214.01
   3  11   1 1140.09  222.71
  -3 -11   1  932.90  174.35
   3 -11   1  985.92  189.65
  -3 -11  -1 1002.83  227.95
  -3  11   1 1298.85  287.57
   3  11  -1  968.62  242.49
  -3  11   1  935.52  183.19
  -3 -11  -1 1127.66  241.62
  -3 -11   2   65.04   27.16
  -3  11  -2   65.36   22.62
   3  11   2   78.69   35.46
   3  11   2   61.95   21.04
  -3 -11   2   56.08   15.80
   3 -11   2   71.92   20.72
   3  11  -2   70.86   17.08
  -3  11   2   73.51   38.30
  -3 -11   3  297.78   49.34
   3 -11  -3  302.72  116.13
  -3  11  -3  247.59   98.74
   3  11   3  371.48   89.57
   3 -11   3  298.29   68.43
  -3  11   3  426.10   95.73
  -3 -13   0   71.17   17.18
  -3  13   0   82.79   21.19
   3  13   0   59.13   18.90
  -3  13   0   44.24   10.32
  -3 -13   0   74.78   17.48
  -3 -13   1  420.98   78.57
  -3  13  -1  470.41   92.36
   3  13   1  508.98   95.63
  -3 -13   1  347.27   58.27
   3 -13   1  452.72   91.54
  -3 -13  -1  448.78   78.72
  -3  13   1  558.07  120.25
   3  13  -1  515.70   95.43
  -3  13   1  462.68   99.45
  -3 -13  -1  493.02  103.88
  -3 -13   2   47.20   12.24
   3 -13  -2   66.09   28.36
  -3  13  -2   51.10   16.37
   3  13   2   57.69   16.89
   3  13   2   63.21   16.62
  -3 -13   2   38.37    9.13
   3 -13   2   48.10   17.93
  -3  13   2   72.55   27.47
  -3 -13   3  178.91   24.30
   3 -13  -3  218.48   74.47
  -3  13  -3  173.44   32.28
   3  13   3  259.27   59.28
   3 -13   3  201.91   42.74
  -3  13   3  292.02   61.31
  -3 -15   0   69.76   21.80
  -3  15   0   66.11   16.90
   3  15   0   89.51   29.93
  -3  15   0   80.59   30.16
  -3 -15   0   56.24   13.59
  -3 -15   1  229.05   37.39
  -3  15  -1  236.66   41.79
   3  15   1  260.91   43.20
   3  15   1  213.02   32.95
  -3 -15   1  231.77   33.80
   3  15  -1  290.17   74.30
  -3  15   1  323.25   69.87
  -3 -15   2   34.38    7.75
   3 -15  -2   45.39   18.54
  -3  15  -2   42.19   13.49
   3  15   2   44.74    9.82
   3 -15   2   25.36   11.37
  -3  15   2   51.71   13.51
   4   0   0 3641.16  734.77
  -4   0   0 5255.25 1158.72
   4   0   0 2246.45  422.58
  -4   0   0 2925.01  500.37
   4   0   0 3142.54  443.04
  -4   0   0 3067.12  464.01
  -4   0   0 2753.02  465.20
  -4   0   0 2533.12  473.44
  -4   0   1  187.25   64.07
   4   0   1  215.32   65.31
  -4   0  -1  141.10   69.65
  -4   0  -1  368.36   36.01
  -4   0  -1  350.06   33.85
   4   0   1  337.25   28.89
   4   0  -1  327.02   31.62
  -4   0   1  365.01   45.78
   4   0  -1  334.37   32.90
  -4   0   1  226.96   26.17
   4   0  -2 1146.52  259.30
  -4   0   2 1589.66  280.16
   4   0   2 1247.05  249.29
   4   0   2 1929.60  296.15
  -4   0  -2 1758.02  280.67
   4   0  -2 1962.27  279.25
  -4   0  -2 2290.02  419.93
   4   0  -2 1486.30  228.06
  -4   0   2 1828.34  269.26
   4   0   2 1781.61  260.65
   4   0  -2 1650.10  243.03
  -4   0   2 1714.48  261.24
   4   0   3   62.60   23.54
  -4   0   3   51.68   18.32
  -4   0  -3   80.19   15.86
   4   0  -3   74.97   14.82
  -4   0  -3   65.89   19.18
  -4   0   3   69.37   13.43
   4   0   3   80.28   15.61
  -4   0   3   59.44   14.50
   4   0   4  201.44   61.96
  -4   0   4  279.88   76.55
  -4   0  -4  357.12   80.24
   4   0  -4  403.08   99.85
   4   0   4  312.21   59.94
  -4   0   4  324.12   66.97
   4   0   5    3.68    2.39
   4   0  -5    2.48    1.76
  -4   0   5    6.80    5.93
   4   2   0 2955.93  484.78
   4  -2   0 1632.27  320.38
  -4   2   0 3902.57  747.28
  -4  -2   0 2522.94  469.83
   4   2   0 2084.74  362.86
  -4  -2   0 2245.96  406.01
   4  -2   0 1755.52  276.83
  -4   2   0 1890.99  265.33
   4  -2   0 1688.04  269.72
  -4   2   0 1464.73  263.38
   4  -2   0 1871.77  253.99
  -4   2   0 2072.48  287.36
   4   2   0 2258.17  365.87
  -4  -2   0 3114.01  501.07
   4  -2  -1   42.56   10.20
  -4  -2   1   39.94   17.61
   4   2   1   44.15   16.50
  -4   2  -1   42.02   10.49
   4  -2  -1   46.03    4.52
   4   2   1   56.15    9.03
  -4  -2   1   59.49    6.05
  -4  -2   1   39.34    7.20
  -4   2  -1   45.03   17.33
   4  -2  -1   37.98   16.65
   4   2   1   54.72   11.03
   4  -2  -1   56.18    6.59
  -4  -2   1   51.59    8.10
  -4   2  -1   45.43    3.21
   4   2   1   37.91   21.40
  -4  -2   1   66.20   20.67
   4   2  -1   30.50    9.96
  -4   2   1   29.69   15.33
   4  -2   1   14.29   14.46
  -4  -2  -1   35.22   11.23
   4   2  -1   45.93    7.03
   4   2  -1   45.71    7.43
  -4  -2  -1   47.76    7.74
   4  -2  -2  992.28  181.55
  -4  -2   2 1033.75  176.69
   4   2   2  892.33  163.93
   4   2   2 1281.47  178.01
  -4  -2   2 1240.21  144.62
  -4   2  -2 1441.08  199.95
   4  -2  -2 1430.65  199.70
  -4   2  -2 1133.60  196.51
   4  -2  -2 1396.23  189.00
  -4  -2   2 1236.02  173.63
   4   2   2 1106.87  166.73
  -4  -2   2 1073.65  173.04
   4   2  -2  935.92  203.45
  -4   2   2 1163.22  205.06
   4  -2   2 1527.33  219.49
  -4  -2  -2 1177.92  190.06
   4  -2   2 1349.57  210.97
  -4  -2  -2 1114.77  166.16
   4   2  -2 1404.75  178.38
  -4  -2  -2 1324.46  185.47
   4   2  -2 1223.54  189.52
  -4   2   2 1449.22  204.22
   4   2  -2 1242.68  204.49
   4  -2   2 1426.64  180.97
  -4   2   2 1345.03  199.43
  -4   2   2 1535.71  199.87
   4   2   3   18.34   10.80
  -4  -2   3   18.13    7.31
  -4   2  -3   13.78    6.92
   4  -2  -3   26.18    7.84
  -4   2  -3   25.32    9.87
   4   2   3   19.13   11.92
  -4  -2   3   20.79    7.06
   4  -2   3   22.11   10.11
  -4   2   3   20.77    9.07
  -4  -2  -3   25.15   11.26
  -4  -2  -3   14.91    9.79
   4   2  -3   39.73   10.65
  -4   2   3   20.60    6.53
   4  -2   3   21.80    5.42
  -4   2   3   23.64    6.31
   4   2   4  200.92   56.92
  -4  -2   4  231.99   61.27
   4  -2  -4  342.95   63.56
  -4   2  -4  217.90   69.28
   4   2   4  262.20   58.84
  -4  -2   4  222.13   58.94
   4  -2   4  214.65   53.37
  -4   2   4  240.78   72.39
  -4  -2  -4  353.37   73.08
   4   2  -4  280.98   54.72
   4  -2   4  283.67   55.08
  -4   2   4  302.42   57.51
   4   2   5    1.79    4.22
  -4  -2   5   13.81    6.69
   4  -2  -5   10.26    3.43
  -4   2  -5   33.78   15.52
   4   2   5    5.05    4.43
  -4   2   5   26.19    7.88
  -4  -2  -5    3.99    4.00
  -4   2   5    3.60   14.78
   4   4   0 2306.99  370.30
   4  -4   0 1528.97  252.12
  -4  -4   0 2653.66  410.48
  -4   4   0 1721.81  302.00
   4   4   0 2245.42  384.13
  -4  -4   0 2129.40  353.25
   4  -4   0 1889.47  268.99
  -4   4   0 1743.55  257.70
   4  -4   0 1664.37  310.13
  -4   4   0 1893.38  363.90
   4   4   0 2319.52  377.53
   4  -4   0 1682.68  247.67
  -4   4   0 1905.76  289.67
   4   4   0 2326.73  401.65
  -4  -4   0 2874.67  497.49
   4  -4  -1   76.09   10.84
  -4  -4   1   40.31   18.73
   4   4   1   40.28   18.81
  -4   4  -1   68.06   10.41
   4   4   1   92.40   15.56
  -4  -4   1   76.99   11.58
  -4   4  -1   82.20   10.73
  -4  -4   1   55.06   12.92
  -4   4  -1   58.10   43.49
   4   4   1   66.40   11.91
   4  -4  -1   75.17   10.28
  -4   4  -1   69.01    4.24
   4   4   1   15.79   36.22
  -4  -4   1   50.34   35.18
   4   4  -1   55.65   10.63
  -4   4   1   70.35   23.00
  -4  -4  -1   69.00   13.53
  -4  -4  -1   67.28   13.09
   4  -4   1   76.09    9.35
  -4  -4  -1   81.17   10.04
   4  -4   1   58.09   11.41
  -4  -4  -1   58.56   16.86
  -4   4   1   58.80   14.22
   4   4  -1   81.76   13.41
   4  -4   1   55.25    5.04
   4   4  -1   68.77   12.57
  -4   4   1   69.58   14.66
  -4   4   1   61.58    4.74
  -4   4   1   57.90    4.76
   4   4   2 1048.19  187.38
   4  -4  -2 1180.62  182.93
  -4  -4   2  800.08  201.95
   4   4   2  784.08  183.92
   4   4   2 1383.54  204.29
  -4  -4   2 1210.69  193.12
  -4   4  -2 1342.21  193.15
   4  -4  -2 1173.46  199.04
  -4   4  -2  658.01  235.24
   4  -4  -2 1509.05  206.96
  -4  -4   2 1792.36  533.81
   4  -4   2 1152.75  179.56
   4   4  -2 1098.09  193.75
  -4   4   2  999.97  187.70
  -4  -4  -2  962.01  224.33
   4  -4   2 1642.18  235.41
   4  -4   2 1317.69  245.68
  -4  -4  -2 1346.14  198.06
  -4  -4  -2 1030.32  160.19
   4   4  -2 1395.77  215.33
   4   4  -2 1188.55  251.04
  -4   4   2 1513.87  222.56
   4   4  -2 1076.21  309.57
  -4   4   2 1171.26  147.30
  -4   4   2 1415.28  208.45
   4   4   3   49.32   17.52
  -4  -4   3   28.22   10.52
  -4   4  -3   50.24   16.46
  -4   4  -3   26.31   16.04
   4   4   3   33.45   14.07
  -4  -4   3   21.83   19.11
   4  -4   3   59.35   26.86
  -4   4   3   41.12   16.70
  -4  -4  -3   58.04   16.47
   4   4  -3   52.25   12.32
  -4   4   3   55.89   14.93
  -4   4   3   46.90   16.79
   4   4   4  203.83   52.60
  -4  -4   4  198.37  110.09
  -4   4  -4  248.41   44.73
   4  -4  -4  284.04   75.04
  -4   4  -4  417.70  259.34
   4   4   4  196.61   65.51
  -4  -4   4  384.35  139.74
   4  -4   4  216.05   37.10
  -4   4   4  234.40   65.21
  -4  -4  -4  334.07   97.49
  -4   4   4  275.40   48.74
   4   4   5   15.12    8.37
   4  -4  -5    7.04    3.74
  -4   4  -5   45.75   20.26
   4   4   5    9.77    4.84
   4  -6   0 2024.72  312.25
   4   6   0 2411.85  388.83
  -4   6   0 2020.25  335.92
  -4  -6   0 2260.88  412.90
  -4   6   0 2137.51  358.01
  -4  -6   0 2337.93  427.81
   4  -6   0 2316.97  487.25
  -4   6   0 2856.05  588.12
   4   6   0 2327.32  417.35
   4  -6   0 1918.99  328.60
  -4   6   0 1922.21  318.76
   4   6   0 3309.12  608.97
  -4  -6   0 3258.23  616.63
   4  -6  -1  256.60   26.80
   4   6   1  296.41   56.33
  -4  -6   1  298.28   55.10
  -4  -6   1  233.09   39.55
  -4   6  -1  227.99   30.54
  -4  -6   1  230.18   45.09
  -4   6  -1  282.42  118.33
   4   6   1  232.13   40.44
   4  -6  -1  242.10   47.54
   4   6   1  393.74  115.97
  -4  -6   1  338.43  110.50
   4   6  -1  234.33   24.02
  -4   6   1  206.64   44.79
  -4  -6  -1  214.21   24.70
  -4  -6  -1  241.74   53.89
   4  -6   1  174.30   38.21
  -4   6   1  142.61   43.06
   4   6  -1  260.38   37.26
  -4   6   1  226.81   28.03
   4   6  -1  237.95   55.44
   4   6  -1  136.15   37.08
  -4  -6  -1  127.67   39.29
   4   6   2 1126.21  173.61
   4  -6  -2 1250.17  170.31
  -4  -6   2  951.23  180.69
  -4   6  -2 1070.03  200.10
  -4   6  -2  631.82  306.56
   4   6   2  688.44  140.63
  -4  -6   2  781.94  359.65
  -4   6   2  703.35  180.53
  -4  -6  -2  590.48  131.35
   4   6  -2 1234.72  172.48
  -4   6   2 1255.27  183.55
   4   6   3   40.93   15.69
  -4   6  -3   38.04   10.16
   4  -6  -3   29.40   16.26
  -4   6  -3   29.44   37.25
   4   6   3    2.33   15.29
  -4  -6   3   18.13   31.14
  -4   6   3   24.87   10.58
  -4  -6  -3   32.70   10.57
  -4   6   3   33.62   11.83
   4   6   4  196.85   33.23
  -4   6  -4  213.53   34.82
   4  -6  -4  235.56   71.08
  -4   6  -4  253.84  172.66
   4   6   4   64.42   57.78
  -4  -6   4  127.35  112.37
  -4   6   4  215.26  110.63
  -4  -6  -4  227.25   61.07
  -4   6   4  147.51   40.44
  -4  -8   0 1163.30  186.65
  -4   8   0  980.98  145.43
  -4   8   0 1623.77  301.74
   4   8   0 1131.59  183.75
   4  -8   0 1018.26  156.73
  -4   8   0 1005.83  144.54
  -4  -8   0 1702.33  285.47
  -4  -8   1   93.12   21.28
  -4   8  -1   86.58   16.86
  -4   8  -1   86.77   50.14
   4   8   1  109.44   34.65
  -4  -8   1   88.81   42.24
  -4  -8  -1  114.94   33.59
  -4   8   1   81.37   30.93
   4   8  -1   89.16   19.15
  -4   8   1   85.09   17.82
  -4  -8  -1   94.92   28.89
  -4  -8   2  699.69  159.45
  -4   8  -2  760.90  131.31
  -4   8  -2  780.38  332.98
   4   8   2  751.45  154.93
  -4  -8   2 1030.98  330.57
  -4  -8  -2  608.17  124.85
   4   8  -2  852.79  129.57
  -4   8   2  926.11  208.59
  -4  -8   3   54.55   11.06
  -4   8  -3   53.34   13.22
   4  -8  -3   37.77   24.60
  -4   8  -3   18.63   60.62
   4   8   3    7.18   22.36
  -4  -8   3   45.43   42.61
  -4   8   3   57.32   20.13
   4  -8  -4  179.53   69.70
  -4   8  -4  314.86  137.71
   4   8   4  114.42   50.22
  -4  -8   4  286.34   91.77
  -4   8   4  138.79   37.47
  -4 -10   0  990.02  180.52
  -4  10   0 1441.16  294.58
   4  10   0  978.26  230.58
  -4  10   0  860.75  141.78
  -4 -10   0 1196.39  221.67
  -4 -10   1  120.83   27.60
  -4  10  -1   98.48   20.80
  -4  10  -1  121.31   36.88
   4  10   1  144.43   32.44
  -4 -10   1  124.02   31.25
  -4 -10  -1  134.25   42.86
  -4  10   1  159.30   50.50
   4  10  -1  129.94   28.98
  -4  10   1  119.08   29.74
  -4 -10  -1  149.90   42.90
  -4 -10   2  465.33   80.54
  -4  10  -2  435.48   74.73
  -4  10  -2  409.93  152.17
   4  10   2  698.76  162.28
  -4 -10   2  398.97   83.89
   4  10  -2  538.28   91.55
  -4  10   2  611.87  127.31
  -4 -10   3   31.85    7.39
   4 -10  -3   25.54   18.79
  -4  10  -3  115.95   59.76
   4  10   3   24.27   16.95
  -4 -10   3   11.85   12.79
  -4  10   3   37.46   16.84
   4 -10  -4  135.91   53.75
  -4  10  -4  115.32   26.15
   4  10   4  179.09   35.89
   4 -10   4  144.18   28.54
  -4 -12   0  548.65   99.62
  -4  12   0  633.05  184.84
   4  12   0  533.92  102.18
  -4  12   0  466.91   78.65
  -4 -12   0  611.37  111.13
  -4 -12   1   82.46   22.77
  -4  12  -1   95.89   28.58
   4  12   1  112.91   27.36
  -4 -12   1   75.96   19.94
   4 -12   1   94.87   24.23
  -4 -12  -1   91.96   22.53
  -4  12   1  112.43   38.43
   4  12  -1   98.32   25.51
  -4  12   1   79.98   37.85
  -4 -12  -1  127.67   33.58
  -4 -12   2  315.52   56.79
   4 -12  -2  349.23  109.82
  -4  12  -2  338.43   76.85
   4  12   2  456.54   76.31
   4  12   2  417.59   81.83
  -4 -12   2  284.16   50.90
   4 -12   2  357.86   78.27
   4  12  -2  401.65   68.74
  -4  12   2  503.93  108.80
  -4 -12   3   44.56    7.34
   4 -12  -3   48.42   24.01
  -4  12  -3   40.07   11.84
   4  12   3   51.88   15.50
  -4 -12   3   27.07    6.27
   4 -12   3   55.37   16.58
  -4  12   3   64.19   23.62
  -4 -14   0  326.80   88.05
  -4  14   0  342.11   70.52
   4  14   0  399.33   72.55
  -4  14   0  324.10   56.40
  -4 -14   0  357.60   64.81
  -4 -14   1   69.42   18.40
  -4  14  -1   58.23   29.62
   4  14   1   96.67   34.35
  -4 -14   1   75.85   17.19
  -4 -14  -1   63.86   14.74
  -4  14   1   75.71   23.09
   4  14  -1   83.74   19.63
  -4  14   1   96.28   25.75
  -4 -14   2  169.86   28.17
   4 -14  -2  182.71   65.26
  -4  14  -2  190.10   37.23
   4  14   2  241.55   36.82
   4  14   2  228.21   38.83
  -4 -14   2  187.84   44.86
   4 -14   2  182.02   37.66
  -4  14   2  293.23   59.69
   5   1   0 4863.75 1010.58
   5  -1   0 3823.30  842.42
  -5   1   0 4795.83 1082.75
  -5  -1   0 4543.97  933.46
   5   1   0 2931.23  722.75
   5  -1   0 2628.71  538.57
  -5  -1   0 3422.01  673.41
  -5   1   0 3118.79  591.82
   5  -1   0 3401.59  578.69
  -5   1   0 3198.42  612.59
   5  -1   0 3296.16  600.08
  -5  -1   0 2857.69  571.17
  -5   1   0 3173.92  605.03
   5  -1   0 3033.18  483.18
   5   1   0 3152.07  627.68
  -5  -1   0 4818.58  936.14
  -5   1   0 3331.56  539.08
   5  -1  -1   18.94    8.71
   5   1   1   17.91   12.72
  -5  -1   1   22.66   13.12
  -5   1  -1   18.52   13.16
   5   1   1   30.13    5.76
  -5   1  -1   37.14    9.56
   5  -1  -1   25.68    4.47
  -5  -1   1   23.70    5.60
   5   1   1   13.46   11.39
  -5  -1   1   21.46   11.06
   5  -1   1   34.28   15.66
  -5   1   1   25.46   15.20
  -5  -1  -1   14.91   17.39
   5  -1   1   38.94    6.48
  -5  -1  -1   42.23   11.30
  -5   1   1   32.01    2.54
  -5  -1  -1   27.01    3.43
  -5  -1  -1   31.96    2.39
   5  -1   1   34.63    4.13
   5   1  -1   26.16    8.95
  -5   1   1   37.13    9.50
   5  -1   1   34.16    2.45
   5  -1   1   13.86    8.62
  -5   1   1   32.57    8.39
  -5  -1  -1   33.35    5.29
   5  -1  -2 1176.42  305.97
  -5  -1   2 1482.86  389.66
   5   1   2 1831.93  424.53
  -5   1  -2 1145.09  274.83
   5   1   2 2279.83  368.30
  -5   1  -2 2176.60  362.96
   5  -1  -2 2302.35  377.43
  -5   1  -2 1966.79  346.75
   5  -1  -2 2077.96  385.22
  -5  -1   2 2112.83  341.09
   5   1   2 2003.68  320.78
  -5  -1   2 1557.05  282.49
   5   1  -2 1002.54  428.16
  -5   1   2 1603.48  365.42
   5  -1   2 2637.21  453.86
  -5  -1  -2 1985.51  372.45
   5  -1   2 2161.21  364.59
  -5  -1  -2 1913.14  326.08
  -5  -1  -2 2169.04  351.18
   5   1  -2 2142.10  377.29
  -5   1   2 2165.19  425.08
   5   1  -2 2111.45  362.88
   5  -1   2 2441.33  402.91
  -5   1   2 1792.47  311.75
   5   1   3    0.78    9.46
  -5  -1   3   14.88    7.37
  -5   1  -3   18.09    6.24
   5  -1  -3   14.86    5.31
  -5   1  -3   12.58    5.84
  -5  -1   3   20.16    5.29
   5   1   3   21.12    6.30
  -5  -1   3    9.77    5.68
   5  -1   3   10.50    8.68
  -5   1   3   19.64    7.42
  -5  -1  -3   18.42    6.23
  -5  -1  -3   11.82    6.00
  -5   1   3   13.58    5.42
   5  -1   3   16.85    4.48
  -5   1   3   11.21    4.88
   5   1   4  215.55   76.00
  -5  -1   4  475.00  187.70
  -5   1  -4  339.33   97.69
   5  -1  -4  500.36  106.76
  -5   1  -4  432.43   89.68
   5   1   4  448.67   77.46
  -5  -1   4  345.53  114.51
   5  -1   4  260.56   72.18
  -5   1   4  360.58  150.20
  -5  -1  -4  447.01   81.81
   5  -1   4  439.68  103.22
  -5   1   4  399.17   75.63
  -5  -1   5   11.82   10.86
   5  -3   0 2424.75  540.91
   5   3   0 4243.10  839.87
  -5   3   0 3615.40  752.39
  -5  -3   0 4582.56  888.64
   5   3   0 3521.94  732.23
  -5  -3   0 3201.34  690.46
   5  -3   0 2527.17  502.46
  -5   3   0 2590.88  512.18
   5  -3   0 2715.06  539.76
  -5   3   0 2502.01  535.21
   5   3   0 3865.35  739.16
   5  -3   0 2851.59  518.80
  -5   3   0 2698.85  495.94
   5   3   0 3796.14  744.51
  -5  -3   0 4880.07  955.26
   5  -3  -1   38.75   11.36
   5   3   1   43.29   19.28
  -5  -3   1   24.86   16.78
  -5   3  -1   33.67   10.60
   5   3   1   61.57   11.99
  -5  -3   1   49.23    7.46
  -5   3  -1   56.41   12.64
  -5  -3   1   42.94    8.38
  -5   3  -1   40.53   25.81
   5   3   1   50.98    8.53
   5  -3  -1   56.36    8.28
   5   3   1   37.04   25.09
  -5  -3   1   26.32   23.58
   5   3  -1   34.60   10.10
  -5   3   1   37.60   21.68
  -5  -3  -1   54.66   12.88
  -5  -3  -1   41.94   10.92
   5  -3   1   51.78    7.40
   5  -3   1   46.49    7.26
  -5   3   1   48.44    7.92
   5   3  -1   47.96   10.16
  -5   3   1   50.38    6.99
   5   3  -1   35.93    9.87
  -5  -3  -1   30.77   10.20
   5  -3  -2 1572.16  314.83
  -5  -3   2 1559.24  386.27
   5   3   2 2096.83  414.74
  -5   3  -2 1986.60  334.54
   5  -3  -2 1833.57  314.30
  -5   3  -2 1371.69  383.96
   5   3   2 1307.43  254.21
  -5  -3   2 2344.90  561.53
   5   3  -2 1294.17  304.63
  -5   3   2 1343.95  379.93
  -5  -3  -2 1606.71  310.32
   5  -3   2 1840.80  327.05
   5   3  -2 2038.47  358.62
  -5   3   2 2001.37  326.34
   5   3  -2 1769.98  342.74
   5   3   3   15.44    8.51
  -5  -3   3   22.60   13.50
  -5   3  -3   13.05    5.20
   5  -3  -3    2.92    9.09
  -5   3  -3    8.38    7.55
   5   3   3    8.97    6.30
  -5  -3   3   26.00   21.23
   5  -3   3   13.78    6.92
  -5   3   3    8.67    6.67
  -5  -3  -3   12.77    5.45
   5   3  -3    9.61    4.83
  -5   3   3   11.00    5.25
   5   3   4  263.19   75.26
  -5  -3   4  279.04  112.84
  -5   3  -4  382.13   68.19
   5  -3  -4  509.42   88.64
  -5   3  -4  783.90  344.09
   5   3   4  370.34   86.18
  -5  -3   4  543.15  187.07
   5  -3   4  337.07   65.18
  -5   3   4  484.15  204.28
  -5  -3  -4  417.92   73.21
  -5   3   4  451.24   83.59
   5   5   0 3732.02  764.03
   5  -5   0 3950.10  801.52
  -5   5   0 2985.22  652.99
  -5  -5   0 4563.82  900.56
  -5  -5   0 3567.25  749.53
   5  -5   0 2845.00  559.89
  -5   5   0 2642.67  528.49
   5  -5   0 3049.90  693.65
  -5   5   0 3348.69  779.01
   5   5   0 3895.86  813.99
   5  -5   0 2567.82  548.27
  -5   5   0 2773.02  551.97
   5   5   0 4366.15  921.95
  -5  -5   0 4846.23 1039.15
   5   5   1   10.49    4.56
  -5  -5   1    5.05    3.70
  -5   5  -1    6.90    1.88
   5   5   1   10.87    3.14
  -5  -5   1    4.35    2.34
  -5   5  -1    5.15    2.06
  -5  -5   1    1.78    2.63
  -5   5  -1    7.51    8.46
   5   5   1    7.68    2.44
   5  -5  -1    3.37    2.03
  -5  -5   1    9.78    7.70
   5   5  -1    9.02    2.36
   5  -5   1    2.21    2.43
  -5   5   1    4.44    5.20
  -5  -5  -1    5.66    2.84
  -5  -5  -1   13.86    3.41
   5  -5   1    7.34    2.06
   5  -5   1    9.59    2.77
  -5   5   1    4.40    3.16
   5   5  -1    4.05    3.27
  -5   5   1    4.42    2.24
   5   5  -1    3.60    3.28
  -5  -5  -1   10.13    3.59
   5   5   2 1695.03  313.53
  -5  -5   2 1035.23  292.50
  -5  -5   2 1831.76  279.72
  -5   5  -2 1682.48  288.69
   5  -5  -2 1475.05  295.40
  -5   5  -2 1459.95  527.97
  -5  -5   2 1161.43  485.82
   5  -5   2 1529.42  272.30
  -5   5   2 1527.47  506.99
  -5  -5  -2 1219.29  350.14
   5   5  -2 1926.96  338.23
  -5   5   2 1860.01  330.62
   5   5   3    2.81    6.45
  -5  -5   3    6.51    6.11
  -5   5  -3   11.16    6.61
   5  -5  -3    8.27    5.52
  -5   5  -3   27.41   15.32
   5   5   3    6.91    6.01
  -5  -5   3    3.54   11.56
   5  -5   3    5.49    4.05
  -5   5   3   13.26    4.94
   5   5  -3    0.89    2.03
   5   5   4  344.01   59.26
  -5  -5   4  172.35   69.01
  -5   5  -4  345.49   56.28
   5  -5  -4  438.70   82.52
  -5   5  -4  477.07  232.74
   5   5   4  245.72   79.45
  -5  -5   4  262.21  155.28
  -5   5   4  334.94  117.17
  -5   5   4  357.77   76.27
  -5  -7   0 1943.96  363.99
  -5   7   0 1683.07  292.03
   5  -7   0 2459.23  490.70
  -5   7   0 2572.35  529.22
   5   7   0 2052.38  376.83
   5  -7   0 1659.59  296.11
  -5   7   0 1874.37  356.49
  -5  -7   0 2691.58  511.14
  -5  -7   1    7.81    3.75
  -5   7  -1    5.71    5.21
  -5   7  -1    4.93   10.16
   5   7   1   11.85    4.13
  -5  -7   1    7.01    8.80
  -5  -7  -1    0.78    2.92
  -5   7   1   11.84    3.62
   5   7  -1    3.79    4.54
   5   7   2 1253.16  226.84
  -5  -7   2 1240.82  209.43
  -5   7  -2 1213.66  224.66
  -5   7  -2 1332.03  525.28
  -5  -7   2 1665.80  535.92
  -5  -7  -2 1135.62  243.31
   5   7  -2 1360.90  296.34
  -5   7   2 1404.89  266.11
   5   7   3    9.23    6.22
   5  -7  -3   17.21    7.57
  -5   7  -3   38.59   23.81
   5   7   3    4.90    8.39
  -5  -7   3    2.97   16.27
  -5   7   3    1.72    9.44
  -5   7   3   11.33    5.63
  -5   7  -4  268.65   45.03
   5  -7  -4  353.34   79.93
  -5   7  -4  490.30  202.34
   5   7   4  246.98   72.68
  -5  -7   4  435.71  144.25
  -5   7   4  200.13   59.82
  -5   7   4  259.37   62.12
  -5  -9   0 1423.21  270.97
  -5   9   0 1875.79  416.97
   5   9   0 1359.54  261.92
  -5   9   0 1409.53  293.13
  -5  -9   0 1694.28  337.93
  -5  -9   1   11.55    3.57
  -5   9  -1    4.12    2.88
  -5   9  -1   10.53    5.65
   5   9   1    3.95    3.97
  -5  -9   1    4.76    5.11
  -5  -9  -1    3.90    3.53
   5   9  -1    7.08    3.47
  -5   9   1    9.25    5.78
  -5  -9   2  761.00  125.68
  -5   9  -2  708.39  127.31
  -5   9  -2 1572.49  575.50
   5   9   2 1011.72  185.43
  -5  -9   2  640.47  201.44
  -5  -9  -2  792.40  154.89
   5   9  -2  843.02  143.83
  -5   9   2  906.85  179.63
  -5   9  -3    1.06    0.93
   5  -9  -3    0.08    1.66
  -5   9   3    2.07    2.40
   5  -9  -4  251.29   60.37
  -5   9  -4  174.01   40.52
   5   9   4  251.05   47.51
   5  -9   4  231.76   39.88
  -5   9   4  198.23   55.54
  -5 -11   0 1045.29  206.04
  -5  11   0 1412.10  377.42
   5  11   0 1027.88  265.41
  -5  11   0 1069.97  246.83
  -5 -11   0 1264.68  322.99
  -5 -11   1   33.68   12.80
  -5  11  -1   56.49   18.52
   5  11   1   46.15   16.07
  -5 -11   1   43.86   13.56
  -5 -11  -1   39.16   13.60
  -5  11   1   45.71   22.61
   5  11  -1   41.83   13.96
  -5  11   1   49.80   16.68
  -5 -11  -1   59.05   20.28
  -5 -11   2  594.04   94.92
   5 -11  -2  584.50  152.72
  -5  11  -2  588.42  128.01
   5  11   2  786.29  170.53
   5  11   2  698.13  135.31
  -5 -11   2  505.46   94.64
   5  11  -2  673.38  155.68
  -5  11   2  771.87  165.62
  -5 -11   3    9.45    3.32
   5 -11  -3   18.13    9.31
  -5  11  -3   14.52    6.17
   5  11   3   16.38    8.16
   5 -11   3   20.30    7.54
  -5  11   3   15.17   10.29
  -5 -13   0  597.42  152.21
  -5  13   0  598.30  129.52
   5  13   0  579.95  116.84
  -5 -13   0  618.90  118.77
  -5 -13   1   22.07    9.02
  -5  13  -1   31.73   18.76
   5  13   1   33.47   11.29
  -5 -13   1   30.89   11.61
  -5 -13  -1   32.98    8.82
  -5  13   1   23.67   13.22
   5  13  -1   26.71   10.26
  -5  13   1   27.95    9.89
  -5 -13  -1   24.87   12.61
  -5 -13   2  294.00   46.70
   5 -13  -2  320.26   92.71
  -5  13  -2  316.71   66.23
   5  13   2  389.27   57.56
   5  13   2  393.61   71.19
   5 -13   2  322.92   62.21
   5  13  -2  350.69   55.40
  -5  13   2  441.28   87.59
  -5 -15   0  299.28   45.81
  -5  15   0  230.85   42.67
   5  15   0  301.96   73.87
  -5 -15   0  265.95   43.10
  -5 -15   1   26.29    6.74
   5 -15  -1   22.12   11.29
  -5  15  -1   23.40    7.28
   5  15   1   24.06    6.72
   5  15   1   27.86    6.18
  -5 -15   1   21.86    6.27
   5  15  -1   23.52    6.67
  -5  15   1   23.03    7.46
   6   0   0  888.32  129.33
  -6   0   0  811.27  122.11
   6   0   0  614.64  111.06
  -6   0   0  691.03   99.87
  -6   0   0  585.23   77.27
  -6   0   0  564.48   68.48
   6   0   1 1016.55  214.37
  -6   0   1  555.03  155.88
  -6   0  -1  411.72  155.82
   6   0  -1  852.03  107.99
   6   0   1  726.55  101.29
  -6   0   1  808.70   96.40
  -6   0  -1  810.68  108.37
  -6   0   1  802.23  106.81
   6   0  -1  667.18   69.34
  -6   0   1  855.81  144.62
  -6   0   2  404.15  140.72
  -6   0  -2  591.50   87.85
  -6   0   2  564.84   79.19
   6   0  -2  448.16   54.08
  -6   0   2  632.41  189.86
   6   0   3  146.39   77.14
  -6   0   3  236.89  149.46
  -6   0  -3  359.84   62.64
  -6   0   3  388.86   56.56
  -6   0   3  197.09   65.82
   6   0   4   25.37   17.40
  -6   0   4   76.11   32.19
  -6   0  -4   68.42   24.80
  -6   0   4  124.42   37.10
   6  -2   0 1022.35  179.83
   6   2   0 1302.60  202.75
  -6   2   0 1236.08  203.29
  -6  -2   0 1189.52  186.68
   6   2   0 1193.39  187.59
   6  -2   0  905.95  127.26
  -6  -2   0  952.76  143.12
  -6   2   0  897.77  117.31
   6   2   0  994.42  150.18
  -6   2   0  894.85  126.81
   6   2   0 1098.93  149.96
  -6  -2   0 1355.02  187.30
   6  -2  -1  615.26  133.35
   6   2   1 1123.14  236.69
  -6  -2   1  780.21  176.16
  -6   2  -1  507.99  169.61
   6   2   1  788.30  162.01
  -6  -2   1  923.96  113.77
  -6   2  -1  812.21  112.99
  -6  -2   1  810.17  109.10
  -6   2  -1  852.52  174.44
   6   2   1 1038.69  158.61
  -6  -2   1  737.40  115.46
   6   2   1 1475.42  242.02
  -6  -2   1 1037.34  203.24
   6   2  -1  534.95  116.39
  -6   2   1  656.29  168.04
  -6  -2  -1  868.14  150.47
   6  -2   1  817.30  106.88
  -6  -2  -1  797.25  124.23
   6  -2   1  973.61  108.24
  -6   2   1  782.48  125.83
   6   2  -1  712.45  103.77
  -6  -2  -1  742.03  108.86
  -6  -2   2  196.75   80.29
  -6   2  -2  173.96   48.43
  -6   2  -2  328.14   69.57
  -6   2  -2  343.24   79.66
  -6  -2   2  291.72   43.82
   6   2   2  271.62   39.80
  -6  -2   2  259.45   88.82
  -6   2   2  239.87   91.54
  -6  -2  -2  157.90   59.46
  -6  -2  -2  303.24   53.73
   6  -2   2  351.53   44.21
  -6   2   2  292.98   68.09
   6   2   3   86.08   48.58
  -6  -2   3  105.54   53.75
  -6   2  -3  163.96   33.99
  -6   2  -3  236.64  110.75
   6   2   3  163.06   54.03
  -6  -2   3  161.88   70.50
   6  -2   3  122.22   47.01
  -6   2   3  139.74   96.99
  -6  -2  -3  146.69   59.97
  -6   2   3  187.13   37.91
   6   2   4   24.84   16.81
  -6  -2   4   32.91   28.30
  -6   2  -4   51.95   14.04
  -6   2  -4   88.86   40.69
   6   2   4   67.74   15.55
  -6  -2   4   44.67   38.08
   6  -2   4   41.14   12.45
  -6   2   4   52.75   29.05
   6   4   0  406.67   53.92
   6  -4   0  304.31   47.67
  -6  -4   0  420.53   56.24
  -6   4   0  303.97   53.49
   6   4   0  402.21   59.85
   6  -4   0  324.49   35.60
  -6  -4   0  341.86   48.03
  -6   4   0  291.05   32.41
   6  -4   0  325.10   56.08
  -6   4   0  266.30   43.64
   6   4   0  357.64   51.42
   6  -4   0  289.77   32.06
  -6   4   0  277.46   31.84
   6   4   0  394.18   53.47
  -6  -4   0  432.53   61.88
   6  -4  -1  457.86   77.76
   6   4   1  815.81  149.83
  -6  -4   1  642.82  117.44
  -6   4  -1  405.84   75.28
   6   4   1  633.53  102.85
  -6  -4   1  542.36   72.75
  -6   4  -1  465.04   66.34
  -6  -4   1  513.18   74.20
  -6   4  -1  661.89  156.53
   6   4   1  529.19   74.07
   6  -4  -1  508.22   70.03
  -6  -4   1  817.46  172.14
   6   4  -1  472.12   71.60
   6  -4   1  527.11   87.63
  -6   4   1  575.87  125.88
  -6  -4  -1  624.11   91.64
  -6  -4  -1  550.49   89.98
   6  -4   1  494.84   61.00
   6  -4   1  455.86   60.98
  -6   4   1  415.31   62.71
   6   4  -1  491.70   83.15
   6   4  -1  622.26   92.09
  -6   4   1  427.59   58.48
   6   4  -1  406.20   72.90
  -6  -4  -1  435.97   80.01
  -6  -4   2  227.65   75.97
  -6   4  -2  404.34   58.43
   6  -4  -2  392.21   54.31
  -6   4  -2  337.05  139.84
   6   4   2  230.88   50.33
  -6  -4   2  190.24  121.95
  -6   4   2  272.99  109.01
  -6  -4  -2  346.24   72.39
   6   4  -2  386.26   68.56
  -6   4   2  413.58   64.11
   6   4   3  334.12   83.18
  -6  -4   3  145.44   68.26
  -6   4  -3  308.77   55.70
   6  -4  -3  319.39   82.63
  -6   4  -3  345.66  163.54
   6   4   3  229.48   64.16
  -6  -4   3  169.84  115.96
   6  -4   3  312.64   67.20
  -6   4   3  225.10   94.45
  -6  -4  -3  181.76   60.16
   6   4  -3  285.75   52.04
  -6   4   3  329.14   66.17
   6   4   4   75.75   20.08
  -6  -4   4   55.00   25.89
  -6   4  -4   85.62   18.58
  -6   4  -4   99.57   72.09
   6   4   4   85.56   24.20
  -6  -4   4   64.47   52.78
   6  -4   4   55.48   11.49
  -6   4   4   87.03   33.99
  -6   4   4   90.08   23.41
   6  -6   0  754.08  105.06
   6   6   0 1179.43  155.74
  -6   6   0  853.89  130.94
  -6  -6   0 1249.34  192.99
  -6  -6   0  994.46  192.90
  -6   6   0  762.09  123.73
  -6   6   0 1005.86  176.27
   6   6   0  973.20  194.29
   6  -6   0  828.06  116.91
  -6   6   0  841.35  114.73
  -6  -6   0 1232.93  194.21
   6  -6  -1 1093.39  160.17
  -6  -6   1  826.42  124.51
  -6  -6   1  911.98  141.29
  -6   6  -1  755.24  120.15
  -6   6  -1  756.92  230.25
   6   6   1  928.40  147.03
  -6  -6   1  798.72  213.34
  -6   6   1 1087.57  264.20
  -6  -6  -1  921.82  137.64
  -6  -6  -1  961.86  162.93
  -6   6   1  683.08  138.23
   6   6  -1  861.66  153.52
  -6   6   1  748.71  120.77
  -6  -6  -1  866.04  164.28
   6   6   2  301.31   57.39
  -6  -6   2  315.80   44.79
  -6   6  -2  280.12   50.27
   6  -6  -2  263.05   56.18
  -6   6  -2  374.50  169.41
  -6  -6   2  378.43  144.71
  -6   6   2  204.77   74.86
  -6  -6  -2  290.79   93.75
   6   6  -2  294.95   55.82
  -6   6   2  300.77   56.93
   6   6   3  212.73   51.35
  -6   6  -3  149.41   33.27
   6  -6  -3  146.44   38.72
  -6   6  -3  149.98  128.65
   6   6   3  109.29   47.14
  -6  -6   3  128.16   87.25
  -6   6   3   89.04   39.01
  -6  -6  -3   77.66   29.24
   6   6  -3  144.75   33.82
  -6   6   3  153.76   61.89
   6   6   4   48.34    9.49
  -6   6  -4   47.74   12.15
  -6   6  -4   92.33   50.74
   6   6   4   62.23   18.47
  -6  -6   4  100.57   39.15
  -6   6   4   47.32   21.48
  -6   6   4   50.56   21.33
  -6  -8   0  231.94   64.25
  -6   8   0  277.97   63.43
   6   8   0  224.38   41.65
  -6   8   0  202.52   31.72
  -6  -8   0  260.03   51.56
  -6  -8   1  362.26   61.04
  -6   8  -1  297.40   50.70
  -6   8  -1  361.55   86.37
   6   8   1  405.27   96.45
  -6  -8   1  368.37   77.05
  -6  -8  -1  371.87   67.47
  -6   8   1  309.62   75.42
   6   8  -1  347.44   62.23
  -6   8   1  321.52   58.16
  -6  -8  -1  364.78   79.45
  -6  -8   2  256.76   39.44
  -6   8  -2  236.12   46.65
   6  -8  -2  239.76   56.39
  -6   8  -2  240.11   97.73
  -6  -8   2  200.52   79.87
  -6  -8  -2  301.47   92.01
   6   8  -2  281.71   53.73
  -6   8   2  296.59   63.37
  -6   8  -3  188.57   39.53
   6  -8  -3  212.01   52.03
  -6   8  -3  481.14  246.78
   6   8   3  205.08   60.23
  -6  -8   3  334.72  178.20
   6   8  -3  224.77   37.21
  -6   8   3  232.10  115.11
  -6   8  -4   56.75   14.88
   6   8   4   80.96   18.28
  -6   8   4   80.31   29.08
  -6 -10   0  396.06  113.07
  -6  10   0  457.22  152.63
   6  10   0  418.27   76.65
  -6  10   0  408.14   68.27
  -6 -10   0  443.14  124.51
  -6 -10   1  401.05   70.73
  -6  10  -1  307.88   54.39
  -6  10  -1  427.25   99.57
   6  10   1  470.10   82.40
  -6 -10   1  433.90   82.34
  -6 -10  -1  430.95   80.75
  -6  10   1  416.09  104.97
   6  10  -1  416.06   76.92
  -6  10   1  421.57   83.16
  -6 -10  -1  451.65   98.76
  -6 -10   2  143.97   24.93
  -6  10  -2  125.95   25.35
   6 -10  -2  145.68   39.51
  -6  10  -2  126.81   36.20
   6  10   2  124.45   33.50
  -6 -10   2  129.45   31.27
  -6 -10  -2  135.82   49.14
   6  10  -2  146.04   29.68
  -6  10   2  171.34   41.76
   6 -10  -3  103.48   25.38
  -6  10  -3   76.63   21.47
   6  10   3  107.17   25.13
  -6 -10   3   57.61   13.45
   6  10  -3   81.37   22.63
  -6  10   3  125.38   64.15
  -6 -12   0  142.37   32.11
  -6  12   0  141.28   41.87
   6  12   0  139.05   34.40
  -6 -12   0  151.14   38.73
  -6 -12   1  195.08   54.24
  -6  12  -1  205.22   47.45
   6  12   1  239.12   44.98
  -6 -12   1  153.53   32.60
   6 -12   1  174.49   36.39
  -6 -12  -1  217.91   40.49
  -6  12   1  200.99   55.60
   6  12  -1  199.58   65.18
  -6  12   1  222.55   47.19
  -6 -12  -1  218.91   55.25
  -6 -12   2  132.23   33.58
   6 -12  -2  143.63   40.10
  -6  12  -2  125.47   32.88
   6  12   2  149.20   24.25
   6  12   2  185.26   36.19
  -6 -12   2  100.16   20.21
   6 -12   2  142.10   29.93
  -6 -12  -2  139.45   25.53
   6  12  -2  154.21   27.90
  -6  12   2  166.09   39.57
  -6 -14   0  188.33   34.17
  -6  14   0  145.59   35.14
   6  14   0  187.12   37.52
  -6 -14   0  193.92   37.17
  -6 -14   1  171.88   28.68
  -6  14  -1  149.69   30.95
   6  14   1  187.37   45.86
  -6 -14   1  176.21   31.36
  -6 -14  -1  186.98   30.75
   6  14  -1  198.51   36.10
  -6  14   1  200.91   38.12
   7  -1   0   35.70   10.41
   7   1   0   35.61   10.39
  -7  -1   0   26.44    9.62
  -7   1   0   20.83   10.15
   7   1   0   37.74    8.82
   7  -1   0   28.35   10.29
  -7  -1   0   21.58    6.46
  -7   1   0   20.37    5.01
  -7   1   0   22.12    6.98
  -7  -1   1 3216.11  711.38
  -7   1  -1 2163.34  593.19
  -7  -1   1 2243.00  406.47
  -7   1  -1 2277.56  453.06
  -7  -1   1 2228.36  461.12
  -7   1   1 3143.68  711.31
  -7  -1  -1 2378.05  528.96
  -7  -1  -1 2281.50  477.85
  -7   1   1 2099.06  437.34
  -7  -1   2   12.03   10.85
  -7   1  -2   11.49    7.58
  -7   1  -2   18.31   10.14
  -7  -1   2   14.66    6.06
  -7   1   2   17.07   14.41
  -7  -1  -2   19.33    9.99
  -7  -1  -2   24.54    8.73
  -7   1   2   17.76    7.61
   7   1   3  288.71  145.64
  -7  -1   3  483.65  153.14
  -7   1  -3  874.69  136.34
  -7  -1   3  526.43  182.13
   7  -1   3  403.75  155.17
  -7   1   3  505.85  185.20
  -7  -1  -3  781.86  150.07
  -7   1   3  962.48  165.93
   7   1   4    8.03    3.75
  -7  -1   4   10.16    6.40
  -7   1  -4   11.64    5.68
   7  -1  -4    3.69    3.76
  -7  -1   4    3.05    7.97
   7  -1   4   15.64    4.63
  -7  -1  -4    0.26    4.69
   7   1  -4   13.55    4.10
   7   3   0   71.29   16.07
   7  -3   0   61.90   16.01
  -7   3   0   59.82   16.73
  -7  -3   0   58.57   14.80
   7   3   0   73.52   15.87
   7  -3   0   51.07    9.39
  -7  -3   0   51.47   12.01
  -7   3   0   45.88   12.66
   7   3   0   52.35   12.71
   7  -3   0   49.89    8.48
  -7   3   0   47.92   10.59
   7   3   0   55.89   10.99
  -7  -3   0   63.36   12.54
  -7  -3   1 3288.87  801.14
  -7   3  -1 1722.18  415.93
  -7  -3   1 2417.31  445.70
  -7   3  -1 1950.60  440.75
  -7  -3   1 2213.63  417.20
   7   3   1 2370.05  437.97
   7   3   1 2280.69  428.34
  -7  -3   1 1955.80  443.23
  -7   3   1 3010.53  685.22
  -7  -3  -1 2715.47  562.68
  -7  -3  -1 2275.61  487.15
   7   3  -1 2240.22  465.83
  -7   3   1 1728.35  417.06
   7   3  -1 2057.75  425.07
  -7  -3  -1 2127.46  446.21
  -7  -3   2   17.48    8.84
  -7   3  -2    9.62    5.73
   7   3   2   13.57    5.02
  -7  -3   2    2.21   11.69
  -7   3   2   14.47   11.25
  -7  -3  -2    8.27    7.92
  -7  -3  -2   18.01    7.67
   7   3  -2   15.95    6.69
  -7   3   2   14.19    6.89
   7   3   3  832.60  201.36
  -7  -3   3  455.44  158.45
  -7   3  -3  815.13  146.16
   7   3   3  843.97  211.39
  -7  -3   3  452.26  220.17
   7  -3   3  723.34  171.97
  -7   3   3  497.79  196.22
  -7  -3  -3  624.19  218.60
   7   3  -3  776.41  136.09
  -7   3   3  876.89  184.27
   7   3   4    1.39    1.73
  -7  -3   4    7.02    2.46
  -7   3  -4    0.05    1.66
   7   3   4    0.53    1.55
  -7  -3   4   16.97    4.10
   7  -3   4    3.74    1.81
  -7   5   0    6.19    3.28
  -7  -5   0   10.32    3.06
   7  -5   0    6.72    2.06
  -7  -5   0    8.95    2.95
  -7   5   0    3.65    1.79
   7   5   0   12.71    3.38
  -7   5   0    1.58    3.59
  -7  -5   0    2.24    3.32
  -7  -5   1 2276.33  423.92
  -7   5  -1 1772.79  369.45
  -7  -5   1 2183.52  390.23
  -7   5  -1 1778.72  345.44
  -7   5  -1 1557.54  346.93
   7   5   1 2286.91  417.86
  -7  -5   1 2080.22  409.50
  -7   5   1 2522.08  586.01
  -7  -5  -1 2556.59  517.85
  -7  -5  -1 2396.48  517.91
   7   5  -1 2241.62  480.00
  -7   5   1 1713.49  356.92
  -7  -5  -1 2389.80  520.53
  -7  -5   2   12.19    5.35
  -7   5  -2   10.14    9.06
   7   5   2    0.41    4.04
  -7  -5   2   21.98    9.66
  -7   5   2    6.37    6.21
  -7  -5  -2    6.93    5.06
   7   5   3  975.16  213.30
  -7  -5   3  641.40  153.36
  -7   5  -3  655.44  182.44
  -7   5  -3  730.15  278.60
   7   5   3  706.85  164.55
  -7  -5   3  858.37  275.59
  -7   5   3  516.72  164.95
  -7  -5  -3  566.01  131.62
   7   5  -3  669.10  111.16
  -7   5   3  704.71  176.20
   7   5   4    5.70    1.41
  -7  -5   4    0.40    1.39
  -7   5  -4    1.38    1.69
   7   5   4    3.57    1.91
  -7   5   4    7.93    6.70
  -7  -7   0    7.48    3.99
  -7   7   0    7.47    7.60
   7   7   0    6.70    4.11
  -7   7   0    8.01    2.77
  -7  -7   0   12.54    4.55
  -7  -7   1 1441.42  305.20
  -7   7  -1 1123.72  251.66
  -7   7  -1 1153.70  253.86
   7   7   1 1518.48  264.30
  -7  -7   1 1362.15  262.13
  -7  -7  -1 1299.65  217.71
  -7  -7  -1 1427.74  265.31
  -7   7   1 1046.65  219.76
   7   7  -1 1416.00  327.00
  -7   7   1 1151.50  210.97
  -7  -7  -1 1529.60  296.96
  -7  -7   2    3.07    2.93
  -7  -7   2    4.08    3.93
  -7  -7  -2    1.80    1.66
  -7   7   2    0.18    0.92
   7   7   3  425.89   79.36
  -7   7  -3  477.63   79.49
  -7   7  -3  311.69   86.50
   7   7   3  643.61  110.82
  -7  -7   3  311.76   81.97
  -7   7   3  601.71  143.01
  -7  -7  -3  502.05  108.27
   7   7  -3  607.56   95.24
  -7   7   3  542.38  167.14
   7   7   4    3.47    1.88
  -7  -9   0   11.95    4.96
  -7   9   0    7.46    5.90
   7   9   0    6.12    4.91
  -7  -9   0   27.33    9.59
  -7  -9   1  973.83  212.37
  -7   9  -1  728.37  128.16
  -7   9  -1  981.55  203.27
   7   9   1 1087.72  184.71
  -7  -9   1  974.72  175.71
  -7  -9  -1 1010.80  184.43
  -7   9   1  840.59  183.91
   7   9  -1  957.77  176.92
  -7   9   1  897.00  165.86
  -7  -9  -1 1118.42  221.71
   7  -9  -2    0.32    3.40
  -7   9  -2    6.37    4.09
   7   9   2   10.49    3.69
  -7  -9  -2    0.30    2.98
   7   9  -2    2.19    2.44
  -7   9   2   10.74    3.24
  -7   9  -3  271.84   41.87
  -7   9  -3  269.64   45.63
   7   9   3  406.62   65.16
  -7  -9   3  213.10   33.35
   7   9  -3  353.79   49.22
  -7   9   3  347.95  112.48
  -7 -11   0   17.06    7.59
  -7  11   0   17.56    9.63
   7  11   0   16.67   12.02
  -7 -11   0   21.51    9.66
  -7 -11   1  661.01  116.05
  -7  11  -1  702.31  203.83
   7  11   1  784.66  135.20
  -7 -11   1  593.36  108.61
  -7 -11  -1  714.85  125.32
  -7  11   1  588.43  133.53
   7  11  -1  671.70  122.31
  -7  11   1  644.99  121.07
  -7 -11  -1  771.18  155.05
  -7 -11   2   20.44    4.91
   7 -11  -2   14.99    7.20
  -7  11  -2   15.79    7.07
   7  11   2    7.89    7.52
  -7 -11   2   15.94    4.81
  -7 -11  -2   19.56    6.25
   7  11  -2   10.05    9.40
  -7  11   2   18.22    8.29
  -7 -13   0   38.92   10.98
  -7  13   0   32.08   11.71
   7  13   0   31.80   12.09
  -7 -13   0   46.19   14.82
  -7 -13   1  389.40   63.88
  -7  13  -1  347.61   66.90
   7  13   1  512.06   77.89
  -7 -13   1  436.06   76.07
  -7 -13  -1  433.02   67.39
   7  13  -1  446.14   74.30
  -7  13   1  363.11  113.24
  -8   0   0   79.04   19.39
  -8   0   0   54.89   11.97
  -8   0   1 1067.67  240.45
  -8   0  -1 1163.01  226.86
  -8   0  -1 1018.80  185.89
  -8   0   1  933.53  192.23
  -8   0   2   98.73   41.87
  -8   0  -2   65.37   29.05
  -8   0  -2  115.58   28.49
  -8   0   2   99.01   30.79
   8   0   3  265.80  100.94
  -8   0   3  373.79  112.85
  -8   0  -3  463.69   93.03
   8   0   4    8.92    4.97
  -8   0   4   20.90    9.36
  -8   0  -4   18.06    8.14
   8   0  -4   16.87    4.96
  -8  -2   0  277.45   50.12
  -8   2   0  290.04   55.19
  -8  -2   0  239.52   57.69
  -8   2   0  225.38   32.49
   8   2   0  230.48   40.16
  -8   2   0  190.07   38.00
  -8  -2   1 1082.59  205.26
  -8   2  -1 1139.62  242.87
  -8  -2   1 1156.86  179.48
  -8   2  -1 1077.56  240.92
  -8   2   1 1071.41  252.17
  -8  -2  -1 1275.40  236.38
  -8  -2  -1 1128.26  214.03
   8   2  -1 1097.54  209.46
  -8   2   1  964.58  189.53
  -8  -2   2   33.11   17.29
  -8   2  -2   25.18   12.34
  -8   2  -2   31.51   11.45
  -8   2   2   34.41   19.93
  -8  -2  -2   23.20   13.32
  -8  -2  -2   38.70   14.75
   8   2  -2   33.66   12.60
  -8   2   2   33.30   14.51
   8   2   3  248.65   80.78
  -8  -2   3  234.36   77.54
  -8   2  -3  293.70   63.72
   8  -2   3  234.60   75.74
  -8   2   3  228.61   84.11
  -8  -2  -3  245.03   65.03
   8   2  -3  267.55   54.63
  -8   2   3  315.59   93.47
   8   2   4   10.53    3.88
  -8  -2   4   14.10    6.72
   8  -2  -4   11.66    4.33
   8  -2   4    6.92    2.26
  -8   2   4    5.52    4.91
  -8  -2  -4    5.77    3.84
   8   2  -4    3.86    2.12
  -8   4   0   11.89    8.48
  -8  -4   0   24.60    7.47
  -8  -4   0   20.89    6.57
  -8   4   0   14.80    4.38
   8   4   0   20.77    7.08
  -8   4   0   21.51    5.96
  -8  -4   0   18.13    8.93
  -8  -4   1  712.94  118.50
  -8   4  -1  659.14  132.63
  -8  -4   1  701.44  100.34
  -8   4  -1  655.35  106.66
  -8  -4   1  643.94  101.72
  -8   4   1  710.70  135.59
  -8  -4  -1  930.67  161.68
  -8  -4  -1  869.40  211.14
   8   4  -1  737.03  142.24
  -8   4   1  590.71  126.01
  -8  -4  -1  807.32  143.03
  -8  -4   2  103.16   43.81
  -8   4  -2   69.22   18.87
   8   4   2   70.23   19.35
  -8  -4   2   55.31   22.72
  -8   4   2   81.18   33.48
  -8  -4  -2   91.06   27.47
   8   4  -2   67.76   21.80
  -8   4   2   74.60   28.98
   8   4   3  586.44  139.09
  -8  -4   3  441.25  154.86
  -8   4  -3  387.91   89.73
  -8  -4   3  683.88  244.43
   8  -4   3  421.48  102.22
  -8   4   3  411.52  112.90
  -8  -4  -3  457.52  144.34
   8   4  -3  368.88   71.83
  -8   4   3  420.77  133.12
   8   4   4   12.22    3.10
  -8  -4   4   10.25    2.36
  -8   4  -4   17.38    4.18
  -8   4   4   27.93   11.39
  -8   6   0  264.31   77.65
  -8  -6   0  357.81   75.58
  -8  -6   0  314.74   55.75
   8   6   0  321.84   57.28
  -8  -6   0  309.27   79.56
  -8  -6   1 1086.49  173.29
  -8  -6   1  948.99  155.17
  -8   6  -1  794.12  141.58
   8   6   1 1017.18  169.06
  -8  -6   1  875.63  154.36
  -8   6   1  791.43  154.30
  -8  -6  -1 1002.63  169.17
  -8  -6  -1 1012.48  185.48
   8   6  -1  911.58  176.06
  -8   6   1  768.73  207.12
  -8  -6  -1 1065.78  194.37
   8   6   2   73.10   17.89
  -8  -6   2   53.05   11.52
  -8   6  -2   60.40   24.60
   8   6   2   58.98   17.08
  -8  -6   2   41.70   13.15
  -8   6   2   44.08   21.33
  -8  -6  -2   93.25   23.88
   8   6  -2   60.00   18.81
  -8   6   2   66.33   31.15
   8   6   3  330.79   71.22
  -8   6  -3  203.15   45.23
   8   6   3  250.33   76.70
  -8   6   3  279.71  101.00
  -8  -6  -3  252.09   83.89
   8   6  -3  243.35   69.39
  -8   6   3  223.92   88.69
  -8  -8   0   43.28   12.52
   8   8   0   37.89   12.14
  -8  -8   0   35.84   13.34
  -8  -8   1  425.66   66.23
  -8   8  -1  314.21   54.73
   8   8   1  479.59  100.94
  -8  -8   1  372.21   63.72
  -8  -8  -1  424.21   82.43
   8   8  -1  457.02   84.16
  -8   8   1  361.76  127.81
  -8  -8  -1  470.93   92.69
  -8  -8   2   75.15   13.29
  -8   8  -2   62.91   15.59
  -8   8  -2   54.46   14.52
   8   8   2   75.07   19.66
  -8  -8   2   62.44   14.13
  -8  -8  -2   91.43   24.35
   8   8  -2   71.60   20.16
  -8   8   2   91.56   49.58
  -8   8  -3  188.61   29.12
  -8   8  -3  132.62   23.26
   8   8   3  290.55   52.61
  -8  -8   3  149.12   19.90
  -8  -8  -3  220.75   51.81
   8   8  -3  257.62   36.70
  -8   8   3  245.83   86.60
  -8 -10   0  180.13   37.53
  -8  10   0  129.39   34.16
   8  10   0  185.45   36.61
  -8 -10   0  192.51   41.86
  -8 -10   1  423.54   68.01
  -8  10  -1  314.02   91.31
   8  10   1  479.55   79.00
  -8 -10   1  348.81   86.95
  -8 -10  -1  431.31   78.46
   8  10  -1  410.34   78.03
  -8  10   1  359.20  131.46
  -8 -10  -1  473.39   92.83
  -8 -10   2   52.66    8.75
  -8  10  -2   45.31    8.92
  -8  10  -2   27.91    8.19
   8  10   2   70.30   13.42
  -8 -10   2   34.14    8.11
  -8 -10  -2   58.38   14.61
   8  10  -2   56.10   13.38
  -8  10   2   42.97   36.79
  -8 -12   0   58.16   13.91
  -8  12   0   40.52   11.95
   8  12   0   64.48   15.44
  -8 -12   0   56.01   17.20
  -8 -12   1  189.96   32.00
  -8  12  -1  147.70   30.60
   8  12   1  252.47   36.97
  -8 -12   1  229.47   40.76
  -8 -12  -1  224.40   51.81
   8  12  -1  217.36   37.32
  -8  12   1  129.99   36.60
  -9  -1   0 1721.62  331.10
  -9   1   0 1769.06  342.27
  -9  -1   0 1380.84  266.55
  -9   1   0 1284.89  250.62
   9   1   0 1412.96  269.67
  -9  -1   1    4.02    4.00
  -9   1  -1   18.21    5.48
  -9   1  -1    4.26    4.26
  -9   1   1   14.30    5.12
  -9  -1  -1    5.65    6.54
  -9  -1  -1   12.31    5.63
   9   1  -1    3.24    5.41
  -9   1   1   16.41    6.95
  -9  -1   2 1137.11  327.54
  -9   1  -2  704.97  168.54
  -9   1  -2  826.22  170.95
  -9   1   2 1143.39  336.75
  -9  -1  -2  727.04  164.78
  -9  -1  -2  940.58  192.59
   9   1  -2  681.39  145.03
  -9   1   2  737.74  192.34
   9  -1   3   11.38    5.06
  -9   1   3    4.39    4.78
  -9  -1  -3    3.31    3.96
   9   1  -3    2.83    3.32
   9   1   4  157.08   21.24
  -9  -1   4  149.72   19.34
  -9   1  -4  166.52   22.69
   9  -1   4  156.35   20.15
  -9   1   4  143.49   29.14
  -9  -3   0 1444.30  274.91
  -9   3   0 1458.88  294.76
  -9  -3   0 1085.33  268.53
   9   3   0 1337.53  257.48
  -9  -3   1    4.55    2.14
  -9   3  -1    3.83    2.85
  -9   3  -1    0.59    2.00
  -9   3   1   14.48    8.51
  -9  -3   2  579.45  103.95
  -9   3  -2  725.79  132.53
  -9   3   2  645.93  169.90
  -9  -3  -2  909.78  183.37
   9   3  -2  640.63  136.02
  -9   3   2  655.01  185.62
   9   3   3    4.05    3.92
  -9   3  -3    3.10    2.92
   9  -3   3    3.59    6.59
  -9  -3  -3    4.79    5.44
   9   3  -3    4.68    4.36
  -9   3   3   44.04    9.57
  -9   5   0 1234.85  327.03
  -9  -5   0 1489.54  333.79
  -9  -5   0 1281.67  247.79
   9   5   0 1337.65  318.50
  -9  -5   1   17.63    8.08
  -9   5  -1   19.38    9.16
  -9  -5   1   28.16    7.19
  -9   5  -1   28.91    7.75
  -9   5   1   23.28    8.65
  -9  -5  -1   22.72    9.44
  -9  -5  -1   25.55   15.98
   9   5  -1   21.36    9.98
  -9   5   1   26.06   11.40
   9   5   2  827.77  147.49
  -9  -5   2  565.64   87.99
  -9   5  -2  639.72  115.65
  -9  -5   2  524.16   80.10
   9  -5   2  598.78  124.57
  -9   5   2  514.85   92.05
  -9  -5  -2  862.27  152.04
   9   5  -2  594.74  115.45
  -9   5   2  598.96  165.01
   9   5   3    6.16    3.04
  -9  -5   3    2.04    1.03
  -9   5  -3    5.87    2.08
  -9  -5   3    2.16    0.89
  -9   5   3    3.26    1.58
  -9  -5  -3    7.99    4.57
   9   5  -3    0.09    3.34
  -9   5   3   17.36    5.62
  -9  -7   0  814.71  150.03
   9   7   0  784.26  140.73
  -9  -7   0  768.76  134.90
  -9  -7   1    9.72    3.34
  -9   7  -1    2.56    3.19
  -9  -7   1    9.83    2.92
  -9  -7  -1    3.43    7.90
   9   7  -1   16.09    4.85
  -9   7   1    3.32    6.07
  -9  -7  -1    7.57    4.57
   9   7   2  581.40   93.59
  -9   7  -2  428.61   71.27
   9   7   2  493.84   79.68
  -9  -7   2  368.65   54.94
  -9  -7  -2  603.58  113.96
   9   7  -2  527.82   98.11
  -9   7   2  466.89  152.05
   9   7   3    4.31    1.24
  -9   7  -3    7.47    2.59
   9   7   3    5.43    1.91
  -9  -7   3    6.98    1.28
  -9  -7  -3   12.74    3.94
   9   7  -3   10.46    3.95
  -9   7   3   15.80   10.75
  -9  -9   0  631.45  117.10
   9   9   0  628.38  111.54
  -9  -9   0  635.15  112.63
  -9  -9   1   13.94    5.42
   9   9   1   19.84    6.17
  -9  -9   1   12.54   10.12
  -9  -9  -1    8.40    5.69
   9   9  -1    7.52    3.52
  -9   9   1    1.98    4.47
  -9   9  -2  251.97   36.34
   9   9   2  354.77   47.77
  -9  -9   2  228.65   28.44
  -9  -9  -2  405.71   66.28
   9   9  -2  335.63   56.59
  -9   9   2  339.02  108.59
  -9 -11   0  431.96   75.46
   9  11   0  479.50   81.45
  -9 -11   0  454.39   78.81
  -9 -11   1   25.52    6.74
   9  11   1   30.75    7.30
  -9 -11   1   26.03    8.19
  -9 -11  -1   29.85    8.45
   9  11  -1   30.18   13.21
  -9  11   1   18.11    8.32
 -10   0   0 1458.35  288.78
 -10   0   0 1275.12  255.44
 -10   0  -1    1.61    5.01
 -10   0  -1   11.41    4.27
  10   0  -1    4.98    3.55
 -10   0   2  652.20  119.25
 -10   0  -2  838.51  160.34
  10   0  -2  617.13  124.20
 -10   2   0 1248.98  235.97
 -10  -2   0 1165.89  274.59
 -10  -2   0  991.00  182.34
  10   2   0 1050.78  191.14
 -10   2  -1    0.82    1.05
 -10  -2  -1    8.68    5.58
 -10  -2   2  536.86   93.29
 -10   2  -2  645.68  123.88
 -10   2   2  583.55  106.09
 -10  -2  -2  873.46  161.53
  10   2  -2  522.90  108.10
 -10   2   2  556.06  170.42
  10   2   3    2.94    4.18
 -10  -2   3    2.79    1.67
  10  -2  -3    6.78    2.55
  10  -2   3    2.90    3.45
 -10  -4   0 1138.31  220.57
 -10   4   0 1272.71  311.64
 -10  -4   0 1086.18  208.44
  10   4   0 1086.82  267.83
 -10  -4   1    5.12    2.43
 -10   4  -1    2.69    3.22
 -10   4  -1    3.28    2.50
 -10  -4  -1    2.19    2.64
 -10  -4  -1    4.22    2.67
  10   4  -1    3.20    2.61
 -10   4   1    3.16    3.39
  10   4   2  756.34  138.38
 -10  -4   2  504.42   79.80
 -10   4  -2  600.48  111.49
  10  -4   2  623.84  130.58
 -10   4   2  507.75   87.32
 -10  -4  -2  776.52  138.33
  10   4  -2  523.47  100.98
 -10   4   2  492.51  159.45
  10   4   3   12.20    7.58
 -10   4   3    1.09    1.02
 -10  -4  -3    2.97    1.58
  10   4  -3    3.26    1.98
 -10  -6   0  923.40  170.41
 -10  -6   0  912.54  224.32
  10   6   0  895.30  166.23
 -10  -6   1   14.92    5.56
 -10  -6   1    8.25    5.13
 -10   6  -1    1.42    5.09
 -10   6   1    6.97    3.26
 -10  -6  -1    8.19    3.73
 -10  -6  -1    8.61    4.57
  10   6  -1    9.11    4.91
 -10   6   1    6.87    5.76
  10   6   2  663.14   97.24
 -10  -6   2  362.02   49.28
 -10   6  -2  398.11   67.47
 -10  -6  -2  588.60  106.94
  10   6  -2  511.77   94.48
 -10   6   2  433.32  143.84
 -10   6  -3    1.42    0.97
 -10  -6  -3    5.31    2.05
  10   6  -3    5.25    2.23
 -10  -8   0  615.46  145.32
  10   8   0  647.49  108.01
 -10  -8   0  565.82   94.08
 -10  -8   1   11.41    4.25
  10   8   1    6.10    2.38
 -10  -8   1    5.49    2.82
 -10  -8  -1    2.91    3.32
  10   8  -1    5.17    3.05
 -10   8   1    8.32    3.86
 -10   8  -2  263.41   37.13
 -10  -8   2  312.07   35.71
 -10  -8  -2  416.31   66.64
  10   8  -2  345.90   56.76
 -10   8   2  348.37  102.14
 -10 -10   0  404.25   95.03
  10  10   0  451.62   76.49
 -10 -10   0  367.26   57.41
 -10 -10   1   15.04    5.70
  10  10   1   12.81    3.64
 -10 -10   1   14.09    3.85
 -10 -10  -1   18.97    5.64
  10  10  -1    7.49    8.40
 -11  -1   0  121.93   43.56
 -11   1   0  112.62   44.30
 -11  -1   0   99.29   23.95
 -11  -1   1  377.29   66.10
 -11   1  -1  466.04   88.69
 -11   1  -1  410.39   72.86
  11  -1  -1  320.81   59.60
 -11   1   1  365.58   66.38
 -11  -1  -1  445.26   84.16
 -11  -1  -1  411.77  107.41
  11   1  -1  352.09   63.28
  11   1   2   91.27   22.97
 -11  -1   2   49.74   12.45
 -11   1  -2   64.23   17.74
  11  -1  -2   47.06   14.16
  11  -1   2   82.92   22.59
 -11   1   2   47.85   12.79
 -11  -1  -2   69.66   17.71
  11   1  -2   41.25   14.07
  11   1   3  275.25   49.85
 -11   1  -3  183.85   33.00
  11  -1  -3  126.89   26.55
  11  -1   3  266.88   49.44
 -11  -1  -3  182.63   31.83
  11   1  -3  125.84   25.45
 -11  -3   0   80.65   20.27
 -11   3   0   81.79   22.06
 -11  -3   0   63.18   16.39
  11   3   0   74.42   16.19
 -11  -3   1  330.89   53.64
 -11   3  -1  382.71   70.73
 -11   3  -1  323.48   58.51
  11  -3  -1  253.77   47.12
 -11   3   1  304.43   54.70
 -11  -3  -1  371.79   67.92
 -11  -3  -1  382.37   69.26
  11   3  -1  305.89   57.72
  11   3   2   72.35   17.24
 -11  -3   2   37.31    8.96
 -11   3  -2   58.01   13.52
  11  -3  -2   37.06   11.18
  11  -3   2   53.61   16.69
 -11   3   2   42.62    9.74
 -11  -3  -2   50.88   21.11
  11   3  -2   32.74   11.23
 -11  -5   0  103.53   23.13
 -11   5   0   97.46   22.83
 -11  -5   0   96.82   21.31
  11   5   0   97.68   19.38
 -11  -5   1  366.24   68.16
 -11   5  -1  236.62   44.76
 -11   5  -1  266.38   56.84
 -11   5   1  289.61   70.74
 -11  -5  -1  367.10   60.48
 -11  -5  -1  375.90   68.38
  11   5  -1  368.14   65.16
  11   5   2   70.15   14.83
 -11  -5   2   31.27   10.15
 -11   5  -2   44.92   10.32
 -11  -5  -2   66.92   17.07
  11   5  -2   58.79   14.66
 -11  -7   0   64.15   15.63
  11   7   0   63.94   13.45
  11   7   1  199.51   40.03
 -11  -7   1  216.84   29.49
 -11  -7  -1  281.32   49.68
  11   7  -1  258.71   44.26
 -11  -7  -2   47.38   10.68
  11   7  -2   40.71    9.09
 -11  -9   0   47.66   10.78
  11   9   0   49.84    9.50
 -12   0   0    0.24    0.49
 -12   0   1  686.74  138.48
 -12   0  -1  733.76  120.90
 -12   0  -1  695.74  104.63
  12   0  -1  589.62   88.73
  12   0   2   10.33    3.94
 -12   0   2    5.06    2.05
 -12   0  -2    6.89    2.77
  12   0  -2    4.40    2.20
 -12   2   0    6.17    4.70
 -12  -2   0   15.47    4.79
 -12  -2   0    7.64    4.95
 -12  -2   1  680.04  148.05
 -12   2  -1  621.10  112.91
 -12   2  -1  685.99  108.40
 -12   2   1  560.48  114.86
 -12  -2  -1  614.87   99.32
 -12  -2  -1  635.36  127.00
  12   2  -1  514.46   99.83
  12   2   2    2.02    2.02
 -12  -2   2    0.18    0.98
 -12   2  -2    6.22    1.37
  12  -2  -2    2.15    1.10
 -12   2   2    3.58    1.41
  12   2  -2    3.16    2.36
 -12   4   0    4.69    2.58
 -12  -4   1  605.69   78.78
 -12   4  -1  426.02   57.70
 -12   4   1  560.74   87.67
 -12  -4  -1  701.80  110.16
  12   4  -1  577.55   86.61
 -12  -6   0    2.47    0.98
 -12  -6   0    2.34    1.28
 -12  -6  -1  565.56   84.65
  12   6  -1  470.77   64.26
 -13  -1   0   85.18   16.78
 -13   1   0   78.11   16.20
 -13  -1   1  171.89   27.58
 -13   1   1  179.45   29.67
 -13  -3   0   72.05   11.60
 -13   3   0   50.36   10.41
   0   0   0    0.00    0.00


_computing_structure_solution     'SHELXT 2014/5 (Sheldrick, 2014)'
_computing_structure_solution     'SHELXT 2014/5 (Sheldrick, 2014)'
;
_shelx_hkl_checksum              38408
loop_
_space_group_symop_operation_xyz
'x, y, z'
'-x, -y, z'
'x, -y, -z'
'-x, y, -z'
'x+1/2, y+1/2, z'
'-x+1/2, -y+1/2, z'
'x+1/2, -y+1/2, -z'
'-x+1/2, y+1/2, -z'
'-x, -y, -z'
'x, y, -z'
'-x, y, z'
'x, -y, z'
'-x+1/2, -y+1/2, -z'
'x+1/2, y+1/2, -z'
'-x+1/2, y+1/2, z'
'x+1/2, -y+1/2, z'
loop_
_atom_site_label
_atom_site_type_symbol
_atom_site_fract_x
_atom_site_fract_y
_atom_site_fract_z
_atom_site_U_iso_or_equiv
_atom_site_adp_type
_atom_site_occupancy
_atom_site_site_symmetry_order
_atom_site_calc_flag
_atom_site_refinement_flags_posn
_atom_site_refinement_flags_adp
_atom_site_refinement_flags_occupancy
Pb1 Pb 0.5000 0.5000 0.5000 0.0377(5) Uani 1 8 d S T P
I1 I 0.29031(9) 0.5000 0.0000 0.0501(6) Uani 1 4 d S T P
S1 S 0.5729(9) 0.7577(7) 0.655(2) 0.061(2) Uani 0.25 1 d . . P
O1 O 0.5000 0.6799(8) 0.5000 0.092(6) Uani 1 4 d S T P
C1 C 0.5000 0.8659(13) 0.5000 0.104(9) Uani 1 4 d S T P
C2 C 0.711(2) 0.748(3) 0.5000 0.102(12) Uani 0.5 2 d S T P
loop_
_atom_site_aniso_label
_atom_site_aniso_U_11
_atom_site_aniso_U_22
_atom_site_aniso_U_33
_atom_site_aniso_U_23
_atom_site_aniso_U_13
_atom_site_aniso_U_12
Pb1 0.0290(7) 0.0256(6) 0.0586(8) 0.000 0.000 0.000
I1 0.0316(8) 0.0623(9) 0.0562(9) 0.000 0.000 0.000
S1 0.054(5) 0.046(5) 0.083(6) 0.005(5) 0.002(5) -0.005(4)
O1 0.043(8) 0.034(6) 0.197(18) 0.000 0.000 0.000
C1 0.096(17) 0.024(9) 0.19(3) 0.000 0.000 0.000
C2 0.018(13) 0.080(18) 0.21(4) 0.000 0.000 0.010(15)
loop_
_atom_type_symbol
_atom_type_description
_atom_type_scat_dispersion_real
_atom_type_scat_dispersion_imag
_atom_type_scat_source
Pb Pb -4.0753 8.5060 'International Tables Vol C Tables 4.2.6.8 and 6.1.1.4'
I I -0.3257 6.8362 'International Tables Vol C Tables 4.2.6.8 and 6.1.1.4'
O O 0.0492 0.0322 'International Tables Vol C Tables 4.2.6.8 and 6.1.1.4'
S S 0.3331 0.5567 'International Tables Vol C Tables 4.2.6.8 and 6.1.1.4'
C C 0.0181 0.0091 'International Tables Vol C Tables 4.2.6.8 and 6.1.1.4'
loop_
_geom_angle_atom_site_label_1
_geom_angle_atom_site_label_2
_geom_angle_atom_site_label_3
_geom_angle
_geom_angle_site_symmetry_1
_geom_angle_site_symmetry_3
O1 Pb1 O1 180.0 9_666 .
O1 Pb1 I1 90.0 9_666 9_666
O1 Pb1 I1 90.0 . 9_666
O1 Pb1 I1 90.0 9_666 1_556
O1 Pb1 I1 90.000(1) . 1_556
I1 Pb1 I1 91.61(3) 9_666 1_556
O1 Pb1 I1 90.0 9_666 9_665
O1 Pb1 I1 90.000(1) . 9_665
I1 Pb1 I1 88.39(3) 9_666 9_665
I1 Pb1 I1 180.0 1_556 9_665
O1 Pb1 I1 90.0 9_666 .
O1 Pb1 I1 90.0 . .
I1 Pb1 I1 180.0 9_666 .
I1 Pb1 I1 88.39(3) 1_556 .
I1 Pb1 I1 91.61(3) 9_665 .
Pb1 I1 Pb1 88.39(3) . 1_554
S1 S1 O1 62.6(4) 10_556 .
S1 S1 S1 89.999(2) 10_556 11_655
O1 S1 S1 57.8(4) . 11_655
S1 S1 C2 65.5(6) 10_556 .
O1 S1 C2 103.6(11) . .
S1 S1 C2 155.0(6) 11_655 .
S1 S1 C1 67.7(4) 10_556 .
O1 S1 C1 99.7(8) . .
S1 S1 C1 63.9(4) 11_655 .
C2 S1 C1 107.8(11) . .
S1 S1 S1 49.1(5) 10_556 4_656
O1 S1 S1 45.2(5) . 4_656
S1 S1 S1 40.9(5) 11_655 4_656
C2 S1 S1 114.5(9) . 4_656
C1 S1 S1 54.5(5) . 4_656
S1 O1 S1 89.5(11) 10_556 11_655
S1 O1 S1 64.3(9) 10_556 4_656
S1 O1 S1 54.9(8) 11_655 4_656
S1 O1 S1 54.9(8) 10_556 .
S1 O1 S1 64.3(9) 11_655 .
S1 O1 S1 89.5(11) 4_656 .
S1 O1 Pb1 135.2(5) 10_556 .
S1 O1 Pb1 135.2(5) 11_655 .
S1 O1 Pb1 135.2(5) 4_656 .
S1 O1 Pb1 135.2(5) . .
S1 C1 S1 71.0(9) . 4_656
S1 C1 S1 52.1(7) . 11_655
S1 C1 S1 44.7(7) 4_656 11_655
S1 C1 S1 44.7(7) . 10_556
S1 C1 S1 52.1(7) 4_656 10_556
S1 C1 S1 71.0(9) 11_655 10_556
C2 C2 S1 154.2(19) 13_666 .
C2 C2 S1 154.2(19) 13_666 10_556
S1 C2 S1 49.0(11) . 10_556
loop_
_geom_bond_atom_site_label_1
_geom_bond_atom_site_label_2
_geom_bond_distance
_geom_bond_site_symmetry_2
Pb1 O1 2.491(12) 9_666
Pb1 O1 2.491(12) .
Pb1 I1 3.2397(8) 9_666
Pb1 I1 3.2397(8) 1_556
Pb1 I1 3.2397(8) 9_665
Pb1 I1 3.2398(8) .
I1 Pb1 3.2398(8) 1_554
S1 S1 1.40(2) 10_556
S1 O1 1.518(13) .
S1 S1 1.62(2) 11_655
S1 C2 1.69(3) .
S1 C1 1.839(18) .
S1 S1 2.14(2) 4_656
O1 S1 1.517(13) 10_556
O1 S1 1.517(13) 11_655
O1 S1 1.517(13) 4_656
C1 S1 1.839(18) 4_656
C1 S1 1.839(18) 11_655
C1 S1 1.839(18) 10_556
C2 C2 0.87(5) 13_666
C2 S1 1.69(3) 10_556
loop_
_geom_torsion_atom_site_label_1
_geom_torsion_atom_site_label_2
_geom_torsion_atom_site_label_3
_geom_torsion_atom_site_label_4
_geom_torsion
_geom_torsion_site_symmetry_1
_geom_torsion_site_symmetry_4
S1 S1 O1 S1 109.1(5) 11_655 10_556
C2 S1 O1 S1 -52.7(10) . 10_556
C1 S1 O1 S1 58.4(5) . 10_556
S1 S1 O1 S1 58.4(5) 4_656 10_556
S1 S1 O1 S1 -109.1(5) 10_556 11_655
C2 S1 O1 S1 -161.7(9) . 11_655
C1 S1 O1 S1 -50.6(6) . 11_655
S1 S1 O1 S1 -50.6(6) 4_656 11_655
S1 S1 O1 S1 -58.4(5) 10_556 4_656
S1 S1 O1 S1 50.6(6) 11_655 4_656
C2 S1 O1 S1 -111.1(11) . 4_656
C1 S1 O1 S1 0.001(2) . 4_656
S1 S1 O1 Pb1 121.6(5) 10_556 .
S1 S1 O1 Pb1 -129.4(6) 11_655 .
C2 S1 O1 Pb1 68.9(11) . .
C1 S1 O1 Pb1 180.000(3) . .
S1 S1 O1 Pb1 179.999(3) 4_656 .
S1 S1 C1 S1 54.8(5) 10_556 4_656
O1 S1 C1 S1 -0.001(2) . 4_656
S1 S1 C1 S1 -46.7(6) 11_655 4_656
C2 S1 C1 S1 107.8(12) . 4_656
S1 S1 C1 S1 101.6(3) 10_556 11_655
O1 S1 C1 S1 46.7(6) . 11_655
C2 S1 C1 S1 154.6(9) . 11_655
S1 S1 C1 S1 46.7(5) 4_656 11_655
O1 S1 C1 S1 -54.8(5) . 10_556
S1 S1 C1 S1 -101.6(3) 11_655 10_556
C2 S1 C1 S1 53.0(11) . 10_556
S1 S1 C1 S1 -54.8(5) 4_656 10_556
S1 S1 C2 C2 160(13) 10_556 13_666
O1 S1 C2 C2 -149(12) . 13_666
S1 S1 C2 C2 172(10) 11_655 13_666
C1 S1 C2 C2 106(12) . 13_666
S1 S1 C2 C2 165(12) 4_656 13_666
O1 S1 C2 S1 50.8(10) . 10_556
S1 S1 C2 S1 12(3) 11_655 10_556
C1 S1 C2 S1 -54.2(10) . 10_556
S1 S1 C2 S1 4.1(11) 4_656 10_556
