#------------------------------------------------------------------------------
#$Date: 2019-11-25 07:56:40 +0200 (Mon, 25 Nov 2019) $
#$Revision: 240423 $
#$URL: file:///home/coder/svn-repositories/cod/cif/4/12/97/4129766.cif $
#------------------------------------------------------------------------------
#
# This file is available in the Crystallography Open Database (COD),
# http://www.crystallography.net/
#
# All data on this site have been placed in the public domain by the
# contributors.
#
data_4129766
loop_
_publ_author_name
'Wallace, Andrew J.'
'Jayasinghe, Chaminda D.'
'Polson, Matthew I. J.'
'Curnow, Owen J.'
'Crittenden, Deborah L.'
_publ_section_title
;
 Cyclopropenium Cations Break the Rules of Attraction to Form Closely
 Bound Dimers.
;
_journal_issue                   49
_journal_name_full               'Journal of the American Chemical Society'
_journal_page_first              15528
_journal_page_last               15532
_journal_paper_doi               10.1021/jacs.5b10388
_journal_volume                  137
_journal_year                    2015
_chemical_formula_moiety         'Cl, C12 H24 N3'
_chemical_formula_sum            'C12 H24 Cl N3'
_chemical_formula_weight         245.79
_space_group_crystal_system      triclinic
_space_group_IT_number           2
_space_group_name_Hall           '-P 1'
_space_group_name_H-M_alt        'P -1'
_atom_sites_solution_hydrogens   geom
_atom_sites_solution_primary     iterative
_audit_creation_date             2014-04-11
_audit_creation_method
;
Olex2 1.2
(compiled 2014.03.20 svn.r2914 for OlexSys, GUI svn.r4816)
;
_cell_angle_alpha                60.102(4)
_cell_angle_beta                 69.491(4)
_cell_angle_gamma                80.061(3)
_cell_formula_units_Z            2
_cell_length_a                   8.8521(3)
_cell_length_b                   9.8476(3)
_cell_length_c                   9.8497(5)
_cell_measurement_reflns_used    6468
_cell_measurement_temperature    120.02(10)
_cell_measurement_theta_max      74.4190
_cell_measurement_theta_min      5.1680
_cell_volume                     697.17(6)
_computing_cell_refinement
;
CrysAlisPro, Agilent Technologies,
Version 1.171.37.31 (release 14-01-2014 CrysAlis171 .NET)
(compiled Jan 14 2014,18:38:05)
;
_computing_data_collection
;
CrysAlisPro, Agilent Technologies,
Version 1.171.37.31 (release 14-01-2014 CrysAlis171 .NET)
(compiled Jan 14 2014,18:38:05)
;
_computing_data_reduction
;
CrysAlisPro, Agilent Technologies,
Version 1.171.37.31 (release 14-01-2014 CrysAlis171 .NET)
(compiled Jan 14 2014,18:38:05)
;
_computing_molecular_graphics    'Olex2 (Dolomanov et al., 2009)'
_computing_publication_material  'Olex2 (Dolomanov et al., 2009)'
_computing_structure_refinement  'ShelXL (Sheldrick, 2008)'
_computing_structure_solution    'olex2.solve (Bourhis et al., 2013)'
_diffrn_ambient_environment      N~2~
_diffrn_ambient_temperature      120.02(10)
_diffrn_detector                 'CCD plate'
_diffrn_detector_area_resol_mean 5.3250
_diffrn_detector_type            Atlas
_diffrn_measured_fraction_theta_full 0.999
_diffrn_measured_fraction_theta_max 0.972
_diffrn_measurement_device       'four-circle diffractometer'
_diffrn_measurement_device_type  'SuperNova, Dual, Cu at zero, Atlas'
_diffrn_measurement_method       '\w scans'
_diffrn_orient_matrix_UB_11      -0.0039317000
_diffrn_orient_matrix_UB_12      -0.0714606000
_diffrn_orient_matrix_UB_13      -0.1067354000
_diffrn_orient_matrix_UB_21      0.0476441000
_diffrn_orient_matrix_UB_22      0.1598872000
_diffrn_orient_matrix_UB_23      -0.1553343000
_diffrn_orient_matrix_UB_31      0.1795577000
_diffrn_orient_matrix_UB_32      -0.0435256000
_diffrn_orient_matrix_UB_33      -0.0219040000
_diffrn_radiation_monochromator  mirror
_diffrn_radiation_probe          x-ray
_diffrn_radiation_type           CuK\a
_diffrn_radiation_wavelength     1.54184
_diffrn_reflns_av_R_equivalents  0.0320
_diffrn_reflns_av_unetI/netI     0.0226
_diffrn_reflns_Laue_measured_fraction_full 0.999
_diffrn_reflns_Laue_measured_fraction_max 0.972
_diffrn_reflns_limit_h_max       11
_diffrn_reflns_limit_h_min       -10
_diffrn_reflns_limit_k_max       12
_diffrn_reflns_limit_k_min       -12
_diffrn_reflns_limit_l_max       12
_diffrn_reflns_limit_l_min       -11
_diffrn_reflns_number            11244
_diffrn_reflns_point_group_measured_fraction_full 0.999
_diffrn_reflns_point_group_measured_fraction_max 0.972
_diffrn_reflns_theta_full        67.684
_diffrn_reflns_theta_max         74.745
_diffrn_reflns_theta_min         5.181
_diffrn_source                   'sealed X-ray tube'
_diffrn_source_type              'SuperNova (Cu) X-ray Source'
_exptl_absorpt_coefficient_mu    2.253
_exptl_absorpt_correction_T_max  0.962
_exptl_absorpt_correction_T_min  0.934
_exptl_absorpt_correction_type   gaussian
_exptl_absorpt_process_details
;
CrysAlisPro, Agilent Technologies,
Version 1.171.37.31 (release 14-01-2014 CrysAlis171 .NET)
(compiled Jan 14 2014,18:38:05)
Numerical absorption correction based on gaussian integration over
			a multifaceted crystal model
Empirical absorption correction using spherical harmonics,
 implemented in SCALE3 ABSPACK scaling algorithm.
;
_exptl_crystal_density_diffrn    1.171
_exptl_crystal_description
;
;
_exptl_crystal_F_000             268
_exptl_crystal_size_max          0.171
_exptl_crystal_size_mid          0.1219
_exptl_crystal_size_min          0.0858
_refine_diff_density_max         0.379
_refine_diff_density_min         -0.189
_refine_diff_density_rms         0.041
_refine_ls_extinction_method     none
_refine_ls_goodness_of_fit_ref   1.050
_refine_ls_hydrogen_treatment    constr
_refine_ls_matrix_type           full
_refine_ls_number_parameters     151
_refine_ls_number_reflns         2783
_refine_ls_number_restraints     0
_refine_ls_restrained_S_all      1.050
_refine_ls_R_factor_all          0.0337
_refine_ls_R_factor_gt           0.0297
_refine_ls_shift/su_max          0.001
_refine_ls_shift/su_mean         0.000
_refine_ls_structure_factor_coef Fsqd
_refine_ls_weighting_details
;
 w=1/[\s^2^(Fo^2^)+(0.0453P)^2^+0.1441P]
 where P=(Fo^2^+2Fc^2^)/3
;
_refine_ls_weighting_scheme      calc
_refine_ls_wR_factor_gt          0.0784
_refine_ls_wR_factor_ref         0.0810
_reflns_Friedel_coverage         0.000
_reflns_number_gt                2532
_reflns_number_total             2783
_reflns_threshold_expression     'I > 2\s(I)'
_cod_data_source_file            ja5b10388_si_002.cif
_cod_data_source_block           cham1ma
_cod_original_cell_volume        697.16(6)
_cod_database_code               4129766
_shelxl_version_number           2013-2
_chemical_oxdiff_formula         C12H24N3Cl1
_shelx_space_group_comment
;
The symmetry employed for this shelxl refinement is uniquely defined
by the following loop, which should always be used as a source of
symmetry information in preference to the above space-group names.
They are only intended as comments.
;
_reflns_odcompleteness_completeness 99.96
_reflns_odcompleteness_iscentric 1
_reflns_odcompleteness_theta     66.97
_olex2_refinement_description
;
1. Fixed Uiso
 At 1.2 times of:
  All C(H,H) groups
 At 1.5 times of:
  All C(H,H,H) groups
2.a Secondary CH2 refined with riding coordinates:
 C22(H22A,H22B), C32(H32A,H32B), C12(H12A,H12B)
2.b Idealised Me refined as rotating group:
 C11(H11A,H11B,H11C), C31(H31A,H31B,H31C), C21(H21A,H21B,H21C), C23(H23A,H23B,
 H23C), C13(H13A,H13B,H13C), C33(H33A,H33B,H33C)
;
_shelx_res_file
;
TITL
CELL 1.54184 8.852087 9.847588 9.849735 60.1016 69.4907 80.0609
ZERR 2 0.000329 0.000332 0.000489 0.0043 0.0041 0.0031
LATT 1
 
SFAC C H Cl N
UNIT 24 48 2 6
 
L.S. 4 0 0
PLAN  40
fmap 2 53
acta
MORE -1
BOND $H
CONF
REM <HKL>E:/research/Owen/CHAM1/struct/olex2_CHAM1ma/CHAM1ma.hkl</HKL>
 
WGHT    0.045300    0.144100
FVAR      12.03722
CL1   3    0.447892    0.831459    0.348833    11.00000    0.03412    0.02242 =
         0.02358   -0.01107   -0.01174    0.00179
N1    4    0.304362    0.751573    0.955703    11.00000    0.02947    0.01566 =
         0.01884   -0.00702   -0.01004    0.00172
N2    4    0.320176    0.361202    1.302887    11.00000    0.02830    0.01794 =
         0.01653   -0.00741   -0.00862    0.00232
N3    4    0.311224    0.397885    0.914730    11.00000    0.02797    0.01891 =
         0.01891   -0.00990   -0.00783   -0.00035
C2    1    0.308531    0.450246    1.151867    11.00000    0.01822    0.01739 =
         0.01976   -0.00926   -0.00511    0.00050
C1    1    0.302901    0.596801    1.020633    11.00000    0.01847    0.02093 =
         0.01646   -0.00934   -0.00500    0.00074
C3    1    0.305224    0.463592    1.006318    11.00000    0.01782    0.01742 =
         0.01778   -0.00708   -0.00502    0.00069
C11   1    0.260330    0.852455    0.804702    11.00000    0.03080    0.01927 =
         0.02112   -0.00575   -0.01182    0.00213
AFIX 137
H11A  2    0.295683    0.805135    0.733932    11.00000   -1.50000
H11B  2    0.311113    0.952923    0.749037    11.00000   -1.50000
H11C  2    0.145368    0.865346    0.832285    11.00000   -1.50000
AFIX   0
C22   1    0.324965    0.189621    1.371597    11.00000    0.02656    0.01629 =
         0.01940   -0.00622   -0.00942    0.00294
AFIX  23
H22A  2    0.379042    0.144876    1.455056    11.00000   -1.20000
H22B  2    0.388031    0.163880    1.284714    11.00000   -1.20000
AFIX   0
C32   1    0.303903    0.498331    0.745695    11.00000    0.02937    0.02566 =
         0.01901   -0.01258   -0.00922    0.00199
AFIX  23
H32A  2    0.355720    0.444671    0.681137    11.00000   -1.20000
H32B  2    0.364058    0.593827    0.696623    11.00000   -1.20000
AFIX   0
C31   1    0.270843    0.231968    0.993245    11.00000    0.03354    0.02106 =
         0.02779   -0.01356   -0.00707   -0.00224
AFIX 137
H31A  2    0.310508    0.173828    1.086129    11.00000   -1.50000
H31B  2    0.319669    0.193176    0.915516    11.00000   -1.50000
H31C  2    0.155875    0.220109    1.029572    11.00000   -1.50000
AFIX   0
C21   1    0.274986    0.424352    1.418679    11.00000    0.03506    0.02464 =
         0.02016   -0.01207   -0.00991    0.00283
AFIX 137
H21A  2    0.312002    0.530659    1.361358    11.00000   -1.50000
H21B  2    0.323572    0.362381    1.504484    11.00000   -1.50000
H21C  2    0.159793    0.421372    1.466022    11.00000   -1.50000
AFIX   0
C23   1    0.159727    0.115921    1.447082    11.00000    0.02912    0.02443 =
         0.02577   -0.00839   -0.00656   -0.00082
AFIX 137
H23A  2    0.103842    0.162200    1.366329    11.00000   -1.50000
H23B  2    0.099567    0.133400    1.539178    11.00000   -1.50000
H23C  2    0.170845    0.005363    1.483674    11.00000   -1.50000
AFIX   0
C12   1    0.308630    0.822116    1.055297    11.00000    0.02939    0.01736 =
         0.02269   -0.01003   -0.00850   -0.00011
AFIX  23
H12A  2    0.360087    0.924052    0.982329    11.00000   -1.20000
H12B  2    0.374261    0.757060    1.125800    11.00000   -1.20000
AFIX   0
C13   1    0.143551    0.841494    1.161592    11.00000    0.03301    0.03113 =
         0.03119   -0.01891   -0.00971    0.00437
AFIX 137
H13A  2    0.080290    0.912058    1.092429    11.00000   -1.50000
H13B  2    0.155307    0.883169    1.227113    11.00000   -1.50000
H13C  2    0.090533    0.741524    1.232536    11.00000   -1.50000
AFIX   0
C33   1    0.133510    0.540856    0.737003    11.00000    0.03493    0.03714 =
         0.03544   -0.01932   -0.01797    0.00505
AFIX 137
H33A  2    0.136792    0.610275    0.624742    11.00000   -1.50000
H33B  2    0.080392    0.591781    0.802795    11.00000   -1.50000
H33C  2    0.075355    0.447464    0.777963    11.00000   -1.50000
AFIX   0
HKLF 4
 
REM
REM R1 =  0.0297 for    2532 Fo > 4sig(Fo)  and  0.0337 for all    2783 data
REM    151 parameters refined using      0 restraints
 
END  
     
WGHT      0.0453      0.1441 

REM Highest difference peak  0.379,  deepest hole -0.189,  1-sigma level  0.041
Q1    1   0.5630  0.8573  0.2955  11.00000  0.05    0.38
Q2    1   0.3299  0.8055  0.4028  11.00000  0.05    0.26
Q3    1   0.3112  0.4123  1.0918  11.00000  0.05    0.26
Q4    1   0.3046  0.5639  0.9681  11.00000  0.05    0.23
Q5    1   0.2975  0.5396  1.1137  11.00000  0.05    0.21
Q6    1   0.3014  0.4447  0.8403  11.00000  0.05    0.21
Q7    1   0.3197  0.2805  1.3383  11.00000  0.05    0.20
Q8    1   0.2476  0.1639  1.4076  11.00000  0.05    0.20
Q9    1   0.2192  0.8318  1.0924  11.00000  0.05    0.19
Q10   1   0.2946  0.7851  0.9937  11.00000  0.05    0.19
Q11   1   0.2836  0.7984  0.8821  11.00000  0.05    0.19
Q12   1   0.3060  0.3975  1.2357  11.00000  0.05    0.18
Q13   1   0.2961  0.3841  1.3561  11.00000  0.05    0.16
Q14   1   0.4001  0.4236  0.8811  11.00000  0.05    0.16
Q15   1   0.2981  0.4327  0.9558  11.00000  0.05    0.16
Q16   1   0.4511  0.8167  0.4557  11.00000  0.05    0.15
Q17   1   0.4680  0.8440  0.2444  11.00000  0.05    0.15
Q18   1   0.0595  0.5575  0.8174  11.00000  0.05    0.14
Q19   1   0.4190  0.3826  1.2593  11.00000  0.05    0.14
Q20   1   0.3065  0.6883  0.9866  11.00000  0.05    0.14
Q21   1   0.2060  0.5188  0.7665  11.00000  0.05    0.13
Q22   1   0.3496  0.5081  1.4099  11.00000  0.05    0.13
Q23   1   0.3221  1.1252  0.7282  11.00000  0.05    0.13
Q24   1   0.3002  0.2033  0.7654  11.00000  0.05    0.13
Q25   1   0.0522  0.7651  1.2255  11.00000  0.05    0.12
Q26   1   0.1387  0.2257  0.9860  11.00000  0.05    0.12
Q27   1   0.4613  0.5047  0.9871  11.00000  0.05    0.12
Q28   1   0.3221  0.8842  0.3069  11.00000  0.05    0.12
Q29   1   0.0350  0.4748  0.8004  11.00000  0.05    0.11
Q30   1   0.3620  0.7285  0.9413  11.00000  0.05    0.11
Q31   1   0.3429  1.0749  0.8313  11.00000  0.05    0.11
Q32   1   0.2578  0.1599  1.1020  11.00000  0.05    0.11
Q33   1   0.4133  0.5612  0.6775  11.00000  0.05    0.11
Q34   1   0.3044  0.3366  0.9390  11.00000  0.05    0.11
Q35   1   0.3454  0.9137  0.7372  11.00000  0.05    0.11
Q36   1   0.5613  0.8763  0.3785  11.00000  0.05    0.11
Q37   1   0.0569  0.4176  1.3707  11.00000  0.05    0.10
Q38   1   0.1377  0.2050  1.0936  11.00000  0.05    0.10
Q39   1   0.3408  0.1174  1.0574  11.00000  0.05    0.10
Q40   1   0.4296  0.4814  0.6488  11.00000  0.05    0.10

REM The information below was added by Olex2.
REM
REM R1 = 0.0297 for 2532 Fo > 4sig(Fo) and 0.0337 for all 11244 data
REM n/a parameters refined using n/a restraints
REM Highest difference peak 0.38, deepest hole -0.19
REM Mean Shift 0, Max Shift 0.001.

REM +++ Tabular Listing of Refinement Information +++
REM R1_all = 0.0337
REM R1_gt = 0.0297
REM wR_ref = 0.0810
REM GOOF = 1.050
REM Shift_max = 0.001
REM Shift_mean = 0
REM Reflections_all = 11244
REM Reflections_gt = 2532
REM Parameters = n/a
REM Hole = -0.19
REM Peak = 0.38
REM Flack = n/a

;
_olex2_computing_structure_refinement_long 'ShelXL (Sheldrick, 2008)'
loop_
_space_group_symop_operation_xyz
'x, y, z'
'-x, -y, -z'
loop_
_atom_site_label
_atom_site_type_symbol
_atom_site_fract_x
_atom_site_fract_y
_atom_site_fract_z
_atom_site_U_iso_or_equiv
_atom_site_adp_type
_atom_site_occupancy
_atom_site_site_symmetry_order
_atom_site_calc_flag
_atom_site_refinement_flags_posn
Cl1 Cl 0.44789(4) 0.83146(3) 0.34883(3) 0.02603(11) Uani 1 1 d .
N1 N 0.30436(13) 0.75157(11) 0.95570(12) 0.0213(2) Uani 1 1 d .
N2 N 0.32018(13) 0.36120(11) 1.30289(12) 0.0211(2) Uani 1 1 d .
N3 N 0.31122(13) 0.39789(11) 0.91473(12) 0.0213(2) Uani 1 1 d .
C2 C 0.30853(14) 0.45025(13) 1.15187(14) 0.0185(2) Uani 1 1 d .
C1 C 0.30290(14) 0.59680(14) 1.02063(14) 0.0186(2) Uani 1 1 d .
C3 C 0.30522(14) 0.46359(13) 1.00632(14) 0.0185(2) Uani 1 1 d .
C11 C 0.26033(17) 0.85245(14) 0.80470(15) 0.0247(3) Uani 1 1 d .
H11A H 0.2957 0.8051 0.7339 0.037 Uiso 1 1 calc GR
H11B H 0.3111 0.9529 0.7490 0.037 Uiso 1 1 calc GR
H11C H 0.1454 0.8653 0.8323 0.037 Uiso 1 1 calc GR
C22 C 0.32496(15) 0.18962(13) 1.37160(14) 0.0215(3) Uani 1 1 d .
H22A H 0.3790 0.1449 1.4551 0.026 Uiso 1 1 calc R
H22B H 0.3880 0.1639 1.2847 0.026 Uiso 1 1 calc R
C32 C 0.30390(16) 0.49833(15) 0.74569(14) 0.0235(3) Uani 1 1 d .
H32A H 0.3557 0.4447 0.6811 0.028 Uiso 1 1 calc R
H32B H 0.3641 0.5938 0.6966 0.028 Uiso 1 1 calc R
C31 C 0.27084(17) 0.23197(14) 0.99325(16) 0.0270(3) Uani 1 1 d .
H31A H 0.3105 0.1738 1.0861 0.040 Uiso 1 1 calc GR
H31B H 0.3197 0.1932 0.9155 0.040 Uiso 1 1 calc GR
H31C H 0.1559 0.2201 1.0296 0.040 Uiso 1 1 calc GR
C21 C 0.27499(17) 0.42435(15) 1.41868(15) 0.0259(3) Uani 1 1 d .
H21A H 0.3120 0.5307 1.3614 0.039 Uiso 1 1 calc GR
H21B H 0.3236 0.3624 1.5045 0.039 Uiso 1 1 calc GR
H21C H 0.1598 0.4214 1.4660 0.039 Uiso 1 1 calc GR
C23 C 0.15973(17) 0.11592(15) 1.44708(16) 0.0285(3) Uani 1 1 d .
H23A H 0.1038 0.1622 1.3663 0.043 Uiso 1 1 calc GR
H23B H 0.0996 0.1334 1.5392 0.043 Uiso 1 1 calc GR
H23C H 0.1708 0.0054 1.4837 0.043 Uiso 1 1 calc GR
C12 C 0.30863(16) 0.82212(14) 1.05530(15) 0.0227(3) Uani 1 1 d .
H12A H 0.3601 0.9241 0.9823 0.027 Uiso 1 1 calc R
H12B H 0.3743 0.7571 1.1258 0.027 Uiso 1 1 calc R
C13 C 0.14355(18) 0.84149(16) 1.16159(17) 0.0305(3) Uani 1 1 d .
H13A H 0.0803 0.9121 1.0924 0.046 Uiso 1 1 calc GR
H13B H 0.1553 0.8832 1.2271 0.046 Uiso 1 1 calc GR
H13C H 0.0905 0.7415 1.2325 0.046 Uiso 1 1 calc GR
C33 C 0.13351(18) 0.54086(17) 0.73700(18) 0.0334(3) Uani 1 1 d .
H33A H 0.1368 0.6103 0.6247 0.050 Uiso 1 1 calc GR
H33B H 0.0804 0.5918 0.8028 0.050 Uiso 1 1 calc GR
H33C H 0.0754 0.4475 0.7780 0.050 Uiso 1 1 calc GR
loop_
_atom_site_aniso_label
_atom_site_aniso_U_11
_atom_site_aniso_U_22
_atom_site_aniso_U_33
_atom_site_aniso_U_23
_atom_site_aniso_U_13
_atom_site_aniso_U_12
Cl1 0.03412(19) 0.02242(16) 0.02358(16) -0.01107(12) -0.01174(12) 0.00179(12)
N1 0.0295(6) 0.0157(5) 0.0188(5) -0.0070(4) -0.0100(4) 0.0017(4)
N2 0.0283(6) 0.0179(5) 0.0165(4) -0.0074(4) -0.0086(4) 0.0023(4)
N3 0.0280(6) 0.0189(5) 0.0189(5) -0.0099(4) -0.0078(4) -0.0003(4)
C2 0.0182(6) 0.0174(5) 0.0198(5) -0.0093(4) -0.0051(4) 0.0005(4)
C1 0.0185(6) 0.0209(6) 0.0165(5) -0.0093(4) -0.0050(4) 0.0007(4)
C3 0.0178(6) 0.0174(5) 0.0178(5) -0.0071(4) -0.0050(4) 0.0007(4)
C11 0.0308(7) 0.0193(6) 0.0211(6) -0.0058(5) -0.0118(5) 0.0021(5)
C22 0.0266(7) 0.0163(5) 0.0194(5) -0.0062(4) -0.0094(5) 0.0029(4)
C32 0.0294(7) 0.0257(6) 0.0190(6) -0.0126(5) -0.0092(5) 0.0020(5)
C31 0.0335(7) 0.0211(6) 0.0278(6) -0.0136(5) -0.0071(5) -0.0022(5)
C21 0.0351(7) 0.0246(6) 0.0202(6) -0.0121(5) -0.0099(5) 0.0028(5)
C23 0.0291(7) 0.0244(6) 0.0258(6) -0.0084(5) -0.0066(5) -0.0008(5)
C12 0.0294(7) 0.0174(5) 0.0227(6) -0.0100(5) -0.0085(5) -0.0001(5)
C13 0.0330(8) 0.0311(7) 0.0312(7) -0.0189(6) -0.0097(6) 0.0044(5)
C33 0.0349(8) 0.0371(8) 0.0354(7) -0.0193(6) -0.0180(6) 0.0051(6)
loop_
_atom_type_symbol
_atom_type_description
_atom_type_scat_dispersion_real
_atom_type_scat_dispersion_imag
_atom_type_scat_source
C C 0.0181 0.0091 'International Tables Vol C Tables 4.2.6.8 and 6.1.1.4'
H H 0.0000 0.0000 'International Tables Vol C Tables 4.2.6.8 and 6.1.1.4'
Cl Cl 0.3639 0.7018 'International Tables Vol C Tables 4.2.6.8 and 6.1.1.4'
N N 0.0311 0.0180 'International Tables Vol C Tables 4.2.6.8 and 6.1.1.4'
loop_
_exptl_crystal_face_index_h
_exptl_crystal_face_index_k
_exptl_crystal_face_index_l
_exptl_crystal_face_perp_dist
_exptl_oxdiff_crystal_face_indexfrac_h
_exptl_oxdiff_crystal_face_indexfrac_k
_exptl_oxdiff_crystal_face_indexfrac_l
_exptl_oxdiff_crystal_face_x
_exptl_oxdiff_crystal_face_y
_exptl_oxdiff_crystal_face_z
-2 -3 -6 0.0429 -2.0006 -2.9954 -6.0006 0.8624 0.3578 -0.0974
2 3 6 0.0429 2.0006 2.9954 6.0006 -0.8624 -0.3578 0.0974
-4 4 1 0.0779 -3.9976 3.9996 1.0034 -0.3772 0.2932 -0.9139
-6 -2 -2 0.0709 -6.0011 -1.9976 -1.9982 0.3796 -0.2949 -0.9468
6 2 2 0.0492 6.0011 1.9976 1.9982 -0.3796 0.2949 0.9468
-2 -1 4 0.0423 -2.0018 -1.0024 4.0007 -0.3475 -0.8771 -0.4034
-4 -5 -2 0.0645 -4.0032 -4.9977 -2.0002 0.5864 -0.6791 -0.4575
2 -4 -4 0.0638 1.9983 -3.9973 -4.0027 0.7050 0.0778 0.6205
-2 -5 -6 0.0524 -2.0020 -4.9953 -6.0013 1.0054 0.0381 -0.0106
3 1 -3 0.0441 3.0016 1.0015 -3.0011 0.2370 0.7693 0.5611
-3 2 -4 0.0689 -2.9976 2.0030 -3.9981 0.2954 0.7985 -0.5379
4 5 3 0.0520 4.0029 4.9970 3.0003 -0.6931 0.5236 0.4355
4 -2 3 0.0597 3.9979 -2.0025 2.9976 -0.1926 -0.5953 0.7394
loop_
_geom_angle_atom_site_label_1
_geom_angle_atom_site_label_2
_geom_angle_atom_site_label_3
_geom_angle
C1 N1 C11 120.71(10)
C1 N1 C12 119.59(10)
C11 N1 C12 117.84(10)
C2 N2 C22 119.15(10)
C2 N2 C21 120.08(10)
C21 N2 C22 117.68(9)
C3 N3 C32 119.22(10)
C3 N3 C31 120.13(10)
C31 N3 C32 117.50(10)
N2 C2 C1 150.22(11)
N2 C2 C3 149.63(11)
C3 C2 C1 59.98(8)
N1 C1 C2 149.24(11)
N1 C1 C3 150.66(11)
C3 C1 C2 59.97(8)
N3 C3 C2 150.15(11)
N3 C3 C1 149.64(11)
C2 C3 C1 60.05(8)
N1 C11 H11A 109.5
N1 C11 H11B 109.5
N1 C11 H11C 109.5
H11A C11 H11B 109.5
H11A C11 H11C 109.5
H11B C11 H11C 109.5
N2 C22 H22A 108.9
N2 C22 H22B 108.9
N2 C22 C23 113.33(10)
H22A C22 H22B 107.7
C23 C22 H22A 108.9
C23 C22 H22B 108.9
N3 C32 H32A 108.9
N3 C32 H32B 108.9
N3 C32 C33 113.37(11)
H32A C32 H32B 107.7
C33 C32 H32A 108.9
C33 C32 H32B 108.9
N3 C31 H31A 109.5
N3 C31 H31B 109.5
N3 C31 H31C 109.5
H31A C31 H31B 109.5
H31A C31 H31C 109.5
H31B C31 H31C 109.5
N2 C21 H21A 109.5
N2 C21 H21B 109.5
N2 C21 H21C 109.5
H21A C21 H21B 109.5
H21A C21 H21C 109.5
H21B C21 H21C 109.5
C22 C23 H23A 109.5
C22 C23 H23B 109.5
C22 C23 H23C 109.5
H23A C23 H23B 109.5
H23A C23 H23C 109.5
H23B C23 H23C 109.5
N1 C12 H12A 108.8
N1 C12 H12B 108.8
N1 C12 C13 113.76(11)
H12A C12 H12B 107.7
C13 C12 H12A 108.8
C13 C12 H12B 108.8
C12 C13 H13A 109.5
C12 C13 H13B 109.5
C12 C13 H13C 109.5
H13A C13 H13B 109.5
H13A C13 H13C 109.5
H13B C13 H13C 109.5
C32 C33 H33A 109.5
C32 C33 H33B 109.5
C32 C33 H33C 109.5
H33A C33 H33B 109.5
H33A C33 H33C 109.5
H33B C33 H33C 109.5
loop_
_geom_bond_atom_site_label_1
_geom_bond_atom_site_label_2
_geom_bond_distance
N1 C1 1.3272(15)
N1 C11 1.4665(15)
N1 C12 1.4699(15)
N2 C2 1.3297(15)
N2 C22 1.4731(14)
N2 C21 1.4660(15)
N3 C3 1.3311(15)
N3 C32 1.4719(15)
N3 C31 1.4641(15)
C2 C1 1.3845(16)
C2 C3 1.3833(16)
C1 C3 1.3835(16)
C11 H11A 0.9600
C11 H11B 0.9600
C11 H11C 0.9600
C22 H22A 0.9700
C22 H22B 0.9700
C22 C23 1.5118(18)
C32 H32A 0.9700
C32 H32B 0.9700
C32 C33 1.5148(19)
C31 H31A 0.9600
C31 H31B 0.9600
C31 H31C 0.9600
C21 H21A 0.9600
C21 H21B 0.9600
C21 H21C 0.9600
C23 H23A 0.9600
C23 H23B 0.9600
C23 H23C 0.9600
C12 H12A 0.9700
C12 H12B 0.9700
C12 C13 1.5162(19)
C13 H13A 0.9600
C13 H13B 0.9600
C13 H13C 0.9600
C33 H33A 0.9600
C33 H33B 0.9600
C33 H33C 0.9600
loop_
_geom_torsion_atom_site_label_1
_geom_torsion_atom_site_label_2
_geom_torsion_atom_site_label_3
_geom_torsion_atom_site_label_4
_geom_torsion
N1 C1 C3 N3 0.4(4)
N1 C1 C3 C2 175.7(3)
N2 C2 C1 N1 -0.7(4)
N2 C2 C1 C3 175.2(3)
N2 C2 C3 N3 0.0(4)
N2 C2 C3 C1 -175.3(2)
C2 N2 C22 C23 -83.37(14)
C2 C1 C3 N3 -175.4(2)
C1 N1 C12 C13 -85.88(14)
C1 C2 C3 N3 175.3(2)
C3 N3 C32 C33 -83.69(14)
C3 C2 C1 N1 -175.9(2)
C11 N1 C1 C2 -167.51(19)
C11 N1 C1 C3 19.7(3)
C11 N1 C12 C13 78.70(14)
C22 N2 C2 C1 -177.2(2)
C22 N2 C2 C3 -5.4(3)
C32 N3 C3 C2 -177.88(19)
C32 N3 C3 C1 -6.0(3)
C31 N3 C3 C2 22.7(3)
C31 N3 C3 C1 -165.4(2)
C31 N3 C32 C33 76.30(14)
C21 N2 C2 C1 23.2(3)
C21 N2 C2 C3 -165.10(19)
C21 N2 C22 C23 76.79(14)
C12 N1 C1 C2 -3.4(3)
C12 N1 C1 C3 -176.2(2)
loop_
_refln_index_h
_refln_index_k
_refln_index_l
_refln_F_squared_meas
_refln_F_squared_sigma
_refln_scale_group_code
0 0 1 121929 1575.17 51
0 0 -1 117940 1597.11 61
0 0 2 11996.2 684.072 46
0 0 -2 12553.7 742.396 61
0 0 2 12035.4 723.464 60
0 0 2 12291.8 703.588 51
0 0 3 277283 4407.41 60
0 0 -3 277398 4359.46 61
0 0 -3 283550 4403.55 13
0 0 3 270710 4353.84 46
0 0 4 1025.64 518.074 60
0 0 -4 738.851 439.798 61
0 0 -4 1443.13 484.197 13
0 0 4 811.166 475.801 51
0 0 4 1675.76 354.118 3
0 0 5 11155.6 712.969 27
0 0 5 11174.5 659.097 3
0 0 -5 11294.6 1218.54 13
0 0 -5 12735.7 1215.1 49
0 0 5 11863.4 1293.05 60
0 0 5 10911.6 1226.83 51
0 0 -6 23327.7 901.449 11
0 0 -6 24379 993.194 15
0 0 6 23049.3 1071.18 18
0 0 -6 25078.6 966.703 25
0 0 6 23445.1 1011.53 17
0 0 6 25004.7 2189.27 60
0 0 -6 24568.7 1889.4 49
0 0 7 20.5558 391.386 19
0 0 -7 315.097 208.634 54
0 0 7 283.678 348.942 18
0 0 7 -11.9145 306.673 9
0 0 7 1013.28 431.152 17
0 0 -7 670.279 248.07 11
0 0 -7 708.203 248.464 25
0 0 8 157.802 331.759 18
0 0 8 530.059 297.253 19
0 0 8 826.842 313.601 9
0 0 -8 122.161 190.514 11
0 0 8 146.381 362.662 17
0 0 -8 496.249 230.874 25
0 0 9 972.974 258.695 9
0 0 -9 832.653 209.043 11
0 0 -9 959.047 233.744 25
0 0 9 817.189 288.719 18
0 0 10 8513.58 405.781 18
0 1 -9 2796.04 296.004 25
0 -1 9 2956.64 336.153 18
0 1 -8 2238.52 309.568 11
0 -1 8 2073.58 362.297 9
0 -1 8 2129.12 398.561 19
0 -1 8 2343.1 422.984 18
0 1 -8 2568.13 374.221 25
0 -1 8 2359.95 748.628 8
0 -1 7 31194.5 1376.42 19
0 1 -7 33103.9 1211.68 25
0 1 -7 33492.4 1085.01 24
0 -1 7 33429.4 1352.96 18
0 1 -7 32564.7 1139.41 11
0 -1 7 34909.9 1344.34 9
0 -1 7 33645.7 1329.24 17
0 -1 6 737.231 663.305 60
0 1 -6 308.092 177.667 25
0 -1 6 385.569 337.643 17
0 -1 6 585.289 335.792 18
0 1 -6 -372.741 426.22 49
0 1 -6 446.978 180.395 24
0 1 -6 626.849 238.495 11
0 -1 6 65.3495 364.066 19
0 -1 6 375.237 263.205 9
0 1 -5 38021.6 1069.83 11
0 -1 5 37643.5 1259.49 9
0 -1 5 38664.3 2443.99 60
0 1 -5 37657.9 2300.38 61
0 -1 5 39472.8 2425.25 51
0 -1 4 124771 3448.86 28
0 -1 4 128160 2028.6 3
0 1 -4 128183 3684.45 13
0 -1 4 133508 3782.4 60
0 1 -4 128856 1722.85 38
0 -1 4 132602 3820.2 51
0 1 -4 130966 3749.11 61
0 -1 3 39576.8 934.794 3
0 1 -3 35028.4 1748.16 61
0 1 -3 36923.7 1679.28 13
0 -1 3 39295.1 1565.63 2
0 -1 3 37122.9 1716.3 51
0 1 -3 37590.4 1460.37 41
0 -1 2 2457.79 386.925 51
0 1 -2 2531.03 361.479 13
0 1 -2 2220.88 400.041 61
0 1 -1 72578.4 1564.72 61
0 -1 1 78683.3 1576.67 51
0 -1 0 138638 1589.28 51
0 1 0 135969 1652.86 50
0 -1 -1 114777 1544.88 49
0 1 1 114031 1695.51 60
0 -1 -2 24305.7 919.889 49
0 1 2 23999.3 1027.08 60
0 1 3 91.9719 257.393 1
0 -1 -3 -28.4084 243.142 49
0 1 3 74.9131 272.124 60
0 1 3 232.324 231.585 31
0 1 3 34.391 310.801 33
0 1 4 1728.42 564.802 46
0 -1 -4 1849.02 463.542 49
0 1 4 2039.46 639.007 60
0 -1 -4 2095.96 500.924 13
0 1 5 20503.4 1510.13 46
0 1 5 24156.6 947.256 27
0 1 5 21669.3 1757.22 60
0 -1 -5 22077.4 1493.76 49
0 1 5 22006.3 799.445 3
0 -1 -5 22694.7 1636.23 13
0 1 6 37844.2 2618.69 60
0 -1 -6 40296.8 2454.75 13
0 -1 -6 40362.9 2292.36 49
0 1 6 37893.5 1195.77 3
0 1 6 40192.2 1361.54 27
0 -1 -7 33680.1 1155.81 11
0 1 7 32858.5 1346.5 18
0 1 7 35732.3 2882.93 60
0 -1 -7 34846.5 1182.46 25
0 -1 -7 32096.8 2252.44 49
0 1 7 34197.3 1229.37 3
0 1 8 32467.8 1311.33 19
0 1 8 37232.9 1431.2 18
0 -1 -8 36084.1 1231.02 25
0 1 8 37506 1463.83 9
0 1 8 34764 1326.13 17
0 -1 -8 36754.8 1242.68 11
0 -1 -9 11437.8 661.536 25
0 -1 -9 13241.8 587.414 54
0 1 9 12324.6 734.472 17
0 1 9 12181.8 760.369 9
0 1 9 13376.2 816.781 18
0 -1 -9 12001.3 676.155 11
0 1 10 4376.38 379.039 18
0 -1 -10 4391.03 338.149 25
0 -2 8 1049.11 288.404 19
0 2 -8 1268.52 257.762 25
0 -2 8 772.41 267.506 18
0 2 -8 956.371 195.834 24
0 2 -7 8778.52 553.781 11
0 -2 7 9916.41 721.338 18
0 -2 7 9889.24 1465.91 8
0 2 -7 9434.61 584.827 24
0 -2 7 9316.63 684.518 9
0 2 -7 8794.56 643.164 25
0 -2 7 8905.05 754.076 19
0 -2 6 9218.32 731.615 18
0 2 -6 9018.18 601.325 24
0 -2 6 8623.43 1407.38 8
0 2 -6 9241.68 641.196 25
0 -2 6 9519.09 760.821 17
0 -2 6 9488.41 830.527 19
0 -2 6 9328.36 710.232 9
0 2 -6 9099.95 571.052 11
0 -2 5 29148.2 1128.67 9
0 -2 5 27097.5 1108.81 18
0 2 -5 29480.7 1012.92 24
0 -2 5 27686.8 2236.87 51
0 -2 5 29077.4 1131.3 17
0 -2 5 27988.4 1247.11 19
0 2 -5 27261.2 928.237 11
0 2 -5 27811.6 1021.17 25
0 -2 5 26250.8 2094.97 60
0 2 -5 28934 2195.83 61
0 -2 4 -38.6589 183.795 9
0 -2 4 718.519 470.361 60
0 2 -4 165.136 383.831 61
0 2 -4 -24.1452 142.021 11
0 2 -4 122.326 157.665 38
0 -2 4 -228.214 399.324 51
0 2 -3 29159.9 1568.52 41
0 -2 3 26473.9 1611.88 28
0 -2 3 27104.9 1605.32 51
0 2 -3 28055.4 798.771 38
0 2 -3 30387.2 1786.19 61
0 2 -2 12004.9 842.598 13
0 -2 2 12062.7 968.83 51
0 2 -2 11356.2 909.837 41
0 2 -2 11977.3 983.565 61
0 2 -1 147041 2794.6 41
0 -2 1 146513 2689.71 51
0 2 0 15973.8 659.645 48
0 -2 0 15614.3 735.981 51
0 2 0 15157.4 780.194 50
0 -2 -1 81115.1 1576.73 51
0 2 1 82230.5 1613.53 60
0 2 2 239041 3566.61 60
0 -2 -2 241591 3292.94 49
0 2 3 138393 2914 1
0 2 3 138972 3003.84 33
0 2 3 138699 3229.43 60
0 -2 -3 136485 2732.27 49
0 2 4 146981 2793.78 31
0 -2 -4 143992 3308.7 13
0 2 4 143385 3874.46 60
0 2 4 145742 3618.27 1
0 -2 -4 147454 3305.78 49
0 2 4 142942 3793.53 33
0 2 5 83135.5 1683.51 27
0 -2 -5 79450.2 2929.9 13
0 2 5 84936.1 3166.91 1
0 2 5 85244.1 3405.83 60
0 2 5 82324.8 1632.3 26
0 -2 -5 83213.4 2795.03 49
0 2 5 84347.4 2766.79 46
0 2 6 33962.2 1069.21 3
0 -2 -6 35137.9 2195.35 13
0 2 6 29660.1 1948.52 46
0 -2 -6 34720.3 2040.18 49
0 2 6 35822.5 1280.12 27
0 2 6 34669.2 2488.69 60
0 2 7 71161.6 1932.28 18
0 2 7 68040.2 3896.49 60
0 -2 -7 69212.1 3402.7 13
0 -2 -7 68743.2 1589.77 25
0 -2 -7 68482 3179.22 49
0 2 7 72395.9 1919.93 27
0 -2 -7 67121 1660.77 15
0 -2 -7 62263.5 1516.86 6
0 -2 -8 5657.36 505.89 25
0 -2 -8 6911.02 575.59 11
0 2 8 6476.13 682.628 18
0 -2 -8 5580.5 481.875 6
0 -2 -9 3766.48 418.57 11
0 2 9 3451.75 481.303 9
0 2 9 3159.45 457.833 17
0 2 9 3951.48 553.989 18
0 -2 -9 3745.25 399.357 25
0 -2 -9 3291.59 353.533 54
0 -2 -10 4725.71 365.604 25
0 -2 -10 5314.29 331.064 54
0 2 10 4494.35 411.043 9
0 2 10 5218.3 407.55 17
0 2 10 5711.59 478.141 18
0 -2 -10 5290.27 404.917 11
0 -3 8 1347.64 228.129 19
0 -3 8 1303.85 213.96 18
0 3 -8 1295.17 175.899 24
0 -3 7 8809.25 661.254 19
0 3 -7 8736.58 535.02 24
0 3 -7 8697.9 576.928 25
0 -3 7 8733.08 623.31 18
0 -3 6 42928.6 1449.2 18
0 3 -6 44356 1306.81 24
0 -3 6 43354.3 1577.15 19
0 -3 6 42508.8 2920.54 8
0 3 -6 40634 1323.05 25
0 -3 5 22708.4 2082.91 8
0 -3 5 20901.2 1163.32 19
0 3 -5 21878.8 940.363 25
0 3 -5 22948.1 953.539 24
0 -3 5 23636.9 1076.59 18
0 3 -5 22577.2 894.395 16
0 -3 5 22283.8 1012.89 9
0 -3 5 22024.4 2113 51
0 3 -5 20408.7 1975.32 61
0 -3 4 2855.37 465.05 19
0 -3 4 1921.12 553.613 60
0 -3 4 3405.37 455.469 17
0 -3 4 2760.27 375.433 9
0 3 -4 2984.04 780.739 61
0 -3 4 2961.44 837.917 8
0 3 -4 3362.56 370.014 24
0 -3 4 2227.84 668.622 51
0 3 -3 54083.5 2645.37 61
0 -3 3 48023.9 2481.12 8
0 -3 3 51820.9 2501.73 51
0 -3 3 48895.7 1225.21 9
0 3 -3 49757.6 1211.81 38
0 -3 2 3068.93 612.52 8
0 3 -2 3095.61 309.473 38
0 -3 2 2722.39 589.263 51
0 3 -2 2647.06 407.223 48
0 3 -2 3596.41 667.127 61
0 -3 1 29011.8 1458.36 51
0 3 -1 27126.5 1450.26 61
0 3 -1 29988.3 1526.23 41
0 3 -1 26924 1134.49 48
0 -3 1 27471.4 1372.55 8
0 3 0 999999 7813.83 48
0 3 0 990979 8867.91 50
0 -3 -1 39750.2 1342.3 51
0 3 1 42322.3 1350.52 35
0 3 1 40255.5 1473.94 50
0 3 2 139390 2496.92 47
0 3 2 137121 2660.53 35
0 3 2 134086 2701.8 60
0 -3 -2 134091 2714.32 49
0 -3 -2 137038 2622.36 51
0 3 3 2354.36 502.433 60
0 -3 -3 2268.88 433.727 49
0 -3 -3 2341.63 273.243 55
0 3 3 2266.92 451.07 1
0 3 3 2670.58 421.945 32
0 3 3 2538.7 448.626 34
0 3 4 200782 4439.06 33
0 3 4 202524 4454.19 34
0 3 4 200209 4632.52 60
0 -3 -4 205872 4074.16 49
0 3 4 193082 4074.18 32
0 -3 -4 197992 3679.55 13
0 3 4 195711 4187.89 1
0 3 5 30501.5 2131.28 33
0 -3 -5 33370.6 1791.46 49
0 -3 -5 31975.5 1749.84 13
0 3 5 31238.1 1444.67 31
0 3 5 32637.4 2155.82 60
0 3 5 32218.1 1951.08 1
0 3 5 34182.2 1046.17 26
0 3 6 237.332 336.479 46
0 -3 -6 337.626 353.457 49
0 -3 -6 351.995 332.632 13
0 3 6 425.499 444.377 1
0 3 6 283.926 265.227 26
0 3 6 279.414 334.869 27
0 3 6 -168.06 577.453 60
0 3 7 13100.6 857.515 18
0 -3 -7 12997 702.557 15
0 3 7 13378.6 1745.23 60
0 -3 -7 11888.4 662.462 6
0 -3 -7 11973.5 1399.55 13
0 -3 -7 13816.7 1456.15 49
0 3 7 13056.4 900.635 27
0 -3 -8 20872.1 920.35 6
0 3 8 23376.3 1160.88 18
0 -3 -8 20808.1 864.45 25
0 -3 -8 22541.5 984.558 11
0 3 8 21752.4 1116.67 27
0 3 9 -232.8 323.275 17
0 3 9 -57.5834 371.408 18
0 -3 -9 98.7603 156.984 25
0 -3 -9 48.8555 215.976 11
0 -3 -9 -137.481 188.424 6
0 3 10 23682.2 843.742 17
0 3 10 27647.3 1024.68 18
0 -3 -10 24270.2 884.604 11
0 3 10 25650.1 994.497 9
0 -3 -10 24325.3 787.738 25
0 -3 -10 26804.6 818.613 54
0 3 11 4067.23 301.82 18
0 -4 7 15990 701.068 19
0 -4 7 15690.6 653.668 18
0 4 -7 15821.8 627.316 24
0 -4 6 358.962 338.895 19
0 4 -6 87.2947 164.958 25
0 4 -6 -86.3336 179.283 16
0 -4 6 -378.633 259.175 18
0 4 -6 -50.8215 221.571 24
0 4 -5 322.809 224.692 16
0 -4 5 284.516 261.396 18
0 4 -5 130.561 229.177 24
0 -4 5 281.324 382.956 19
0 4 -5 157.72 196.015 25
0 4 -4 111745 2075.1 25
0 -4 4 117425 4486.02 8
0 -4 4 118117 4685.56 51
0 4 -4 119039 2213.6 24
0 4 -4 124142 4841.6 61
0 -4 4 118857 2598.98 19
0 4 -4 112922 2087.31 16
0 -4 4 119676 2315 18
0 4 -3 10245 602.078 24
0 -4 3 9454.63 1233.69 51
0 -4 3 9438.6 720.042 19
0 -4 3 9382.67 1206.03 8
0 4 -3 10274.2 1313.22 61
0 -4 2 469.777 407.23 8
0 4 -2 303.887 353.971 61
0 -4 2 478.801 434.723 51
0 4 -1 74787.2 1383.22 38
0 4 -1 75152.2 2795.5 61
0 -4 1 73893.4 2674.96 51
0 4 -1 69460.6 2174.11 48
0 -4 0 74855.7 2408.96 51
0 4 0 66316.1 2086.72 48
0 -4 -1 36021.2 1568.43 51
0 4 1 36419.6 1715.69 50
0 4 1 37089.3 1517.14 35
0 4 2 15350.7 926.085 47
0 4 2 15080 1037.11 60
0 4 2 13905.6 1068.36 50
0 -4 -2 14059.3 990.343 51
0 4 2 15366.7 1043.51 35
0 4 3 2822.79 412.415 12
0 4 3 3082.55 527.256 34
0 4 3 2195.45 527.468 47
0 4 3 2414.42 577.566 35
0 -4 -3 2440.6 552.303 49
0 -4 -3 2173.63 522.46 51
0 4 3 2259.7 510.499 60
0 -4 -4 3540.58 484.401 13
0 4 4 3219.52 633.861 1
0 4 4 3313.71 707.991 60
0 4 4 4680.12 823.212 34
0 4 4 4872.59 813.356 33
0 -4 -4 3395.3 659.546 49
0 4 4 4349.87 684.224 32
0 4 5 46243.8 1217.14 26
0 4 5 44841.7 2434.42 33
0 -4 -5 45568.3 2190.82 49
0 -4 -5 46014 1967.05 13
0 4 5 47447.6 2531.67 60
0 4 5 44559.8 2268.11 1
0 -4 -6 30317.8 991.023 7
0 -4 -6 30295.9 1870.79 13
0 -4 -6 31569.1 1990.97 49
0 4 6 30225.6 1127.46 26
0 4 6 29088.2 2230.17 60
0 4 6 30755.1 2127.45 1
0 4 7 2965.75 924.388 60
0 4 7 3159.34 486.247 26
0 4 7 3087.41 836.827 1
0 -4 -7 1984.12 601.665 13
0 -4 -7 2667.48 346.303 6
0 4 7 2951.07 568.587 27
0 -4 -7 2300.15 667.755 49
0 -4 -8 102238 2054.52 11
0 -4 -8 98954.6 2053.39 6
0 4 8 102011 2381.52 27
0 4 8 103134 2455.46 18
0 4 9 13657 898.849 18
0 4 9 12256.3 840.309 27
0 -4 -9 13094.3 732.254 11
0 -4 -9 12806.4 726.861 6
0 4 10 1508.06 306.974 17
0 -4 -10 1185.04 241.888 11
0 4 10 1560.77 338.05 9
0 4 10 1160.46 325.679 18
0 4 11 568.105 195.295 18
0 -4 -11 623.247 139.112 54
0 5 -6 13381.8 523.578 16
0 -5 6 13836.8 623.207 18
0 -5 6 13878.2 722.513 19
0 5 -6 14144.4 626.167 24
0 -5 5 2877 490.983 19
0 -5 5 2155.08 356.272 18
0 5 -5 2966.38 367.067 16
0 5 -5 2066.93 301.015 25
0 5 -5 3094.23 386.251 24
0 5 -4 1962.01 352.576 16
0 -5 4 1331.86 421.45 19
0 -5 4 2311.94 384.238 18
0 5 -4 1655.07 319.486 24
0 -5 3 82556 3871.23 51
0 -5 3 86342.9 1901.95 18
0 -5 3 87711.8 2171.51 19
0 5 -3 85656.4 1844.22 16
0 5 -3 91675.7 4213.52 61
0 -5 3 85636.3 2224.38 22
0 5 -3 82072 1825.88 24
0 -5 2 5959.25 568.59 19
0 5 -2 6434.93 491.038 16
0 5 -2 5949.38 1063.56 61
0 -5 2 4969.73 944.512 51
0 5 -2 6054.95 476.48 23
0 5 -2 5847.07 450.932 24
0 5 -1 37661.3 1093.51 23
0 5 -1 38689.5 2302.46 61
0 -5 1 36848.6 2141.16 51
0 5 0 130032 3844.12 61
0 5 0 132699 1975.75 23
0 5 0 128096 3245.79 35
0 -5 0 130695 3737.75 51
0 5 1 7721.31 812.892 35
0 5 1 8162 973.923 50
0 -5 -1 8260.79 889.427 51
0 5 2 16871.6 1353.65 50
0 -5 -2 15685.8 1179.05 51
0 5 2 15734.2 1089.7 47
0 5 2 16080.7 1201.56 35
0 5 3 7383.82 899.113 35
0 -5 -3 8437.02 903.841 51
0 5 3 9170.83 951.822 60
0 5 3 7710.35 890.476 47
0 5 4 120561 3191.68 32
0 -5 -4 111493 3464.11 49
0 5 4 119547 3643.67 34
0 5 4 115552 3522.04 60
0 -5 -4 122648 3518 51
0 5 4 113603 3339.7 1
0 5 5 5397.64 921.555 60
0 5 5 4067.35 782.537 32
0 -5 -5 4892.26 813.96 49
0 -5 -5 4747.29 395.46 7
0 5 5 4890.47 920.493 34
0 5 5 4702.11 816.994 1
0 5 5 5362.39 908.321 33
0 5 6 621.538 519.797 60
0 5 6 920.231 509.572 1
0 5 6 350.598 588.658 33
0 -5 -6 568.426 385.905 49
0 -5 -6 720.217 211.289 7
0 5 6 1187.81 331.164 26
0 -5 -7 35883 2324.76 49
0 -5 -7 35174.8 1165.26 6
0 5 7 39059.9 1401.79 26
0 5 7 38080.5 2649.83 1
0 5 7 34119.1 1214.84 21
0 5 7 34895.7 2633.09 60
0 -5 -7 35276.5 1209.13 7
0 5 7 34679.7 1379.5 27
0 -5 -8 1462.73 302.714 6
0 5 8 -44.4734 614.819 27
0 5 9 26321.3 1163.64 27
0 -5 -9 26902.6 1055.97 6
0 5 9 27502.7 1263.85 18
0 -5 -9 26575.6 1003.56 11
0 -5 -10 70.1683 138.942 11
0 5 10 -46.9096 279.409 18
0 5 10 -140.586 243.393 17
0 -5 -10 144.556 164.703 6
0 5 11 31962.8 893.824 18
0 -5 -11 31786.2 730.719 54
0 6 -6 4764.22 298.171 24
0 -6 6 5282.93 337.086 19
0 -6 5 6078.42 525.975 19
0 6 -5 5593.99 384.59 16
0 6 -5 5670.83 432.684 24
0 6 -4 4190.63 444.554 16
0 -6 4 4824.95 591.578 19
0 6 -4 3916.29 423.994 24
0 -6 4 3483.34 392.655 18
0 -6 3 356.971 376.426 19
0 6 -3 59.2737 238.854 24
0 -6 3 719.302 356.232 22
0 6 -3 690.563 313.542 16
0 -6 3 222.621 244.844 18
0 6 -2 101919 2057.69 16
0 -6 2 100033 2284.4 19
0 6 -2 101951 2014.73 23
0 -6 2 102378 2057.33 18
0 -6 2 106048 2522.09 22
0 6 -2 96827.3 1967.94 24
0 -6 1 50957 1368.52 18
0 -6 1 50929.3 1691.61 22
0 6 -1 50740 1404.81 23
0 6 -1 49342.2 1350.94 16
0 6 -1 53227.1 3045.36 61
0 -6 1 47989.9 2774.23 51
0 6 -1 47724.5 1287.47 24
0 -6 1 50682.5 1489.33 19
0 -6 0 23803.3 1831.59 51
0 6 0 23149.6 927.493 23
0 6 0 23563.5 1905.26 61
0 6 1 32323.9 1046.82 23
0 6 1 32305.4 1837.62 35
0 -6 -1 32538.1 1979.87 51
0 -6 -2 32593.6 1935 51
0 6 2 34298.5 2129.85 50
0 6 2 32678.2 1003.29 23
0 6 2 32856.5 1701.95 47
0 6 2 32574.2 1907.84 35
0 6 3 44974.5 2097.56 47
0 6 3 49869.2 2452.93 35
0 -6 -3 46698.2 2338.83 51
0 6 3 46775.9 1171.19 23
0 6 3 46863 2461.2 50
0 6 4 58440.5 2788.27 50
0 6 4 65718.4 2473.1 32
0 6 4 66182.8 2879.7 34
0 6 4 60055.2 1335.34 23
0 6 4 62096.1 2732.57 60
0 -6 -4 62968.8 2705.85 51
0 6 5 1564.24 606.877 34
0 -6 -5 1958.06 525.722 51
0 6 5 2535.66 688.379 1
0 6 5 2373.99 722.548 33
0 6 5 1856.57 576.591 60
0 -6 -5 2328.54 321.744 7
0 6 5 1554.23 472.19 32
0 6 6 29637.5 1161.57 21
0 6 6 32542.5 2504.33 33
0 -6 -6 31180 1064.35 6
0 6 6 29515 2214.46 60
0 -6 -6 31357.7 1108.69 7
0 -6 -6 31547 2137.11 51
0 -6 -6 29146.1 2091.89 49
0 6 6 29807.2 1172.35 26
0 6 6 32487.5 2276.44 1
0 6 6 29304.2 1065.3 20
0 6 7 29107.5 2398.12 60
0 -6 -7 26701 1098.28 7
0 -6 -7 28338.5 1065.16 6
0 6 7 28050.1 2306.55 1
0 6 7 27492.1 1219.32 26
0 -6 -7 26815.1 2094.94 49
0 -6 -7 24836.6 1971.66 51
0 6 7 27601 1163.89 21
0 6 7 25484.9 1027.04 20
0 6 8 3961.37 580.693 26
0 6 8 4075.85 484.711 21
0 6 8 5194.39 804.017 27
0 -6 -8 4060.27 460.731 6
0 6 9 789.47 406.788 18
0 6 9 751.219 386.848 27
0 -6 -9 648.401 182.005 11
0 -6 -9 806.344 269.864 6
0 6 10 14844.3 811.554 18
0 -6 -10 14948 631.72 11
0 -6 -10 17075.4 745.081 6
0 6 11 422.104 191.357 18
0 -7 5 5341.1 347.04 19
0 7 -5 4503.53 284.952 24
0 7 -4 15436.4 635.044 16
0 7 -4 14638.3 655.131 24
0 -7 4 16819.2 793.97 19
0 -7 3 11743.5 743.865 22
0 7 -3 13986 724.655 16
0 -7 3 13259.2 815.733 19
0 7 -3 11574.6 667.133 24
0 -7 2 15574.2 978.358 22
0 7 -2 17711.3 877.025 16
0 -7 2 16783.5 821.309 18
0 7 -2 16039.7 804.713 23
0 7 -2 15112.7 785.747 24
0 -7 2 17721.1 977.664 19
0 7 -1 7817.51 607.486 16
0 7 -1 7708.95 624.568 23
0 -7 1 7625.63 588.5 18
0 -7 1 7424.07 656.9 19
0 7 -1 6953.59 522.351 24
0 -7 1 7334.4 714.099 22
0 7 0 11468.2 1458.86 61
0 7 0 13625.1 782.665 23
0 -7 0 13132.6 794.784 19
0 -7 0 13901.5 926.264 22
0 -7 0 13222.1 1513.72 51
0 7 0 12978.5 718.088 16
0 -7 -1 1087.35 357.802 22
0 7 1 1154.22 286.847 16
0 -7 -1 636.653 428.899 51
0 7 1 947.137 323.698 23
0 7 1 805.3 595.238 61
0 -7 -1 649.049 301.044 19
0 7 1 696.51 408.339 35
0 7 2 21125.6 1707.4 35
0 7 2 22464.8 1950.5 50
0 7 2 22950.4 964.285 23
0 -7 -2 24284.9 1902.47 51
0 -7 -2 22813.9 1046.37 22
0 -7 -3 475.409 231.619 22
0 -7 -3 962.48 455.795 51
0 7 3 1455.4 486.107 12
0 7 3 708.909 430.922 50
0 7 3 380 361.357 34
0 7 3 698.572 271.698 23
0 -7 -4 5127.52 483.022 22
0 7 4 5123.49 932.76 34
0 7 4 5730.68 1015.83 50
0 7 4 4688.51 451.393 23
0 -7 -4 4774.3 868.143 51
0 7 5 133.508 400.541 50
0 7 5 -33.508 342.704 1
0 -7 -5 460.454 421.752 51
0 -7 -5 29.3432 203.57 22
0 7 5 437.038 278.764 20
0 -7 -5 228.015 184.76 6
0 7 5 -473.365 568.85 34
0 7 5 110.522 554.362 33
0 -7 -5 171.787 187.735 7
0 7 6 22509 1998.95 1
0 -7 -6 22111.5 891.786 22
0 -7 -6 22882 1895.29 51
0 7 6 21705.7 1963.24 60
0 7 6 22052.5 1096.22 21
0 -7 -6 22746.5 995.936 7
0 7 6 21425.4 990.666 20
0 7 6 23054.5 2098.94 33
0 -7 -6 22821.4 951.257 6
0 7 7 14413.9 909.015 26
0 -7 -7 13584.9 797.52 7
0 7 7 10964.8 1611.17 33
0 7 7 12490.9 860.626 21
0 -7 -7 14241.4 777.74 6
0 7 7 12858.4 772.989 20
0 7 8 32059.9 1330.25 26
0 7 8 31846.5 1245.73 21
0 7 8 29516.7 1091.43 20
0 -7 -8 32675 1183.24 6
0 7 8 29520.9 1288.62 27
0 -7 -8 29584.1 968.844 59
0 -7 -9 4153.38 441.579 6
0 7 9 3434.41 521.888 18
0 7 9 3310.54 413.257 21
0 7 10 1318.61 326.24 18
0 -7 -10 1226.11 250.199 6
0 7 11 8821.19 453.479 18
0 -7 -11 10289.2 439.118 6
0 8 -3 9279.62 498.042 16
0 8 -3 8296.07 453.554 24
0 8 -2 3146.02 352.925 24
0 -8 2 4201.55 486.054 19
0 8 -2 2366.74 301.721 23
0 -8 2 3525.35 442.77 22
0 8 -2 3288.66 398.685 16
0 8 -1 4361.18 402.403 24
0 8 -1 4725.94 487.157 23
0 -8 1 6036.39 584.858 19
0 -8 1 5102.82 600.111 22
0 8 -1 5173.32 505.361 16
0 -8 0 1620.39 375.075 19
0 -8 0 1596.73 439.136 22
0 8 0 1767.95 345.046 16
0 8 0 1757.81 377.265 23
0 -8 -1 52839.6 1535.91 19
0 8 1 56332.1 1642.06 23
0 8 1 51249.8 1409.45 16
0 -8 -1 55581.4 1793.94 22
0 -8 -2 641.618 362.867 22
0 8 2 46.9405 228.905 16
0 8 2 -105.882 265.377 23
0 8 2 102.924 505.947 61
0 8 2 82.7736 452.446 12
0 -8 -3 664.49 304.347 22
0 8 3 -25.9346 427.58 50
0 -8 -3 728.762 399.154 51
0 8 3 767.211 301.387 23
0 8 3 666.981 518.896 34
0 8 4 147103 4874.59 34
0 -8 -4 145346 5035.18 51
0 8 4 145400 2574.3 23
0 -8 -4 145646 2670.79 22
0 8 4 138830 5011.82 50
0 -8 -5 15765.5 762.018 6
0 8 5 12979.2 1539.71 50
0 -8 -5 17069.8 869.52 22
0 8 5 15489.5 879.649 20
0 8 5 15724.5 1756.17 34
0 -8 -5 16308.4 828.748 7
0 8 5 15028.2 1644.59 1
0 -8 -5 16065.9 1655.58 51
0 -8 -6 2283.05 341.792 6
0 8 6 1885.65 498.731 21
0 8 6 2642.6 473.326 20
0 -8 -6 2213.62 374.546 7
0 -8 -6 2054.22 335.925 22
0 -8 -7 28771.7 1084.07 6
0 8 7 27249.4 1180.77 26
0 -8 -7 27228.7 1132.32 7
0 8 7 26965.4 1240.98 21
0 8 7 27732.4 1151.58 20
0 8 8 5698.71 530.078 20
0 8 8 6006.09 610.185 26
0 8 8 6372.4 642.618 21
0 -8 -8 6033.72 456.753 59
0 -8 -8 7335.16 574.964 6
0 8 9 18959.6 847.5 21
0 -8 -9 17530.2 800.966 6
0 8 10 3539.65 395.629 18
0 -8 -10 3184.78 326.241 6
0 -8 -11 7280.09 345.289 6
0 8 11 3994.28 276.429 18
0 -9 2 13424.7 583.718 56
0 -9 2 12339.4 498.215 22
0 -9 1 6604.87 492.738 56
0 -9 1 6602.06 531.007 22
0 9 -1 7134.54 484.384 16
0 9 0 15302.6 818.131 23
0 -9 0 17077.9 808.196 56
0 -9 0 18107.3 953.804 22
0 9 0 17789.9 801.043 16
0 9 1 1726.33 357.663 23
0 -9 -1 1545.94 390.205 22
0 -9 -1 1236.71 270.977 56
0 9 1 1389.73 309.004 16
0 9 2 240.909 271.448 23
0 -9 -2 103.884 302.062 22
0 9 2 176.318 225.986 16
0 -9 -3 15671.1 912.26 22
0 9 3 15011.7 887.015 23
0 9 4 289.208 253.263 23
0 -9 -4 51.4105 267.186 22
0 9 4 754.377 364.093 20
0 -9 -5 1124.45 309.472 22
0 -9 -5 1377.29 291.25 7
0 9 5 1485.38 475.097 21
0 9 5 946.684 495.71 34
0 9 5 1371.89 414.318 20
0 9 6 4348.03 546.124 20
0 9 6 4656.89 624.076 21
0 9 6 4634.18 487.136 26
0 -9 -6 4776.52 456.113 22
0 -9 -6 4585.76 415.325 6
0 -9 -6 4207.39 429.877 7
0 9 7 14444.1 833.742 26
0 -9 -7 14318.8 724.161 6
0 -9 -7 14043.2 770.946 7
0 9 7 14783.6 855.167 20
0 9 7 14840 942.092 21
0 -9 -8 451.583 208.819 6
0 -9 -8 568.765 214.691 59
0 9 8 63.4928 323.244 21
0 9 8 232.043 265.102 26
0 9 8 548.623 284.165 20
0 -9 -9 -36.1067 130.961 59
0 -9 -9 85.8495 153.565 6
0 9 9 50.4172 245.322 21
0 9 10 8459.89 420.501 21
0 -9 -10 9343.2 461.606 6
0 10 -1 1391.62 176.159 16
0 -10 0 6238.87 451.04 22
0 10 0 6586.45 396.232 16
0 10 1 10229.1 540.185 16
0 -10 -1 11304.1 667.119 22
0 10 2 13807.5 626.639 16
0 10 2 14432.1 716.184 20
0 -10 -2 15572.7 831.981 22
0 10 3 12341.2 733.762 20
0 -10 -3 12315.7 742.829 22
0 10 4 -112.797 315.452 21
0 -10 -4 182.187 278.706 22
0 10 4 237.85 319.19 20
0 10 5 619.053 357.607 20
0 10 5 974.732 378.55 21
0 -10 -5 1071.9 298.705 22
0 10 6 48947 1467.82 20
0 -10 -6 46045.4 1207.46 7
0 -10 -6 49240.8 1298.01 22
0 10 6 50043.4 1537.94 21
0 10 7 9481.15 673.287 20
0 -10 -7 9183.93 503.408 6
0 10 7 9829.18 714.747 21
0 10 8 17554.2 844.707 21
0 -10 -8 15940.1 650.482 6
0 10 8 17648 772.703 20
0 -10 -8 16469.7 657.821 59
0 -10 -9 117.294 110.561 6
0 -10 -9 222.11 111.718 59
0 10 9 291.902 224.822 21
0 -10 -10 498.728 114.53 6
0 -11 -1 8374.44 389.527 22
0 -11 -2 2655.55 296.897 22
0 11 3 5224.19 404.756 20
0 -11 -3 6366.33 454.178 22
0 -11 -4 12475.6 618.032 22
0 11 4 11944.4 624.821 20
0 11 5 4537.56 437.918 21
0 -11 -5 4886.32 390.141 22
0 11 5 4156.38 416.337 20
0 11 5 4562.88 379.535 10
0 11 6 5995.68 489.935 21
0 11 6 6051.87 476.21 20
0 -11 -6 6278.27 403.902 22
0 11 7 5870.6 445.76 20
0 -11 -7 5674.38 383.046 59
0 11 7 5044.01 438.091 21
0 -11 -8 6641.93 356.64 59
0 11 8 6308.02 403.582 20
0 11 8 6151.81 424.578 21
0 11 9 17479.4 539.996 21
0 -12 -4 4655.42 258.573 22
0 12 5 708.524 161.147 20
0 -12 -6 4400.63 245.732 59
0 12 6 4254.62 284.098 20
-1 11 8 12902.5 503.795 21
1 -11 -8 12268.3 409.827 59
-1 11 7 -177.824 209.277 21
-1 11 7 299.056 178.51 20
1 -11 -7 -6.91119 126.361 59
1 -11 -6 723.072 174.388 59
-1 11 6 1236.32 268.71 20
-1 11 6 575.594 251.715 21
1 -11 -5 13937.2 588.831 22
-1 11 5 12280.6 639.71 21
-1 11 5 13267.8 647.56 20
1 -11 -5 12552 535.221 59
-1 11 4 24400.3 852.79 20
-1 11 4 22131.6 792.024 21
1 -11 -4 23157 689.358 59
1 -11 -3 382.622 163.147 22
-1 11 3 169.027 186.187 20
-1 11 2 676.181 175.3 20
1 -11 -2 1440.75 201.242 22
1 -10 -9 14997 452.787 6
-1 10 9 14878.6 519.845 21
1 -10 -9 14951.8 432.349 59
1 -10 -8 12025 480.913 6
-1 10 8 12912.1 651.046 21
-1 10 8 11285.6 530.47 20
1 -10 -8 12577.8 526.37 59
-1 10 7 1231.78 289.913 26
-1 10 7 1915.41 326.429 20
1 -10 -7 1985.1 271.905 59
-1 10 7 2189.85 419.866 21
1 -10 -6 46498.1 1235.43 59
-1 10 6 49815.9 1391.08 20
-1 10 6 46995 1477.43 21
-1 10 6 44839.8 1311.79 26
-1 10 5 901.898 701.734 34
-1 10 5 -10.4138 324.713 21
-1 10 5 642.848 315.657 20
1 -10 -5 759.566 253.193 22
-1 10 4 380.391 316.262 21
1 -10 -4 405.242 238.614 22
-1 10 4 -55.4854 309.736 20
-1 10 3 8137.21 603.436 23
-1 10 3 8103.94 603.843 20
1 -10 -3 8351.48 586.028 22
1 -10 -2 2763.51 368.981 22
-1 10 2 2311.15 364.54 23
1 -10 -1 15.5647 188.618 22
-1 10 1 70.3488 182.156 23
1 -10 -1 160.749 128.475 56
1 -10 0 5707.47 352.972 56
-1 10 0 5829.2 354.266 16
1 -10 0 6271.59 408.036 22
1 -9 -10 2330.87 207.857 6
-1 9 10 1359.61 205.463 18
1 -9 -9 3757 267.621 59
1 -9 -9 3663.03 326.313 6
-1 9 9 3598.13 334.312 21
1 -9 -8 3017.51 326.782 59
1 -9 -8 2616.14 309.059 6
-1 9 8 2646.2 428.039 21
-1 9 8 2419.98 330.756 20
-1 9 8 2730.18 422.897 26
1 -9 -7 2203.56 306.73 59
-1 9 7 2124.42 376.412 20
-1 9 7 2460.47 415.122 26
-1 9 7 2831.61 508.667 21
1 -9 -7 2066.87 292.197 6
-1 9 6 3230.58 537.6 21
-1 9 6 2593.68 451.412 20
-1 9 6 2617.56 425.335 26
1 -9 -6 3663.36 416.349 22
-1 9 5 -275.11 474.621 34
1 -9 -5 -29.1103 235.476 22
-1 9 5 380.995 329.018 20
-1 9 4 282.542 242.343 23
1 -9 -4 512.105 295.786 22
1 -9 -3 49782.2 1550.79 22
-1 9 3 45959.1 2751.55 34
-1 9 3 49855.9 1524.59 23
-1 9 2 6159.89 590.938 23
1 -9 -2 5780.03 464.795 56
1 -9 -2 6293.88 599.39 22
-1 9 1 350.05 248.549 23
1 -9 -1 -44.6047 200.974 56
-1 9 1 44.0684 203.463 16
1 -9 -1 194.379 275.716 22
1 -9 0 13986.7 720.514 56
-1 9 0 13646.1 781.463 23
-1 9 0 14767.7 710.384 16
1 -9 0 13681.2 809.945 22
-1 9 -1 2963.23 353.507 23
-1 9 -1 3846.91 367.759 16
1 -9 1 3855.21 381.993 56
1 -9 1 3756.83 391.431 22
-1 9 -2 3005.5 279.256 16
1 -9 2 2733.69 277.437 56
1 -8 -10 3519.16 293.538 6
-1 8 10 2924.39 323.655 18
1 -8 -9 9969.26 570.455 6
-1 8 9 8332.71 504.397 21
-1 8 8 2786.92 446.765 21
1 -8 -8 3502.21 393.571 6
-1 8 8 2375.83 615.429 27
-1 8 8 3291.16 502.619 26
1 -8 -8 3151.11 345.411 59
1 -8 -7 29357.1 1062.48 6
-1 8 7 28858.3 1254.96 21
-1 8 7 26893.6 1076.05 20
-1 8 7 30176.5 1289.97 26
1 -8 -7 27664.7 1018.84 59
-1 8 6 130574 2678.16 21
-1 8 6 124849 5285.87 34
-1 8 6 125623 2446.11 20
-1 8 6 123079 5002.86 33
1 -8 -6 136422 2419.88 7
1 -8 -6 127608 2306.65 22
1 -8 -6 130999 2265.7 6
-1 8 5 294.526 500.465 33
1 -8 -5 218.258 267.305 22
-1 8 5 548.187 571.017 34
-1 8 5 311.688 316.896 20
1 -8 -5 298.769 187.987 7
-1 8 4 95578.8 2006.65 23
1 -8 -4 93904.1 2139.78 22
-1 8 4 97043.2 4175 34
-1 8 3 35847.7 1262.81 23
1 -8 -3 32876.3 1294.82 22
-1 8 3 36391.2 2440.45 34
-1 8 2 1088.7 502.827 35
1 -8 -2 1423.69 385.012 22
-1 8 2 1208.77 346.341 23
1 -8 -2 1360.57 311.256 56
-1 8 1 106579 2270.49 23
1 -8 -1 99301.1 2094.88 56
1 -8 -1 106123 2388.61 22
-1 8 1 97778.2 1899.16 16
-1 8 1 96839.8 3920.89 35
1 -8 0 6406.44 606.623 19
1 -8 0 6021.17 599.86 22
-1 8 0 6187.27 598.516 23
-1 8 0 5978.07 494.173 16
-1 8 -1 967.367 297.442 16
1 -8 1 350.365 302.061 19
1 -8 1 594.707 301.021 22
-1 8 -1 894.186 274.247 23
1 -8 2 2329.06 339.686 22
-1 8 -2 2671.65 357.226 16
-1 8 -2 2013.77 300.513 23
-1 8 -2 2302.2 286.298 24
1 -8 3 8390.19 557.443 19
-1 8 -3 6926.46 409.255 24
-1 8 -3 7985.21 490.86 16
1 -8 4 -67.3167 111.011 56
-1 8 -4 201.137 108.834 16
1 -7 -10 6749.5 428.938 6
-1 7 10 4944.95 465.833 18
1 -7 -9 1894.29 333.834 6
-1 7 9 1186.11 473.811 27
-1 7 9 1923.75 428.787 18
-1 7 8 48209.6 1628.69 26
-1 7 8 44904.3 1391.05 21
1 -7 -8 44732 1185.9 59
1 -7 -8 49017.9 1438.15 6
-1 7 7 3785.96 1064.67 33
1 -7 -7 5540.11 479.702 59
-1 7 7 5341.21 615.215 21
-1 7 7 5660.55 634.236 26
1 -7 -7 5722.96 516.598 6
-1 7 7 5212.37 502.838 20
1 -7 -6 1713.82 552.917 51
-1 7 6 2110.61 816.451 1
-1 7 6 1948.64 898.582 33
-1 7 6 2507.69 813.152 32
-1 7 6 659.039 700.238 34
-1 7 6 1697.45 721.476 60
1 -7 -6 1781.44 294.914 6
-1 7 6 1722.84 458.018 21
-1 7 6 1954.3 368.882 20
1 -7 -6 1840.94 328.896 7
1 -7 -5 45524.7 2581.06 51
1 -7 -5 48972.2 1387.65 7
-1 7 5 42048.3 2885.1 50
-1 7 5 48140.6 1428.45 20
-1 7 5 51873.1 2990.28 33
1 -7 -5 46426.6 1287.12 6
-1 7 5 50245.9 2734.02 32
1 -7 -5 46379.9 1372.61 22
-1 7 5 48178.9 2736.09 60
-1 7 5 50549.4 3084.73 34
-1 7 5 46801.3 2830.3 1
1 -7 -4 8628.39 549.035 7
1 -7 -4 7926.75 594.39 22
-1 7 4 8486.09 1256.62 34
-1 7 4 7414.38 1181.09 50
-1 7 4 8922.87 569.803 23
1 -7 -4 7552.08 1076.36 51
1 -7 -3 2638.67 662.333 51
-1 7 3 3449.7 839.351 35
-1 7 3 2365.5 782.524 50
-1 7 3 2934.74 698.917 47
1 -7 -3 3265.9 439.938 22
-1 7 3 2875.54 368.297 23
1 -7 -2 30039.5 1046.89 56
-1 7 2 31177.6 1933.31 47
1 -7 -2 35036.4 1279.88 22
-1 7 2 29669.4 2134.41 35
-1 7 2 33397.2 1147.38 23
-1 7 2 35594.6 2610.66 50
1 -7 -2 32066.8 2190 51
1 -7 -1 570.441 486.545 51
1 -7 -1 250.908 265.346 19
-1 7 1 17.3462 403.904 35
-1 7 1 497.041 210.697 16
1 -7 -1 -105.711 249.703 22
-1 7 1 34.6993 221.71 23
-1 7 0 4202.85 795.997 35
1 -7 0 3654.72 824.647 51
-1 7 0 3788.47 406.578 16
1 -7 0 4124.71 497.122 19
-1 7 0 4722.07 968.62 61
1 -7 0 4166.28 530.032 22
-1 7 0 4030.41 486.397 23
1 -7 1 20643.8 1026.57 19
-1 7 -1 19708 823.028 24
1 -7 1 21266.7 1108.68 22
-1 7 -1 21820.1 1017.16 23
-1 7 -1 20819.1 908.685 16
1 -7 1 22147.3 989.544 18
1 -7 2 5690.82 522.288 18
-1 7 -2 5062.22 500.6 16
1 -7 2 4632.86 560.031 22
-1 7 -2 4769.9 441.894 24
-1 7 -2 4631.04 488.339 23
1 -7 2 4893.99 556.198 19
-1 7 -3 3252.09 385.815 24
-1 7 -3 4232.21 445.704 16
1 -7 3 3781.57 429.293 18
-1 7 -3 3525.27 372.034 23
1 -7 3 4253.79 511.831 19
-1 7 -4 32100.5 949.181 16
1 -7 4 32996.7 1115.63 19
-1 7 -4 31059.4 927.53 24
-1 7 -5 47.9082 101.341 24
-1 7 -5 295.066 122.322 16
-1 6 11 -214.205 139.13 18
1 -6 -11 295.396 106.462 54
-1 6 10 7544.72 531.022 18
1 -6 -10 7785.3 480.838 6
-1 6 9 9434.35 753.059 18
-1 6 9 7581.04 709.977 27
1 -6 -9 8701.12 605.674 6
1 -6 -8 6258.52 550.462 6
-1 6 8 6293.67 858.719 27
-1 6 8 6101.74 649.199 26
-1 6 7 15021 881.431 21
-1 6 7 16145.8 2095.92 33
1 -6 -7 17219 879.109 6
1 -6 -7 15708.3 730.843 59
-1 6 7 18414.7 1083.73 26
-1 6 6 7081.61 571.179 20
-1 6 6 7456.56 659.406 21
-1 6 6 6897.72 1318.58 33
1 -6 -6 6077.76 946.38 51
1 -6 -6 7353.44 584.424 7
1 -6 -6 7404.7 551.075 6
1 -6 -6 7102.36 1098.19 49
-1 6 6 7341.42 1224.46 1
-1 6 6 6974.32 1180.88 60
-1 6 6 7750.12 681.297 26
-1 6 6 6912.68 1395.81 34
-1 6 5 9338.71 1162.29 32
-1 6 5 10372 1356.55 33
-1 6 5 7917.19 1142.38 60
-1 6 5 8763.53 1202.1 1
1 -6 -5 9153.89 598.828 7
-1 6 5 8965.82 1305.26 34
1 -6 -5 9128.13 1116.8 51
-1 6 4 113128 3777.82 60
1 -6 -4 112301 1942.71 7
-1 6 4 107690 3753.26 1
1 -6 -4 113194 3646.38 51
-1 6 3 2723.13 631.897 47
1 -6 -3 3998.48 773.929 55
1 -6 -3 3287.26 323.024 7
-1 6 3 3107.37 330.848 23
-1 6 3 3175.55 740.425 35
-1 6 3 2716.11 692.944 50
1 -6 -3 3466.89 684.202 51
-1 6 2 13308.3 1312.39 35
-1 6 2 12403.8 1409.84 50
1 -6 -2 12584.9 1217.74 51
-1 6 2 12193.8 631.443 23
-1 6 2 12271.8 1167.95 47
-1 6 1 62031.6 2713.23 35
-1 6 1 61154.5 1454.84 23
-1 6 1 64938.3 3252.09 50
1 -6 -1 60785.1 2747.51 51
-1 6 0 14142.3 1305.22 35
-1 6 0 16280 1684.43 61
1 -6 0 15497 1480.89 51
-1 6 0 15895.8 791.327 23
-1 6 -1 2758.48 340.606 24
-1 6 -1 2427.29 804.055 61
1 -6 1 3413.99 460.848 22
1 -6 1 2116.98 664.25 51
-1 6 -1 3090.67 406.485 23
1 -6 1 2963.42 447.337 19
1 -6 1 2638.88 381.65 18
-1 6 -1 2848.54 347.644 16
1 -6 2 792.861 287.239 18
-1 6 -2 773.931 282.412 23
1 -6 2 752.813 321.718 22
-1 6 -2 551.461 227.75 24
1 -6 2 1074.7 400.19 19
-1 6 -2 1049.87 347.732 16
1 -6 3 30748.4 1170.63 18
1 -6 3 31191.6 1306.94 19
-1 6 -3 31657.8 1152.75 16
-1 6 -3 30414.5 1085.43 23
-1 6 -3 29943.3 1096.59 24
-1 6 -4 6236.38 504.83 24
-1 6 -4 7753.71 578.974 16
1 -6 4 6445.56 614.182 19
1 -6 4 7206.98 587.391 18
-1 6 -5 -88.5329 181.139 24
1 -6 5 -50.7908 190.864 18
1 -6 5 137.031 263.046 19
-1 6 -5 209.595 183.68 16
1 -6 6 9354.04 451.339 19
-1 6 -6 9288.54 363.311 16
-1 6 -6 9293.36 428.424 24
-1 5 11 4099.04 281.905 18
1 -5 -11 4727.58 240.507 54
-1 5 10 7803.01 565.475 18
1 -5 -10 6540.87 406.782 11
-1 5 10 7857.38 514.487 17
1 -5 -9 25633.7 993.04 6
-1 5 9 24775.1 1121.4 27
1 -5 -9 23733.5 893.259 11
1 -5 -8 -22.0301 170.287 11
1 -5 -8 199.454 236.686 6
1 -5 -7 33852.7 2354.66 49
1 -5 -7 31191.5 1006.63 11
-1 5 7 30235.1 1364.88 27
-1 5 7 32948.2 1367.68 26
-1 5 7 30406.5 2502.49 1
-1 5 7 27681.7 2491.62 60
1 -5 -7 30605.6 1144.31 6
-1 5 6 120206 4708.75 60
1 -5 -6 127309 4356.5 49
-1 5 6 122791 2456.9 26
-1 5 6 124301 4986.43 33
-1 5 6 124023 4606.03 1
1 -5 -6 121214 2160.45 6
1 -5 -6 119600 2216.01 7
1 -5 -5 17168.1 760.941 7
-1 5 5 16047.5 1521.82 1
1 -5 -5 17241.8 1422.52 51
1 -5 -5 16427.4 1492.6 49
-1 5 5 15294.2 1613.92 34
-1 5 5 15842 1490.08 32
-1 5 5 15859.2 1547.98 60
-1 5 5 17335.5 1687.13 33
1 -5 -4 20986.6 770.243 7
-1 5 4 21440.6 1548.1 32
-1 5 4 20401.7 1559.72 1
-1 5 4 20532.4 1542.84 60
1 -5 -4 21043.3 1463.42 51
1 -5 -4 19344.7 1504.34 49
-1 5 4 21912.8 1679.69 34
1 -5 -3 25405 1629.02 55
1 -5 -3 19900.1 1323.39 51
-1 5 3 20523.9 1393.38 60
-1 5 3 19962.5 1494.64 35
-1 5 3 20801.8 1452.61 47
-1 5 2 56495.6 2356.87 35
-1 5 2 58254.9 2658.98 50
-1 5 2 59330.9 2302.72 47
1 -5 -2 55525.2 2203.02 51
-1 5 1 162941 3986.07 48
-1 5 1 169113 4044.03 35
1 -5 -1 167325 3926.57 51
-1 5 1 176219 4707.35 50
-1 5 0 11078.9 1280.18 50
-1 5 0 10123.8 1008.68 48
1 -5 0 10362.6 1095.2 51
-1 5 -1 1465.05 466 48
1 -5 1 1516.38 533.314 51
-1 5 -1 1504.64 544.529 61
1 -5 2 39380.6 1230.68 18
-1 5 -2 43916.9 2744.84 61
1 -5 2 40052.8 1318.34 19
1 -5 2 41634.1 2501.14 51
-1 5 -2 39793.8 1180.92 16
-1 5 -3 53769.6 3256.22 61
1 -5 3 48327.6 1456.28 18
1 -5 3 48365.5 1573.38 19
-1 5 -3 46797.9 1355.12 24
-1 5 -3 50259.7 1358.13 23
1 -5 3 50007.5 2993.84 51
-1 5 -3 50013.2 1402.75 16
-1 5 -4 4015.74 446.294 16
-1 5 -4 4172.38 455.295 24
1 -5 4 4372.05 506.717 18
1 -5 4 4372.68 560.034 19
-1 5 -5 42200.8 1266.29 24
-1 5 -5 41973.9 1225.88 16
1 -5 5 43267 1501.44 19
1 -5 5 43322.8 1375.71 18
-1 5 -6 4382.92 362.915 16
1 -5 6 4276.25 456.365 19
-1 5 -6 4072.13 374.167 24
1 -5 6 4412.97 423.146 18
-1 5 -7 634.498 144.059 24
1 -4 -10 8001.28 478.138 11
-1 4 10 7404.07 529.627 9
-1 4 10 9689.24 603.155 18
1 -4 -10 9469.81 480.068 54
-1 4 10 8747.17 537.808 17
-1 4 9 561.926 371.418 27
-1 4 9 572.491 347.356 18
1 -4 -9 639.225 235.531 6
1 -4 -9 747.692 224.847 11
1 -4 -8 82424 1815.57 11
1 -4 -8 77889.9 1864.65 6
-1 4 8 80359.8 2183.95 18
-1 4 8 78577.8 2214.4 27
1 -4 -7 38504.1 1175.29 11
1 -4 -7 38575 2469.32 49
1 -4 -7 37464.1 1250.37 6
-1 4 7 37424.4 2947.99 60
-1 4 7 38597.8 1529.55 27
-1 4 7 39872.3 1469.91 26
-1 4 7 35738.7 2349.85 46
-1 4 6 36093.1 2507.94 1
-1 4 6 33472.7 2585.32 33
1 -4 -6 35097.7 2211.94 49
-1 4 6 34429.1 1264.24 26
-1 4 6 35068.4 2641.06 60
-1 4 5 138932 4431.56 32
1 -4 -5 161070 4328.1 49
-1 4 5 142941 4579.77 34
1 -4 -5 157760 2286.58 7
-1 4 5 155894 4916.6 60
-1 4 5 161317 4692.21 1
-1 4 5 157427 4845.48 33
-1 4 4 15263.9 1356.86 34
-1 4 4 17110.8 1357.35 32
-1 4 4 16610.6 1428.71 60
1 -4 -4 15875.3 1269.18 49
-1 4 4 17063.2 1388.33 1
-1 4 3 64623.9 2355.37 60
1 -4 -3 65079.9 2152.65 51
1 -4 -3 71128.6 2190.76 55
-1 4 3 67295.7 2388.06 47
-1 4 3 65927.7 2380.01 35
1 -4 -3 63097.7 2349.26 49
-1 4 2 84969.9 2515.45 47
-1 4 2 84581.1 2395.14 60
-1 4 2 82687.6 2533.35 35
1 -4 -2 77916.3 2255.19 51
-1 4 1 8727.27 1053.97 50
1 -4 -1 7376.53 749.021 51
-1 4 1 6933.49 807.312 48
-1 4 1 7408.72 801.24 41
-1 4 0 1437.16 204.268 38
-1 4 0 1058.92 408.374 48
-1 4 0 1626.81 647.276 50
-1 4 0 1208.61 485.228 41
1 -4 0 1442.19 476.479 51
-1 4 -1 6593.18 947.025 61
1 -4 1 5507.41 769.39 51
-1 4 -1 6188.42 897.222 41
-1 4 -1 5653.29 402.534 38
-1 4 -1 5759.81 733.299 48
-1 4 -2 26950.7 1495.67 48
-1 4 -2 25081.6 895.845 38
-1 4 -2 25205.3 1811.72 61
-1 4 -2 25701.7 1812.39 41
1 -4 2 24778.6 1771.05 8
1 -4 2 25801 1756.47 51
1 -4 3 12423.1 1390.47 51
-1 4 -3 12543.5 690.723 38
1 -4 3 13439.2 1450.4 8
-1 4 -3 12888.4 1459.86 61
-1 4 -4 3366.82 368.964 25
1 -4 4 2882.63 828.346 51
-1 4 -4 3796.98 454.795 38
1 -4 4 3576.63 550.112 19
1 -4 4 3298.14 477.914 18
-1 4 -4 4182.08 967.181 61
1 -4 4 2853.96 782.758 8
-1 4 -4 3873.46 432.117 24
-1 4 -5 4460.8 441.099 25
1 -4 5 4589.89 538.976 18
-1 4 -5 4282.9 464.772 24
1 -4 5 3399.15 865.51 8
1 -4 5 4812.04 614.408 19
-1 4 -5 4820.76 474.361 16
1 -4 6 47.6532 277.223 18
-1 4 -6 90.4044 166.846 25
1 -4 6 -59.9643 325.622 19
-1 4 -6 417.667 258.097 24
-1 4 -6 53.4101 223.519 16
-1 4 -7 6259.57 400.64 25
-1 4 -7 6748.18 373.792 16
1 -4 7 6340.19 477.161 19
1 -4 7 7158.85 511.92 18
-1 4 -7 6945.5 446.291 24
1 -3 -10 8372.19 440.746 54
-1 3 10 8473.8 545.005 18
-1 3 10 6978.16 470.087 17
1 -3 -10 7610.64 457.566 11
-1 3 9 771.959 373.48 18
-1 3 9 1200.01 432.8 17
1 -3 -9 788.86 242.792 11
1 -3 -8 78.6781 210.182 6
-1 3 8 -684.811 493.71 27
1 -3 -8 -182.25 225.766 11
1 -3 -7 30252.7 1112.28 6
1 -3 -7 33948.5 1141.37 11
1 -3 -7 35196.3 2358.83 49
-1 3 7 31793.2 1386.82 18
-1 3 7 31589.2 1470.12 27
-1 3 7 34255.5 2895.8 60
-1 3 7 30441.9 2218.08 46
-1 3 6 10263.7 745.301 26
-1 3 6 9078.07 1175.62 46
-1 3 6 9891.33 790.111 27
1 -3 -6 10340.7 589.064 11
1 -3 -6 10477.6 1221.53 49
-1 3 6 9611.39 1451.24 60
-1 3 6 9295.18 1308.47 1
1 -3 -5 983.382 458.007 49
-1 3 5 815.401 399.117 31
-1 3 5 668.348 293.362 26
-1 3 5 1080.87 661.085 60
-1 3 5 1042.36 591.309 1
-1 3 5 658.631 647.003 33
-1 3 4 110497 3380.29 34
-1 3 4 109614 3343.81 32
1 -3 -4 111107 2874 13
-1 3 4 118472 3548 1
-1 3 4 115384 3581.11 33
1 -3 -4 117463 3275.78 49
-1 3 4 113386 3730.31 60
1 -3 -3 62156.3 2119.98 49
-1 3 3 65768.7 2212.05 35
1 -3 -3 71539.2 1893.28 55
-1 3 3 62180.6 2219.84 1
-1 3 3 70116.3 2280.17 34
-1 3 3 68874.9 2310.39 47
-1 3 3 70146.2 2503.77 60
1 -3 -2 28359.2 1186.42 51
-1 3 2 28940.5 1308.46 60
-1 3 2 27915.5 1284.51 35
1 -3 -2 26440.8 1270.95 49
-1 3 2 29581.5 1347.03 47
-1 3 1 54186.7 1645.43 41
-1 3 1 54323.8 1709.17 48
-1 3 1 57938.4 1592.71 60
1 -3 0 258140 3810.54 51
-1 3 0 256922 4194.36 41
-1 3 0 264447 3946.74 48
-1 3 0 254114 4374.49 50
-1 3 -1 12158.7 1016.14 41
1 -3 1 12433.1 1012.75 8
1 -3 1 12565.4 955.483 51
-1 3 -2 5341.79 764.02 41
-1 3 -2 5142.9 779.58 61
-1 3 -2 5502.32 381.913 38
1 -3 2 4889.34 716.263 8
1 -3 2 4909.01 715.781 51
-1 3 -3 250946 2890.79 38
-1 3 -3 246639 5615.74 61
1 -3 3 238523 5641.46 8
1 -3 3 256536 5556.61 51
1 -3 3 248604 2953.64 9
-1 3 -3 253029 5425.25 41
-1 3 -4 32457.2 1082.4 38
-1 3 -4 33991.4 2341.07 61
1 -3 4 33944.2 1175.86 9
1 -3 4 32554.6 2342.31 8
1 -3 4 34724.3 2324.9 51
-1 3 -5 8903.66 612.147 38
1 -3 5 9119.15 672.658 9
1 -3 5 8795.98 707.34 18
1 -3 5 9305.28 1409.48 8
-1 3 -5 8434.98 1307.34 61
1 -3 5 9095.7 1398.51 51
-1 3 -5 9192.8 624.967 24
-1 3 -5 8171.92 572.375 25
1 -3 5 8495.12 747.455 19
1 -3 6 7781.91 1350.62 8
-1 3 -6 9699.8 602.04 16
1 -3 6 10170.4 754.366 18
-1 3 -6 9697.45 634.071 25
-1 3 -6 10466.1 668.87 24
1 -3 6 9629.36 756.122 19
-1 3 -7 7885.17 547.934 25
1 -3 7 7815.21 607.501 19
1 -3 7 7347.71 619.245 18
-1 3 -7 7692.99 524.466 24
1 -3 7 5703.43 1095.9 8
1 -3 8 3305.74 305.33 19
-1 3 -8 3305.99 301.744 25
-1 3 -8 3612.13 298.129 24
1 -3 8 3703.59 367.381 18
1 -2 -10 473.311 138.483 54
-1 2 10 823.027 233.611 17
-1 2 10 615.34 202.924 18
-1 2 9 182.665 262.508 19
-1 2 9 221.582 331.253 17
1 -2 -9 593.04 221.636 11
1 -2 -9 15.6578 145.84 25
-1 2 9 671.608 335.019 18
-1 2 9 282.238 228.353 9
1 -2 -9 384.938 223.952 54
1 -2 -8 69879.4 1693.24 6
1 -2 -8 75811.3 1727.82 25
1 -2 -8 74206.3 1783.37 11
-1 2 8 76524.3 2035.54 18
-1 2 7 518.595 395.992 18
-1 2 7 696.015 558.194 27
1 -2 -7 566.18 228.834 25
1 -2 -7 748.585 486.447 49
-1 2 7 966.656 452.447 3
1 -2 -7 385.427 196.448 6
1 -2 -7 500.341 247.616 11
-1 2 7 775.454 671.855 60
1 -2 -6 42.1666 168.083 11
1 -2 -6 535.24 383.593 49
-1 2 6 379.044 447.035 46
-1 2 6 -37.4278 466.606 60
-1 2 6 37.5168 428.171 27
-1 2 5 43979.5 1292.96 26
-1 2 5 44003.8 1347.42 27
-1 2 5 48317.4 2384.11 46
1 -2 -5 48239.1 2263.84 49
-1 2 5 41539 2141.22 31
-1 2 5 48370 2626.26 1
-1 2 5 45110.6 2670.35 60
1 -2 -4 25283.1 1463.88 13
-1 2 4 26959.4 1752.02 1
-1 2 4 25664.2 1468.01 31
-1 2 4 26777.3 1903.77 33
1 -2 -4 26497 1520.95 49
-1 2 4 25844.5 1783.53 60
1 -2 -3 166464 3113.52 13
-1 2 3 169481 3488.41 32
-1 2 3 164667 3396.7 34
-1 2 3 158428 3546.77 1
1 -2 -3 157428 3212.21 49
1 -2 -3 156514 2223.9 52
-1 2 3 171500 3834.01 60
-1 2 3 166855 3571.79 33
1 -2 -2 394660 4698.22 49
1 -2 -2 442968 4557.94 55
-1 2 2 429745 5298.63 60
-1 2 2 407256 4832.61 1
1 -2 -2 415131 3853.92 52
-1 2 2 420319 4741.34 47
-1 2 2 426323 4634.71 35
-1 2 1 509619 4645.64 60
1 -2 -1 498908 4337.75 51
-1 2 0 68457.2 1818.77 50
-1 2 0 68104.5 1677.39 36
1 -2 0 63998.7 1473.54 51
-1 2 -1 1616.83 375.325 50
-1 2 -1 1341.65 282.792 36
-1 2 -1 1636.05 334.877 41
1 -2 1 1487.57 330.686 51
-1 2 -2 84968.2 2459.79 41
1 -2 2 81366.1 2484.77 8
-1 2 -2 86090.7 2564.71 37
1 -2 2 82139.6 2356.87 51
-1 2 -2 84842.5 2543.7 36
-1 2 -2 79097.1 2445.13 61
-1 2 -2 79274.3 2006.09 13
-1 2 -3 7773.31 782.685 13
-1 2 -3 7561.43 881.518 41
-1 2 -3 8402.48 460.256 38
1 -2 3 8988.76 968.571 51
1 -2 3 8695.47 480.427 9
-1 2 -3 7828.4 951.882 61
1 -2 4 43496.4 2104.41 60
-1 2 -4 46021.2 2416.79 61
-1 2 -4 43471 1120.5 38
1 -2 4 46204.8 2437.3 51
-1 2 -4 44521.2 2144.83 13
1 -2 4 46406.8 1259.28 9
-1 2 -4 43479.9 2100.03 41
-1 2 -5 13594.4 689.691 38
1 -2 5 15235.7 1654.32 51
-1 2 -5 14013.8 1498.34 61
1 -2 5 13634.5 752.86 17
-1 2 -5 14560.3 713.01 24
1 -2 5 14079.8 801.397 9
-1 2 -5 13219.4 608.249 11
1 -2 5 13325.9 801.166 18
-1 2 -5 13362.2 686.237 25
-1 2 -6 292.076 208.73 25
1 -2 6 213.969 300.752 18
1 -2 6 357.572 347.159 19
-1 2 -6 335.303 191.199 38
1 -2 6 -48.9953 286.779 9
-1 2 -6 201.026 180.83 11
-1 2 -6 355.4 224.292 24
-1 2 -7 5271.71 489.796 25
1 -2 7 5645.36 599.736 19
1 -2 7 4943.73 1139.7 8
1 -2 7 5898.75 629.391 18
-1 2 -7 5821.8 489.903 24
1 -2 7 5512.73 569.803 9
-1 2 -8 3524.12 333.695 24
-1 2 -8 3393.25 374.635 25
1 -2 8 3314.45 424.911 18
1 -2 8 2917.47 351.592 19
-1 2 -9 7461.62 401.018 25
1 -2 9 6933.08 408.754 18
-1 1 10 1125.7 185.501 18
-1 1 9 155.176 308.552 17
1 -1 -9 281.009 165.391 11
-1 1 9 380.729 238.482 19
-1 1 9 -153.309 221.463 9
1 -1 -9 438.739 185.95 25
-1 1 9 369.28 278.437 18
1 -1 -9 243.386 169.605 54
-1 1 8 1414.17 425.48 18
-1 1 8 1589.26 376.13 9
-1 1 8 2086.87 484.03 17
1 -1 -8 1285.65 306.54 11
-1 1 8 975.766 436.871 19
1 -1 -8 1247.72 284.503 54
1 -1 -8 1884.63 321.82 25
-1 1 7 8402.81 708.882 3
-1 1 7 8558.91 758.699 18
-1 1 7 8111.71 779.645 27
1 -1 -7 8367.66 612.43 11
1 -1 -7 8307.65 628.368 25
-1 1 6 26319.9 1196.83 27
-1 1 6 25033.1 2304.86 60
-1 1 6 22807.6 1045.06 3
1 -1 -6 22593.2 899.444 25
1 -1 -6 23785.8 939.857 11
-1 1 6 23145.3 1097.84 18
1 -1 -6 20214.3 847.426 6
1 -1 -6 25171.4 1881.52 49
-1 1 5 14174.8 810.685 27
1 -1 -5 15175.8 674.154 11
-1 1 5 15935.9 1617.25 60
1 -1 -5 15373.6 1340.31 49
-1 1 5 15064.5 1460.49 46
-1 1 4 436.204 494.274 60
-1 1 4 -356.837 495.894 46
1 -1 -4 337.319 257.147 52
1 -1 -4 584.201 420.771 49
1 -1 -4 391.581 367.222 13
1 -1 -3 54456.1 1443.55 52
-1 1 3 58757.3 2187.27 60
-1 1 3 54048.6 2075.44 1
-1 1 3 58683 1950.17 31
-1 1 3 55924 2172.34 33
1 -1 -3 56860.4 1945.86 13
1 -1 -3 54322.9 1890.26 49
-1 1 2 233099 3547.46 1
1 -1 -2 228795 3290.27 49
1 -1 -2 235389 2696.48 52
1 -1 -1 21912.1 796.019 55
1 -1 -1 19218.4 730.485 49
-1 1 1 21356.9 817.12 60
-1 1 1 18118.5 752.215 1
-1 1 1 20837.5 676.215 48
1 -1 -1 20316.5 685.637 52
1 -1 0 1872.07 194.933 51
-1 1 0 1938.76 155.619 60
1 -1 1 23009.7 829.405 51
-1 1 -1 24325.4 907.45 50
1 -1 2 6719.48 587.159 51
-1 1 -2 6367.55 596.228 36
-1 1 -2 6101 584.73 61
-1 1 -3 2210.24 512.09 37
1 -1 3 1377.34 458.151 51
1 -1 3 1087.75 352.519 60
-1 1 -3 1992.34 528.714 61
-1 1 -3 1778.39 443.197 36
1 -1 4 1717.88 538.992 51
1 -1 4 1732.11 286.822 9
-1 1 -4 1761.57 445.999 41
-1 1 -4 1777.89 525.839 61
-1 1 -4 1485.13 465.261 13
1 -1 4 1530.54 418.212 60
-1 1 -5 62345.5 2840.85 61
-1 1 -5 61050.4 1336.07 38
1 -1 5 62987.5 1591.53 9
1 -1 5 66494.2 3114.18 51
-1 1 -5 61802.8 2783.87 13
1 -1 5 62088.6 2799.73 60
-1 1 -6 -137.637 205.544 25
-1 1 -6 254.821 193.696 38
1 -1 6 363.392 343.28 19
1 -1 6 -27.0134 255.958 18
-1 1 -6 536.046 410.676 13
-1 1 -6 76.1344 162.62 11
-1 1 -6 -99.2784 173.723 15
1 -1 6 398.274 324.165 9
-1 1 -6 168.788 194.703 24
1 -1 6 -17.6135 477.401 51
1 -1 6 192.093 313.668 17
1 -1 7 100268 2315.61 18
-1 1 -7 99670 1930.07 24
1 -1 7 105640 2387.71 9
1 -1 7 90230.8 2148.46 19
1 -1 7 95009.3 2132.23 17
-1 1 -7 99466.5 2064.19 25
-1 1 -7 95250.9 1906.03 11
1 -1 8 -179.229 281.064 19
1 -1 8 119.37 266.591 9
-1 1 -8 -81.4535 160.854 11
-1 1 -8 154.775 218.714 25
-1 1 -8 104.854 188.426 24
1 -1 8 -506.105 572.807 8
1 -1 8 -260.262 323.52 18
1 -1 9 2943.81 372.628 18
-1 1 -9 2817.09 314.997 25
-1 0 9 127.72 207.692 19
1 0 -9 160.68 135.298 25
-1 0 8 294.917 284.003 18
1 0 -8 188.997 207.586 25
1 0 -8 138.084 201.387 54
-1 0 8 -218.15 230.124 9
1 0 -8 57.8898 185.101 11
-1 0 8 509.363 346.105 19
-1 0 8 405.683 388.118 17
-1 0 7 43442.6 1648.49 19
1 0 -7 50365.1 1500.8 25
-1 0 7 49572.1 1642.61 17
-1 0 7 47713.8 1570.88 9
1 0 -7 45543.5 1380.51 11
1 0 -7 44059 1226.75 54
-1 0 7 48257.4 1630.86 18
1 0 -6 30676 2192.92 49
-1 0 6 28136.4 1223.48 18
-1 0 6 28286.7 1215.43 3
-1 0 6 26766.7 2435.77 60
1 0 -6 28084.1 1080.53 25
1 0 -6 28967.9 1055.23 11
1 0 -5 24670.8 895.86 11
-1 0 5 24660.3 1041.3 3
-1 0 5 25934.5 1102.58 27
-1 0 5 27436.1 2156.79 60
-1 0 5 25297 1802.94 2
1 0 -5 26826.8 1842.38 49
-1 0 4 8307.22 587.144 27
-1 0 4 7907.43 1094.4 46
-1 0 4 8455.12 654.101 3
-1 0 4 7878.38 992.671 51
-1 0 4 8405.81 1036.22 60
1 0 -4 8774.57 472.546 11
1 0 -4 9160.96 972.515 49
-1 0 3 23701.4 1467.1 46
-1 0 3 23814.5 1453.37 60
1 0 -3 25252.6 1409.94 13
-1 0 3 25150.6 1346.03 51
-1 0 2 150783 2947.83 31
-1 0 2 152477 3018.02 46
-1 0 2 154668 2640.69 51
-1 0 1 23906.5 860.08 1
-1 0 1 26069.9 744.857 51
1 0 0 351728 2255.59 49
-1 0 0 351061 2318.15 1
1 0 1 39860.4 864.303 51
1 0 1 38330.6 676.805 60
-1 0 -1 38997.6 777.543 61
-1 0 -2 129812 2142.57 61
1 0 2 126821 2283.31 51
1 0 2 130623 2078.84 60
-1 0 -3 852204 7790.06 61
1 0 3 842418 7644.83 60
-1 0 -3 852351 7435.94 36
1 0 3 833899 8057.29 51
1 0 4 71779.9 2582.58 51
-1 0 -4 65020.1 2343.35 61
1 0 4 67304.5 2420.7 60
-1 0 -4 68879.8 2170.58 36
-1 0 -4 71857.7 2469.33 37
-1 0 -5 64751.9 2726.23 13
1 0 5 72048.2 3006.85 51
-1 0 -5 64038.1 2646.87 61
1 0 5 66879.7 2809.24 60
-1 0 -6 7900.52 1100.55 13
-1 0 -6 10901.5 1251.44 49
1 0 6 9520.61 1286.21 60
1 0 6 10410.7 730.138 9
-1 0 -7 735.645 467.397 49
-1 0 -7 669.733 222.194 15
-1 0 -7 669.996 232.053 25
-1 0 -7 994.143 230.37 24
-1 0 -7 994.176 272.229 11
1 0 7 977.876 366.686 17
1 0 7 957.668 357.013 18
1 0 7 602.883 321.506 9
1 0 8 7845.74 688.57 9
-1 0 -8 7987.35 609.598 25
1 0 8 8085.97 650.425 17
1 0 8 8320.74 735.161 18
-1 0 -8 8020.43 572.26 11
-1 0 -9 9535.95 572.752 11
-1 0 -9 10471.6 623.698 25
1 0 9 11428.8 732.271 18
1 0 9 9432.01 653.063 9
1 0 10 102.181 171.186 18
-1 0 -10 380.224 144.945 25
-1 -1 9 871.201 173.133 18
-1 -1 9 1056.85 184.119 19
-1 -1 8 60224 1569.41 19
1 1 -8 61646.6 1512.2 25
-1 -1 8 65273.2 1607.63 18
-1 -1 7 2239.71 392.612 9
-1 -1 7 2354.63 463.761 18
-1 -1 7 2314.55 525.297 17
1 1 -7 2192.79 342.171 11
1 1 -7 2162.04 325.205 54
-1 -1 7 1634.24 483.355 19
1 1 -7 2379.24 382.489 25
-1 -1 6 5313.21 598.696 18
1 1 -6 4422.84 399.6 24
-1 -1 6 4322.65 508.846 9
1 1 -6 4393.02 447.227 11
-1 -1 6 4359.72 629.477 19
1 1 -6 5412.88 507.833 25
-1 -1 6 2735.29 840.176 60
1 1 -6 4280.23 401.006 54
-1 -1 6 5024.93 645.467 17
-1 -1 5 497.785 351.174 17
1 1 -5 797.708 228.066 11
1 1 -5 681.793 225.819 25
-1 -1 5 771.657 642.281 28
-1 -1 5 687.376 381.185 3
-1 -1 5 453.36 470.342 60
1 1 -5 770.914 438.534 49
-1 -1 5 745.435 270.088 9
-1 -1 5 202.569 520.275 51
-1 -1 4 72552.2 2849 2
-1 -1 4 79936.3 3237.96 60
1 1 -4 79643.4 3025.83 61
-1 -1 4 70631.9 2981.6 28
-1 -1 4 74848.5 1676.41 3
1 1 -4 74221.7 1436.14 11
-1 -1 4 76344.1 1659.69 27
-1 -1 4 72857.8 2900.34 51
-1 -1 3 4705.26 449.096 3
1 1 -3 3928.51 643.044 61
-1 -1 3 4533.22 769.047 2
-1 -1 3 3338.41 587.007 51
-1 -1 2 42282.9 1791.47 46
-1 -1 2 44817.6 1542.49 51
1 1 -2 42454.7 1671.9 61
1 1 -1 427522 4521.25 61
-1 -1 1 428466 4090.86 51
-1 -1 0 4385.03 287.499 51
1 1 0 4172.49 294.148 61
1 1 1 41994.8 942.756 60
-1 -1 -1 39907.9 693.453 49
1 1 1 42115.4 769.45 52
-1 -1 -2 94059.3 1992.21 44
-1 -1 -2 91565 1597.43 49
1 1 2 89265.9 1849.27 60
1 1 3 114590 2440.37 1
1 1 3 112591 2601.53 60
-1 -1 -3 113315 2244.12 61
-1 -1 -3 114252 2266.07 49
1 1 4 31419.5 1676.09 60
-1 -1 -4 33694.7 1490.61 49
1 1 5 10396.6 1168.98 60
-1 -1 -5 9042.91 1008.48 13
-1 -1 -5 11213.2 1046.02 49
-1 -1 -5 10832.4 1013.58 37
-1 -1 -6 1618.78 279.962 14
1 1 6 1591.51 594.837 60
-1 -1 -6 1577.82 553.091 13
-1 -1 -6 2087.65 574.005 49
1 1 6 1504.18 368.411 27
-1 -1 -7 6129.17 1007.57 49
-1 -1 -7 5617.33 1041.6 13
1 1 7 6103.56 589.44 18
1 1 7 5669.87 1124.88 60
-1 -1 -7 6344.62 515.142 25
1 1 7 6766.83 587.694 17
-1 -1 -7 6291.39 543.327 15
1 1 8 28976.3 1262.99 18
-1 -1 -8 27481.1 1138.66 15
1 1 8 25988.6 1085.86 17
-1 -1 -8 27666.3 1062.92 11
-1 -1 -8 29371.7 1108.05 25
1 1 8 29205.2 1291.96 9
1 1 9 34034.4 1295.32 9
-1 -1 -9 35259.2 1155.41 25
1 1 9 35312.8 1318.54 18
-1 -1 -9 33376.4 1118.28 11
1 1 9 32502.6 1112.99 17
1 1 10 630.288 208.133 9
-1 -1 -10 1228.46 211.393 11
1 1 10 1195.51 278.442 18
-1 -1 -10 1194.46 211.112 25
-1 -2 8 5913.45 421.649 18
1 2 -8 6186.09 447.837 25
-1 -2 8 5857.34 462.143 19
1 2 -7 736.869 205.131 24
1 2 -7 634.322 253.954 25
-1 -2 7 293.525 278.23 18
-1 -2 7 509.907 403.625 19
1 2 -7 667.361 218.268 11
1 2 -6 9304.17 555.868 54
1 2 -6 9625.62 691.949 25
1 2 -6 9856.43 627.391 24
1 2 -6 8631.04 589.546 11
-1 -2 6 9196.84 785.397 17
-1 -2 6 9421.38 888.089 19
-1 -2 6 8756.97 701.972 18
-1 -2 5 19820 1937.78 51
1 2 -5 21227.7 879.961 11
-1 -2 5 20653.5 1173.49 19
-1 -2 5 21920.8 1043.44 17
-1 -2 5 22263.1 1022.89 18
1 2 -5 22887.6 907.279 24
1 2 -5 21221.2 806.973 54
1 2 -5 22504.9 958.979 25
-1 -2 5 22951.2 994.327 9
-1 -2 5 19735.2 2005.55 60
1 2 -4 17923 731.24 11
-1 -2 4 17097.8 782.967 9
1 2 -4 18243.9 1605.78 61
-1 -2 4 17820.7 1578.33 51
-1 -2 4 18576.3 1717.3 60
-1 -2 4 16332.7 1660.59 28
1 2 -3 70329.4 2770.01 61
-1 -2 3 64238.5 2681.88 2
-1 -2 3 63483.7 2793.01 28
-1 -2 3 66966.4 1547.5 3
-1 -2 3 67447.9 2605.06 51
-1 -2 2 110922 1705.62 3
1 2 -2 103546 2916.12 61
-1 -2 2 106810 3120.67 28
-1 -2 2 102164 2986.38 2
-1 -2 2 106801 2767.56 51
-1 -2 1 19.6771 341.777 2
-1 -2 1 -59.6296 239.062 51
1 2 -1 -25.6183 230.532 61
-1 -2 0 479166 4499.42 51
1 2 0 455239 4463.51 61
1 2 1 16212.4 622.903 50
-1 -2 -1 18534.5 785.246 30
-1 -2 -1 17694.2 738.57 51
-1 -2 -2 3043.72 361.034 49
1 2 2 2763.77 401.477 60
-1 -2 -3 46687.9 1447.41 49
1 2 3 46250.5 1493.03 1
-1 -2 -3 47949.7 1637.52 43
1 2 3 43420.3 1624.06 60
1 2 4 67214.9 1715.85 46
-1 -2 -4 70911.3 2156.63 42
-1 -2 -4 70013.3 2079.81 49
1 2 4 72303.9 2281.49 1
1 2 4 67463.3 2476.69 60
1 2 5 -466.115 412.646 46
1 2 5 358.021 400.343 1
-1 -2 -5 525.33 362.04 49
1 2 5 330.697 552.723 60
-1 -2 -5 4.70575 249.772 37
1 2 6 88.833 457.835 60
-1 -2 -6 341.032 311.306 13
-1 -2 -6 223.171 326.704 49
1 2 6 74.5207 308.472 27
-1 -2 -7 146802 4535.25 49
1 2 7 146269 5288.47 60
-1 -2 -7 144042 2326.9 25
-1 -2 -7 143741 4851.93 13
1 2 7 150457 2607.58 27
-1 -2 -7 145553 2409.83 15
1 2 7 152124 2694.21 18
-1 -2 -8 10196.4 655.804 25
-1 -2 -8 9328.99 1361.96 13
1 2 8 9502.24 750.937 18
1 2 8 8391.75 650.246 17
-1 -2 -8 9622.56 675.585 15
-1 -2 -9 2614.46 356.019 25
-1 -2 -9 2709.11 375.789 11
1 2 9 2181.83 390.302 17
1 2 9 2751.98 497.117 18
1 2 9 2477.19 455.875 9
-1 -2 -10 23491.9 866.069 11
-1 -2 -10 22256 818.676 25
1 2 10 24153.1 976.825 9
1 2 10 23665.3 956.046 18
1 2 11 179.82 141.264 18
-1 -2 -11 153.904 88.8418 25
-1 -3 8 15344.8 525.467 19
-1 -3 7 21226.2 938.773 19
1 3 -7 20012.4 731.059 24
1 3 -7 20633.3 830.862 25
-1 -3 7 20816.5 836.951 18
-1 -3 6 13254.8 800.757 18
-1 -3 6 13927.8 974.359 19
1 3 -6 12997.1 760.464 25
1 3 -6 14005.8 723.622 24
-1 -3 5 54029.2 1594.93 18
1 3 -5 52859.5 1465.39 24
-1 -3 5 51507.8 1654.3 17
1 3 -5 49932.6 1342.23 11
-1 -3 5 52472.3 1844.17 19
1 3 -5 51944.5 1500.15 25
-1 -3 4 2222.74 712.925 8
1 3 -4 2239.5 301.092 11
-1 -3 4 2194.36 523.037 19
1 3 -4 2799.37 750.513 61
-1 -3 4 2506.45 374.413 18
1 3 -4 2348.74 332.536 24
1 3 -4 2428.48 301.26 54
-1 -3 4 2747.04 431.673 17
-1 -3 4 2415.11 707.299 51
1 3 -4 2486.7 319.473 16
-1 -3 4 1725.32 591.421 60
1 3 -4 2612.85 339.919 25
1 3 -3 1228.07 507.647 61
1 3 -3 936.359 195.847 11
-1 -3 3 1277 308.678 4
-1 -3 3 965.625 426.19 51
1 3 -2 11519.3 1124.79 61
-1 -3 2 11009.2 1058.34 51
-1 -3 2 10307 1196.4 28
-1 -3 1 5901.37 712.133 51
1 3 -1 5712.47 741.862 61
-1 -3 0 588.886 286.418 51
1 3 0 150.869 256.909 61
-1 -3 -1 7922.84 620.139 51
-1 -3 -1 7757.47 572.026 30
1 3 1 7279.6 592.571 50
1 3 1 7653.7 417.178 47
1 3 1 7904.82 574.413 35
1 3 2 32897.6 1167.83 12
1 3 2 33099.4 1338.82 60
-1 -3 -2 34743.2 1337.38 51
1 3 3 836815 6679.19 32
1 3 3 844442 8034.88 60
-1 -3 -3 870712 7689.23 49
1 3 3 859740 7303.12 1
1 3 4 7263.08 775.761 1
1 3 4 6523.29 869.85 60
-1 -3 -4 6710.26 735.138 49
1 3 4 6406.06 826.619 33
1 3 5 4965.36 430.706 26
1 3 5 5041.76 903.578 60
1 3 5 6069.91 819.563 1
-1 -3 -5 4995.99 718.534 49
-1 -3 -6 123581 3819.42 13
1 3 6 128490 4394.26 60
-1 -3 -6 124990 3642.13 49
1 3 6 117868 2065.14 27
1 3 6 119039 3932.83 1
1 3 6 124070 2110.17 26
-1 -3 -6 118260 1869.65 7
1 3 7 23715.9 1035.01 27
1 3 7 25621.4 1117.76 18
-1 -3 -7 24945.6 952.708 14
1 3 7 23737.5 2131.87 60
-1 -3 -7 25016.7 1833.77 49
-1 -3 -7 24203 1927.99 13
1 3 8 34749.8 1337.84 18
-1 -3 -8 31325.6 1089.18 6
-1 -3 -8 30395.6 2223.49 49
1 3 8 33258.1 1265.44 27
-1 -3 -8 32338.5 1101.74 25
-1 -3 -8 32959.5 1169.31 15
1 3 8 32349.8 2649 60
-1 -3 -8 31679.6 2371.87 13
1 3 9 25686 1165.9 18
-1 -3 -9 23458.8 927.796 6
-1 -3 -9 24695.2 947.803 25
-1 -3 -9 23978.8 1000.54 11
-1 -3 -10 6949.64 505.427 11
1 3 10 7305.49 599.105 18
-1 -3 -10 7304.93 477.712 25
1 3 10 7861.22 617.898 9
1 3 11 441.541 191.413 18
-1 -3 -11 628.085 136.638 25
-1 -4 7 3993.53 363.654 19
1 4 -7 3559.89 289.612 24
-1 -4 6 1238.4 283.609 18
1 4 -6 997.333 246.628 25
1 4 -6 1126.51 243.107 24
-1 -4 6 912.361 360.839 19
1 4 -5 1023.79 260.056 16
-1 -4 5 826.068 448.7 19
1 4 -5 1000.59 273.802 25
1 4 -5 1072.89 297.577 24
-1 -4 5 762.285 286.983 18
-1 -4 4 84076.2 2279.66 19
1 4 -4 85121.2 1894.71 24
-1 -4 4 84739.7 1905.62 18
1 4 -4 83046.6 1741.08 16
1 4 -4 80560.4 1846.15 25
-1 -4 4 80129.1 2253.06 22
1 4 -3 2871.96 345.998 25
1 4 -3 3095.96 811.827 61
1 4 -3 3273.14 390.371 16
-1 -4 3 2269.86 448.815 22
-1 -4 3 3460.63 515.433 19
1 4 -3 3351.01 382.1 24
-1 -4 3 3147.92 775.643 51
-1 -4 2 78831.2 3112.74 51
-1 -4 2 77207.2 1729.02 4
-1 -4 1 118215 3392.27 51
-1 -4 1 114436 1921.82 4
-1 -4 0 9136.09 884.524 51
1 4 0 9166.05 920.195 61
1 4 1 91611.1 2238.06 35
-1 -4 -1 92333.2 2526.86 51
1 4 1 90383.5 1770.55 47
1 4 1 89485.2 2512.97 50
1 4 2 83294.3 2305.16 35
-1 -4 -2 81305.8 2450.8 29
-1 -4 -2 82641.9 2364.8 51
1 4 2 80760.5 1864.89 47
1 4 2 79967.2 2202.32 50
1 4 3 34811.3 1515.78 34
-1 -4 -3 32494.7 1615.04 51
1 4 3 32052.2 1602.91 60
1 4 3 33741.6 1341.8 12
-1 -4 -3 31575.9 1519.15 49
1 4 4 60335.4 1999.87 32
1 4 4 70217.5 2545.67 60
-1 -4 -4 72505.7 2433.68 39
1 4 4 68843.3 2306.71 1
1 4 4 68310.3 2543.83 34
1 4 4 67634.8 2327.82 33
-1 -4 -4 70130.1 2411.03 49
-1 -4 -5 13331.6 1141.4 49
1 4 5 13769.3 1331.08 33
1 4 5 14615.5 1338.46 60
1 4 5 13931.9 644.587 26
1 4 5 14442.5 1227.73 1
1 4 6 3290.05 427.142 27
-1 -4 -6 3551.75 672.427 13
1 4 6 3272.18 759.914 60
1 4 6 3509.88 709.375 1
-1 -4 -6 3169.1 333.275 7
1 4 6 3147.38 415.525 26
-1 -4 -6 3084.73 616.135 49
-1 -4 -7 16175.5 763.645 7
-1 -4 -7 13995.1 1421.44 13
1 4 7 15019.2 1560.88 1
1 4 7 15068.5 865.811 27
-1 -4 -7 15414 749.268 14
1 4 7 17497.7 1782.78 60
-1 -4 -7 15248.3 1447.17 49
-1 -4 -8 3154.79 384.2 15
-1 -4 -8 2681.57 361.328 6
1 4 8 3450.05 503.692 18
-1 -4 -8 2637.12 745.925 13
1 4 8 2809.63 470.99 27
-1 -4 -8 2782.7 752.753 49
1 4 8 1997.32 721.698 60
-1 -4 -9 55400.9 1482.64 6
-1 -4 -9 54841.1 1478.85 15
1 4 9 54707.9 1677.42 18
-1 -4 -10 17883.3 748.243 6
1 4 10 16948.7 914.157 9
-1 -4 -10 17343.2 783.64 11
1 4 10 17412.1 887.59 18
1 4 11 2732.68 322.382 18
-1 -4 -11 2897.19 233.958 54
-1 -4 -11 2983.26 289.574 11
1 5 -6 11366.1 538.76 24
-1 -5 6 11958.4 638.173 19
1 5 -5 1930.86 329.225 24
-1 -5 5 1917.58 422.85 19
1 5 -5 1952.17 275.987 16
1 5 -4 6310.62 560.581 24
1 5 -4 4745.83 474.255 25
-1 -5 4 5260.45 638.698 19
1 5 -4 6250.34 511.953 16
-1 -5 4 4632.63 623.023 22
1 5 -3 21159.2 922.045 16
1 5 -3 18973.1 857.548 25
-1 -5 3 20805.9 1187.57 22
-1 -5 3 21445 1174.07 19
1 5 -3 21551.3 969.94 24
-1 -5 2 871.747 326.805 19
1 5 -2 399.06 435.112 61
-1 -5 2 1451.79 454.303 22
1 5 -2 741.037 251.189 24
1 5 -2 590.297 255.141 16
-1 -5 2 456.64 423.263 51
-1 -5 1 -249.708 387.289 51
1 5 -1 -279.678 393.375 61
1 5 -1 -159.933 165.774 23
1 5 0 113104 3518.17 61
1 5 0 109413 1830.55 23
-1 -5 0 108974 3429.46 51
1 5 1 17166.1 1132.39 35
-1 -5 -1 15522.7 1224.92 51
1 5 2 2123.71 383.718 47
1 5 2 2735.63 523.597 35
1 5 2 2419.96 572.44 50
-1 -5 -2 2284.68 531.289 51
-1 -5 -3 15332 1163.76 39
1 5 3 16820.2 1152.09 34
1 5 3 15997.1 1099.55 12
1 5 3 15812.5 1162.18 50
-1 -5 -3 18132.2 1298.49 51
1 5 4 81513.8 2890.15 60
-1 -5 -4 77008.7 2609.53 39
1 5 4 72856.4 2214.32 32
1 5 4 85938.8 2661.71 33
1 5 4 82295.4 2873.82 34
-1 -5 -4 85152.9 2953.76 51
1 5 4 77594.7 2268.51 12
1 5 5 102087 1765.89 26
-1 -5 -5 102984 3376.95 49
1 5 5 108826 3641.87 60
1 5 5 102160 3454.42 33
1 5 5 103287 3319.8 1
-1 -5 -6 29609.6 1913.45 49
-1 -5 -6 31603.3 1795.19 13
-1 -5 -6 31888.8 1046.42 7
1 5 6 30759.3 1078.7 26
1 5 6 33923.6 2247.24 60
1 5 6 30360.4 2009.99 1
1 5 7 12091.7 743.264 21
-1 -5 -7 10570.3 1240.94 49
-1 -5 -7 13305.5 1350.29 13
1 5 7 10522.5 746.552 27
1 5 7 10998.7 650.96 20
1 5 7 12148.8 780.092 26
-1 -5 -7 11491.5 642.819 6
1 5 7 11888.5 1462.48 60
-1 -5 -7 11284.3 621.649 14
-1 -5 -7 11550 675.147 7
1 5 7 12745.8 1473.1 1
1 5 8 57915.7 1763.3 18
-1 -5 -8 55001.6 1496.42 6
1 5 8 54496.4 1583.28 27
-1 -5 -8 56300.7 1479.32 14
-1 -5 -8 55046.4 2929.87 49
1 5 8 55601.1 3373.6 60
1 5 8 54732.5 1519.63 21
-1 -5 -8 55769.5 2933.79 13
1 5 9 10009.3 730.052 27
-1 -5 -9 10268.1 660.477 6
1 5 9 10083.5 775.708 18
-1 -5 -10 4545.8 414.563 6
-1 -5 -10 4198.02 397.084 11
1 5 10 4017.64 498.582 18
1 5 11 18181.1 763.482 9
-1 -5 -11 19627.3 690.069 11
1 5 11 19707.5 765.51 18
-1 -6 5 59.41 258.83 19
1 6 -5 -81.1208 138.476 16
1 6 -5 57.7592 161.403 24
-1 -6 4 46917.4 1447.36 22
1 6 -4 48571 1247.68 16
1 6 -4 50650.7 1382.43 24
-1 -6 3 1396.65 446.616 22
1 6 -3 1390.72 325.794 24
-1 -6 3 1558.16 436.505 19
1 6 -3 1349.22 330.748 16
1 6 -2 53668.6 1494.36 16
1 6 -2 52163.2 1483.18 24
-1 -6 2 55219.4 1909.57 22
-1 -6 2 53745.4 1700.03 19
1 6 -1 34570.6 1176.65 23
1 6 -1 36276.7 1173.51 24
-1 -6 1 36965.8 2439.25 51
-1 -6 1 38327.1 1553.3 22
1 6 -1 36685.2 2473.21 61
1 6 -1 38669.3 1229.31 16
-1 -6 1 38543.5 1323.61 19
1 6 0 31267.6 2081.83 61
1 6 0 31983.3 1094.42 23
-1 -6 0 31738.9 2112.34 51
1 6 1 20586.4 1583.72 61
1 6 1 19860.9 843.377 23
-1 -6 -1 20632.7 1621.76 51
-1 -6 -2 20525.5 1548.27 51
1 6 2 22460.3 848.176 23
1 6 2 21434.1 1577.93 50
1 6 3 231910 4746.51 34
1 6 3 230421 2789 23
-1 -6 -3 224407 5183.69 51
1 6 3 220117 4687.52 12
1 6 3 231476 4987.63 50
1 6 4 15728.9 1375.72 34
1 6 4 17487.8 1257.99 12
1 6 4 16150.5 705.639 23
-1 -6 -4 16834.8 1435.4 51
1 6 4 15121.8 1307.17 50
1 6 5 48024.1 2644.22 34
1 6 5 53010.2 2675.88 60
1 6 5 45973.8 2373.33 33
1 6 5 49578.1 2457.8 1
-1 -6 -5 53206.7 2634.78 51
-1 -6 -6 37918.2 2317.75 49
1 6 6 38536.9 1227.71 26
1 6 6 39870.2 2515.75 60
1 6 6 40266.3 2378.85 1
-1 -6 -6 41809.1 2479.74 51
-1 -6 -6 41139.2 1269.45 7
1 6 6 38366.6 2420.07 33
-1 -6 -7 20084.2 881.838 6
1 6 7 19875.1 1829.59 1
1 6 7 19757.3 913.526 20
-1 -6 -7 18368.8 1691.59 49
1 6 7 21721.6 2039.7 60
-1 -6 -7 19771.7 908.649 7
1 6 7 21219.8 1000.41 26
1 6 7 20820.4 1007.53 21
1 6 8 243.714 317.481 21
1 6 8 339.547 273.314 20
1 6 8 680.601 382.455 26
-1 -6 -8 333.515 232.973 6
-1 -6 -8 217.078 212.88 7
1 6 9 5181.94 580.415 18
-1 -6 -9 6032.36 527.985 6
1 6 9 5324.45 522.074 21
-1 -6 -10 6607.84 503.312 6
1 6 10 5602.32 545.284 18
-1 -6 -10 6446.17 462.829 11
-1 -6 -11 3397.65 284.37 6
1 6 11 3044.93 333.504 18
1 6 11 2860.15 347.957 9
-1 -6 -11 3147.05 277.087 11
1 7 -4 3342.8 334.295 24
1 7 -4 3703.96 300.832 16
-1 -7 4 3822.34 410.779 19
-1 -7 3 545.898 324.77 19
1 7 -3 -161.199 222.13 16
1 7 -3 340.118 215.193 24
-1 -7 3 194.426 251.715 22
1 7 -2 20544.7 932.237 24
-1 -7 2 22069.7 1072.61 19
1 7 -2 19497.1 1898.77 12
-1 -7 2 21568.7 1204.44 22
1 7 -2 22785.7 972.677 16
-1 -7 1 2235.29 513.003 22
-1 -7 1 2820.16 465.815 19
1 7 -1 2652.44 385.968 23
1 7 -1 2236.53 350.667 24
1 7 -1 2856.68 442.903 16
1 7 0 1019.86 272.027 24
-1 -7 0 1623.89 391.532 19
-1 -7 0 876.41 403.466 22
1 7 0 1210.48 315.953 23
1 7 0 2084.07 628.443 61
1 7 0 1422.6 343.48 16
-1 -7 0 567.63 402.984 51
1 7 1 28483.3 1008.98 16
-1 -7 -1 27266.8 1034.8 19
1 7 1 27233.2 2043.81 61
-1 -7 -1 28930 1292.43 22
-1 -7 -1 27992.9 2127.89 51
1 7 1 29709.1 1149.14 23
1 7 2 7602.88 588.385 23
1 7 2 6804.2 1032.16 12
-1 -7 -2 7640.42 654.258 22
-1 -7 -2 7989.69 1135.33 51
1 7 3 25292.2 1773.54 12
-1 -7 -3 26068.8 1975.11 51
1 7 3 25041.7 1004.02 23
1 7 3 24381.3 1846.64 50
1 7 4 1471.2 504.093 12
-1 -7 -4 2274.28 651.913 51
1 7 4 1819.79 319.288 23
1 7 4 2606.6 667.681 50
1 7 4 2040.76 651.013 34
1 7 5 7162.67 589.448 21
1 7 5 8022.8 599.811 20
-1 -7 -5 7321.34 540.055 6
1 7 5 7906.65 1252.81 34
1 7 5 8166.71 1115.39 1
-1 -7 -5 7123.4 1080.39 51
1 7 5 7433.19 1034.2 50
1 7 6 49229 1455.63 20
-1 -7 -6 47894.5 1414.43 6
1 7 6 48600.7 2790.11 1
1 7 6 41712.7 2521 50
1 7 6 50622.9 2913.32 60
1 7 6 46860 1396.24 26
-1 -7 -6 49468.8 2836.89 51
1 7 6 47077.5 1525.61 21
1 7 7 -63.3625 295.368 20
1 7 7 -30.6867 317.297 26
-1 -7 -7 -143.894 243.349 6
1 7 7 143.919 519.359 60
1 7 7 -57.6747 381.813 21
1 7 7 -201.34 475.916 1
-1 -7 -7 -335.644 477.154 51
-1 -7 -7 46.0482 238.02 7
1 7 8 1433.56 407.155 26
1 7 8 1546.78 420.885 21
-1 -7 -8 1889.79 348.207 6
1 7 8 2020.62 397.999 20
-1 -7 -8 1577.18 360.598 7
1 7 9 37470.2 1362.71 18
-1 -7 -9 38076.9 1245.14 6
1 7 9 38555.9 1264.26 21
-1 -7 -10 2413.63 322.947 6
1 7 10 1491.25 338.039 18
1 7 10 1885.65 292.607 21
1 7 11 38567.2 984.412 18
-1 -7 -11 44845.7 1006.23 6
1 8 -3 2827.82 290.746 16
-1 -8 3 3469.28 352.824 19
1 8 -3 2847.44 289.013 24
-1 -8 3 2846.64 298.586 22
-1 -8 2 6599.24 600.595 22
1 8 -2 6714 513.193 16
-1 -8 2 6731.47 569.53 19
1 8 -2 5695.91 453.746 24
-1 -8 1 -73.0247 287.597 19
1 8 -1 87.2064 267.423 16
1 8 -1 142.428 190.861 24
-1 -8 1 216.687 347.997 22
1 8 -1 215.088 203.743 23
1 8 0 55666.9 1532.47 16
-1 -8 0 56302.3 1595.87 19
1 8 0 52642.7 1596.77 23
1 8 0 56655.7 3231.8 12
-1 -8 0 55842 1875 22
1 8 0 49879.7 1346.56 24
1 8 1 1285.09 372.661 23
1 8 1 767.126 300.553 16
-1 -8 -1 704.789 400.333 22
1 8 1 1278.82 585.772 12
-1 -8 -1 944.616 320.571 19
-1 -8 -2 26933.3 1279.97 22
-1 -8 -2 28589.1 1058.87 19
1 8 2 27507.4 1187.67 23
1 8 2 27404.2 2140.73 12
1 8 2 27067.9 1013.23 16
1 8 3 32400 2189.96 12
-1 -8 -3 35444.8 2514.93 51
-1 -8 -3 33582.5 1341.06 22
1 8 3 33982 1081.93 16
1 8 3 33700.3 1274.18 23
1 8 4 17566.4 887.791 20
-1 -8 -4 16425 804.657 6
-1 -8 -4 15992 1698.42 51
1 8 4 17606.6 900.001 23
-1 -8 -4 19069.1 961.352 22
-1 -8 -5 76456.8 1779.02 6
1 8 5 68431.6 3397.97 34
1 8 5 77815.9 1859.03 20
1 8 5 79349.5 1971.35 21
1 8 5 79346.4 3631.61 1
-1 -8 -5 75655.7 1800.73 22
-1 -8 -5 79915.4 3733.69 51
1 8 6 147935 2678.34 20
1 8 6 144283 2735.5 21
1 8 6 138774 2317.96 10
1 8 6 138448 4967.37 1
-1 -8 -6 141397 2502.22 6
-1 -8 -6 137425 2332.34 22
-1 -8 -6 146717 2648.7 7
-1 -8 -7 4556.27 514.682 7
1 8 7 3811.92 594.9 21
-1 -8 -7 4728.62 479.419 6
1 8 7 3829.27 514.756 20
1 8 7 3697.86 463.97 26
1 8 8 32068.1 1220.74 20
-1 -8 -8 32857.1 1171.86 6
1 8 8 32983.8 1309.33 21
-1 -8 -8 31746.2 1208.55 7
1 8 8 30569.5 1191.51 26
1 8 9 9328.96 680.956 21
-1 -8 -9 9575.37 622.835 6
1 8 9 8148.88 644.633 18
-1 -8 -10 14846.6 683.184 6
1 8 10 14090.5 664.941 21
-1 -8 -11 895.967 176.408 6
1 8 11 481.993 164.876 18
-1 -9 2 650.201 182.43 22
-1 -9 2 383.405 129.521 56
1 9 -2 879.735 199.533 16
-1 -9 1 11101.8 601.715 19
1 9 -1 11391.1 601.922 16
-1 -9 1 10529.2 670.125 22
-1 -9 0 20856.9 1059.78 22
-1 -9 0 21821.4 914.677 19
1 9 0 22244.3 900.01 16
1 9 1 11222.8 692.252 16
-1 -9 -1 12033.7 852.406 22
1 9 1 10564.5 734.161 23
-1 -9 -2 6741.09 656.895 22
1 9 2 7716.96 1264.21 12
1 9 2 6800.7 536.599 16
1 9 2 6882.6 635.904 23
1 9 3 7610.56 1141.65 12
1 9 3 7614.32 667.356 23
1 9 3 8340.87 636.599 20
1 9 3 7826.63 570.068 16
-1 -9 -3 8926.97 721.548 22
1 9 4 771.194 342.804 21
1 9 4 969.663 351.424 20
-1 -9 -4 549.317 315.574 22
1 9 5 2554.47 449.103 21
1 9 5 3173.51 506.832 20
-1 -9 -5 3355.06 406.725 6
-1 -9 -5 3509.41 456.947 22
1 9 6 1352.65 332.501 10
-1 -9 -6 1513.84 313.44 6
1 9 6 1243.14 423.144 20
1 9 6 1164.82 434.577 21
-1 -9 -6 1363.74 290.906 22
-1 -9 -6 1038.12 288.152 7
1 9 7 11443.1 789.608 20
-1 -9 -7 11365.4 668.964 6
1 9 7 11486.6 839.385 21
-1 -9 -7 10982.3 711.013 7
-1 -9 -8 -169.55 234.021 6
1 9 8 225.303 301.127 20
1 9 8 313.393 361.601 21
-1 -9 -8 216.339 194.116 7
-1 -9 -9 5156.21 435.76 6
1 9 9 5150.34 508.613 21
-1 -9 -9 5501.94 369.153 59
-1 -9 -10 12966.3 584.776 6
1 9 10 13124.9 605.527 21
-1 -9 -11 5899.74 315.432 6
1 10 -1 5583.41 297.896 16
1 10 0 557.846 194.261 16
-1 -10 0 572.14 215.591 22
-1 -10 -1 7753.18 590.191 22
1 10 1 6598.87 474.443 16
1 10 2 8079.92 525.356 16
-1 -10 -2 9270.85 678.686 22
1 10 3 973.219 310.29 20
-1 -10 -3 1399.02 346.933 22
1 10 3 1213.46 270.828 16
1 10 4 5786.14 542.876 20
1 10 4 6149.06 535.298 21
-1 -10 -4 7080.58 597.817 22
1 10 5 36614.6 1303.72 21
1 10 5 37622 1308.81 20
-1 -10 -5 38046.8 1241.17 22
-1 -10 -6 1518.21 286.176 7
-1 -10 -6 1551.28 292.337 22
1 10 6 1668.43 307.066 10
-1 -10 -6 1236.13 222.051 6
1 10 6 1889.36 397.857 20
1 10 6 1445.13 410.15 21
1 10 7 2956.78 456.026 21
1 10 7 3466.99 483.082 20
-1 -10 -7 3409.13 343.745 6
-1 -10 -7 3133.93 357.461 7
-1 -10 -7 3130.63 305.514 22
1 10 8 11825.3 694.798 20
-1 -10 -8 10602.3 613.286 7
1 10 8 12514.5 751.718 21
-1 -10 -8 11231.8 583.087 6
1 10 9 4485.02 431.755 21
-1 -10 -9 3538.53 278.698 59
-1 -10 -9 3828.13 324.762 6
-1 -10 -10 476.749 142.286 6
1 10 10 19.6254 166.134 21
-1 -11 -1 2714.9 252.536 22
1 11 2 9601.41 492.401 10
1 11 2 9940.17 419.977 16
-1 -11 -2 10965.5 555.76 22
1 11 3 8127.97 515.706 10
1 11 3 7548.34 432.055 20
-1 -11 -3 8642.91 537.843 22
1 11 4 7434.54 492.113 20
1 11 4 8016.02 534.811 10
-1 -11 -4 8761.92 542.852 22
1 11 5 4337.19 432.663 20
1 11 5 4859.53 432.68 10
-1 -11 -5 4999.34 411.972 22
1 11 5 4632.15 421.101 21
1 11 6 6789.65 491.039 21
1 11 6 6772 454.191 10
1 11 6 7550.22 535.055 20
-1 -11 -6 6984.31 441.391 22
-1 -11 -7 10799.7 506.227 7
1 11 7 12910 671.409 20
1 11 7 12822 659.199 21
1 11 8 1561.16 288.881 20
1 11 8 1668.12 288.651 21
-1 -11 -8 1424.76 215.868 59
-1 -11 -8 1325.24 174.911 6
-1 -11 -9 775.158 123.179 59
-1 -11 -9 1099.62 149.996 6
1 11 9 1020.35 210.704 21
-1 -12 -4 6118.79 310.87 22
-1 -12 -5 89.9089 101.229 22
-1 -12 -5 71.5687 91.833 59
1 12 6 8294.75 405.689 20
-1 -12 -6 7288.24 348.224 59
1 12 7 2033.46 233.137 20
-1 -12 -7 2000.08 190.249 59
2 -11 -7 683.808 121.39 59
-2 11 7 769.384 181.133 21
-2 11 6 3371.55 287.621 20
2 -11 -6 3600.26 253.998 59
-2 11 6 2894.86 317.705 21
-2 11 5 9478.12 478.978 20
2 -11 -5 9000.97 396.155 59
-2 11 5 8406.05 499.228 21
-2 11 4 3557.11 344.923 21
2 -11 -4 4290.64 251.897 59
-2 11 4 4531.48 363.8 20
2 -11 -3 10376.4 455.61 22
-2 11 3 9538.98 477.927 20
2 -11 -2 3079.18 228.759 22
-2 11 2 2767.39 251.865 20
-2 10 8 26.6523 160.994 21
2 -10 -8 353.518 125.297 59
-2 10 7 7015.87 518.663 21
-2 10 7 6874.77 415.751 20
2 -10 -7 7362.53 418.461 59
-2 10 6 5739 538.331 21
2 -10 -6 6631.13 432.735 59
-2 10 6 5917.08 496.382 26
-2 10 6 6254.91 470.573 20
-2 10 5 22627.7 904.521 20
-2 10 5 22177 995.405 21
2 -10 -5 22556.4 814.055 59
-2 10 4 1318.98 336.191 20
2 -10 -4 1532.89 255.062 59
2 -10 -4 1717.14 306.331 22
-2 10 3 11404.6 635.023 23
2 -10 -3 11305.2 532.493 59
2 -10 -3 12696.5 664.073 22
2 -10 -2 3228.79 361.327 22
-2 10 2 2846.71 359.932 23
2 -10 -2 3147.93 286.236 56
2 -10 -1 4131.42 355.793 22
-2 10 1 3471.48 359.77 23
2 -10 -1 3872.64 302.743 56
-2 10 0 225.088 158.072 20
2 -10 0 9.42961 124.667 22
-2 10 0 -70.4049 143.47 23
2 -10 0 3.04401 105.178 56
2 -9 -9 2654.26 219.359 6
-2 9 9 1457.67 257.942 18
2 -9 -8 10646 495.329 6
2 -9 -8 11006 509.671 59
-2 9 8 10431.2 566.644 21
-2 9 8 11062.6 645.072 26
-2 9 7 4732.66 524.638 21
-2 9 7 4766.72 516.621 26
2 -9 -7 5075.44 415.45 59
-2 9 7 4546.43 406.643 20
-2 9 6 9831.42 663.973 20
-2 9 6 7677.92 1312.42 33
-2 9 6 10194.9 728.162 26
2 -9 -6 10415.8 623.994 59
-2 9 6 9681.41 747.579 21
-2 9 5 470.024 591.857 34
-2 9 5 117.922 291.891 20
2 -9 -5 36.3578 242.284 22
2 -9 -5 -160.101 221.099 59
-2 9 4 16241.9 800.464 23
2 -9 -4 17073.3 867.508 22
-2 9 4 16403.7 1750.63 34
-2 9 3 4780.49 969.346 34
2 -9 -3 3915.17 382.332 56
2 -9 -3 4650.69 521.399 22
-2 9 3 3846.85 449.362 23
2 -9 -2 120.428 178.796 59
-2 9 2 115.784 259.398 23
-2 9 2 335.867 391.221 34
2 -9 -2 165.18 242.934 22
2 -9 -2 -52.851 176.178 56
2 -9 -1 6694.62 562.675 22
-2 9 1 6768.05 576.333 23
2 -9 -1 5760.43 464.692 56
2 -9 0 10729.2 637.177 22
-2 9 0 11419.3 563.17 16
2 -9 0 10817.6 632.019 56
-2 9 0 11107.2 686.864 23
-2 9 -1 115.017 170.113 16
-2 9 -1 65.9458 164.798 23
2 -9 1 418.021 172.238 22
2 -9 1 139.494 181.895 56
2 -9 2 2069.7 237.339 56
-2 9 -2 2035.24 222.202 16
-2 8 10 148.664 134.592 18
2 -8 -9 5951.53 394.721 6
-2 8 9 4928.55 458.111 18
-2 8 8 3019.1 456.984 26
-2 8 8 2378.76 597.784 27
-2 8 8 2811.01 367.17 21
2 -8 -8 3358.23 328.068 59
2 -8 -8 2620.02 317.373 6
2 -8 -7 1649.19 279.754 6
-2 8 7 2171.28 857.338 33
-2 8 7 1177.02 367.064 26
2 -8 -7 1579.82 278.897 59
-2 8 7 1252.81 401.889 21
-2 8 6 27966 1090.32 20
2 -8 -6 28776.5 995.842 6
2 -8 -6 28077.8 1051.31 59
-2 8 6 23258.7 2301.63 34
-2 8 6 21965.3 2236.45 33
-2 8 6 26937 1219.55 21
2 -8 -5 1243.45 316.426 22
-2 8 5 517.923 589.022 34
-2 8 5 1232.51 681.544 33
-2 8 5 865.127 325.641 20
-2 8 4 263.898 483.225 34
-2 8 4 197.535 209.063 23
2 -8 -4 519.867 291.025 22
-2 8 3 13936.6 1532.16 47
-2 8 3 15795.4 827.501 23
2 -8 -3 16449.2 789.645 56
-2 8 3 16650.1 1735.94 34
-2 8 3 16177.1 1787.2 35
2 -8 -3 18576.2 958.706 22
2 -8 -2 20739.4 918.276 56
-2 8 2 22634.7 1021.72 23
-2 8 2 20880.6 1984.12 35
2 -8 -2 23455.7 1084.54 22
-2 8 1 20790.6 1007.86 23
2 -8 -1 21912.9 1046.18 22
2 -8 -1 20185.9 947.615 56
-2 8 1 18997.9 1820.24 35
-2 8 0 323.681 237.372 16
2 -8 0 228.306 246.338 22
-2 8 0 221.425 257.242 23
2 -8 0 324.762 270.769 56
2 -8 1 22764.4 977.316 22
2 -8 1 20781.1 977.258 56
-2 8 -1 20620.7 971.47 23
-2 8 -1 21551.5 861.846 16
2 -8 2 17251.9 855.628 56
-2 8 -2 14663.5 732.369 23
-2 8 -2 16479 730.734 16
2 -8 3 241.618 210.051 56
-2 8 -3 -49.871 126.286 23
-2 8 -3 276.888 178.793 16
-2 8 -4 138.402 107.802 16
2 -8 4 18.0828 103.562 56
-2 7 10 1849.95 256.507 18
-2 7 9 5664.12 537.174 18
2 -7 -9 6571.81 454.93 6
-2 7 9 5389.77 576.794 27
2 -7 -8 1494.22 303.477 6
2 -7 -8 1184.39 239.052 59
-2 7 8 985.378 385.299 26
-2 7 8 1745.89 605.519 27
2 -7 -7 26006.4 1045.17 6
-2 7 7 26188.1 1242.63 26
-2 7 7 22695.5 2404.47 33
-2 7 7 24227.7 1096.27 21
2 -7 -7 24981.2 948.723 59
-2 7 6 1587.85 364.512 20
-2 7 6 2701.31 1073.67 34
-2 7 6 2959.52 1083.64 33
-2 7 6 1810.36 473.587 21
2 -7 -6 1985.22 328.912 6
-2 7 6 290.513 501.318 32
2 -7 -6 1975.65 348.559 59
-2 7 5 100464 2066.53 20
-2 7 5 111309 4789.9 34
-2 7 5 109034 4646.15 33
-2 7 5 104603 4279.94 32
2 -7 -5 98972.5 1898.86 6
2 -7 -5 100945 2110.2 22
-2 7 4 1398.13 835.86 34
2 -7 -4 1230.81 324.15 22
-2 7 4 1040.13 535.135 50
-2 7 4 1171.61 493.054 1
-2 7 3 61307.2 3547.3 50
-2 7 3 58662.8 3019.13 47
2 -7 -3 59413.7 1659.19 22
-2 7 3 59160 1489.61 23
-2 7 3 58155.9 3184.15 35
2 -7 -3 56174.4 1432.17 56
2 -7 -3 57976.6 2791.88 51
-2 7 2 26943.6 1992.63 47
-2 7 2 27130.3 2135.17 35
-2 7 2 27721.3 1071.13 23
-2 7 2 28126.3 2444.43 50
2 -7 -2 28225.4 1162.58 22
2 -7 -2 24706.8 988.854 56
2 -7 -2 26652.3 1961.58 51
2 -7 -2 33685 2722 55
-2 7 1 497.029 447.282 35
2 -7 -1 916.055 297.256 56
-2 7 1 303.459 310.095 47
-2 7 1 771.581 301.186 23
2 -7 -1 1146.84 321.315 22
2 -7 -1 1366.87 609.934 51
2 -7 0 704.045 349.19 19
-2 7 0 125.384 228.65 16
2 -7 0 287.656 258.433 22
-2 7 0 -326.081 500.845 35
-2 7 0 485.31 299.266 23
2 -7 1 26475.3 1159.86 19
2 -7 1 27309 1152.71 22
-2 7 -1 30265.4 1206.03 23
-2 7 -1 28026.5 1053.16 16
2 -7 2 47.9749 335.683 19
-2 7 -2 -72.2107 178.647 24
2 -7 2 -68.9304 257.665 18
-2 7 -2 10.2735 219.073 23
-2 7 -2 -147.443 253.065 16
-2 7 -3 19346.3 784.648 24
-2 7 -3 18747.6 828.781 23
-2 7 -3 20089.6 847.299 16
2 -7 3 21027.1 930.978 18
2 -7 4 6701.93 528.444 19
-2 7 -4 7088.1 467.073 16
-2 7 -4 6607.4 423.368 24
-2 7 -5 288.188 110.747 24
2 -7 5 5.64211 118.895 56
-2 7 -5 193.328 147.45 16
2 -6 -10 7131.48 365.543 54
-2 6 10 6304.53 434.538 18
-2 6 9 1959.14 442.265 18
2 -6 -9 1903.74 299.119 6
-2 6 9 1613.55 423.398 27
2 -6 -8 26265.2 1055.08 6
-2 6 8 23606.5 1253.46 27
-2 6 8 25084.3 1157.85 26
2 -6 -7 3641.83 435.564 6
-2 6 7 4129.14 596.682 26
-2 6 7 3749.49 1193.88 33
2 -6 -7 3294.17 361.665 59
-2 6 6 980.934 364.046 21
-2 6 6 87.1127 565.787 32
-2 6 6 1466.95 898.925 33
-2 6 6 1651.54 697.856 1
2 -6 -6 1727.35 312.571 59
-2 6 6 721.631 464.723 60
2 -6 -6 1456.87 316.279 6
-2 6 6 1574.05 455.153 26
-2 6 5 2620.56 776.904 60
2 -6 -5 2984.99 357.153 6
-2 6 5 2732.69 361.206 20
-2 6 5 3112.1 833.953 1
-2 6 5 2961.9 974.75 33
-2 6 5 3471.58 928.66 34
-2 6 5 2599.55 782.415 32
2 -6 -5 3070.17 352.947 59
-2 6 4 28641.1 2114.48 1
-2 6 4 33095.9 2332.84 35
-2 6 4 34414.7 2403.18 34
2 -6 -4 30277.5 1009.57 7
2 -6 -4 28828.9 1048.51 22
2 -6 -4 27845.5 1777.82 51
-2 6 3 42.0871 343.427 47
-2 6 3 1.35459 417.147 35
2 -6 -3 40.0985 276.678 51
2 -6 -3 -224.961 305.026 55
-2 6 3 -67.899 389.243 50
-2 6 3 36.8753 166.948 23
-2 6 2 15253.3 1511.84 35
-2 6 2 15207.6 1431.35 47
2 -6 -2 15061.1 1300.55 51
2 -6 -2 17324.8 1752 55
-2 6 2 14938.5 711.044 23
-2 6 2 15328.8 1673.93 50
2 -6 -1 850.337 483.982 51
-2 6 1 541.423 428.945 35
-2 6 1 801.311 592.749 50
2 -6 0 32343.1 1169.37 19
2 -6 0 31427 1118.7 18
-2 6 0 33010.1 2173.98 35
2 -6 0 33311 2138.88 51
2 -6 0 33710.1 1218.81 22
-2 6 0 31879.7 2132.64 48
2 -6 1 34647.5 1266.14 19
-2 6 -1 39523 2858.36 61
2 -6 1 35066.9 1261.71 22
-2 6 -1 34878.9 2220.55 35
-2 6 -1 33797.1 2206.02 48
-2 6 -1 35078.6 1128.11 16
2 -6 1 34179.5 1211.64 18
2 -6 1 35317.1 2363.32 51
-2 6 -2 6032 561.244 23
2 -6 2 6068.88 563.908 18
2 -6 2 5685.62 600.328 19
-2 6 -2 5812.25 522.415 16
-2 6 -2 5706.78 469.824 24
2 -6 3 76994.3 2004.54 19
-2 6 -3 74152.8 1751.79 23
-2 6 -3 69850.7 1648.32 24
2 -6 3 73729.5 1869.76 18
-2 6 -3 71446.4 1720.49 16
2 -6 4 2822.92 455.958 19
2 -6 4 2657.63 411.419 18
-2 6 -4 2097.04 307.385 23
-2 6 -4 2507.65 367.069 24
-2 6 -4 2254.1 376.057 16
2 -6 5 3380.6 394.685 18
2 -6 5 3659.38 425.758 19
-2 6 -5 3476.89 354.768 24
-2 6 -5 3199.16 349.001 16
-2 6 -6 20778.1 595.535 16
-2 6 -6 21865.5 637.398 24
-2 5 10 737.479 233.982 18
-2 5 10 1083.3 251.337 17
2 -5 -10 822.607 180.597 54
2 -5 -9 11703.3 655.139 6
-2 5 9 11739.2 745.202 18
-2 5 9 10639.5 723.207 27
-2 5 8 13690 1092.54 27
2 -5 -8 15562 838.225 6
-2 5 7 4911.4 1006.15 46
2 -5 -7 5482.07 430.505 59
2 -5 -7 5743.35 535.407 6
-2 5 7 5483.19 713.155 27
-2 5 7 5755.48 671.278 26
2 -5 -6 3323.6 402.924 6
2 -5 -6 2680.22 726.521 49
-2 5 6 5391.69 1600.25 33
-2 5 6 4364.96 1017.01 1
-2 5 6 2958.38 895.867 60
2 -5 -6 2996.31 341.268 59
-2 5 6 3002.03 521.821 26
2 -5 -5 10985 1280.61 49
-2 5 5 11326 1477.48 1
-2 5 5 11155.2 1491.2 34
-2 5 5 12126 1434.79 32
-2 5 5 8882.84 1222.24 60
2 -5 -5 11804.5 616.48 59
-2 5 5 13620.5 1639.55 33
2 -5 -4 3150.15 694.933 49
-2 5 4 3118.52 684.161 60
2 -5 -4 3329 346.731 7
-2 5 4 3907.53 858.019 35
-2 5 4 3079.29 750.667 34
-2 5 4 4440.67 836.105 32
-2 5 4 2984.95 748.415 1
2 -5 -4 3277.02 574.68 51
-2 5 3 2897.11 675.276 35
-2 5 3 2440.12 644.706 47
2 -5 -3 2254.83 489.075 55
-2 5 3 2974.55 605.385 60
2 -5 -3 2923.03 539.468 51
-2 5 2 43051.3 2186.82 47
-2 5 2 41492 2217.1 35
-2 5 2 43651.2 2514.49 50
2 -5 -2 39447.7 1875.37 51
-2 5 1 100098 3279.42 41
2 -5 -1 102540 3075.06 51
-2 5 1 98314.3 3313.57 48
-2 5 0 28280.3 1910.65 41
-2 5 0 26790.8 861.436 38
-2 5 0 30934.1 2199.61 50
2 -5 0 28433.3 1728.36 51
-2 5 0 27711.5 1786.35 48
-2 5 -1 19733 1713.76 41
-2 5 -1 21763.4 1897.66 61
-2 5 -1 20337.8 827.604 38
-2 5 -1 19952.5 1536.39 48
2 -5 1 20875.5 1619.67 51
-2 5 -2 182799 2729.08 38
2 -5 2 177245 2827.93 19
-2 5 -2 184307 5566.07 41
2 -5 2 185072 5233.87 51
-2 5 -2 174048 4653.7 48
2 -5 2 177334 2726.44 18
-2 5 -2 173146 2525.52 24
2 -5 3 8093.62 672.185 19
-2 5 -3 7539.18 614.775 38
2 -5 3 7643.27 1226.23 51
-2 5 -3 7972.26 1338.47 61
-2 5 -3 7785.82 560.738 24
2 -5 3 8772.03 673.846 18
2 -5 4 4018.91 523.639 19
2 -5 4 3434.05 470.404 18
-2 5 -4 3630.8 427.038 24
-2 5 -4 3708.06 460.084 16
-2 5 -4 3889.44 421.49 23
-2 5 -5 26507.7 1002.83 24
2 -5 5 27729.9 1141.11 19
-2 5 -5 27935.1 1014.63 16
2 -5 5 28064.4 1142.97 18
2 -5 6 5746.86 476.76 19
-2 5 -6 5761.56 422.672 16
2 -5 6 5699.23 482.276 18
-2 5 -6 5506.27 427.743 24
-2 5 -7 1430.1 187.996 24
2 -5 7 1555.12 214.94 18
2 -4 -10 19616.8 587.332 54
-2 4 10 18761.9 649.794 17
-2 4 10 18063.4 671.306 18
2 -4 -9 6006.07 442.297 11
-2 4 9 7047.08 587.852 18
-2 4 9 6143.61 584.849 27
-2 4 8 -747.143 378.108 3
2 -4 -8 -76.2298 201.415 11
-2 4 8 82.1278 380.327 18
2 -4 -8 -37.3051 203.623 6
2 -4 -7 29340.8 1039.43 11
-2 4 7 25562.3 2178.17 46
-2 4 7 29514.5 1420.63 27
-2 4 7 28832.1 1273.14 26
2 -4 -7 28675.6 1145.27 6
2 -4 -6 11508 607.139 11
-2 4 6 11245.4 1647.88 60
2 -4 -6 12095 719.496 6
-2 4 6 12106 1779.49 33
2 -4 -6 11393.6 591.258 59
-2 4 6 12024.9 830.749 26
-2 4 6 13048.9 1671.94 1
2 -4 -6 11640.2 1319.43 49
2 -4 -5 41174.9 2309.06 49
-2 4 5 36728.5 2469.34 32
-2 4 5 38104.5 2528.41 34
-2 4 5 38849.9 2619.07 33
-2 4 5 41153.6 2699.68 60
-2 4 5 40238.9 2582.09 1
2 -4 -4 43398.2 2204.04 49
-2 4 4 41424.6 2288.15 32
2 -4 -4 44412.1 1933.7 51
2 -4 -4 44540.9 1922.9 55
-2 4 4 41668.8 2348.3 1
-2 4 4 40758.7 2269.48 34
-2 4 4 41041.8 2388.27 60
2 -4 -3 186466 4218.73 49
-2 4 3 179928 4360.36 47
-2 4 3 182419 4375.33 1
-2 4 3 183126 4303.85 35
2 -4 -3 189783 3650.33 51
2 -4 -3 185906 3947.66 55
-2 4 3 178961 4195.88 60
-2 4 2 2332.67 583.746 35
-2 4 2 2449.55 560.347 48
-2 4 2 2972.84 511.049 60
2 -4 -2 2894.75 608.121 55
-2 4 2 2504.41 571.049 47
2 -4 -2 2604.73 427.188 51
-2 4 1 12731.7 1103.51 48
2 -4 -1 11624.9 892.189 51
-2 4 1 11510.2 1006.46 41
-2 4 1 12960.7 1290.81 50
-2 4 0 330.633 346.596 48
-2 4 0 728.319 173.998 38
-2 4 0 692.968 402.24 41
2 -4 0 1278.53 390.038 51
-2 4 0 966.12 547.828 50
-2 4 -1 21900.2 1455.86 48
-2 4 -1 22394.8 774.017 38
2 -4 1 22834.4 1498.54 51
-2 4 -1 22831 1643.11 41
-2 4 -2 17298.3 762.674 38
-2 4 -2 17787.5 1579.02 41
-2 4 -2 20174.7 1708.91 61
-2 4 -2 16752.6 1314.31 48
2 -4 2 17518.5 1448.67 51
-2 4 -3 39925.2 2575.53 61
-2 4 -3 35492.1 2356.66 41
-2 4 -3 35985.2 1973.65 48
2 -4 3 36015.7 1188.16 18
-2 4 -3 37710.3 1203.85 38
2 -4 3 37449.9 2364.26 51
2 -4 4 27523.3 1171.04 19
-2 4 -4 29854.8 2407.46 61
-2 4 -4 27743 1116.93 38
2 -4 4 27711.5 1137.77 18
2 -4 4 28589.7 2347.99 8
-2 4 -4 28242.3 1051.09 24
2 -4 4 29653.3 2328.59 51
2 -4 5 20777.7 1029.44 19
2 -4 5 21413.4 1045.07 18
-2 4 -5 20557.2 925.06 24
-2 4 -5 20573 958.424 38
2 -4 6 9155.54 679.352 19
2 -4 6 9869.78 699.789 18
-2 4 -6 10231.9 619.392 16
-2 4 -6 9217.92 554.059 25
-2 4 -6 10810.7 664.756 24
2 -4 7 4122.49 383.45 19
-2 4 -7 3819.32 321.243 16
-2 4 -7 4420.03 373.471 24
2 -4 7 4351.48 432.396 18
-2 4 -7 3374.38 292.747 25
2 -4 8 10169.5 409.232 18
-2 4 -8 11700.4 423.847 24
-2 3 10 1223.67 231.951 17
2 -3 -10 1362.55 176.538 54
-2 3 10 1192.13 207.078 18
2 -3 -9 182.381 147.308 11
2 -3 -9 425.191 235.942 54
-2 3 9 -90.4666 266.242 18
-2 3 9 406.646 323.066 17
-2 3 9 108.247 188.463 9
-2 3 8 248.474 354.839 18
-2 3 8 375.567 433.734 27
-2 3 8 144.886 366.642 3
2 -3 -8 433.547 241.113 11
2 -3 -8 217.398 200.689 6
-2 3 7 6395.84 1231.75 46
2 -3 -7 7013.18 569.668 11
-2 3 7 8052.39 933.959 27
2 -3 -7 6428.56 563.556 6
-2 3 7 6995.99 674.002 3
-2 3 7 7244.11 728.961 18
-2 3 6 560.049 600.06 46
2 -3 -6 1486.71 596.244 49
-2 3 6 623.927 355.68 26
-2 3 6 -340.241 739.901 60
-2 3 6 873.332 477.772 27
2 -3 -6 595.968 224.532 6
2 -3 -6 1011.35 258.364 11
-2 3 5 10558.1 1602.34 33
-2 3 5 9524.58 1176.53 31
-2 3 5 9164.44 671.359 26
-2 3 5 9162.38 1366.1 60
2 -3 -5 8655.47 1056.14 49
2 -3 -5 8887.07 506.803 11
-2 3 5 8925.35 1285.26 1
-2 3 4 25589.7 1840.53 1
-2 3 4 25109.3 1815.11 32
-2 3 4 24389.1 1803.99 33
-2 3 4 22340 1664.48 34
-2 3 4 24565.3 1925.98 60
2 -3 -4 26195.1 1667.85 49
2 -3 -3 11399.9 1028.67 49
-2 3 3 12981.7 1108.23 47
2 -3 -3 13227.6 1012.36 55
-2 3 3 11460.9 1163.75 60
-2 3 3 12248.2 1165.73 1
-2 3 3 12669 1083.34 34
-2 3 3 13410.6 1073.71 35
2 -3 -3 12209.9 823.305 52
2 -3 -2 8684.4 837.789 55
-2 3 2 8557.23 830.533 60
-2 3 2 8112.61 844.289 35
2 -3 -2 7502.54 774.952 49
-2 3 2 7337.5 832.76 47
-2 3 2 8306.08 796.867 48
2 -3 -2 8092.24 633.133 51
-2 3 1 58283.2 1841.55 41
-2 3 1 57857.6 1983.12 48
-2 3 1 59975.1 1786.45 36
-2 3 1 61382.6 1663.19 60
2 -3 -1 55733.1 1589.8 51
-2 3 0 15179.8 1057.16 36
-2 3 0 14438.6 1065.08 41
2 -3 0 14317.2 900.465 51
-2 3 0 15172.8 1185.39 50
-2 3 -1 6152.72 815.943 41
-2 3 -1 5476.66 768.086 36
-2 3 -1 6219.97 740.406 37
2 -3 1 5591.71 675.046 51
-2 3 -1 5755.89 850.069 50
2 -3 2 97545.3 3288.29 8
-2 3 -2 101543 1635.58 38
-2 3 -2 101638 3231.39 37
-2 3 -2 99806.3 3334.99 36
2 -3 2 104019 3065.38 51
-2 3 -2 104440 3281.24 61
-2 3 -2 104956 3310.77 41
-2 3 -3 69392.4 1491.91 38
2 -3 3 66786.3 3029.6 8
2 -3 3 68703.1 1530.44 9
-2 3 -3 69784.6 2944.12 41
2 -3 3 70719.3 2866.57 51
-2 3 -3 70788.3 2949.19 61
-2 3 -4 36896.8 2320.59 41
-2 3 -4 36205.8 1169.72 38
2 -3 4 37155.1 1267.53 9
2 -3 4 39356.6 2473.14 51
-2 3 -4 37237.4 2415.87 61
2 -3 4 35107.9 2474.57 8
-2 3 -5 79229.5 3463.75 41
2 -3 5 77068.1 1928.85 19
-2 3 -5 80618.3 1830.72 38
2 -3 5 76924.2 1944.45 18
-2 3 -5 77042.4 1691.06 25
2 -3 5 85399.4 2073.6 9
2 -3 5 82603 4115.48 8
-2 3 -5 80346.2 1807.65 24
2 -3 5 84118.4 4063.29 51
-2 3 -5 77626.8 3799.75 61
2 -3 6 8019.74 1370.04 8
-2 3 -6 7660.14 584.848 38
2 -3 6 9705.79 764.161 18
2 -3 6 7568.04 636.678 19
-2 3 -6 7998.64 557.466 25
-2 3 -6 8882.74 622.905 24
2 -3 7 8069.39 568.079 19
2 -3 7 7765.66 628.589 18
-2 3 -7 8651.05 579.23 24
2 -3 7 6654.09 1189.81 8
-2 3 -7 7886.37 507.314 16
-2 3 -7 7380.98 524.509 25
2 -3 8 3712.64 380.318 18
-2 3 -8 3859.08 325.917 25
-2 3 -8 4605 361.047 24
-2 2 9 3134.28 397.955 19
-2 2 9 3833.06 464.764 17
2 -2 -9 4006.68 350.29 54
2 -2 -9 2817.7 329.734 11
-2 2 9 4007.17 434.153 18
2 -2 -8 118355 2212.44 11
2 -2 -8 111494 2038.42 25
-2 2 8 112022 2314.44 3
2 -2 -8 113201 2000.18 54
-2 2 8 120810 2468.82 18
-2 2 7 4839.11 630.834 3
2 -2 -7 3992.5 417.182 25
-2 2 7 4765.16 626.767 18
-2 2 7 4857.77 729.919 27
2 -2 -7 3821.59 447.748 6
2 -2 -7 4337.01 472.365 11
-2 2 6 12898.7 1618.31 46
2 -2 -6 9482.32 589.451 25
2 -2 -6 11471.9 1329.04 49
2 -2 -6 10326.4 672.043 6
-2 2 6 10164.4 1647 60
-2 2 6 10277.9 851.701 18
-2 2 6 12970 961.183 27
2 -2 -6 12502 693.409 11
-2 2 5 62175.9 3123.72 46
-2 2 5 60260.7 1585.91 26
-2 2 5 59486.9 2941.64 31
2 -2 -5 59640.7 1358.96 11
-2 2 5 60317.2 3323.97 60
2 -2 -5 65081.5 2812.87 49
2 -2 -4 25843.8 771.674 11
-2 2 4 22918.2 1819.41 32
-2 2 4 26129.2 1736.66 31
-2 2 4 23836.9 909.89 26
-2 2 4 27619.1 1997.66 60
-2 2 4 25198.2 1893.07 33
-2 2 4 27532.8 1920.9 1
2 -2 -4 28181 1652.01 49
-2 2 3 79584.4 2801.18 1
-2 2 3 77140.8 2592.09 34
-2 2 3 81872.3 2935.87 60
2 -2 -3 78727.9 2034.5 52
2 -2 -3 84172 2533.69 49
-2 2 3 79014 2750.24 32
2 -2 -2 15226.5 952.724 49
-2 2 2 14002.8 864.857 48
-2 2 2 14976 990.293 47
-2 2 2 15801.9 935.863 35
2 -2 -2 16343.2 1017.73 55
2 -2 -2 16213.5 905.712 52
-2 2 2 16217.7 1115.5 60
-2 2 2 14524.9 1064.6 1
2 -2 -1 67625.6 1728.73 49
-2 2 1 72386.3 1874.33 48
-2 2 1 68826.3 1773.73 60
2 -2 -1 70401.8 1880.7 52
2 -2 -1 66818.1 1394.84 51
-2 2 1 67615.2 1560.73 36
-2 2 0 76399.4 1721.56 45
-2 2 0 74122.4 1919.86 36
-2 2 0 77676.3 2218.87 50
2 -2 0 72134.8 1579.41 51
-2 2 -1 20651.1 1171.32 36
2 -2 1 21868.9 1233.13 8
2 -2 1 20526.7 997.203 51
-2 2 -1 21940 1207.5 50
2 -2 2 161479 3313.17 51
-2 2 -2 166198 3737.35 36
-2 2 -2 158976 3611.88 37
-2 2 -2 160929 3537.44 61
2 -2 2 152979 3695.5 8
-2 2 -3 4042.18 697.75 41
-2 2 -3 4092.03 735.911 37
2 -2 3 3807.61 649.532 51
2 -2 3 3677.36 349.511 9
2 -2 3 3594.52 709.095 8
-2 2 -3 4012.97 692.814 61
-2 2 -3 3883.86 707.614 36
-2 2 -4 7471.68 970.968 41
-2 2 -4 7618.29 1047.02 37
-2 2 -4 7567.05 1008.72 36
2 -2 4 7247.14 1074.34 8
2 -2 4 7539.34 528.571 9
-2 2 -4 7691.86 1029.22 61
2 -2 4 7456.59 1007.32 51
-2 2 -4 8419.2 911.729 13
-2 2 -5 7673.87 1052.23 41
-2 2 -5 6725.9 527.519 38
2 -2 5 7115.03 1236.92 8
2 -2 5 7303.19 604.251 18
-2 2 -5 6932.49 1078.23 61
2 -2 5 6959.36 591.397 9
2 -2 5 7292.97 1186.64 51
-2 2 -5 6520.34 916.964 13
-2 2 -6 25956.9 1017.78 24
2 -2 6 24266.2 1053.2 19
-2 2 -6 25830.2 1021.88 38
2 -2 6 26284.6 1166.03 18
2 -2 6 24223.8 2336.14 8
2 -2 6 26092.5 1187.81 9
-2 2 -6 23541.9 2061.78 61
-2 2 -6 24824.3 993.874 25
2 -2 7 4068.12 518.965 9
2 -2 7 3896.68 465.253 19
2 -2 7 3614.4 517.487 18
-2 2 -7 4195.15 432.569 24
2 -2 7 3191.85 977.281 8
-2 2 -7 3681.84 419.59 25
-2 2 -7 3781.93 391.533 38
2 -2 8 17468.1 883.878 18
-2 2 -8 15970.2 706.623 24
-2 2 -8 16961.9 764.192 25
2 -2 9 3923.72 352.248 18
-2 2 -9 3691.18 263.657 24
-2 2 -9 4003.47 322.518 25
-2 1 9 10716.5 604.319 17
-2 1 9 9461.98 540.275 19
2 -1 -9 10571.1 478.041 54
-2 1 9 10003.8 549.362 18
-2 1 8 5437.56 584.05 18
2 -1 -8 5155.78 475.886 11
-2 1 8 4811.55 617.521 19
-2 1 8 5739.49 624.145 17
-2 1 8 4515.68 488.615 9
2 -1 -8 5550.6 450.127 54
2 -1 -8 4463.22 449.127 25
2 -1 -7 3978.94 457.521 11
-2 1 7 4039.49 566.66 18
-2 1 7 5391.79 684.533 27
2 -1 -7 3940.5 424.663 54
2 -1 -7 4041.67 457.094 25
-2 1 7 3338.58 557.732 3
2 -1 -6 2889.18 386.964 11
-2 1 6 4137.66 771.733 27
-2 1 6 2889.97 512.047 18
-2 1 6 2688.02 927.044 60
-2 1 6 3563.17 583.961 3
2 -1 -6 2596.01 721.97 49
2 -1 -6 2517.28 358.138 25
2 -1 -6 2424.73 373.263 6
-2 1 5 6205.57 686.805 27
-2 1 5 5775.92 1073.77 46
2 -1 -5 5673.17 454.834 11
2 -1 -5 5100.14 824.611 49
-2 1 5 5154.23 1056.31 60
2 -1 -4 11721.7 1095.28 49
-2 1 4 11588 681.743 26
-2 1 4 12547.2 1298.08 31
-2 1 4 13064 1383.15 60
2 -1 -4 11487.9 863.586 52
2 -1 -4 13262.6 590.974 11
-2 1 4 12947.6 1363.67 46
2 -1 -3 106846 2814.32 49
-2 1 3 108219 3233.51 1
2 -1 -3 106413 2476.88 52
-2 1 3 98940.9 3235.98 33
-2 1 3 96360.4 3285.07 32
-2 1 3 109874 3288.36 31
-2 1 3 106188 3284.63 60
-2 1 2 -3.45516 229.645 47
-2 1 2 84.6093 285.168 1
-2 1 2 251.237 175.286 35
-2 1 2 186.531 331.338 32
2 -1 -2 564.242 240.466 49
2 -1 -2 149.237 265.001 52
-2 1 2 232.81 299.7 60
2 -1 -1 224359 2973.31 49
2 -1 -1 228354 3213.07 52
2 -1 -1 238493 3520.02 55
-2 1 1 235736 3321.34 60
-2 1 1 218465 3236.39 1
-2 1 0 223622 2258.38 60
2 -1 0 218007 2051.04 51
-2 1 -1 268726 3626.76 45
-2 1 -1 277131 3973.77 44
-2 1 -1 273568 3480.55 50
2 -1 1 264663 3050.21 51
2 -1 2 226460 2334.81 60
-2 1 -2 239890 3641.4 61
-2 1 -2 240504 4033.98 42
2 -1 2 256115 4138.36 8
2 -1 2 246816 3584.01 51
-2 1 -3 191048 4088.5 37
-2 1 -3 191520 4040.09 42
-2 1 -3 189774 3985.93 36
-2 1 -3 200802 3817.34 61
2 -1 3 192960 3047.39 60
2 -1 4 11462.9 1104.44 51
-2 1 -4 10774.3 1127.81 37
-2 1 -4 10484.3 1048.28 36
-2 1 -4 10583 1057.15 61
2 -1 4 10895.5 573.921 9
2 -1 4 10435.3 891.548 60
-2 1 -5 9904.81 1133.28 61
-2 1 -5 11460.1 1117.62 41
-2 1 -5 12067 1329.44 37
-2 1 -5 10815.6 1166.75 36
2 -1 5 10748.5 670.156 9
-2 1 -5 11546.4 1177.28 13
2 -1 5 13570.7 1430.11 51
-2 1 -6 5776.36 484.763 15
-2 1 -6 5638.94 475.468 38
2 -1 6 5447.59 560.238 18
2 -1 6 6313.85 599.103 9
2 -1 6 5512.17 525.378 17
-2 1 -6 5192.12 905.139 61
-2 1 -6 6015.48 493.851 25
2 -1 6 5228.16 1031.18 51
-2 1 -6 5136.15 923.257 13
-2 1 -7 20440.8 864.123 38
-2 1 -7 22715.4 976.807 25
2 -1 7 22026.6 1099.72 18
2 -1 7 22534.8 2306.28 8
-2 1 -7 21410 976.783 15
-2 1 -7 21574.3 864.293 11
-2 1 -7 22343.2 938.704 24
2 -1 7 22941.8 1130.22 9
-2 1 -8 140.416 154.473 11
2 -1 8 273.011 340.007 18
-2 1 -8 115.601 192.609 25
-2 1 -8 166.203 209.486 24
2 -1 8 -34.0565 270.107 9
2 -1 9 3005.15 389.413 18
-2 1 -9 2946.35 280.707 24
-2 1 -9 2905.26 328.71 25
2 -1 10 19182.5 579.272 18
-2 1 -10 21862.3 604.064 25
-2 0 9 261.045 182.088 19
2 0 -9 73.8326 116.957 54
2 0 -8 919.396 251.264 11
-2 0 8 1372.83 403.891 19
-2 0 8 1028.83 384.056 17
2 0 -8 836.205 229.119 25
-2 0 8 1041.48 299.137 18
2 0 -8 1332.73 257.167 54
2 0 -7 28431.1 1111.72 25
-2 0 7 30409.6 1345.96 17
2 0 -7 27294.3 967.293 54
-2 0 7 26184.2 1211.64 18
2 0 -7 27489.9 1089 11
2 0 -6 41.7895 230.517 54
2 0 -6 -9.12832 216.876 11
-2 0 6 -404.746 396.279 18
-2 0 6 89.6537 617.227 28
-2 0 6 795.852 438.826 27
2 0 -6 256.251 252.314 25
-2 0 6 -579.167 442.79 3
2 0 -5 2230.51 678.028 49
2 0 -5 2637.65 335.901 11
-2 0 5 2643.24 880.421 60
-2 0 5 2090.45 469.974 3
-2 0 5 2678.26 462.526 27
2 0 -5 2462.03 347.144 25
-2 0 4 131553 4421.94 46
-2 0 4 125049 2339.61 27
2 0 -4 125371 3198.44 52
-2 0 4 128158 2320.39 3
-2 0 4 134842 4391.26 60
2 0 -4 133896 2012.97 11
2 0 -4 137349 3806.32 49
2 0 -3 392.065 335.551 49
-2 0 3 -466.657 525.943 46
-2 0 3 291.985 447.33 60
2 0 -3 151.123 334.845 52
2 0 -2 672.828 283.909 49
2 0 -2 692.312 328.864 52
-2 0 2 648.506 401.059 33
-2 0 2 679.587 402.967 46
-2 0 2 369.97 430.364 31
-2 0 1 557194 5249.55 1
-2 0 1 563120 4874.38 47
-2 0 1 563303 3922.33 48
-2 0 1 563660 5703.08 32
2 0 -1 574868 5495.89 52
2 0 0 912308 5423.28 49
-2 0 0 910182 5638.2 1
-2 0 -1 100944 1473.75 50
2 0 1 96931.9 1417.92 51
2 0 2 562202 5301.68 51
2 0 2 548378 4040.11 60
-2 0 -2 558989 4796.26 61
-2 0 -3 3480.71 501.995 43
-2 0 -3 3414.07 548.183 42
-2 0 -3 3200.86 453.147 61
2 0 3 3144.08 420.217 60
2 0 3 3440.62 522.151 51
-2 0 -4 22038.7 1505.51 42
2 0 4 24179.5 1536.92 51
-2 0 -4 21990.7 1430.82 37
2 0 4 22092.7 1297.94 60
-2 0 -4 23687.4 1342.35 61
-2 0 -5 128204 3537.71 36
2 0 5 132027 2198.02 9
-2 0 -5 130929 3953.84 37
-2 0 -5 130407 3668.53 61
2 0 5 130668 3722.57 60
2 0 6 27572.5 1110.58 9
-2 0 -6 25266.6 941.653 14
-2 0 -6 25517 1919 13
-2 0 -6 29846.1 1952.72 49
-2 0 -7 28124.6 992.356 24
2 0 7 27139.4 1213.32 9
-2 0 -7 27561.4 1097.06 15
-2 0 -7 26801.5 1045.14 25
-2 0 -7 24430.1 2043.34 13
2 0 7 28299.7 1200.96 18
-2 0 -7 25448.1 2028.73 49
-2 0 -7 27276.1 958.736 38
2 0 7 25730.9 1007.39 17
-2 0 -8 1042.83 296.854 15
-2 0 -8 862.775 286.117 25
2 0 8 549.261 343.588 18
-2 0 -8 1122.3 262.777 11
-2 0 -8 862 247.946 24
2 0 8 555.171 309.475 9
2 0 9 17774.3 1896.23 8
-2 0 -9 18576.3 774.729 11
2 0 9 19365.9 933.857 18
2 0 9 19756.8 966.515 9
-2 0 -9 19805.3 858.602 25
2 0 10 5117.99 400.06 18
-2 0 -10 5247.4 377.491 25
-2 -1 8 40143.1 1214.13 19
2 1 -8 40829.2 930.361 54
-2 -1 8 40452 1075.46 18
2 1 -7 12933.2 719.763 11
-2 -1 7 12721.9 936.976 19
-2 -1 7 12184.9 765.997 18
-2 -1 7 14448.2 932.514 17
2 1 -7 12838.7 646.572 54
2 1 -7 13346.3 775.454 25
-2 -1 6 11333.2 791.719 18
-2 -1 6 10857.8 849.776 17
2 1 -6 11712.5 760.913 25
2 1 -6 11863.4 668.907 54
2 1 -6 12048 733.04 11
-2 -1 5 16292 1021.92 3
2 1 -5 15438.2 788.441 11
-2 -1 5 13571.6 1702.56 2
2 1 -5 14716.2 1531.71 49
-2 -1 5 15358 875.441 18
-2 -1 5 16073.3 1897.74 28
-2 -1 5 15742.8 927.052 17
-2 -1 5 16253.5 1933.66 60
2 1 -5 15406.9 833.301 25
2 1 -5 14606.7 707.601 54
2 1 -4 20722.7 839.707 11
-2 -1 4 21137.4 1809.59 2
-2 -1 4 20714.5 1020.77 3
-2 -1 4 22837.1 2003.89 28
-2 -1 4 23193.9 1042.08 27
-2 -1 4 23080.9 1973.62 60
-2 -1 4 20125.9 1605.59 51
2 1 -4 22704.1 1632.57 49
2 1 -3 88.7069 154.269 11
-2 -1 3 -90.4353 653.248 46
-2 -1 3 276.924 311.338 3
-2 -1 3 135.902 357.915 51
-2 -1 2 37020.3 1945.36 46
2 1 -2 34575.3 1348.37 12
-2 -1 2 39089.4 992.549 3
-2 -1 2 36215.8 1474.63 51
-2 -1 1 29463.7 1432.48 46
2 1 -1 29132.7 1189.6 61
2 1 -1 28354.5 1130.72 12
-2 -1 1 28102.4 962.12 51
-2 -1 0 199036 2589.01 32
-2 -1 0 203199 3271.84 31
-2 -1 0 206000 2014.36 51
-2 -1 -1 110998 1830.28 31
2 1 1 109110 1916.03 52
2 1 1 112170 1968.15 55
-2 -1 -2 407255 3165.24 49
2 1 2 412243 3697.59 55
-2 -1 -2 403333 2736.35 31
-2 -1 -2 401431 4576.46 30
-2 -1 -2 406381 2981.4 61
2 1 2 400107 3842.39 60
2 1 2 406949 3847.7 52
-2 -1 -3 28044.6 1451.42 44
-2 -1 -3 27131.8 1394.71 43
-2 -1 -3 28275.1 1010.22 61
2 1 3 26208.4 1125.71 60
-2 -1 -3 28314.9 1023 49
-2 -1 -4 13183.5 887.508 61
-2 -1 -4 12785.2 1097.32 42
2 1 4 12433.2 1013.04 60
-2 -1 -4 12826.2 880.859 49
-2 -1 -5 87249.7 2948.59 37
2 1 5 90177.7 3057.68 60
-2 -1 -5 89858.7 2713.38 49
-2 -1 -6 25822.1 1787.55 37
2 1 6 24371.6 1820.84 60
-2 -1 -6 26056.3 1721.84 49
-2 -1 -7 35543.9 2258.46 49
-2 -1 -7 34556.4 1189.3 15
2 1 7 35777.5 1307.45 18
-2 -1 -7 36373.4 1183.58 25
2 1 7 37401.2 1371 9
-2 -1 -7 35033.9 1180.28 14
-2 -1 -7 36035.7 2452.52 13
-2 -1 -8 11307.9 742.165 15
2 1 8 11906.5 844.089 18
-2 -1 -8 12023.6 721.277 25
-2 -1 -8 11745.5 1506.08 13
2 1 8 12039.3 857.397 9
-2 -1 -9 1329.54 283.121 11
2 1 9 1494.11 409.312 18
2 1 9 1009.43 338.914 9
-2 -1 -9 1355.68 308.178 25
-2 -1 -10 2028.89 268.419 11
2 1 10 2388.92 354.73 18
2 1 10 2377.25 340.383 9
-2 -1 -10 2290.89 294.048 25
2 1 11 1510.32 181.838 18
-2 -1 -11 1550.6 172.682 25
-2 -2 8 1416.4 247.98 19
2 2 -7 1359.24 242.131 54
2 2 -7 1361.76 295.632 25
-2 -2 7 625.798 385.811 19
2 2 -6 7015.35 504.013 54
2 2 -6 6862.31 551.712 11
-2 -2 6 7924.87 836.627 19
-2 -2 6 6818.19 598.926 18
2 2 -6 6911.72 524.391 24
2 2 -6 6187.29 578.823 25
-2 -2 6 7144.27 707.68 17
2 2 -5 12492.8 721.586 11
-2 -2 5 11886.5 1000.89 19
-2 -2 5 11509.4 734.682 18
-2 -2 5 13037.5 1752.01 28
-2 -2 5 12141.5 852.891 17
2 2 -5 12719.2 777.427 25
2 2 -5 12511.1 698.505 24
2 2 -5 12191.3 668.482 54
-2 -2 4 7250.82 1215.85 60
2 2 -4 7700.72 561.736 25
-2 -2 4 8129.46 723.838 3
-2 -2 4 8371.06 1328.9 28
-2 -2 4 8265.66 637.691 17
-2 -2 4 8211.01 1438.65 2
2 2 -4 7419.19 500.401 54
2 2 -4 7012.71 516.638 11
-2 -2 4 7803.77 1081.82 51
-2 -2 3 23935.4 1015.66 3
-2 -2 3 23183.8 1903.78 28
2 2 -3 23820.8 1674.42 61
2 2 -3 23642.3 816.276 11
-2 -2 3 22674.7 1559.35 51
-2 -2 3 23665.8 1838.49 2
-2 -2 2 662.91 616.294 2
-2 -2 2 917.401 625.489 28
-2 -2 2 1061.44 349.197 3
2 2 -2 1580.55 493.179 61
-2 -2 2 773.027 370.458 51
2 2 -1 29757 1394.03 61
-2 -2 1 30440.1 1598.31 2
-2 -2 1 32698.2 1669.98 28
-2 -2 1 29268.8 1246.41 51
2 2 0 262739 3768.62 12
-2 -2 0 270855 4162.71 2
-2 -2 0 270854 3278.14 51
2 2 1 295152 2569.43 61
-2 -2 -1 298013 3164.8 51
-2 -2 -2 115722 2298.04 45
2 2 2 113131 2205.02 60
2 2 2 111345 1788.2 52
-2 -2 -3 24565.6 969.128 49
-2 -2 -3 24711.4 1368.98 44
-2 -2 -3 26061.5 1390.65 43
2 2 3 25057.1 992.931 1
2 2 3 22100.9 1091.2 60
-2 -2 -3 22984 1286.52 29
2 2 3 22629.6 724.396 52
-2 -2 -4 14038.2 1134.73 43
-2 -2 -4 13391.5 1070.34 42
-2 -2 -4 13136.9 1045.7 39
2 2 4 11564.3 995.749 60
2 2 4 13254.1 944.762 1
-2 -2 -4 12991.4 849.2 49
-2 -2 -5 16803.7 1309.87 42
2 2 5 17968.3 1385.59 60
-2 -2 -5 16893.2 1133.2 49
-2 -2 -6 29043.1 1675.08 49
-2 -2 -6 29957.7 1770.35 37
2 2 6 29587.5 1967.49 60
-2 -2 -7 12091.3 1410.53 13
-2 -2 -7 12270.4 1257.95 49
2 2 7 11281.2 728.456 18
2 2 7 10841 1376.76 60
-2 -2 -7 11769.8 640.792 25
-2 -2 -7 12238.4 676.961 15
-2 -2 -7 11398.5 662.05 14
-2 -2 -8 4221.09 880.919 13
-2 -2 -8 3802.2 813.362 49
2 2 8 4470.65 572.081 18
2 2 8 5649.32 620.432 9
-2 -2 -8 5018.98 479.638 25
-2 -2 -8 4911.29 497.759 15
2 2 9 2660.59 468.978 18
-2 -2 -9 1892.01 597.932 13
-2 -2 -9 2314.82 374.888 15
-2 -2 -9 2438.14 352.666 25
2 2 9 1927.57 422.782 9
2 2 10 9689.3 674.261 9
-2 -2 -10 9878.84 590.584 11
2 2 10 8683.51 625.457 18
-2 -2 -10 9321.31 557.957 25
2 2 11 2318.22 265.842 18
-2 -2 -11 2178.92 218.552 25
-2 -3 7 2323.08 371.331 19
2 3 -7 2159.32 238.553 24
-2 -3 6 4390.47 641.205 19
2 3 -6 3649.97 349.585 54
2 3 -6 3340.41 430.307 25
2 3 -6 3531.85 372.731 24
-2 -3 5 239.25 508.425 19
-2 -3 5 -57.6497 417.736 17
2 3 -5 155.9 222.185 54
2 3 -5 236.014 223.557 25
2 3 -5 90.1317 209.794 24
2 3 -4 77074.7 1725.76 11
-2 -3 4 79120.3 2222.37 19
-2 -3 4 80497.9 1970.02 17
-2 -3 4 77888.4 3972.93 60
2 3 -4 81851.6 1875.88 25
2 3 -4 84141.4 1812.2 24
2 3 -4 75197.5 1594.36 54
-2 -3 4 75468.1 3585.72 51
2 3 -3 186.178 174.318 11
-2 -3 3 -127.634 688.444 28
2 3 -3 -207.157 306.59 61
-2 -3 3 -93.0496 320.747 51
-2 -3 2 -174.888 710.321 2
-2 -3 2 225.732 602.203 28
2 3 -2 139.665 333.35 61
2 3 -2 422.038 167.589 11
-2 -3 2 563.68 411.853 51
-2 -3 1 160328 4254.7 28
2 3 -1 163843 3685.38 61
-2 -3 1 151270 4210.45 2
-2 -3 1 159972 3442.46 51
-2 -3 0 86348.7 2769.47 2
-2 -3 0 89686.8 2774.7 28
2 3 0 86519.4 2245.68 61
-2 -3 0 90982.9 2294.44 51
-2 -3 -1 190578 3090.09 51
2 3 1 195128 3499.43 12
-2 -3 -2 675.674 248.248 45
-2 -3 -2 701.004 370.005 30
-2 -3 -2 405.865 322.701 29
-2 -3 -2 631.695 277.737 51
2 3 2 1023.02 375.203 12
2 3 2 720.027 188.261 50
-2 -3 -3 224620 3449.94 49
2 3 3 221441 3183.68 1
-2 -3 -3 219114 4392.02 29
2 3 3 213934 3797.49 60
2 3 3 214239 2456.41 52
-2 -3 -4 68759.9 2068.87 49
-2 -3 -4 66199.6 2323.76 44
-2 -3 -4 71024.4 2551.02 39
2 3 4 67497.6 2065.94 1
2 3 4 65536.2 2274.24 60
-2 -3 -4 69705.1 2472.76 43
-2 -3 -5 17223.5 1148.38 49
-2 -3 -5 16901.5 1252.25 42
2 3 5 16554.9 1335.35 60
2 3 5 17595 1247.13 1
-2 -3 -6 214762 4578.24 49
-2 -3 -6 211424 2656.23 40
2 3 6 216630 5372.16 60
-2 -3 -7 22645.7 1678.92 49
-2 -3 -7 22510.1 910.684 14
2 3 7 23046.1 919.467 27
2 3 7 24127.8 1962.58 60
-2 -3 -7 22951.9 851.567 7
-2 -3 -8 16958.8 1597.86 49
-2 -3 -8 17899.9 881.385 15
2 3 8 18230 970.457 18
-2 -3 -8 18690.5 841.851 25
2 3 8 16592.6 1791.91 60
-2 -3 -8 17767 889.527 14
2 3 8 17172.2 811.212 21
-2 -3 -8 18218.8 1817.87 13
2 3 9 84180.8 2041.95 18
-2 -3 -9 87443.2 1972.46 15
-2 -3 -9 87061 1845.23 25
2 3 9 86720.4 2171.82 9
-2 -3 -9 83139.9 3960.04 13
-2 -3 -10 9333.59 557.947 25
-2 -3 -10 9950.95 622.29 11
2 3 10 8758.88 651.687 18
2 3 10 8620.51 662.821 9
-2 -3 -11 -34.4871 134.38 11
-2 -3 -11 53.8309 102.779 25
2 3 11 -142.354 206.387 18
-2 -4 7 1152.08 199.992 19
-2 -4 6 5537.72 560.507 19
2 4 -6 5137.62 397.131 24
-2 -4 5 31614.6 1336.92 22
-2 -4 5 32480.5 1429.17 19
2 4 -5 30253.1 1160.2 25
2 4 -5 31902.2 949.929 54
-2 -4 4 611.371 448.196 19
2 4 -4 845.399 294.648 24
-2 -4 4 458.203 405.699 22
2 4 -4 471.696 232.755 25
2 4 -4 548.691 237.278 54
-2 -4 3 -361.585 447.693 4
2 4 -3 130.876 414.52 12
-2 -4 3 391.608 356.587 19
2 4 -3 -182.101 322.986 61
2 4 -3 340.097 210.619 25
2 4 -3 50.7327 224.218 16
2 4 -3 36.0955 206.34 24
2 4 -3 438.957 263.341 54
-2 -4 3 383.317 397.805 51
-2 -4 2 72840.6 1822.74 4
-2 -4 2 72514.9 3033.72 51
2 4 -2 77154.3 3268.56 61
-2 -4 1 13004.6 739.462 4
2 4 -1 13748.5 1245.17 61
-2 -4 1 12466.5 1141.34 51
-2 -4 0 15428.2 737.946 4
2 4 0 15094.4 1154.6 61
-2 -4 0 14564.9 1107.77 51
-2 -4 -1 152153 3278.77 30
2 4 1 150505 3035.1 61
-2 -4 -1 155884 3319.16 51
-2 -4 -2 136481 2497.73 45
2 4 2 139737 3166.3 12
-2 -4 -2 134455 3255.67 30
-2 -4 -2 133733 3553.02 29
2 4 2 138930 2628.04 50
-2 -4 -2 143327 3133.37 51
2 4 3 479.102 418.635 12
-2 -4 -3 228.691 527.799 29
-2 -4 -3 173.193 342.657 51
2 4 3 225.965 214.206 50
2 4 4 29097.8 1426.68 1
-2 -4 -4 30613.4 1546.63 49
-2 -4 -4 29571.6 1515.57 44
-2 -4 -4 29673.8 1654.24 43
-2 -4 -4 31051.8 1791.07 39
2 4 4 30249.5 1689.74 60
-2 -4 -5 8014.92 867.378 49
-2 -4 -5 7658.67 852.718 42
-2 -4 -5 8104.04 957.712 39
2 4 5 8918.04 911.548 1
2 4 5 8634.48 1004.94 60
-2 -4 -6 33535.8 1015.72 40
2 4 6 34553.1 2154.08 60
2 4 6 32758.1 1005.49 26
-2 -4 -6 31484.5 1786.9 49
2 4 6 34465.2 1975.29 1
-2 -4 -7 44591.6 2368.95 49
2 4 7 44888 2721.32 60
-2 -4 -7 45563.3 1273.85 7
-2 -4 -7 45850 1277.75 14
-2 -4 -8 18485.3 1684.22 49
-2 -4 -8 21612.6 897.211 6
2 4 8 22634.1 1034.9 18
2 4 8 20158.4 1945.92 60
-2 -4 -8 21642 855.8 25
-2 -4 -8 21058.1 921.183 15
-2 -4 -8 22133.1 966.759 14
2 4 8 20859.7 911.061 21
-2 -4 -8 20952.5 1882.79 13
-2 -4 -9 5346.16 1055.04 13
-2 -4 -9 5351.12 471.926 6
2 4 9 4809.62 545.109 18
-2 -4 -9 5902.81 461.839 25
-2 -4 -9 5270.59 494.058 15
2 4 9 4823.41 458.504 21
-2 -4 -10 49.5099 186.048 15
-2 -4 -10 341.464 226.871 11
2 4 10 -21.799 296.974 18
-2 -4 -10 31.0481 144.593 25
2 4 10 -383.545 334.718 9
-2 -4 -11 277.22 155.068 11
2 4 11 -2.09524 193.876 18
2 4 11 -68.3479 174.981 9
-2 -5 6 2180.44 292.408 19
2 5 -6 1420.45 195.115 24
-2 -5 5 5344.73 563.753 19
2 5 -5 4567.26 415.612 24
2 5 -4 123.079 204.911 16
2 5 -4 -2.59046 236.672 24
-2 -5 4 244.077 419.419 19
-2 -5 4 321.09 366.477 22
2 5 -4 -260.622 203.626 54
2 5 -3 1202.55 635.614 12
2 5 -3 1375.25 299.998 54
2 5 -3 1446.14 302.875 16
2 5 -3 1883.86 372.496 24
-2 -5 3 1009.89 486.256 22
-2 -5 3 1488.3 469.062 19
2 5 -3 1206.91 292.653 25
-2 -5 2 19003.5 1023.43 19
2 5 -2 18310.4 782.431 54
2 5 -2 19003.4 843.744 16
-2 -5 2 20668.1 1094.68 4
2 5 -2 19505 906.296 24
2 5 -2 17759.1 1702.82 61
-2 -5 2 19841.3 1199.6 22
2 5 -2 18126.6 834.813 25
-2 -5 2 17649 1705.16 51
-2 -5 1 25767.6 1131.9 4
2 5 -1 28364.1 1979.81 61
-2 -5 1 27098.7 1892.32 51
2 5 0 509.133 363.2 61
-2 -5 0 139.973 323.178 4
2 5 0 259.339 170.57 23
-2 -5 0 513.414 391.69 51
-2 -5 -1 47461.4 1293.75 4
-2 -5 -1 43226.6 1906.63 30
-2 -5 -1 42427.5 2127.71 29
2 5 1 49323.8 2054.84 61
-2 -5 -1 47941.6 2131.45 51
-2 -5 -2 26774.4 1753.96 29
2 5 2 27762.2 1642.48 12
-2 -5 -2 29245.8 1623.96 51
2 5 3 41815.1 1645.15 50
-2 -5 -3 44680 2288.24 29
2 5 3 46243.4 2009.9 12
-2 -5 -3 43601.8 2049.59 51
2 5 4 5594.33 736.499 12
-2 -5 -4 5119.41 868.102 39
-2 -5 -4 5599.17 809.864 51
2 5 4 6207.01 870.961 60
-2 -5 -4 6345.31 797.088 43
2 5 4 4982.77 609.103 50
-2 -5 -5 65704.7 2653.75 49
-2 -5 -5 65533.2 1362.94 40
2 5 5 73469.4 2947.99 60
-2 -5 -5 67754.7 2872.65 39
2 5 5 72488.5 2621.78 1
-2 -5 -6 26011.9 1734.27 49
-2 -5 -6 26928.2 917.435 40
2 5 6 27232.1 943.656 26
2 5 6 29450.8 2041.24 60
2 5 6 27222.7 1775.5 1
-2 -5 -7 6822.75 967.909 49
2 5 7 8811.21 600.257 20
-2 -5 -7 8123.31 550.669 6
2 5 7 7441.54 1040.3 1
-2 -5 -7 8375.69 569.363 14
-2 -5 -7 8433.55 568.524 7
2 5 7 8581.68 1209.87 60
2 5 7 7790.61 588.181 21
-2 -5 -8 80112.7 3425.46 49
-2 -5 -8 87023.2 3720.83 13
-2 -5 -8 85786.7 1786.43 15
-2 -5 -8 89560.4 1898.18 6
2 5 8 88595 2027.94 18
2 5 8 90396.6 4148.83 60
-2 -5 -8 90196.1 1938.94 7
-2 -5 -8 86140.4 1878.96 14
2 5 8 86630 1931.86 21
2 5 9 46416 1484.6 18
-2 -5 -9 47557.1 1360.48 15
-2 -5 -9 48979.8 1394.6 6
-2 -5 -9 47391.7 1414.37 14
2 5 9 46151.9 1370.94 21
-2 -5 -9 46737.5 2831.21 13
-2 -5 -10 18958.1 807.537 15
-2 -5 -10 20443.6 844.942 6
2 5 10 18175.6 899.346 18
-2 -5 -11 3410.65 323.166 11
2 5 11 3062.38 340.831 18
2 5 11 2900.79 355.577 9
-2 -6 5 1741.27 285.263 19
2 6 -5 1533.6 223.347 24
-2 -6 4 46652.3 1447.92 22
-2 -6 4 52615.9 1522.33 19
2 6 -4 48749.4 1128.88 16
2 6 -4 50638 1347.52 24
-2 -6 3 9091.85 772.901 19
2 6 -3 9044.35 648.037 24
2 6 -3 8548.96 584.811 16
-2 -6 3 8688.07 848.857 22
2 6 -2 77841.4 3701.79 12
-2 -6 2 77997.6 2039.35 19
-2 -6 2 79849 2374.93 22
2 6 -2 78749.9 1852.05 24
2 6 -2 78621.3 1802.56 16
2 6 -2 75525.6 1601.04 54
2 6 -1 25783 2046.33 61
2 6 -1 28707.7 2206.53 12
-2 -6 1 27012.7 1394 22
-2 -6 1 26423.9 1142.16 19
2 6 -1 28008.9 1068.55 16
2 6 -1 26851.7 1056.63 24
2 6 -1 26101 935.31 54
-2 -6 1 25550.8 2081.05 51
2 6 0 20635.1 873.685 24
-2 -6 0 22523.3 1822.62 51
-2 -6 0 21494 940.172 19
2 6 0 22615.6 1762.23 61
2 6 0 24049.1 942.46 16
2 6 0 22219.1 935.037 23
2 6 0 21779.6 815.804 54
-2 -6 0 23551.1 1195.58 22
-2 -6 -1 3163.96 386 5
2 6 1 3324.39 811.702 12
2 6 1 2426.61 353.827 23
2 6 1 3164.49 648.239 61
-2 -6 -1 2435.63 599.961 51
2 6 2 6580.4 925.535 12
2 6 2 6123.32 489.236 23
2 6 2 6239.75 779.565 61
-2 -6 -2 6313.32 518.808 5
-2 -6 -2 5873.47 850.667 51
2 6 3 85749 3066.05 12
-2 -6 -3 89729.7 3273.15 51
2 6 3 86198.3 1704.05 23
-2 -6 -3 84744 1737.54 5
2 6 3 84933.3 2766.89 50
2 6 4 12610.5 1182.56 12
-2 -6 -4 11454 1203.69 39
2 6 4 9732.86 1078.31 34
-2 -6 -4 11994.7 1246.52 51
2 6 5 9986.76 1061.42 1
-2 -6 -5 8323.64 1052.89 39
-2 -6 -5 9441.57 1178.25 51
2 6 5 8940.65 543.938 10
2 6 5 8673.5 1123.07 60
2 6 6 20501.5 1770.85 60
2 6 6 17588.1 807.174 26
2 6 6 18888.3 745.036 10
2 6 6 18985.4 1563.5 1
-2 -6 -6 20109.9 773.058 40
-2 -6 -6 19631.5 1726.43 51
2 6 7 7546.81 1125.63 1
2 6 7 7782.23 597.426 20
-2 -6 -7 7378.82 559.054 6
2 6 7 7859.9 1240.05 60
2 6 7 6556.26 590.5 26
-2 -6 -7 6442.71 987.085 49
-2 -6 -7 7279.63 517.087 14
-2 -6 -7 6819.86 563.335 7
2 6 7 7867.75 627.424 21
-2 -6 -8 37957.5 2395.1 49
-2 -6 -8 44177.8 1280.89 14
-2 -6 -8 44704 1351.44 6
2 6 8 44325.1 1425.46 21
2 6 8 42605.3 1396.04 18
-2 -6 -8 44906 1404.82 7
2 6 8 42776.1 2713.25 1
-2 -6 -9 28448.9 1075.45 6
2 6 9 28718.1 1152.21 18
-2 -6 -9 30224.1 1083.96 14
2 6 9 29824.6 1129.42 21
-2 -6 -10 3455.71 389.858 6
2 6 10 2413.34 344.524 21
2 6 10 2740.45 418.48 18
2 6 11 768.146 240.846 9
-2 -6 -11 714.446 181.935 11
2 6 11 615.372 217.504 18
-2 -6 -11 610.326 159.192 6
-2 -7 4 852.232 243.625 19
2 7 -4 882.296 192.07 24
2 7 -4 1019.21 159.902 16
-2 -7 3 1789.68 367.013 19
2 7 -3 1850.97 293.742 16
2 7 -3 1460.99 293.797 24
-2 -7 3 1758.06 381.188 22
-2 -7 2 5370.66 581.905 19
-2 -7 2 5134.33 668.375 22
2 7 -2 5619.12 525.621 16
2 7 -2 5124.26 520.656 24
2 7 -1 9113.2 1333.26 12
-2 -7 1 9406.91 723.601 19
2 7 -1 9213.68 649.573 16
2 7 -1 8795.45 655.674 24
-2 -7 1 8639.06 852.704 22
2 7 0 4878.84 520.448 16
2 7 0 3898.15 903.169 12
2 7 0 3996.58 435.216 24
-2 -7 0 4589.05 516.818 19
2 7 0 3659.81 480.273 23
-2 -7 0 4904.15 681.237 22
2 7 1 20764.6 1936.78 12
-2 -7 -1 18629 851.278 19
2 7 1 16195 798.524 24
-2 -7 -1 18957.9 1793.12 51
-2 -7 -1 18141 1092.05 22
2 7 1 17699.4 930.67 23
-2 -7 -1 18691.9 921.181 5
2 7 1 19423.9 875.715 16
2 7 2 8060.26 556.29 16
2 7 2 9205.57 1259.84 12
2 7 2 8074.8 614.019 23
-2 -7 -2 8073.94 675.435 22
-2 -7 -2 7253.75 607.083 5
-2 -7 -2 7971.85 1167.91 51
2 7 3 14622.3 1460.51 12
-2 -7 -3 14724.8 1512.21 51
2 7 3 15360 826.061 23
-2 -7 -3 15920.6 820.897 5
-2 -7 -4 50296.7 2775.93 51
2 7 4 51331.9 2555.76 12
2 7 5 24437.2 986.281 20
2 7 5 24208.3 1785.46 1
-2 -7 -5 25278.8 1053.73 6
-2 -7 -5 23609 1943.44 51
2 7 5 23187.4 1036.05 21
2 7 6 32112.1 1160.98 20
2 7 6 30975.1 2098.56 1
-2 -7 -6 31561.7 1172.41 6
2 7 6 30764.3 1042.24 10
-2 -7 -6 31476.9 2298.17 51
2 7 6 32110.7 1241.95 21
2 7 7 13865.1 1643.3 60
2 7 7 13021.4 800.509 20
2 7 7 10877.7 1353.77 1
-2 -7 -7 13155.4 773.014 6
2 7 7 14066.3 869.902 21
-2 -7 -7 13063.5 1509.73 51
-2 -7 -7 12183.7 776.695 7
2 7 8 160.28 349.624 21
2 7 8 130.144 321.411 20
-2 -7 -8 402.051 227.975 6
-2 -7 -8 120.364 232.669 7
-2 -7 -9 19029.1 884.923 6
2 7 9 18068.1 879.153 18
-2 -7 -9 18573.4 907.432 7
2 7 9 19991.5 953.193 21
2 7 10 467.894 264.488 21
2 7 10 -205.341 225.366 18
-2 -7 -10 93.5436 186.517 6
2 7 11 1941.8 250.933 21
2 7 11 1607.5 244.865 18
-2 -7 -11 2161.89 259.721 6
2 8 -3 4840.63 307.011 16
-2 -8 3 4055.37 330.727 22
2 8 -2 9584.96 583.441 24
-2 -8 2 9094.64 690.902 22
-2 -8 2 11375.8 634.886 19
2 8 -2 11238.1 591.508 16
-2 -8 1 2084.29 369.578 19
2 8 -1 1791.27 328.969 24
2 8 -1 2419.6 388.347 16
-2 -8 1 2517.28 511.563 22
2 8 0 31210.1 2428.87 12
-2 -8 0 34559.1 1201.05 19
-2 -8 0 36329.6 1544.18 22
2 8 0 30663.7 1110.64 24
2 8 0 33326.9 1203.72 16
-2 -8 -1 1551.45 477.182 22
-2 -8 -1 1456.11 329.85 19
2 8 1 314.059 570.883 12
2 8 1 1003.89 234.877 24
2 8 1 1315.84 344.921 16
2 8 2 1789.11 713.603 12
2 8 2 1503.3 404.886 23
2 8 2 1586.26 348.109 16
-2 -8 -2 1167.89 429.172 22
2 8 3 140214 4783.03 12
2 8 3 134684 2337.46 20
-2 -8 -3 132006 2504.7 6
-2 -8 -3 149779 5252.79 51
-2 -8 -3 141915 2809.18 22
2 8 3 140542 2349.78 16
2 8 4 23650.5 1020.18 20
-2 -8 -4 25042.9 1081.72 6
2 8 4 25640.4 1963.34 12
-2 -8 -4 26101.2 1132 22
2 8 4 26030.6 971.925 16
-2 -8 -4 25119.7 2172 51
2 8 4 22777 1052.8 21
2 8 5 16847 882.169 20
-2 -8 -5 17831.8 916.576 6
2 8 5 17877.6 1648.39 1
-2 -8 -5 17797.5 888.961 22
-2 -8 -5 15873.7 1698 51
2 8 5 17005.4 922.382 21
2 8 6 35683.9 1296 20
-2 -8 -6 35139.8 1265.3 6
2 8 6 32837 1167.55 10
2 8 6 35848 1322.86 21
-2 -8 -7 7096.61 581.063 6
2 8 7 6460.54 632.501 20
-2 -8 -7 6847.94 614.294 7
2 8 7 6322.2 649.554 21
-2 -8 -8 26819 1128.18 7
2 8 8 27011.8 1137.29 20
-2 -8 -8 26803.8 1086.2 6
2 8 8 28197.4 1198.82 21
-2 -8 -9 33592.4 1154.18 6
-2 -8 -9 32909.9 1173.17 7
2 8 9 32769.3 1223.59 21
-2 -8 -10 12337.1 637.576 6
2 8 10 12327.9 681.971 21
2 8 11 1775.97 248.83 21
-2 -8 -11 1523.36 217.43 6
2 9 -2 26626.5 665.191 16
2 9 -1 3776.35 357.575 16
-2 -9 1 3964.08 355.893 19
-2 -9 1 3713.69 434.332 22
-2 -9 0 1561.06 292.652 19
2 9 0 1382.63 325.437 16
-2 -9 0 1260.2 381.77 22
2 9 1 16869 814.72 16
-2 -9 -1 17838.3 1048.97 22
2 9 2 31451.6 2395.69 12
2 9 2 30574.4 1113.78 16
-2 -9 -2 32077 1375.29 22
2 9 3 18686.3 877.389 20
2 9 3 18647.9 875.975 16
2 9 3 18694.4 1773.18 12
-2 -9 -3 20286.6 1060.45 22
2 9 4 23031.9 1043.97 20
2 9 4 20644.1 1846.32 12
-2 -9 -4 25508.1 1158.59 22
-2 -9 -4 23158.4 1006.8 6
2 9 4 23724.4 969.986 16
2 9 5 1616.5 382.713 20
2 9 5 1668.42 384.583 21
-2 -9 -5 1268.36 299.343 6
-2 -9 -5 1305.88 324.76 22
2 9 6 22679.6 1064.83 20
-2 -9 -6 21506.4 960.168 6
2 9 6 21975.6 974.155 10
-2 -9 -6 20421.1 877.194 22
2 9 6 22629.8 1072.81 21
2 9 7 8669.56 751.478 21
-2 -9 -7 8546.32 618.495 6
2 9 7 8569.73 584.354 10
2 9 7 7930 669.287 20
-2 -9 -7 7623.59 618.039 7
2 9 8 9078.77 680.007 20
-2 -9 -8 9768.03 637.291 6
-2 -9 -8 9206.96 658.754 7
2 9 8 10431.2 758.449 21
-2 -9 -9 23462.8 917.344 6
-2 -9 -9 24109.2 964.575 7
2 9 9 26219.5 1050.59 21
2 9 10 1461.19 307.462 21
-2 -9 -10 1480.6 263.866 6
-2 -9 -11 147.77 117.277 6
2 9 11 97.662 141.603 21
2 10 0 199.277 171.401 16
-2 -10 0 30.2032 180 22
2 10 1 3282.87 354.413 16
2 10 1 3468.95 341.217 10
-2 -10 -1 3906.91 441.607 22
2 10 2 10461.8 620.607 16
-2 -10 -2 10837.7 724.094 22
2 10 3 1499.96 289.499 16
-2 -10 -3 2524.75 414.03 22
2 10 4 17155.2 832.875 20
-2 -10 -4 18344.9 925.313 22
-2 -10 -5 27810.1 972.418 6
2 10 5 30343.2 1131.72 20
2 10 5 29002.8 1066.23 21
2 10 5 30777 1139.1 10
-2 -10 -5 29640.1 1100.38 22
2 10 6 20359.7 952.905 20
2 10 6 21107.5 919.545 10
-2 -10 -6 19370.6 829.703 6
-2 -10 -6 19864.5 830.048 22
-2 -10 -6 18729.2 876.564 7
2 10 6 19890.9 938.327 21
2 10 7 547.951 353.771 20
2 10 7 583.105 376.02 21
2 10 7 1.19944 227.383 10
-2 -10 -7 462.756 203 6
-2 -10 -7 -35.139 169.183 7
2 10 8 6703.53 566.302 20
-2 -10 -8 6064.66 461.241 6
-2 -10 -8 5724.07 468.379 7
2 10 8 6368.07 556.22 21
-2 -10 -9 8150.51 495.187 6
-2 -10 -9 7686.53 414.068 59
-2 -10 -9 7835.54 505.881 7
2 10 9 7944.65 555.966 21
-2 -10 -10 158.231 135.122 6
2 10 10 -165.652 196.099 21
-2 -10 -11 265 96.549 6
-2 -11 -1 1002.8 157.487 22
2 11 2 29.2029 129.489 16
-2 -11 -2 57.9564 158.803 22
2 11 3 12177.3 590.118 10
2 11 3 11045 491.578 16
-2 -11 -3 12518.9 637.826 22
2 11 4 95.2188 179.603 20
2 11 4 520.088 255.46 10
2 11 5 2130.17 313.049 20
2 11 5 2238.47 339.94 10
-2 -11 -5 2508.34 312.202 22
2 11 6 779.709 250.973 20
2 11 6 727.38 230.954 10
2 11 6 815.22 251.388 21
-2 -11 -6 1000.56 205.754 22
-2 -11 -6 383.441 144.845 7
2 11 7 34301.6 1049.62 20
-2 -11 -7 30885.7 840.063 6
2 11 7 32235.9 905.764 10
-2 -11 -7 29612.6 912.049 7
2 11 7 33579.5 989.667 21
-2 -11 -8 8366.69 426.688 6
2 11 8 9391.3 541.071 20
-2 -11 -8 7858.99 455.712 7
2 11 8 9323.9 530.733 21
-2 -11 -9 14682.8 481.389 59
-2 -11 -9 14782.9 527.234 6
2 11 9 16310.1 609.52 21
-2 -11 -10 10606.4 375.604 6
2 11 10 10432.1 399.446 21
2 12 6 20861.7 591.153 20
2 12 7 24.0331 136.739 20
-2 -12 -8 331.501 98.0921 59
-3 11 5 1739.77 222.409 21
-3 11 4 3105.47 251.633 20
-3 11 4 2597.09 265.638 21
-3 11 3 9845.65 408.726 20
3 -10 -7 23611.5 614.886 59
-3 10 7 19698.7 626.914 21
-3 10 6 1032.4 278.862 21
-3 10 6 1574.42 212.938 20
-3 10 5 5360.3 402.717 20
3 -10 -5 6136.33 382.36 59
-3 10 5 5667.96 504.02 21
-3 10 4 6073.67 463.743 20
3 -10 -4 6031.75 372.695 59
-3 10 3 5152.02 445.329 20
3 -10 -2 20270.9 639.457 56
-3 10 2 19866.5 746.296 23
3 -10 -2 21351.4 734.998 22
3 -10 -1 477.624 139.795 22
-3 10 1 78.8409 152.417 23
3 -10 -1 394.821 130.158 56
3 -10 0 6566.87 315.571 56
3 -9 -8 157.593 103.087 59
-3 9 7 16815.7 808.674 26
3 -9 -7 16968.3 637.998 59
-3 9 7 14717.4 673.97 21
-3 9 6 7606.4 618.681 26
3 -9 -6 7467.32 478.309 59
-3 9 6 6051.24 573.105 21
-3 9 5 11680.2 661.822 20
-3 9 5 10774.3 1502.96 34
3 -9 -5 12426.9 643.297 59
-3 9 4 60478.7 1530.89 20
-3 9 4 58521.8 3236.95 34
-3 9 4 54309.8 2998.04 33
3 -9 -4 57815 1387.29 59
3 -9 -4 58660.4 1286.37 56
-3 9 3 1267.91 570.955 34
3 -9 -3 1214.55 249.599 59
3 -9 -3 2176.55 362.475 22
3 -9 -3 1309.94 249.3 56
-3 9 3 1249.19 263.234 23
-3 9 2 3837.68 841.793 34
3 -9 -2 3876.68 410.435 22
-3 9 2 3534.46 402.505 23
3 -9 -2 4157.1 389.638 56
3 -9 -1 40047.6 1156.67 56
3 -9 -1 37816.4 1153.23 22
-3 9 1 39967.6 1270.13 23
3 -9 0 594.921 186.776 22
3 -9 0 488.131 202.905 56
-3 9 0 663.878 246.804 23
-3 9 -1 5186.46 413.231 23
3 -9 1 5652.4 406.733 56
3 -9 2 906.788 168.536 56
-3 8 9 1831.13 247.172 18
3 -8 -8 19072.5 629.369 59
-3 8 8 19770.5 843.536 26
3 -8 -8 17839.7 634.575 6
3 -8 -7 2683.72 297.019 6
-3 8 7 1986.18 344.901 21
3 -8 -7 3234.42 350.903 59
-3 8 7 3219.79 466.198 26
-3 8 6 168.431 338.559 21
-3 8 6 -69.9762 629.808 33
-3 8 6 -259.056 358.944 26
3 -8 -6 341.259 239.973 59
-3 8 5 27695.5 1054.47 20
-3 8 5 28249.7 2429.7 34
-3 8 5 31522.3 2556.62 33
3 -8 -5 29826.5 1063.41 59
-3 8 4 52873.9 3255.79 34
3 -8 -4 51036.2 1416.07 59
3 -8 -4 51684.6 1518.52 22
3 -8 -4 48734.4 1323.74 56
3 -8 -3 9450.72 687.109 22
-3 8 3 9278.28 1418.25 35
-3 8 3 10343.6 1464.13 34
3 -8 -3 9156.48 590.199 59
3 -8 -3 8687.23 600.431 56
-3 8 3 8229.04 587.972 23
-3 8 2 19550.2 919.601 23
-3 8 2 17111.4 1803.05 35
3 -8 -2 19000.3 808.519 59
3 -8 -2 18528.5 879.426 56
3 -8 -2 19855 946.161 22
3 -8 -1 10301.9 670.439 56
3 -8 -1 10106.6 689.467 22
-3 8 1 10839.3 733.36 23
3 -8 0 35.9179 229.841 56
-3 8 0 114.789 240.638 23
-3 8 0 267.367 412.186 35
3 -8 0 124.047 208.796 22
-3 8 -1 21719.5 827.637 16
3 -8 1 24432.4 1007.56 56
-3 8 -1 22458.3 986.408 23
3 -8 1 21877.8 854.242 22
-3 8 -2 27102.2 871.072 16
-3 8 -2 26602.5 958.958 23
3 -8 2 27746.5 1009.82 56
3 -8 3 45.9969 164.435 56
-3 8 -3 137.242 118.098 23
-3 8 -3 267.125 172.512 16
-3 7 9 4817.03 411.62 18
3 -7 -9 5362.36 298.551 54
3 -7 -8 4826.61 401.266 6
3 -7 -8 5221.34 357.207 59
-3 7 8 4473.15 686.367 27
-3 7 8 4463.27 469.785 26
-3 7 7 5182.9 1220.73 33
3 -7 -7 5805.76 486.265 6
3 -7 -7 5512.85 451.04 59
-3 7 7 5247.75 583.192 26
3 -7 -6 10634.4 645.259 6
-3 7 6 9636.79 1622.27 33
-3 7 6 10680.2 838.542 26
3 -7 -6 11116.1 670.452 59
-3 7 6 9033.78 708.002 21
-3 7 5 4045.14 1084.69 34
-3 7 5 4456.14 1155.56 33
-3 7 5 3040.25 858.074 32
3 -7 -5 3784.48 403.07 56
3 -7 -5 4708.45 460.847 59
3 -7 -4 9693.57 715.039 22
-3 7 4 9260.82 1436.91 34
3 -7 -4 9557.14 612.917 56
-3 7 4 9981.4 1425.62 32
3 -7 -4 10940.9 669.226 59
-3 7 3 80832.4 3808.08 47
-3 7 3 81983 3925.52 35
3 -7 -3 78619.1 1755.58 59
3 -7 -3 76855.5 1763.3 56
-3 7 3 79729.9 1716.33 23
3 -7 -3 80606.5 1935.72 22
3 -7 -2 21190.6 992.498 22
-3 7 2 19538.1 1903.11 35
-3 7 2 19790.9 1833.92 47
3 -7 -2 19822.1 925.66 56
-3 7 2 20095.3 917.29 23
3 -7 -2 20121 1984.31 55
3 -7 -2 19281.2 838.524 59
-3 7 1 2911.61 770.05 47
-3 7 1 3183.68 837.596 35
-3 7 1 3028.33 437.673 23
3 -7 -1 3053.42 377.035 58
3 -7 -1 3026.81 404.382 56
3 -7 -1 2988.61 419.244 22
3 -7 0 50217.6 1520.06 22
-3 7 0 47835.3 2919.21 35
3 -7 0 49710.7 1534.22 56
-3 7 0 54592.5 1593.23 23
-3 7 -1 21686.6 1050.88 23
-3 7 -1 17958.6 1717.45 35
3 -7 1 20366.4 917.267 22
-3 7 -1 19346.3 847.114 16
3 -7 1 20288.7 1000.18 56
-3 7 -2 2422.83 385.879 23
3 -7 2 2275.44 406.308 56
-3 7 -2 2473.69 380.165 16
-3 7 -3 3457.35 324.452 24
-3 7 -3 3262.78 379.677 23
3 -7 3 4283.2 480.2 56
-3 7 -3 3613.49 401.233 16
-3 7 -4 -55.1981 130.468 24
-3 7 -4 174.419 184.897 16
-3 7 -4 188.629 132.45 23
3 -7 4 -24.2515 189.369 56
-3 7 -5 341.77 129.222 16
3 -7 5 382.723 129.447 56
-3 6 9 -286.905 221.952 18
-3 6 9 475.78 264.1 27
3 -6 -9 189.167 157.743 54
3 -6 -8 191.19 218.827 6
-3 6 8 -322.01 574.157 27
3 -6 -8 -46.4406 130.64 59
3 -6 -7 13869.7 767.027 6
3 -6 -7 13425 666.844 59
-3 6 7 13140.9 880.239 26
3 -6 -6 231.072 202.423 56
-3 6 6 872.075 796.202 33
3 -6 -6 335.466 223.361 6
-3 6 6 369.569 384.568 26
3 -6 -6 170.452 244.635 59
3 -6 -5 30684.1 1081.5 6
3 -6 -5 32078.4 1127.72 59
-3 6 5 29088.6 2482.95 34
-3 6 5 34028.3 2761.76 33
-3 6 5 31036.5 2530.26 32
3 -6 -5 30225.9 1083.5 56
-3 6 4 4186.12 972.987 1
-3 6 4 3933.63 943.108 35
-3 6 4 4248.79 955.913 34
-3 6 4 4802.47 1004.82 32
3 -6 -4 4901.9 467.946 59
3 -6 -4 4172.85 418.271 56
3 -6 -4 3984.63 456.624 22
-3 6 4 2914.86 844.25 50
-3 6 3 -132.077 425.058 47
3 -6 -3 67.7561 241.779 55
-3 6 3 -462.652 520.925 1
-3 6 3 424.917 585.092 35
3 -6 -3 226.794 196.466 59
3 -6 -3 108.412 191.286 56
3 -6 -3 428.277 279.317 22
-3 6 3 228.751 449.79 50
3 -6 -2 1490.02 298.381 22
-3 6 2 1682.15 298.215 23
-3 6 2 605.99 466.501 35
3 -6 -2 1540.98 289.888 58
-3 6 2 1186.84 560.721 47
-3 6 2 2059.74 753.566 50
3 -6 -2 1385.5 277.771 56
3 -6 -2 1010.02 594.994 55
-3 6 1 4550.05 880.698 48
3 -6 -1 4658.81 468.717 22
-3 6 1 4051.15 861.349 35
3 -6 -1 4544.43 419.409 58
3 -6 -1 4514.17 452.262 56
-3 6 1 5099.44 1048.96 50
-3 6 0 16807.8 1638.62 48
-3 6 0 16724 1658.32 35
3 -6 0 15498.7 723.487 58
3 -6 0 17241.8 874.073 56
3 -6 0 16698 841.405 22
3 -6 0 15189.7 1442.18 51
3 -6 1 21665 1019.87 19
3 -6 1 20266.9 973.22 18
-3 6 -1 20695.5 1850.88 48
-3 6 -1 23392 2276.8 61
-3 6 -1 20894.9 874.674 16
3 -6 1 20346.4 921.4 22
3 -6 1 19767.1 1730.98 51
-3 6 -2 1828.78 594.372 48
3 -6 2 2414.91 421.341 19
3 -6 2 2759.1 443.476 18
-3 6 -2 2517.62 319.172 24
-3 6 -2 2401.92 369.483 16
-3 6 -3 7708.77 621.506 23
3 -6 3 8669.89 702.439 19
3 -6 3 7862.57 657.601 18
-3 6 -3 8135.93 607.743 16
-3 6 -3 7905.04 550.33 24
3 -6 4 11793.6 738.927 18
3 -6 4 12610.3 780.431 19
-3 6 -4 11039.3 625.426 24
-3 6 -4 10827.3 644.123 23
-3 6 -4 11225.1 663.248 16
3 -6 5 8534.5 559.216 18
-3 6 -5 8217.76 500.498 16
3 -6 5 7588.47 546.704 56
-3 6 -5 7852.75 472.767 24
-3 6 -6 17313.7 543.962 16
-3 6 -6 17664.9 540.525 24
-3 5 9 304.014 223.915 18
-3 5 9 139.252 251.048 27
3 -5 -9 295.063 154.194 54
-3 5 8 33038.1 1198.73 3
-3 5 8 36549.6 1355.36 18
-3 5 8 34826.3 1437.53 27
3 -5 -8 35364.1 1169.88 6
-3 5 7 9551.84 889.699 27
-3 5 7 10170.7 840.974 26
3 -5 -7 10458.6 700.786 6
3 -5 -7 8900.81 552.422 59
3 -5 -6 446.444 218.591 6
-3 5 6 498.741 380.15 26
3 -5 -6 464.949 221.566 59
3 -5 -5 108802 4134.33 49
3 -5 -5 105941 2080.71 6
-3 5 5 108237 4664.58 1
-3 5 5 105243 4532.66 34
-3 5 5 109973 4779.81 33
-3 5 5 103948 4511.05 32
3 -5 -5 106232 2003.44 59
3 -5 -5 109981 2093.96 56
-3 5 4 680.826 494.916 1
-3 5 4 1045.43 660.291 34
-3 5 4 370.105 463.695 32
3 -5 -4 798.131 255.098 56
3 -5 -4 719.158 237.934 59
-3 5 3 1768.18 591.325 47
-3 5 3 971.562 438.51 1
-3 5 3 1809.6 569.75 35
3 -5 -3 1785.22 492.643 55
-3 5 2 14375 1438.12 47
-3 5 2 12218.9 1326.78 35
3 -5 -2 13248.4 1381.99 55
-3 5 2 12862.1 1493.63 50
-3 5 1 17119.5 1423.25 41
-3 5 1 16699.5 1488.81 48
3 -5 -1 21798.3 2048.05 55
3 -5 -1 15600.4 1192.03 51
-3 5 1 17937.9 1734.58 50
-3 5 0 17801.1 1572.6 48
-3 5 0 18164.7 1614.15 41
-3 5 0 17788.8 714.691 38
3 -5 0 18046.6 1383.5 51
-3 5 0 20465.8 1910.06 50
-3 5 -1 37632.5 2312.81 48
3 -5 1 36900.8 1231.75 19
-3 5 -1 38506.8 2455.99 41
-3 5 -1 38014.7 1151.19 38
3 -5 1 38163.8 2165.59 51
3 -5 1 38067.9 1223.92 18
-3 5 -2 57888.8 2918.37 48
3 -5 2 57706.4 1605.34 19
-3 5 -2 57692.6 3197.03 41
-3 5 -2 54686.2 1386.78 24
-3 5 -2 57585.9 1530.01 38
3 -5 2 56074 1544.45 18
-3 5 -2 64781.3 3534.87 61
3 -5 2 56640.9 2869.68 51
3 -5 3 43544.6 1427.87 19
-3 5 -3 42429 2809.95 41
-3 5 -3 44219.6 1411.65 38
3 -5 3 41620 1394.04 18
-3 5 -3 38910 2351.7 48
-3 5 -3 42578.5 1292.37 24
-3 5 -4 42202.3 1305.27 24
-3 5 -4 44574.7 1423.41 38
3 -5 4 44698.4 1469.93 18
3 -5 4 44852.9 1471.58 19
3 -5 5 13114.2 764.143 19
3 -5 5 12807.5 783.185 18
-3 5 -5 13035.4 704.294 24
-3 5 -5 11719.5 647.472 23
-3 5 -5 13266.2 730.061 16
3 -5 6 199.796 202.535 19
3 -5 6 267.914 243.454 18
-3 5 -6 189.947 199.907 24
-3 5 -6 17.7811 192.27 16
-3 5 -7 6328.52 348.333 24
3 -5 7 5762.12 353.867 18
-3 5 -7 6055.37 312.962 16
3 -4 -9 17439.5 619.005 54
-3 4 9 17746.2 745.645 18
3 -4 -8 20884.8 821.583 11
-3 4 8 23638.2 1089.73 18
-3 4 8 22419 1137.66 27
-3 4 8 21540.3 1017.68 3
-3 4 7 -802.06 655.03 46
3 -4 -7 -19.8464 167.335 11
3 -4 -7 89.0787 217.65 6
-3 4 7 251.784 541.347 27
-3 4 7 341.075 332.127 26
3 -4 -6 21040.8 978.778 6
3 -4 -6 19268.6 803.411 59
-3 4 6 19552.8 2264.11 33
-3 4 6 21153.1 2109.04 46
-3 4 6 19667 1091.31 26
-3 4 5 2565.24 438.709 26
-3 4 5 553.437 641.442 34
-3 4 5 2499.53 874.065 33
-3 4 5 1759.14 753.008 32
3 -4 -5 1497.73 574.285 49
-3 4 5 2337.91 693.551 31
3 -4 -5 2150.56 356.441 6
-3 4 5 1851.42 772.502 60
3 -4 -5 2031.63 280.277 59
3 -4 -5 2284.78 337.028 56
-3 4 5 1664.78 605.881 1
3 -4 -4 49628 2503.44 49
-3 4 4 47183.1 2781.67 1
-3 4 4 44934.4 2633.03 34
-3 4 4 47333.2 2739.89 32
-3 4 4 45238.2 2651.52 60
3 -4 -3 26640.3 1662.54 49
-3 4 3 27702 1867.6 47
3 -4 -3 25080.9 1626.33 55
-3 4 3 25391.1 1735.84 35
-3 4 3 24828.1 1658.14 60
-3 4 3 23537.8 1816.25 1
-3 4 2 10388.9 1078.65 48
-3 4 2 9585.69 1085.11 47
-3 4 2 8981.55 1034.94 35
3 -4 -2 8271.42 950.731 55
-3 4 1 5361.48 737.497 41
3 -4 -1 6731.36 696.446 51
-3 4 1 6648.4 878.844 48
3 -4 -1 7523.83 1051.71 55
-3 4 1 6402.25 977.377 50
-3 4 0 108038 3420.56 48
-3 4 0 104004 1580.05 38
-3 4 0 108109 3463.17 41
3 -4 0 110476 2917.52 51
-3 4 0 115960 3985.26 50
3 -4 1 16693.3 1272.72 51
-3 4 -1 18704.2 1597.47 41
-3 4 -1 18785 739.811 38
-3 4 -1 19840.2 1411.67 37
-3 4 -1 18653.9 1481.88 48
-3 4 -1 20694.7 1719.55 50
-3 4 -2 11608.7 1351.98 41
-3 4 -2 11643.8 638.488 38
-3 4 -2 12283.2 1394.76 61
3 -4 2 10745.4 1121.78 51
-3 4 -3 1725.96 617.508 41
3 -4 3 2736.44 409.88 19
-3 4 -3 2830.29 389.467 38
3 -4 3 2830.29 413.612 18
-3 4 -3 2866.91 755.235 61
-3 4 -3 2999.81 706.328 48
3 -4 3 2416.19 693.218 51
-3 4 -4 3213 870.488 41
3 -4 4 3720.18 484.587 19
-3 4 -4 3744.42 476.662 38
3 -4 4 3959.58 478.398 18
-3 4 -4 3520.92 908.532 61
3 -4 4 2000.48 710.655 51
-3 4 -5 27029.4 1124.72 38
3 -4 5 29095.2 1207.18 18
-3 4 -5 28117 1084.89 24
3 -4 5 27515.5 1125.61 19
3 -4 6 7925.95 587.506 19
3 -4 6 7445.61 627.358 18
-3 4 -6 8005.74 580.433 16
-3 4 -6 7571.48 555.159 24
3 -4 7 513.728 263.412 18
-3 4 -7 378.209 187.537 16
-3 4 -7 226.246 187.384 24
3 -4 8 1468.34 189.368 18
-3 4 -8 1444.73 172.439 24
-3 3 9 4097.12 369.468 18
-3 3 9 5038.91 452.854 17
3 -3 -9 4535.95 332.589 54
3 -3 -8 769.949 240.494 11
3 -3 -8 921.183 278.563 54
-3 3 8 683.225 312.349 18
-3 3 8 813.551 389.512 27
-3 3 8 1607.31 412.926 3
-3 3 7 5582.96 1141.72 46
3 -3 -7 6018.79 518.958 11
-3 3 7 7196.59 720.527 18
-3 3 7 6451.2 842.498 27
-3 3 7 7023.63 727.798 3
3 -3 -7 6363.35 572.39 6
3 -3 -6 14200.4 1474.54 49
3 -3 -6 18643.1 917.917 6
-3 3 6 18465.7 2055.12 46
3 -3 -6 17542 820.443 11
-3 3 6 18276.5 1115.32 27
-3 3 6 18467.6 1017.56 26
3 -3 -6 17135.9 737.489 59
3 -3 -5 44793.6 2463.47 49
3 -3 -5 42349.2 1308.09 6
3 -3 -5 41157.3 1135.69 11
-3 3 5 39714.1 2847.16 33
-3 3 5 41945.6 2734.38 31
-3 3 5 41001.7 2966.07 60
-3 3 5 41120.1 2894.19 1
3 -3 -5 46123.9 1341.55 56
-3 3 5 41589.6 1445.17 26
3 -3 -5 38397.1 1090.03 59
-3 3 4 493.734 440.266 1
3 -3 -4 790.056 180.838 11
-3 3 4 499.711 592.477 34
-3 3 4 990.267 650.062 33
-3 3 4 1546.44 762.557 32
-3 3 4 950.773 535.218 60
3 -3 -4 791.891 329.543 49
-3 3 3 37196.2 1879.19 35
-3 3 3 37696.4 2037.71 34
-3 3 3 38519.4 2223.1 1
-3 3 3 38490.9 2174.96 32
-3 3 3 38761.2 2226.18 60
-3 3 3 39883.2 2100.62 47
3 -3 -3 38535.7 1676.22 52
3 -3 -3 39959.3 1933.86 49
3 -3 -3 37997.2 1948.91 55
3 -3 -2 1652.41 426.834 49
-3 3 2 2036.42 516.38 48
-3 3 2 1788.36 505.221 47
-3 3 2 2169.06 519.775 35
-3 3 2 2133.71 544.87 60
3 -3 -2 1839.84 457.801 55
3 -3 -2 1477.48 435.177 52
-3 3 2 2169.28 533.223 1
-3 3 1 124329 3221.43 48
-3 3 1 114249 2880.16 41
-3 3 1 116111 2755.06 36
3 -3 -1 125974 3570.68 55
3 -3 -1 113110 2244.58 51
-3 3 0 884.218 427.368 45
-3 3 0 1086.4 443.389 36
3 -3 0 966.507 520.615 55
3 -3 0 812.483 290.287 51
-3 3 0 1114.64 511.103 50
-3 3 -1 3517.73 654.85 37
-3 3 -1 3596.85 668.957 36
3 -3 1 2898.36 482.475 51
-3 3 -1 4240.27 744.077 50
-3 3 -2 74149.8 3019.93 41
-3 3 -2 75593.1 2903.07 37
-3 3 -2 76167.9 3045.71 36
-3 3 -2 77380.1 2976.31 61
3 -3 2 77122.5 2623.85 51
3 -3 3 6896.97 1086.12 8
-3 3 -3 7086.56 1001.57 41
-3 3 -3 6709.23 1031.14 36
-3 3 -3 7355.44 979.194 61
-3 3 -3 6528.54 945.447 37
3 -3 3 7276.9 975.851 51
-3 3 -4 4069.91 876.503 61
-3 3 -4 2932.14 740.47 41
-3 3 -4 3460.68 420.202 38
3 -3 4 3413.9 421.046 18
3 -3 4 1398.1 647.832 8
3 -3 4 3652.48 824.116 51
3 -3 5 76292.5 1805.14 19
-3 3 -5 78208.1 3636.01 41
-3 3 -5 82809.4 1936.42 38
3 -3 5 82204.6 1983.25 18
-3 3 -5 75704.7 1653.02 25
-3 3 -5 82057 3909.21 61
3 -3 5 78678.9 1726.23 58
3 -3 5 83716 4209.35 8
3 -3 5 81426.5 3926.4 51
3 -3 6 22248.7 976.77 19
-3 3 -6 22541.3 1004.83 38
3 -3 6 25129.2 1140.6 18
-3 3 -6 22627.3 907.798 25
-3 3 -6 24782.1 1032.65 24
3 -3 6 22985.8 2309.09 8
3 -3 7 719.712 337.51 18
-3 3 -7 729.36 203.852 25
-3 3 -7 1183.8 320.479 24
-3 3 -7 637.104 248.355 16
3 -3 8 6715.13 488.423 18
-3 3 -8 6263.9 378.225 16
-3 3 -8 6649.21 433.708 24
-3 3 -8 6122.73 378.08 25
-3 2 9 6707.64 446.763 19
-3 2 9 6833 403.52 18
-3 2 9 7815.71 488.449 17
3 -2 -8 922.924 233.185 11
-3 2 8 1145.73 346.843 18
-3 2 8 1046.65 401.633 17
3 -2 -8 1516.96 292.254 54
-3 2 8 1358.9 387.61 3
3 -2 -7 7360.67 579.22 11
-3 2 7 7711.56 705.81 18
-3 2 7 8284.19 842.943 27
-3 2 7 7870.18 751.072 3
-3 2 6 53917.2 3485.24 46
3 -2 -6 53149 1496.29 11
-3 2 6 53422.4 1778.96 18
-3 2 6 55952.8 1894.65 27
3 -2 -6 51860.6 1517.44 6
3 -2 -5 37284.5 2212.32 49
-3 2 5 38066.2 2783.63 46
3 -2 -5 34041.7 1109.02 11
-3 2 5 31103.5 2435.02 31
3 -2 -5 36330.2 1207.06 6
-3 2 5 35757.1 1300.71 26
-3 2 5 33284.5 2691.8 60
3 -2 -4 1782.16 532.643 49
-3 2 4 2232 751.611 60
3 -2 -4 1562.82 246.034 11
-3 2 4 1942.58 754.88 33
-3 2 4 1489.35 648.953 31
-3 2 4 1701.27 334.966 26
-3 2 4 1711.02 707.312 1
3 -2 -3 95711.4 2918.86 49
3 -2 -3 87383.4 2538.02 52
-3 2 3 89264.1 3019.35 34
-3 2 3 93166 3379.71 33
-3 2 3 91218.3 3367.57 32
-3 2 3 90442.1 3398.41 60
-3 2 3 95061 3375.11 1
3 -2 -2 1331.61 383.452 49
3 -2 -2 1845.92 439.297 55
-3 2 2 1223.26 489.902 1
-3 2 2 687.017 359.688 35
3 -2 -2 1577.53 449.017 52
-3 2 2 901.261 330.824 48
-3 2 2 938.433 487.135 60
-3 2 2 1087.82 442.854 47
3 -2 -1 73499.6 1949.49 49
3 -2 -1 74031.9 2292.64 52
-3 2 1 72834.2 2293.19 1
-3 2 1 75920.1 2140.82 60
3 -2 -1 71952.6 2368.84 55
-3 2 1 79973.6 2264.17 48
3 -2 -1 68867.5 1313.55 51
3 -2 0 10190.4 599.705 51
3 -2 0 12732.8 1154.52 55
3 -2 0 10308.9 968.69 52
-3 2 0 10796.3 977.372 50
-3 2 -1 142860 3388.1 44
3 -2 1 140561 2628.09 51
-3 2 -1 148683 3443.72 50
-3 2 -2 21695.6 1384.91 42
-3 2 -2 22937.1 1491.47 37
-3 2 -2 21025.4 1469.24 36
3 -2 2 22759 1551.21 8
3 -2 2 21932.8 1227.46 51
-3 2 -3 11900.7 1207.09 37
-3 2 -3 12517.9 1276.34 36
3 -2 3 13186.5 650.563 9
-3 2 -3 13186.2 1164.87 61
3 -2 3 12610.6 1300.6 8
3 -2 3 13742 1143.37 51
-3 2 -4 21381.6 1684.96 41
-3 2 -4 21075.7 1756.29 37
-3 2 -4 21235 1756.03 36
3 -2 4 22350.8 927.912 9
-3 2 -4 23246.9 1710.97 61
3 -2 4 21814 1856.76 8
3 -2 4 23018.2 1734.91 51
-3 2 -5 14264.2 1338.79 13
-3 2 -5 14116.5 1479.41 41
3 -2 5 15973.7 847.048 18
-3 2 -5 16472.2 1589.46 61
-3 2 -5 14463.2 701.153 25
3 -2 5 15819.5 1786.8 8
3 -2 5 15912.5 876.655 9
3 -2 5 17015.5 1722.72 51
-3 2 -6 13988.2 740.729 15
-3 2 -6 13097.7 1457.44 41
-3 2 -6 14855.6 808.032 38
3 -2 6 15036.6 883.992 18
3 -2 6 15348.6 946.59 9
-3 2 -6 14125.6 752.567 25
3 -2 6 14913.3 1878.38 8
3 -2 6 14781.3 791.834 58
-3 2 -7 19657.2 888.764 25
-3 2 -7 18233.5 880.17 38
3 -2 7 20032.1 1025.87 18
3 -2 7 17424.9 816.602 58
-3 2 -7 20303.8 915.928 24
3 -2 7 17199.3 2002.74 8
-3 2 -8 10885 611.597 25
3 -2 8 10399.1 685.98 18
-3 2 -8 11201.9 614.519 24
-3 2 -8 9544.08 534.099 16
3 -2 9 12505.5 578.494 18
-3 2 -9 13473.9 512.429 24
-3 2 -9 13830 546.715 25
-3 1 9 13399.6 541.461 17
3 -1 -9 12945.2 425.421 54
3 -1 -8 3137.13 341.698 54
-3 1 8 2798.59 455.654 19
-3 1 8 2971.99 392.9 18
-3 1 8 3100.91 478.191 17
3 -1 -7 1120.38 302.897 11
-3 1 7 665.452 342.358 18
3 -1 -7 961.616 275.011 25
-3 1 7 1305.6 462.995 3
3 -1 -7 1205.84 315.208 54
3 -1 -6 30801.5 1170.23 11
-3 1 6 29234.7 1310.41 18
-3 1 6 30797 1413.62 27
3 -1 -6 26881 1079.43 25
-3 1 6 31716.6 1436.73 3
3 -1 -6 28957.2 1041.4 54
3 -1 -5 7908.38 1038.04 49
-3 1 5 8046.27 1402.59 46
3 -1 -5 8768.46 609.855 11
-3 1 5 8046.14 668.337 18
-3 1 5 8938.96 787.685 27
3 -1 -5 7339.06 552.222 25
-3 1 5 7220.51 1292.47 60
3 -1 -5 7740.42 573.474 6
3 -1 -4 4694.58 748.246 49
-3 1 4 4300.33 952.92 46
3 -1 -4 4966.71 414.07 11
-3 1 4 4892.33 515.736 26
-3 1 4 4970.87 1026.69 60
3 -1 -4 3752.38 589.221 52
3 -1 -3 17694.3 1232.97 49
3 -1 -3 18628.6 668.737 11
-3 1 3 16147 1521.18 33
-3 1 3 15999.6 1560.16 32
-3 1 3 17924.7 1638.52 31
3 -1 -3 18344.5 1196.52 52
-3 1 3 17968.6 1530.67 60
3 -1 -2 5278.83 687.532 52
3 -1 -2 5513.76 638.228 49
-3 1 2 4744.38 650.729 47
-3 1 2 4714.71 541.213 35
-3 1 2 4902.68 759.307 32
-3 1 2 4449.33 676.545 1
-3 1 2 4825.53 748.201 60
3 -1 -1 1980.64 339.239 49
-3 1 1 2033.9 458.429 60
-3 1 1 1823.53 390.23 1
3 -1 -1 1777.67 454.201 52
3 -1 -1 1645.42 390.557 55
-3 1 0 544252 4814.87 60
3 -1 0 549186 6218.67 52
-3 1 -1 1222.67 399.105 45
3 -1 1 1410.77 234.722 51
3 -1 1 1098.9 384.715 52
3 -1 1 1418.72 426.057 55
-3 1 -1 1134.25 318.185 50
-3 1 -2 6590.07 886.2 44
-3 1 -2 7447.14 847.262 43
3 -1 2 6777.76 805.274 8
3 -1 2 5941.12 601.576 51
-3 1 -3 98274.3 2868.42 43
-3 1 -3 97212.1 3136.25 42
-3 1 -3 102042 2763.98 61
3 -1 3 100473 2779.24 51
3 -1 3 101885 3216.38 8
-3 1 -4 76978.3 3062.44 42
-3 1 -4 78369.4 3088.18 37
-3 1 -4 80122.4 3051.21 36
-3 1 -4 85508.9 2857.04 61
3 -1 4 83118.3 1608.28 9
3 -1 4 80960.9 3181.59 8
3 -1 4 86060 3035.73 51
-3 1 -5 8815.75 1215.54 37
-3 1 -5 8562.91 1091.28 36
-3 1 -5 9922.63 1146.86 61
3 -1 5 9658.33 637.887 9
3 -1 5 9844.14 1331.94 8
3 -1 5 9578.78 1190.7 51
3 -1 6 31341.7 2568.71 8
-3 1 -6 31085.6 2070.26 41
3 -1 6 31795.6 1219.56 18
-3 1 -6 30026.4 1066.9 15
-3 1 -6 30037.6 2109.86 61
-3 1 -6 31592.7 1091.89 25
3 -1 6 33370.5 1325.8 9
3 -1 6 30831 2379.71 51
-3 1 -6 30194.7 2127.23 13
-3 1 -7 2629.04 694.065 13
-3 1 -7 3646.2 420.89 38
3 -1 7 3689.25 518.828 18
3 -1 7 4525.79 559.019 9
-3 1 -7 3588.82 430.787 25
-3 1 -7 3612.7 415.07 15
3 -1 7 3755.57 1022.04 8
-3 1 -8 7765.6 587.597 25
-3 1 -8 6458.57 487.915 38
3 -1 8 7806.54 658.681 18
3 -1 8 7131.15 554.24 58
3 -1 8 7488.65 663.794 9
3 -1 8 7809.96 1339.45 8
-3 1 -8 7519.13 545.424 24
3 -1 9 9127.94 594.839 18
-3 1 -9 10019.1 511.034 24
-3 1 -9 10605.7 579.148 25
3 -1 10 142.901 121.973 18
-3 1 -10 374.786 130.28 25
-3 0 8 9840.98 638.343 19
-3 0 8 10526.6 637.034 17
3 0 -8 10456.4 492.585 54
-3 0 7 8240.28 633.868 18
-3 0 7 9004.25 801.44 17
3 0 -7 8536.06 548.455 54
3 0 -6 2003.17 370.287 11
-3 0 6 586.487 724.122 2
-3 0 6 1658.37 390.346 18
-3 0 6 2676.17 1056.73 28
3 0 -6 1687.1 311.502 25
-3 0 6 2080.61 552.131 3
3 0 -6 2105.13 359.853 54
3 0 -5 7809.52 1089.38 49
3 0 -5 9776.19 658.455 11
-3 0 5 8971.83 825.862 27
-3 0 5 9035.58 865.13 3
3 0 -5 7098.84 594.013 25
-3 0 5 7566.63 1418.91 60
-3 0 5 8583.67 1429.39 2
3 0 -5 7948.21 545.029 54
3 0 -4 33731.1 1975.97 49
-3 0 4 32866.3 2610.88 46
3 0 -4 31390.9 1755.84 52
-3 0 4 32617.6 1308.74 27
3 0 -4 31416.8 1073.09 11
-3 0 4 31693.5 2354.52 60
-3 0 4 33838 1338.66 3
3 0 -3 40869.9 1887.49 49
-3 0 3 39095.1 2434.01 46
3 0 -3 37520.6 1018.7 11
-3 0 3 36881 2239.95 60
3 0 -3 38008.4 1824.08 52
3 0 -2 20368.2 1165.88 49
-3 0 2 18378.3 1367.26 33
-3 0 2 18421 1467.05 32
-3 0 2 19678.1 1603.02 31
-3 0 2 20128.7 1578.37 46
3 0 -2 20668.8 1284.71 52
3 0 -1 425829 4540.68 49
-3 0 1 414704 3955.74 48
-3 0 1 428117 4794.47 47
-3 0 1 422365 5717.37 32
-3 0 1 430181 6322.22 31
3 0 0 287606 4311.55 55
3 0 0 280758 4158.53 52
3 0 1 90139.9 2238.14 55
3 0 1 87309.1 2167.91 52
-3 0 -1 89080.4 1655.65 50
-3 0 -2 84165.3 2609.53 45
-3 0 -2 84889.7 2159.03 30
-3 0 -2 79912.5 1702.96 61
3 0 2 85221.5 2215.58 52
3 0 2 81630.8 1857.04 51
-3 0 -3 85582.2 3012.27 44
-3 0 -3 88770.3 2888.24 43
3 0 3 81355.2 1401.8 60
-3 0 -3 86732.8 2139.87 61
3 0 3 87947.1 2624.26 8
3 0 3 88355.3 2411.86 51
-3 0 -4 1746.57 594.536 42
-3 0 -4 2309.53 503.611 61
3 0 4 1681.93 273.974 9
3 0 4 2243.22 558.916 51
-3 0 -5 22436.4 1784.36 42
3 0 5 21500.5 878.187 9
-3 0 -5 22234.9 1725.22 37
-3 0 -5 21832 1491.96 61
-3 0 -5 22704.3 1634.09 36
3 0 5 21474.7 1660.97 51
-3 0 -6 33438.6 1072.56 14
-3 0 -6 38009.1 2423.94 37
-3 0 -6 34159.2 2145.31 36
3 0 6 37638.8 1278.51 9
-3 0 -6 36280 2139.98 61
-3 0 -6 38007.5 2126.65 49
-3 0 -7 491.004 477.219 13
-3 0 -7 124.111 427.039 49
3 0 7 16.9166 284.101 18
3 0 7 15.9978 322.46 9
-3 0 -7 58.3376 215.041 15
-3 0 -7 -41.3973 204.015 25
-3 0 -8 26863.8 1002.83 38
-3 0 -8 28173.8 1138.72 15
3 0 8 29144.1 1210.78 18
3 0 8 27477.5 1246.22 9
-3 0 -8 29801.5 1145.57 25
3 0 8 26951.5 2507.47 8
-3 0 -8 29012.2 1047.18 24
-3 0 -8 27414.7 2235.2 13
-3 0 -9 20183.5 867.627 25
-3 0 -9 19510.5 771.997 11
-3 0 -9 18717.4 731.032 24
3 0 9 17943.7 884.205 18
3 0 9 18047 944.514 9
-3 0 -10 15968 641.912 25
3 0 10 13524.2 615.122 18
-3 -1 8 2334.32 300.546 19
3 1 -8 3102.33 240.066 54
3 1 -7 -200.97 219.21 54
-3 -1 7 -396.14 423.243 19
-3 -1 7 275.82 391.349 17
3 1 -6 7610.19 623.233 25
-3 -1 6 7442.33 1409.05 28
-3 -1 6 7009.38 749.956 17
3 1 -6 7265.16 531.766 54
3 1 -5 51397.9 1522.02 11
-3 -1 5 51177.8 3325.06 2
-3 -1 5 49368.8 3304.8 28
-3 -1 5 47314.4 1657.17 17
-3 -1 5 51333.4 1811.36 3
3 1 -5 51470.5 1549.24 25
3 1 -5 48466.7 1337.33 54
3 1 -4 6808.64 528.45 11
-3 -1 4 8117.95 721.174 27
3 1 -4 6912.13 548.93 25
-3 -1 4 6183.65 1224.29 2
-3 -1 4 8542.64 787.837 3
-3 -1 4 6825.87 1182.84 60
3 1 -4 7598.92 517.713 54
3 1 -4 6502.17 929.932 52
3 1 -4 6353.64 946.595 49
-3 -1 3 8112.25 1255.25 46
3 1 -3 8691.89 529.275 11
-3 -1 3 8938.36 624.875 27
-3 -1 3 8765.64 668.955 3
3 1 -3 8539.72 947.239 52
3 1 -3 9375.45 1007.38 49
3 1 -2 123492 1770.69 11
-3 -1 2 123581 3953.57 46
3 1 -2 119528 3241.27 52
3 1 -2 129956 3083.05 49
3 1 -1 85498 2316.44 12
-3 -1 1 90721.8 2935.41 46
-3 -1 1 83929.1 2954.52 31
3 1 -1 90813.4 2608.01 52
-3 -1 1 82988.7 1774.15 51
3 1 -1 89832.5 2131.69 49
-3 -1 0 63779.7 1289.57 47
-3 -1 0 69387.2 2058.86 46
3 1 0 71615.2 2082.83 52
-3 -1 0 63555.9 1776.21 32
-3 -1 0 74128.9 2291.76 31
3 1 0 64145.5 1303.59 49
-3 -1 -1 591166 5722.47 31
3 1 1 597911 5945.4 55
-3 -1 -2 54258.4 1986.31 45
3 1 2 52366.3 1584.83 55
-3 -1 -2 50679.7 1287.48 31
-3 -1 -2 51684.6 1769.12 30
3 1 2 51264.7 1605.09 52
-3 -1 -3 39939.7 2105.51 44
3 1 3 36316.6 1371.21 52
-3 -1 -3 33408.9 712.696 31
-3 -1 -3 38983.7 1772.54 29
-3 -1 -3 37459.3 1052.33 61
3 1 3 36531.1 1192.67 60
3 1 3 38633.7 1335.47 55
-3 -1 -3 38615.8 1045.32 49
-3 -1 -4 39056.4 2141.14 44
-3 -1 -4 37138.9 2039.77 43
-3 -1 -4 36943.1 2069.6 42
-3 -1 -4 37143.7 1822.46 39
3 1 4 34455.1 1388.29 60
3 1 4 43074.4 1538.17 55
-3 -1 -4 38461.6 1404.93 61
-3 -1 -4 38482 1378.54 49
-3 -1 -5 106101 3702.95 42
-3 -1 -5 111280 2892.94 61
3 1 5 103824 2861.81 60
3 1 5 110231 1826.41 9
-3 -1 -5 104621 1730.98 40
-3 -1 -5 109380 2854.77 49
-3 -1 -6 11817.2 1305.97 37
-3 -1 -6 10729.6 1161.97 36
-3 -1 -6 10460.2 600.473 14
3 1 6 10339.3 669.663 9
-3 -1 -6 11859.7 1095.84 49
-3 -1 -7 59573.1 2786.97 49
-3 -1 -7 57662.8 3127.25 13
-3 -1 -7 65994.3 3241.99 37
3 1 7 59276.9 1625.06 18
-3 -1 -7 60042.7 1572.63 15
3 1 7 64007.6 1767.76 9
-3 -1 -7 61818.6 1565.89 25
-3 -1 -7 60422.7 1566.21 14
3 1 7 57525.1 1479.16 21
-3 -1 -8 5199.45 1026.34 13
3 1 8 5568.66 586.626 9
3 1 8 5793 580.453 18
-3 -1 -8 5882.96 544.252 15
-3 -1 -8 5910.22 532.363 25
-3 -1 -9 2540.56 647.94 13
-3 -1 -9 3468.98 405.738 25
-3 -1 -9 3646.12 399.008 11
-3 -1 -9 3482.06 435.977 15
3 1 9 3458.94 473 18
3 1 9 3517.25 911.405 8
3 1 9 3377.53 473.959 9
3 1 10 4766.53 445.882 18
-3 -1 -10 5670.9 439.826 25
3 1 10 4763.41 452.759 9
-3 -1 -10 5334.92 402.122 11
3 1 11 2510.96 228.407 18
-3 -1 -11 2932.64 233.884 25
3 2 -7 7910.18 430.142 54
-3 -2 7 7649.57 638.667 19
-3 -2 6 43966.2 1651.44 19
-3 -2 6 41621.3 1468.52 17
-3 -2 5 346.014 474.89 19
-3 -2 5 201.812 742.883 28
-3 -2 5 212.034 418.676 17
3 2 -5 769.833 258.535 24
3 2 -5 779.784 303.132 54
3 2 -5 537.385 268.584 25
3 2 -4 3890.49 845.257 49
3 2 -4 3878.65 406.578 24
-3 -2 4 4096.54 1171.59 2
-3 -2 4 3358.67 1063.14 28
-3 -2 4 4903.86 585.843 17
3 2 -4 3824.74 463.963 25
-3 -2 4 4639.25 1146.32 60
3 2 -4 3647.39 431.548 11
-3 -2 4 4726.35 716.549 3
3 2 -4 3806.62 796.276 52
3 2 -4 3941.91 424.198 54
-3 -2 3 11252.6 1477.93 2
-3 -2 3 10365.9 1490.71 28
-3 -2 3 10768.5 796.346 3
3 2 -3 10541.6 621.394 11
3 2 -3 10520.4 1136.74 49
3 2 -2 783.225 381.287 12
3 2 -2 567.895 195.993 11
-3 -2 2 144.706 615.644 28
-3 -2 2 -126.788 708.357 2
-3 -2 2 497.206 302.275 3
3 2 -1 6764.79 824.145 12
-3 -2 1 8205.28 526.235 3
-3 -2 1 7604.9 1011.84 2
-3 -2 1 7961.26 682.483 51
3 2 0 1099.9 430.152 12
-3 -2 0 1056.69 591.521 2
-3 -2 0 398.308 409.364 46
-3 -2 0 540.317 214.794 51
3 2 1 2731.48 502.996 12
-3 -2 -1 3415.38 561.768 2
3 2 1 2754.29 450.967 52
-3 -2 -1 2901.91 303.163 51
3 2 2 37854 1352.91 52
-3 -2 -2 37308.9 1609.61 30
-3 -2 -3 48103.6 1133.15 49
-3 -2 -3 54173.3 2114.58 45
-3 -2 -3 46492.2 2022.9 30
-3 -2 -3 53108.8 2204.38 29
3 2 3 51275.6 1479.42 52
-3 -2 -4 74687.8 1842.96 49
-3 -2 -4 72912.9 2934.07 44
-3 -2 -4 74693.5 2907.41 43
-3 -2 -4 76483.1 2801.19 39
-3 -2 -4 71547.5 2692.42 29
3 2 4 67549.3 2126.65 60
-3 -2 -5 16376.5 1043.56 49
-3 -2 -5 17374.3 1485.64 43
-3 -2 -5 16450.3 1427.81 42
-3 -2 -5 15681.4 689.916 40
3 2 5 16277.5 1189.11 60
-3 -2 -6 37805.7 1852.83 49
-3 -2 -6 41007.7 2389.38 42
-3 -2 -6 38563.6 1149.77 40
-3 -2 -6 39727.6 2244.77 37
3 2 6 39148.3 2074.2 60
-3 -2 -7 10647.1 1132.5 49
-3 -2 -7 11577.4 1300.04 37
-3 -2 -7 11564.9 678.681 14
-3 -2 -7 11235.7 668.993 15
3 2 7 10571.3 738.995 9
3 2 7 10642.5 653.746 21
-3 -2 -8 77598.4 3795.98 13
3 2 8 78874.8 1920.66 18
-3 -2 -8 77394 1885.1 14
-3 -2 -8 78819.2 1914.64 15
3 2 8 79379.4 2049.88 9
-3 -2 -8 79025.6 1821.77 25
3 2 8 76461.6 1753 21
3 2 9 10983.9 742.382 18
-3 -2 -9 11571.8 743.121 15
3 2 9 10329.1 762.935 9
-3 -2 -9 11231.1 688.192 25
-3 -2 -9 11875 1536.68 13
-3 -2 -10 836.295 226.726 11
3 2 10 998.297 292.702 18
3 2 10 356.813 241.11 9
-3 -2 -10 1134.26 253.892 25
3 2 11 6429.11 398.613 18
3 2 11 5548.82 344.964 58
-3 -2 -11 6413.28 382.264 25
-3 -3 7 2309.59 308.627 19
-3 -3 6 8162.24 708.191 19
3 3 -6 6607.21 460.698 24
3 3 -6 7518.75 451.76 54
-3 -3 6 5836.23 539.413 22
-3 -3 5 5791.92 736.276 19
3 3 -5 5204 458.37 54
-3 -3 5 5887 659.063 17
3 3 -5 5220.78 491.294 24
3 3 -4 30231.8 1138.29 24
-3 -3 4 28738.1 1467.49 19
-3 -3 4 32257.4 1372.22 4
-3 -3 4 29050.5 2704.63 28
-3 -3 4 29754.6 1261.07 17
3 3 -4 31649.1 1247.8 25
3 3 -4 31119.8 1072.8 54
-3 -3 3 2384.73 1041.43 28
-3 -3 3 2334.7 436.406 17
3 3 -3 2490.13 357.856 24
3 3 -3 2362.25 369.454 25
3 3 -3 2265.82 347.163 54
-3 -3 3 2270.69 961.044 2
3 3 -2 1070.79 474.607 12
-3 -3 2 397.566 679.047 2
-3 -3 2 1146.4 397.036 3
-3 -3 2 870.589 784.413 28
3 3 -1 123313 3417.36 12
-3 -3 1 120605 4166.23 2
-3 -3 1 125361 4182.55 28
-3 -3 1 115057 1979.41 3
3 3 -1 123149 3204.03 61
-3 -3 1 115081 2999.62 51
3 3 0 21965.1 1422.99 12
-3 -3 0 23505.9 1624.03 28
-3 -3 0 24310.1 782.563 3
3 3 0 22071.3 1147.43 61
-3 -3 0 23989.2 1701.65 2
-3 -3 0 22905 1171.15 51
3 3 1 11145.8 1053.13 12
-3 -3 -1 13826.3 1275.85 28
3 3 1 11482 643.411 61
-3 -3 -1 11737.4 782.058 51
-3 -3 -1 13788.2 1581.77 2
-3 -3 -2 123666 3252.93 30
3 3 2 125033 2645.29 52
3 3 2 121136 3109.26 12
-3 -3 -2 128294 2563.14 51
3 3 3 15875.1 867.087 52
-3 -3 -3 14597.9 1133.94 45
-3 -3 -3 14761.4 1227.78 30
-3 -3 -3 15812.5 1380.55 29
3 3 3 15415.8 716.346 1
-3 -3 -4 635.008 308.941 49
3 3 4 334.918 247.995 1
-3 -3 -4 497.761 502.515 44
-3 -3 -4 715.607 565.062 43
-3 -3 -4 1220.86 671.087 39
-3 -3 -4 253.946 693.194 29
3 3 4 782.563 421.671 60
3 3 4 385.601 222.455 52
-3 -3 -5 56247.7 1957.2 49
3 3 5 55989.7 2011.61 1
-3 -3 -5 53786.2 2600.15 43
-3 -3 -5 52176 2507.69 42
-3 -3 -5 53169.2 2559.16 39
3 3 5 53982.8 2261.84 60
-3 -3 -6 32372.7 1652.38 49
-3 -3 -6 33066.6 2069.12 42
-3 -3 -6 31883.6 1041 40
3 3 6 32774.5 1963.38 60
-3 -3 -7 6731.13 860.462 49
-3 -3 -7 7951.33 1018.44 37
3 3 7 8423.07 1116.22 60
-3 -3 -7 8687.28 593.215 14
-3 -3 -8 94276.3 4113.46 13
-3 -3 -8 93546.5 1940.87 25
3 3 8 94430.8 2040.92 18
-3 -3 -8 96831.7 2087.5 14
-3 -3 -8 96088.5 2060.46 15
3 3 8 90860.9 1953.44 21
-3 -3 -9 14618.4 774.959 25
3 3 9 13460.3 803.099 18
3 3 9 14788.1 897.328 9
-3 -3 -9 14777.7 834.709 15
-3 -3 -9 14530 846.104 14
3 3 9 14374.5 764.535 21
-3 -3 -9 13581.8 1633.96 13
3 3 10 5118.69 528.935 9
3 3 10 5173.88 501.801 18
-3 -3 -10 5901.91 471.322 25
-3 -3 -10 6215.98 1099 13
-3 -3 -10 5774.48 505.136 15
-3 -3 -11 4352.81 352.231 11
-3 -3 -11 3761.56 310.028 25
3 3 11 3405.5 334.679 18
3 3 11 3243.87 350.091 9
-3 -4 6 2576.3 392.921 19
3 4 -5 66850.4 1358.97 54
-3 -4 5 71196.2 1954.67 19
3 4 -5 66502.3 1544.79 24
-3 -4 4 30702.2 1426.04 19
-3 -4 4 30295.4 1526.72 22
3 4 -4 31353.2 1051.5 54
3 4 -4 33303.7 1203.22 24
-3 -4 3 19899.2 1139.32 19
-3 -4 3 20776 1175.65 4
-3 -4 3 19246.1 975.314 17
3 4 -3 21204.9 986.616 24
3 4 -3 19057.1 845.408 54
3 4 -2 27989.4 1977.13 12
-3 -4 2 30669.8 1273.44 19
-3 -4 2 30510.2 1291.44 4
3 4 -2 32413.3 1129.1 24
-3 -4 2 30101.4 1087.34 17
3 4 -2 29777 1106.35 25
3 4 -2 31096.9 989.239 16
3 4 -2 30163.9 998.416 54
-3 -4 1 6471.63 627.145 4
-3 -4 1 5731.25 1249.78 28
3 4 -1 5935.38 937.146 12
3 4 -1 6035.95 814.446 61
-3 -4 1 5834.85 819.705 51
3 4 0 12129.1 1193.64 12
-3 -4 0 12339 732.961 4
-3 -4 0 11120 1346.21 28
3 4 0 11393 980.747 61
-3 -4 0 11374.2 1004.83 51
3 4 1 75002.6 2771.22 12
-3 -4 -1 75490.8 1543.77 4
-3 -4 -1 78101 2709.97 30
-3 -4 -1 72558.9 2276.65 51
3 4 2 14735.9 1228.64 12
-3 -4 -2 14564 1274.75 30
-3 -4 -2 14734.1 1059.79 51
3 4 3 10028.9 758.995 52
3 4 3 9933.94 1002.55 12
-3 -4 -3 10344.4 935.484 45
-3 -4 -3 9085.88 1236.31 29
-3 -4 -3 10206.8 943.427 51
-3 -4 -4 3796.06 739.314 44
-3 -4 -4 4664.19 944.105 29
3 4 4 4055.76 508.392 1
-3 -4 -5 132229 3246.74 49
3 4 5 138075 3215.43 1
-3 -4 -5 130597 4060.41 43
-3 -4 -5 126048 4128.31 39
3 4 5 134067 3772.49 60
-3 -4 -5 128642 3822.43 44
-3 -4 -6 552.779 289.057 49
-3 -4 -6 824.331 422.41 42
-3 -4 -6 1067.5 295.065 40
3 4 6 1054.66 258.129 10
3 4 6 719.055 397.634 60
3 4 6 453.939 273.15 1
-3 -4 -7 3990.84 722.433 49
-3 -4 -7 4811.33 470.77 40
3 4 7 4144.76 886.825 60
-3 -4 -7 5149.52 441.337 7
-3 -4 -7 5009.93 468.274 14
-3 -4 -8 28745.9 1018.9 6
3 4 8 25015.6 1019.86 18
3 4 8 26041.7 2105.67 60
-3 -4 -8 27843.8 1099.34 14
-3 -4 -8 26299.2 1046.62 15
3 4 8 27294.4 1061.32 21
-3 -4 -9 951.432 551.507 13
3 4 9 899.059 340.432 21
-3 -4 -9 624.287 193.495 25
3 4 9 447.422 277.411 18
3 4 9 188.498 279.419 9
-3 -4 -9 554.109 245.794 15
-3 -4 -9 728.439 296.582 14
-3 -4 -10 13076.7 655.898 25
3 4 10 11892.5 720.555 18
-3 -4 -10 12798.1 716.594 15
3 4 10 12419.5 767.748 9
3 4 10 11222.1 633.699 21
-3 -4 -10 12646.2 1494.95 13
-3 -4 -11 17900.4 730.393 11
3 4 11 14994.9 653.251 18
3 4 11 16463 749.598 9
-3 -4 -11 16671.8 606.855 25
-3 -5 5 5144.69 502.078 19
-3 -5 5 3677.05 392.775 22
3 5 -5 4894.13 320.125 53
3 5 -5 4505.55 380.32 24
-3 -5 4 5678.82 612.755 19
3 5 -4 5645.27 515.951 24
3 5 -4 6274.48 455.21 54
-3 -5 4 4778.35 643 22
3 5 -3 225.345 206.709 16
-3 -5 3 485.139 386.433 19
-3 -5 3 -264.175 403.008 4
3 5 -3 152.885 263.323 24
-3 -5 3 4.41404 429.915 22
3 5 -3 -155.052 254.53 54
3 5 -2 52175.5 2882.79 12
-3 -5 2 52658.5 1795.92 4
-3 -5 2 50728 1689.46 19
3 5 -2 53089.6 1433.43 16
3 5 -2 50523.1 1356.54 54
-3 -5 2 50112.5 1951.54 22
3 5 -2 52911.5 1558.18 24
3 5 -1 2949.14 811.596 12
-3 -5 1 1941.2 392.987 19
-3 -5 1 3061.95 570.535 4
3 5 -1 2665.07 386.942 24
3 5 -1 3079.32 385.119 16
3 5 -1 3259.71 383.162 54
-3 -5 1 3124.68 665.579 51
3 5 0 21495.6 1753.27 12
-3 -5 0 23252.6 1080.98 4
-3 -5 0 22511.2 1616.07 51
3 5 1 91090.8 3333.68 12
-3 -5 -1 88940.4 1916.09 4
-3 -5 -1 89510.2 3173.25 30
-3 -5 -1 89846.9 3005.57 51
3 5 2 3009.44 698.846 12
-3 -5 -2 3990.52 483.584 4
-3 -5 -2 4386.2 873.373 30
-3 -5 -2 3548.33 853.761 29
-3 -5 -2 3868.86 643.402 51
3 5 3 86213.4 3043.28 12
-3 -5 -3 84557.2 3448.2 29
-3 -5 -3 90633.5 2978.56 51
-3 -5 -4 20760.1 1486.86 44
-3 -5 -4 20166.8 849.452 5
3 5 4 21332.3 1221.01 1
-3 -5 -4 25150.6 1929.84 29
-3 -5 -4 22042.8 1555.93 51
-3 -5 -5 2291.08 581.311 44
-3 -5 -5 1535.25 592.996 43
-3 -5 -5 2467.93 758.588 39
3 5 5 2019.58 302.411 10
3 5 5 1925.41 578.307 60
3 5 5 1717.96 370.925 1
-3 -5 -6 78915.1 2861.34 49
3 5 6 80776.6 2863.34 1
-3 -5 -6 75678.8 1698.19 40
-3 -5 -6 83675 3512.53 39
3 5 6 75811.7 1491.45 10
3 5 6 83948.1 3398.53 60
-3 -5 -7 18837.9 886.231 40
-3 -5 -7 21298.3 900.788 6
3 5 7 19974 1771.15 60
3 5 7 19538.8 898.796 21
3 5 8 4230.97 488.041 21
-3 -5 -8 4415.92 446.518 6
3 5 8 3943.02 931.089 60
-3 -5 -8 4199.41 455.772 7
-3 -5 -8 3944.17 458.227 14
-3 -5 -9 4928.76 932.535 13
-3 -5 -9 6080.44 494.228 6
3 5 9 5364.15 514.009 18
-3 -5 -9 5785.46 518.167 15
-3 -5 -9 5828.84 539.564 14
3 5 9 5821.75 545.199 21
3 5 10 29632.8 1053.14 18
-3 -5 -10 29763.3 1056.29 15
3 5 10 28372.1 1132.66 9
3 5 10 29092.7 1035.03 21
-3 -5 -10 28814.2 2163.1 13
3 5 11 981.083 240.646 9
-3 -5 -11 1585.91 240.785 11
3 5 11 1542.04 259.618 18
-3 -6 4 451.541 264.517 19
3 6 -4 458.221 193.034 24
-3 -6 4 309.398 243.381 22
3 6 -3 6854.02 592.481 24
3 6 -3 7078.97 499.415 16
3 6 -3 6358.99 447.898 54
-3 -6 3 7005.01 623.487 19
-3 -6 3 5658.17 722.103 22
-3 -6 2 88230.9 2146.06 19
3 6 -2 87733 2042.74 24
3 6 -2 86825 1865.43 16
3 6 -2 84734.2 1721.75 54
-3 -6 2 89740.2 2556.14 22
3 6 -1 8337.4 1289.96 12
-3 -6 1 8392.2 820.603 4
3 6 -1 8164.63 655.823 24
-3 -6 1 7870.52 668.782 19
3 6 -1 7577.54 609.992 16
3 6 -1 8595.28 599.801 54
-3 -6 1 7415.55 871.107 22
3 6 0 11926.2 1536.84 12
-3 -6 0 12590.1 934.836 4
-3 -6 0 11721.8 738.567 19
3 6 0 12494.8 664.146 54
3 6 0 12904.4 751.386 24
3 6 0 12780.2 740.612 16
-3 -6 0 11948.3 987.128 22
-3 -6 0 12163.3 1367.16 51
3 6 1 102209 3980.83 12
-3 -6 -1 105127 2319.46 4
3 6 1 102066 1808.57 54
3 6 1 108745 1986.74 16
-3 -6 -1 105685 2422.66 22
-3 -6 -1 107111 3797.43 51
3 6 2 88712.6 3497.9 12
-3 -6 -2 81445.8 3481.21 29
-3 -6 -2 85604.2 3307.63 51
-3 -6 -3 3252.31 459.614 5
3 6 3 3015.45 747.521 12
-3 -6 -3 3602.4 832.56 29
-3 -6 -3 3031.72 659.79 51
3 6 4 13801.3 1330.97 12
-3 -6 -4 16151.8 827.49 5
-3 -6 -4 16597.2 1471.03 51
-3 -6 -5 12965.6 1430.36 39
3 6 5 11897.7 637.232 10
-3 -6 -5 12796.4 1376.76 51
3 6 5 13115 1140.32 1
-3 -6 -6 10234.8 625.9 40
-3 -6 -6 10563.9 1350.38 39
3 6 6 9847.66 594.28 10
-3 -6 -6 11127.2 1350.84 51
3 6 7 1846.02 383.04 21
3 6 7 1615.42 342.823 20
-3 -6 -7 1945.07 336.413 40
3 6 7 1190.64 573.358 60
3 6 7 1730.4 303.727 10
-3 -6 -7 1644.45 330.241 6
-3 -6 -8 5695.92 514.253 6
-3 -6 -8 5381.67 500.754 14
-3 -6 -8 5674.48 531.311 7
3 6 8 5687.23 565.292 21
-3 -6 -9 6816.24 540.785 6
-3 -6 -9 6293.11 546.722 14
-3 -6 -9 5577.26 470.313 15
-3 -6 -9 6339.53 533.525 7
3 6 9 6186.54 587.867 21
-3 -6 -9 6428.91 1044.57 13
-3 -6 -10 8545.97 561.04 6
-3 -6 -10 9065.68 593.411 14
-3 -6 -10 8828.07 550.174 15
3 6 10 8451.42 594.038 21
-3 -6 -10 8216.6 1153.95 13
-3 -6 -11 5814.7 412.027 11
3 6 11 5487.26 441.446 9
3 6 11 5974.53 415.549 21
3 7 -4 2496.99 191.655 53
-3 -7 3 5357.84 458.757 19
3 7 -3 4839.65 350.269 16
3 7 -3 4820.41 431.15 24
-3 -7 3 4683.22 519.033 22
-3 -7 2 1186.08 341.277 19
-3 -7 2 668.032 380.818 22
3 7 -2 866.236 292.327 24
3 7 -2 896.008 277.493 16
-3 -7 1 17616.1 908.456 19
3 7 -1 15870 885.642 24
3 7 -1 17709 884.29 16
-3 -7 1 18243.7 1175.96 22
3 7 -1 16317.8 1751.42 12
-3 -7 0 146.205 410.667 22
-3 -7 0 434.233 376.406 5
3 7 0 1017.65 582.971 12
-3 -7 0 301.994 287.43 19
3 7 0 289.306 314.765 16
3 7 0 166.803 248.377 24
3 7 1 18325.2 1863.54 12
3 7 1 18971.5 909.102 16
3 7 1 15682.4 845.447 24
-3 -7 -1 15524.6 1096.6 22
-3 -7 -1 14507.5 1622.65 51
-3 -7 -1 17390.6 966.296 5
3 7 2 17784.4 847.647 16
3 7 2 17337.6 1756.15 12
3 7 2 14509.3 780.442 24
-3 -7 -2 16632.5 1671 51
-3 -7 -2 17990.8 1043.88 22
-3 -7 -2 17814.6 940.568 5
-3 -7 -3 1767.08 421.645 5
3 7 3 1588.44 663.073 12
-3 -7 -3 2295.09 443.813 22
3 7 3 2155.97 350.183 16
-3 -7 -3 2379.26 695.764 51
3 7 4 4360.56 902.601 12
3 7 4 4605.3 437.399 16
-3 -7 -4 4629.77 935.071 51
-3 -7 -4 5306.91 567.438 5
3 7 5 138340 2353.25 20
-3 -7 -5 134128 4589.8 39
3 7 5 137625 2325.04 10
-3 -7 -5 144661 2683.92 6
3 7 5 134788 2213.45 16
-3 -7 -5 142730 4857.83 51
3 7 5 138611 2398.79 21
3 7 6 2350.18 469.568 21
3 7 6 2075.12 368.359 20
-3 -7 -6 2020.31 684.19 39
3 7 6 2221.8 377.502 10
-3 -7 -6 2615.07 419.787 6
-3 -7 -6 1297.63 637.71 51
3 7 7 20908.4 990.513 20
-3 -7 -7 19944.9 832.005 40
-3 -7 -7 19410.8 964.838 6
3 7 7 19730.5 855.277 10
-3 -7 -7 22302.6 1976.23 51
3 7 7 19869.9 1006.41 21
3 7 8 44831.9 1447.66 20
-3 -7 -8 45322.8 1421.45 6
-3 -7 -8 43530.7 1297.5 14
-3 -7 -8 46131.7 1476.69 7
3 7 8 46913.4 1505.88 21
3 7 9 940.097 342.134 21
-3 -7 -9 722.186 249.487 6
-3 -7 -9 897.465 250.761 14
-3 -7 -9 863.161 264.301 7
3 7 10 1869.07 355.123 21
-3 -7 -10 1809.74 299.319 6
3 7 11 519.871 202.026 21
-3 -7 -11 518.111 160.815 11
-3 -7 -11 541.101 171.452 6
3 8 -3 4698.98 245.745 53
-3 -8 2 7417.62 456.449 19
-3 -8 2 5878.32 531.087 22
3 8 -2 6339.55 406.128 16
-3 -8 1 811.185 262.837 19
3 8 -1 1405.55 317.638 16
-3 -8 1 1166.17 389.161 22
3 8 -1 1114 285.398 24
-3 -8 0 1395.07 332.93 19
3 8 0 918.146 299.648 24
3 8 0 1327.68 359.145 16
-3 -8 0 915.054 423.227 22
3 8 1 19652.6 2024.55 12
3 8 1 22106.4 999.76 16
3 8 1 18171.8 880.903 24
-3 -8 -1 20192.8 1186.29 22
-3 -8 -1 18877.4 973.403 5
3 8 2 8666.84 1338.13 12
-3 -8 -2 9666.09 828.688 22
3 8 2 9593.43 687.194 16
-3 -8 -2 9728.44 741.198 5
3 8 3 22336.2 2029.1 12
-3 -8 -3 21349.8 1149.8 22
-3 -8 -3 19416.1 1051.37 6
3 8 3 22269.1 957.066 16
-3 -8 -3 22727.2 1086.23 5
-3 -8 -4 461.162 320.492 6
3 8 4 403.529 424.075 12
3 8 4 52.124 293.404 20
-3 -8 -4 66.6098 269.571 22
3 8 4 50.859 247.102 16
-3 -8 -4 1212.98 669.4 51
3 8 5 33356.4 1214.53 20
3 8 5 35313.4 1253.46 10
-3 -8 -5 35139.3 1361.33 6
3 8 5 35234.1 1191.16 16
-3 -8 -5 33686.5 2523.42 51
3 8 5 35374.2 1247.28 21
3 8 6 123.451 286.67 20
3 8 6 366.744 294.639 10
-3 -8 -6 409.89 308.427 6
3 8 6 347.175 351.697 21
3 8 7 15258.5 898.61 20
-3 -8 -7 15661.7 878.162 6
3 8 7 14485.6 786.339 10
3 8 7 14954.5 901.245 21
3 8 8 2741.81 451.312 21
3 8 8 2337.21 431.292 20
-3 -8 -8 3416.27 423.623 6
-3 -8 -8 2519.3 416.078 7
3 8 9 401.211 316.602 21
-3 -8 -9 865.218 261.006 6
-3 -8 -9 734.318 260.201 7
-3 -8 -10 9859.89 572.276 6
3 8 10 9512.9 610.741 21
-3 -8 -11 6949.76 410.575 6
3 8 11 6823.61 445.741 21
3 9 -1 3157.86 303.145 16
-3 -9 1 3075.68 382.867 22
3 9 0 609.274 281.112 16
-3 -9 0 -117.705 312.323 22
3 9 1 14394.2 717.773 10
3 9 1 14657 778.206 16
-3 -9 -1 15445.5 945.786 22
3 9 2 36264.9 1232.97 16
3 9 2 36515.7 1229.72 10
-3 -9 -2 36954 1466.61 22
3 9 3 2965.36 814.815 12
-3 -9 -3 2046.37 441.768 22
3 9 3 1801.34 412.255 10
3 9 3 1850.69 373.017 16
-3 -9 -3 1511.23 342.149 6
3 9 4 13139.2 741.689 20
-3 -9 -4 13392.7 854.714 22
-3 -9 -4 13005.2 821.349 6
3 9 4 14698.2 877.927 10
3 9 4 13066.3 763.74 16
3 9 5 18426.2 903.194 20
-3 -9 -5 18729.3 954.933 6
3 9 5 19428.6 954.962 10
3 9 5 17366.3 857.161 16
-3 -9 -5 18816.5 928.808 22
3 9 6 67722.2 1765.2 20
-3 -9 -6 68645.4 1806.98 6
3 9 6 67735 1710.73 10
3 9 6 66853.1 1742.05 21
3 9 7 1291.55 373.41 21
3 9 7 1303.65 384.04 20
3 9 7 1519.37 349.875 10
-3 -9 -7 1272.41 323.2 6
3 9 8 2412.47 423.775 21
3 9 8 2098.33 405.828 20
-3 -9 -8 2564.89 398.525 6
-3 -9 -8 2488.13 389.904 7
-3 -9 -9 16144.1 770.222 6
-3 -9 -9 15041.2 778.834 7
3 9 9 15932.2 823.635 21
-3 -9 -10 6290.01 443.442 6
-3 -9 -10 6215.97 441.331 7
3 9 10 5929.43 470.468 21
-3 -9 -11 17240.8 588.502 6
3 9 11 17473.9 613.633 21
3 10 0 631.283 163.02 16
-3 -10 0 747.196 187.395 22
3 10 1 13238.6 614.781 16
-3 -10 -1 12406.5 683.884 22
3 10 2 4848.54 418.971 10
3 10 2 5663.22 476.243 16
-3 -10 -2 5689.55 546.857 22
3 10 3 333.587 276.355 10
3 10 3 10.1864 239.08 16
-3 -10 -3 60.1874 265.122 22
3 10 4 1954.66 381.134 10
-3 -10 -4 2207.71 316.161 6
3 10 4 2127.6 347.487 16
-3 -10 -4 2875.1 420.582 22
3 10 5 12515.4 705.885 20
-3 -10 -5 12052.2 693.32 6
3 10 5 14241.9 803.203 10
3 10 5 11248.4 649.902 16
-3 -10 -5 13026.6 723.364 22
-3 -10 -6 2709.98 353.086 6
3 10 6 2724.44 408.677 20
3 10 6 3076.99 425.504 10
3 10 6 2642.81 371.323 21
3 10 7 24394.2 1013.53 20
-3 -10 -7 23918.2 942.442 6
3 10 7 24637.4 937.479 10
-3 -10 -7 22295.3 974.56 7
3 10 7 23080 943.105 21
3 10 8 1232.37 319.845 21
3 10 8 924.934 329.858 20
-3 -10 -8 1323.53 276.213 6
-3 -10 -8 1068.57 252.795 7
3 10 9 1409.72 297.687 21
-3 -10 -9 1303.98 252.667 6
-3 -10 -9 1150.08 229.409 7
-3 -10 -10 7759.94 428.731 6
3 10 10 7902.19 463.5 21
-3 -10 -11 1940.11 185.55 6
3 10 11 2031.01 210.979 21
3 11 2 6664.46 352.149 16
-3 -11 -2 7434.68 414.83 22
3 11 3 1672.54 241.775 10
3 11 3 1110.55 209.522 16
-3 -11 -3 1956.22 279.477 22
3 11 4 2064.47 295.796 10
-3 -11 -4 2480.08 303.688 22
3 11 5 2767.12 343.012 10
-3 -11 -5 2804.95 315.67 22
-3 -11 -5 1916.81 257.648 7
3 11 6 972.88 247.848 20
3 11 6 1446.02 272.5 10
-3 -11 -6 1038.07 192.637 6
-3 -11 -6 1155.5 226.055 7
3 11 7 7552.71 490.767 20
-3 -11 -7 7402.95 440.691 6
3 11 7 8186.03 491.642 10
-3 -11 -7 7460.62 476.456 7
3 11 7 8028.61 458.118 21
3 11 8 542.268 188.892 21
3 11 8 1194.15 242.958 20
-3 -11 -8 863.951 168.16 6
-3 -11 -8 894.441 202.227 7
-3 -11 -9 11995.4 492.966 6
-3 -11 -9 11186.4 510.635 7
3 11 9 11477.3 513.764 21
-3 -11 -10 2722.7 210.812 6
3 11 10 2344.2 221.058 21
4 -10 -6 392.44 98.5575 59
-4 10 5 1625.03 253.576 21
4 -10 -5 2094.91 196.346 59
-4 10 4 3599.59 384.984 21
-4 10 4 4412.88 322.544 20
4 -10 -4 4568.42 263.141 59
-4 10 3 3169.49 300.745 20
-4 10 2 199.03 174.462 20
4 -10 -2 224.474 109.555 56
-4 10 1 444.034 163.351 20
4 -9 -7 5725.07 312.558 59
-4 9 6 1959.3 280.299 21
4 -9 -6 2642.38 260.54 59
-4 9 5 4701.61 472.849 21
4 -9 -5 5407.13 380.533 59
-4 9 4 12135.7 616.835 20
4 -9 -4 12669.3 579.811 59
4 -9 -4 11895.2 539.822 56
4 -9 -3 202.823 145.967 59
4 -9 -3 42.9808 164.353 56
-4 9 2 3034.93 332.382 23
4 -9 -2 3197.57 344.78 56
4 -9 -1 40200.8 1073.35 56
-4 9 1 39810.6 1132.33 23
4 -9 0 414.884 183.43 56
-4 9 0 189.698 172.143 23
4 -9 1 734.249 173.733 56
4 -8 -8 9684.45 347.933 59
-4 8 8 7351.59 425.2 18
-4 8 7 10172.1 703.018 27
-4 8 7 11350.5 646.771 26
-4 8 6 167.347 247.042 21
-4 8 6 662.197 276.545 26
4 -8 -6 880 212.46 59
-4 8 5 29882.3 2434.79 34
-4 8 5 28574.2 2415.79 33
4 -8 -5 33257.7 1053.94 59
4 -8 -5 33489.3 978.856 56
-4 8 4 264.049 243.17 20
-4 8 4 -53.4549 449.971 34
-4 8 4 1054.14 700.702 33
4 -8 -4 230.188 188.66 59
4 -8 -4 236.807 189.259 56
4 -8 -3 1611.19 272.71 59
4 -8 -3 1216.8 280.037 56
-4 8 2 33688.1 2483.53 35
4 -8 -2 34515.4 1017.97 59
4 -8 -2 34004.1 1157.01 56
-4 8 2 33854.1 1130.72 23
4 -8 -2 36547.9 1205.16 22
4 -8 -1 15320.8 794.16 56
-4 8 1 15869.2 811.506 23
4 -8 -1 15080.3 753.906 22
-4 8 0 309.603 235.3 23
4 -8 0 490.335 251.155 56
4 -8 0 340.264 193.135 22
4 -8 1 228.451 221.899 56
-4 8 -1 97.0029 217.568 23
4 -8 2 3133.57 348.837 56
-4 8 -2 2502.23 314.318 23
-4 8 -2 2732.9 260.294 16
-4 8 -3 2612.49 218.398 16
4 -8 3 3153.75 286.111 56
-4 7 8 6489.69 468.641 18
4 -7 -8 7432.87 341.365 59
-4 7 7 13776.6 779.79 26
4 -7 -7 13909.2 615.612 59
-4 7 6 26147.4 2428.47 33
-4 7 6 26009 1157.23 26
4 -7 -6 27354.9 960.998 59
4 -7 -5 39987.3 1232.44 59
-4 7 5 39183.7 2865.65 34
-4 7 5 38425.3 2936.64 33
4 -7 -5 36379.9 1167.72 56
-4 7 4 8165.96 1342.11 34
-4 7 4 7267.54 1295.95 32
4 -7 -4 7998.6 568.709 59
4 -7 -4 7244.49 565.27 56
-4 7 3 11290.7 1495.26 47
-4 7 3 11097.5 1505.51 35
-4 7 3 11438.1 1505.21 34
4 -7 -3 12210.6 685.101 59
4 -7 -3 11418.5 715.621 56
-4 7 2 49.6372 405.796 47
-4 7 2 487.666 439.567 35
4 -7 -2 702.835 233.097 59
4 -7 -2 477.014 276.938 56
-4 7 2 239.027 209.666 23
4 -7 -2 639.543 294.72 22
-4 7 1 8069.29 1265.83 47
-4 7 1 8531.3 1289.36 35
4 -7 -1 9152.75 604.102 58
4 -7 -1 10009.7 690.367 56
-4 7 1 9534.38 668.633 23
4 -7 -1 10219.2 670.015 22
-4 7 0 52024.1 1570.73 23
4 -7 0 48598.6 1394.24 22
-4 7 0 48014.5 2976.8 35
4 -7 0 47509.4 1280.92 58
4 -7 0 48608.4 1498.1 56
-4 7 -1 2312.17 726.392 35
-4 7 -1 2957.59 457.836 23
4 -7 1 2750.4 428.361 56
-4 7 -2 1390.76 292.826 16
4 -7 2 1884.19 366.027 56
-4 7 -2 1700.96 356.864 23
4 -7 3 19021.4 857.147 56
-4 7 -3 18306.1 745.302 16
-4 7 -3 18568.4 815.447 23
-4 7 -4 3902.57 330.005 16
-4 7 -4 3356.21 299.738 23
4 -7 4 3760.32 342.54 56
4 -6 -8 256.336 120.478 59
-4 6 8 196.578 257.091 18
-4 6 8 414.593 417.321 27
4 -6 -8 403.827 142.367 54
4 -6 -7 11398.6 568.909 59
-4 6 7 10362.2 835.132 27
-4 6 7 10199.7 721.305 26
-4 6 6 819.712 659.908 33
4 -6 -6 423.771 188.173 6
-4 6 6 384.793 339.597 26
4 -6 -6 341.26 212.148 59
-4 6 5 645.016 576.096 34
-4 6 5 707.917 696.885 33
-4 6 5 273.803 595.831 32
4 -6 -5 310.995 240.24 59
4 -6 -5 -134.492 235.225 56
-4 6 4 989.506 647.757 34
-4 6 4 1572.55 734.127 32
4 -6 -4 809.266 285.889 56
4 -6 -4 1109.68 285.816 59
-4 6 3 11079.1 1419.57 47
-4 6 3 9418.48 1325.81 35
-4 6 3 7690.55 1310.31 1
4 -6 -3 11250.7 666.24 59
4 -6 -3 10588.7 679.83 56
-4 6 2 4104.36 948.219 47
-4 6 2 4310.43 936.904 35
4 -6 -2 4117.91 413.579 59
-4 6 2 2824.61 803.927 1
4 -6 -2 3483.6 431.889 58
4 -6 -2 3938.74 458.437 56
-4 6 2 3760.42 404.011 23
4 -6 -2 3686.24 434.788 22
4 -6 -2 3497.63 785.397 55
-4 6 2 3124 832.148 50
-4 6 1 56189.4 3124.51 47
4 -6 -1 52459.1 1492.03 22
-4 6 1 53253.9 3086.29 35
4 -6 -1 51066.3 1300.09 59
4 -6 -1 53691 1441.82 58
4 -6 -1 52959.7 1538.48 56
4 -6 -1 56107.5 3389.34 55
-4 6 1 55979.2 3426.74 50
-4 6 0 122.034 360.416 48
-4 6 0 -497.854 501.208 35
4 -6 0 -8.23226 221.282 22
4 -6 0 309.599 234.557 58
4 -6 0 93.1314 247.157 56
-4 6 -1 2574.01 811.635 48
4 -6 1 2130.53 308.163 58
4 -6 1 3021.78 434.936 56
4 -6 2 50331.8 1293.91 58
-4 6 -2 52393.6 1414.15 16
4 -6 3 2305.05 418.721 18
-4 6 -3 1571.03 271.468 24
-4 6 -3 1584.42 320.99 16
4 -6 3 1808.88 379.121 56
4 -6 4 5896.74 556.735 18
-4 6 -4 5496.82 470.174 23
-4 6 -4 5653.64 469.734 16
4 -6 4 5398.53 495.33 56
-4 6 -4 5836.86 417.875 24
-4 6 -5 24099.5 742.739 24
-4 6 -5 24288.7 789.634 16
4 -6 5 23936.8 835.336 56
-4 6 -6 2201.49 197.708 16
-4 5 9 1945.59 256.033 17
4 -5 -9 1853.67 166.642 54
-4 5 8 16619.4 765.577 18
-4 5 8 16184.4 858.26 27
4 -5 -8 16383.2 600.554 54
-4 5 7 23669.4 1210.66 27
-4 5 7 22701.2 1035.41 26
4 -5 -7 22700.3 816.067 59
4 -5 -6 3034.1 410.159 6
-4 5 6 3110.97 906.657 46
-4 5 6 3168.77 998.901 33
-4 5 6 3061.34 512.395 26
4 -5 -6 3552.83 401.464 59
4 -5 -5 51817.2 1459.35 6
-4 5 5 44939.1 3012.26 34
-4 5 5 50864.7 3409.13 33
-4 5 5 48418.3 3351.09 32
4 -5 -5 53059.3 1438.58 59
-4 5 5 54110.5 1720.82 26
4 -5 -5 53062.4 1515.48 56
-4 5 4 46.8701 508.831 34
-4 5 4 485.414 597.577 32
-4 5 4 -514.764 602.841 1
4 -5 -4 258.03 213.07 59
4 -5 -4 -39.7943 225.77 56
-4 5 3 57828.2 3128.89 47
4 -5 -3 58201.2 1461.85 59
-4 5 3 56114.4 2948.95 35
-4 5 3 52184.5 3106.32 1
4 -5 -3 56256.1 1509.61 56
4 -5 -3 51665.1 2707.9 55
-4 5 3 50548.4 3156.58 50
-4 5 2 53588 2917.51 47
4 -5 -2 50432.4 1412.35 22
-4 5 2 44237.2 2707.4 1
-4 5 2 51713.1 2829.62 35
4 -5 -2 50466.5 1358.9 58
4 -5 -2 49965.7 1307.88 59
4 -5 -2 50404.2 1409.5 56
4 -5 -2 47021.4 2663.78 55
-4 5 2 49055.7 2993.04 50
-4 5 1 16982.1 1621.16 48
-4 5 1 15882.7 1434.46 41
-4 5 1 15291.8 1602.9 35
4 -5 -1 14815.4 757.979 22
4 -5 -1 14776.9 676.715 59
4 -5 -1 15799.4 750.454 58
4 -5 -1 15004.2 780.33 56
4 -5 -1 15573.1 1649.88 55
-4 5 1 16347.2 1756.07 50
-4 5 0 2268.77 720.028 48
-4 5 0 959.538 457.347 41
4 -5 0 2294.13 324.465 58
4 -5 0 2572.16 386.026 56
4 -5 0 3376.45 875.154 55
4 -5 0 2374.87 341.378 22
-4 5 0 1938.3 734.33 50
-4 5 -1 6336.4 1120.43 41
-4 5 -1 5493.31 458.528 38
4 -5 1 6008.42 550.674 18
4 -5 1 5431.47 456.088 58
-4 5 -1 5627.61 997.245 48
4 -5 1 5976.19 547.742 56
4 -5 1 7016.77 1387.63 55
-4 5 -2 3164.81 766.929 48
-4 5 -2 3054.35 880.369 41
-4 5 -2 2468.56 368.685 38
4 -5 2 3008.25 452.438 18
-4 5 -2 2172.12 762.062 61
4 -5 2 2626.34 331.34 58
4 -5 2 2866.79 407.431 56
4 -5 2 3702.49 1070.34 55
-4 5 -3 857.01 505.91 48
-4 5 -3 1215.72 650.043 41
-4 5 -3 1054.5 300.397 38
-4 5 -3 681.435 250.725 24
4 -5 3 908.527 348.283 18
4 -5 3 880.843 244.795 58
4 -5 4 37367.4 1288.58 19
-4 5 -4 38433.3 1321.6 38
4 -5 4 40604.4 1383.78 18
-4 5 -4 37150 1204.84 24
4 -5 5 830.331 290.624 18
-4 5 -5 723.273 238.116 24
-4 5 -5 881.855 296.709 16
4 -5 5 282.97 222.051 56
4 -5 6 3735.79 392.296 18
-4 5 -6 3889.36 348.823 16
-4 5 -6 3930.5 343.093 24
4 -5 6 3440.91 338.797 56
-4 5 -7 14983.2 467.382 16
-4 5 -7 15726.9 486.079 24
-4 4 9 9844.38 454.403 17
4 -4 -9 9136.84 344.258 54
-4 4 8 17600.4 792.507 18
-4 4 8 19088.1 888.958 27
4 -4 -8 19285.1 672.077 54
-4 4 7 9877.62 773.406 18
-4 4 7 9688.36 887.804 27
4 -4 -7 9678.16 527.756 59
-4 4 6 10354.3 1624.88 46
-4 4 6 10170 797.015 26
4 -4 -6 10235.7 607.494 59
4 -4 -6 10350.5 696.408 6
4 -4 -5 26738.5 1096.5 6
-4 4 5 25361.1 2522.91 33
-4 4 5 25679.6 2351.5 31
-4 4 5 26703.7 1231.21 26
4 -4 -5 26283.8 977.688 59
4 -4 -5 28211.7 1133.7 56
-4 4 4 1118.44 662.159 1
4 -4 -4 991.353 458.138 49
-4 4 4 1635.68 733.668 34
-4 4 4 1464.74 730.266 33
-4 4 4 1032.36 668.361 32
4 -4 -4 1379.4 269.022 6
4 -4 -4 1601.42 290.669 59
4 -4 -4 1759.46 330.526 56
-4 4 3 325.923 370.114 47
-4 4 3 1094.08 462.943 35
-4 4 3 625.365 532.984 34
-4 4 3 948.549 678.651 32
4 -4 -3 540.615 211.659 59
-4 4 3 383.683 382.28 1
4 -4 -3 928.472 274.627 56
4 -4 -3 273.173 293.698 55
-4 4 2 23238 1708.05 48
-4 4 2 22703.2 1771.61 47
-4 4 2 21015.1 1662.1 35
4 -4 -2 21453.6 1671.68 55
-4 4 2 21808.7 1782.5 1
-4 4 1 13722.8 1334.76 48
-4 4 1 14323.4 1249.24 41
4 -4 -1 14745.5 1438.06 55
-4 4 1 14327.2 1473.52 50
-4 4 0 59328.5 2758.27 48
-4 4 0 56833.3 2687.13 41
-4 4 0 58489.2 2643.38 36
4 -4 0 66553 3363.4 55
-4 4 0 60393.8 2987.67 50
-4 4 -1 12131.5 1328.96 48
-4 4 -1 13552.1 1456.9 41
-4 4 -1 13068.2 648.125 38
-4 4 -1 13807.2 1409.09 36
4 -4 1 17487.4 1958.32 55
-4 4 -1 13935.2 1493.75 50
-4 4 -2 8306.43 1270.39 41
-4 4 -2 7309.62 542.69 38
-4 4 -2 8497.34 1108.11 37
4 -4 2 7480.28 578.985 18
-4 4 -2 6747.53 1078.14 61
4 -4 2 7084.93 510.15 58
4 -4 2 10178.1 1506.74 55
4 -4 3 28518.7 1091.9 19
-4 4 -3 30267.3 2390.77 41
-4 4 -3 30215.2 1147.69 38
4 -4 3 29797.8 1150.56 18
-4 4 -3 31698.8 2363.49 61
4 -4 3 28854.6 1028.51 58
4 -4 3 26160.3 1933.46 51
-4 4 -4 121659 4399.1 48
4 -4 4 127131 2386.69 19
-4 4 -4 133255 5065.2 41
-4 4 -4 134087 2542.43 38
4 -4 4 134078 2538.01 18
4 -4 4 125768 2255.43 58
4 -4 5 4582.02 482.776 19
-4 4 -5 4918.91 1054.66 41
-4 4 -5 4960.47 521.225 38
4 -4 5 5068.9 561.684 18
4 -4 5 4705.17 440.795 58
-4 4 -5 4640.85 469.011 24
-4 4 -6 2654.9 357.734 38
4 -4 6 2746.39 421.847 18
-4 4 -6 2846.52 379.46 24
4 -4 7 8881.1 563.187 18
-4 4 -7 9067.88 499.075 16
-4 4 -7 9325.65 518.839 24
4 -4 8 337.513 125.294 18
-4 4 -8 217.827 101.727 24
-4 3 9 96.6579 158.151 17
4 -3 -9 180.548 101.31 54
-4 3 8 12775.1 657.166 18
4 -3 -8 14407.9 586.317 54
-4 3 7 9039.54 708.915 18
-4 3 7 8939.6 846.442 27
-4 3 7 9776.41 793.641 3
4 -3 -7 10617.1 597.953 54
-4 3 6 11408.2 1730.05 46
-4 3 6 13397.2 1057.55 27
4 -3 -6 11532.7 637.337 59
4 -3 -5 16184.4 874.751 6
-4 3 5 17001.7 2108.35 46
-4 3 5 15003.3 1913.26 33
-4 3 5 16620.9 2022.31 31
-4 3 5 17344.5 1006.03 26
-4 3 5 14328.8 1961.24 60
4 -3 -5 17366.6 774.706 59
4 -3 -4 6000.19 904.545 49
4 -3 -4 4806.92 467.577 6
4 -3 -4 4954.99 427.275 59
-4 3 4 3741.46 860.494 34
-4 3 4 5776.45 1153.39 33
-4 3 4 3524.82 1021.02 32
-4 3 4 5722.73 1144.25 31
-4 3 4 4956.13 1158.96 60
4 -3 -4 5048.7 504.52 56
-4 3 4 4177.99 921.23 1
4 -3 -3 40632.8 2047.87 49
-4 3 3 40593.7 2507.57 1
-4 3 3 38657.2 2272.96 47
4 -3 -3 38180.8 1942.25 52
-4 3 3 37309.6 1991.1 35
-4 3 3 37773.7 2240.59 34
-4 3 3 38538.9 2495.73 32
-4 3 2 45451.7 2103.4 48
-4 3 2 44378.5 2292.77 47
-4 3 2 41634.4 2087.81 35
-4 3 2 42635.2 2328.37 1
4 -3 -2 40765.7 2187.48 55
4 -3 -2 41604.6 2057.66 52
-4 3 1 101691 3206.95 48
4 -3 -1 96964.8 3340.99 55
-4 3 1 95062.7 3157.08 1
-4 3 0 18429.3 1358.03 45
-4 3 0 19469.3 1402.02 36
4 -3 0 21422.2 1718.67 55
-4 3 0 21433.1 1594.35 50
-4 3 -1 11035.3 1109.65 37
-4 3 -1 12041.3 1210.16 36
-4 3 -1 12625.1 1263.11 50
-4 3 -2 43604.9 2366.98 37
-4 3 -2 44483.1 2520.54 36
4 -3 2 45450.2 2020.18 51
-4 3 -3 3352.9 813.495 41
-4 3 -3 4264.4 847.162 37
-4 3 -3 4960.01 984.172 36
-4 3 -3 3491.79 802.567 61
4 -3 3 4702.42 791.74 51
-4 3 -4 18396.1 1837 41
-4 3 -4 18372.2 898.874 38
-4 3 -4 16550.5 1717.28 37
-4 3 -4 18113 1858.3 36
4 -3 4 18889 897.818 18
-4 3 -4 17304.6 1676.78 61
4 -3 4 18012.3 826.562 58
4 -3 4 17048.4 1654.61 51
-4 3 -5 762.425 618.882 41
-4 3 -5 611.324 301.858 38
4 -3 5 1119.68 357.792 18
4 -3 5 677.382 263.29 58
-4 3 -6 1196.94 530.158 41
-4 3 -6 1566.36 329.921 38
4 -3 6 1741.31 358.758 18
-4 3 -6 1537.56 262.426 25
4 -3 6 1855.32 315.03 58
-4 3 -6 1865.52 355.757 24
-4 3 -7 51.248 192.249 38
4 -3 7 250.598 257.855 18
-4 3 -7 19.1797 154.998 25
-4 3 -7 -190.191 251.983 24
4 -3 8 3615.52 352.476 18
-4 3 -8 3751.57 312.591 16
-4 3 -8 4149.33 347.524 24
-4 2 8 6445.28 531.447 17
4 -2 -8 6405.64 390.045 54
-4 2 7 149.848 266.038 18
-4 2 7 -1.81492 808.675 28
-4 2 7 -267.228 365.927 27
4 -2 -7 233.345 229.581 54
-4 2 7 327.8 414.166 3
-4 2 6 23076.1 2540.3 46
-4 2 6 24074.6 1175.17 18
-4 2 6 23706.4 1311.83 27
-4 2 6 24406.4 1291.95 3
4 -2 -6 22479.8 917.652 54
-4 2 5 828.38 671.986 46
4 -2 -5 96.1372 185.392 11
-4 2 5 528.447 447.177 27
-4 2 5 229.507 300.693 26
-4 2 5 1142.09 741.406 60
4 -2 -5 263.596 192.213 59
4 -2 -4 10056.4 675.22 6
4 -2 -4 11447.6 1180.52 49
-4 2 4 11862.4 1755.77 46
4 -2 -4 10999.6 621.95 11
-4 2 4 9186.05 1521.22 33
-4 2 4 12001.5 1683.19 31
-4 2 4 11238.1 773.936 26
-4 2 4 9434.7 1478.1 60
4 -2 -4 11181.3 603.236 59
4 -2 -4 11505.5 724.291 56
4 -2 -3 77688.2 2684.73 49
-4 2 3 76815.9 3485.85 33
-4 2 3 77642 3572.45 32
-4 2 3 84775.2 3962.38 31
-4 2 3 79941.2 3535.88 60
4 -2 -3 75692.5 2731.45 52
-4 2 3 77858 3322.14 1
-4 2 2 39650.4 2058.2 1
4 -2 -2 39795.7 1707.71 49
-4 2 2 36660.1 1639.55 48
-4 2 2 38332 1961.71 47
-4 2 2 36682.2 1716.72 35
-4 2 2 40800.5 2271.66 32
-4 2 2 39553.8 2141.69 60
4 -2 -2 39807.1 2122.54 55
4 -2 -2 37785.8 1892.47 52
-4 2 1 22230.2 1341.62 48
-4 2 1 20960.5 1382.54 1
4 -2 -1 21210.3 1487.53 55
4 -2 -1 21279.4 1426.47 52
-4 2 0 9991.22 874.093 1
4 -2 0 11877.2 1127 55
4 -2 0 12112.3 1132.47 52
-4 2 0 11718.7 1078.72 50
-4 2 -1 27103.3 1733.58 45
-4 2 -1 25277.1 1747.82 44
4 -2 1 28295.6 1858.28 55
-4 2 -1 27036.2 1559.3 50
-4 2 -2 10977.3 1143.53 44
-4 2 -2 8428.57 1035.88 42
-4 2 -2 8677.01 1090.49 36
4 -2 2 10152.2 843.985 51
-4 2 -3 19072.4 1573.68 42
-4 2 -3 19792 1644.23 37
-4 2 -3 19390.4 1638.02 36
-4 2 -3 20286.4 1503.1 61
4 -2 3 20271.6 1399.11 51
-4 2 -4 64757.4 3204.76 37
-4 2 -4 64682.7 3196.35 36
-4 2 -4 64282 2872.5 61
4 -2 4 70339.3 3410.27 8
4 -2 4 62093.8 2846.48 51
4 -2 5 36089.8 1205.58 58
-4 2 -5 35423.2 2454.8 41
-4 2 -5 36453 2625.42 37
-4 2 -5 36101.3 2586.07 36
4 -2 5 35996.9 1232.8 18
-4 2 -5 36697 2359.3 61
-4 2 -5 33630.2 1093.53 25
4 -2 5 36092 2693.49 8
4 -2 5 33367.6 1187.8 21
4 -2 5 34870.6 2424.1 51
-4 2 -6 8612.29 1275.79 41
-4 2 -6 8754.5 661.941 38
4 -2 6 8903 677.845 18
-4 2 -6 8754.75 609.875 25
4 -2 6 8637.7 642.301 58
4 -2 6 8783.81 1489.11 8
-4 2 -7 35561.7 1264.93 38
4 -2 7 36677.9 1338.98 18
-4 2 -7 35744.6 1177.99 25
-4 2 -7 40593.6 1319.42 24
4 -2 7 35182.4 2803.07 8
4 -2 7 34127.8 1179.18 58
-4 2 -8 13583 691.523 38
4 -2 8 13089.1 732.123 18
-4 2 -8 13357 651.488 25
4 -2 8 11972.4 601.314 58
-4 2 -8 14612.9 709.871 24
-4 2 -9 2180.26 232.98 24
4 -2 9 1593.3 234.713 18
-4 2 -9 1908.67 202.883 25
-4 2 -9 1711.04 199.239 16
-4 1 8 124.164 250.307 19
-4 1 8 229.125 254.623 17
4 -1 -8 -57.2439 151.161 54
-4 1 7 37508.4 1420.01 3
4 -1 -7 38800.8 1080.16 54
-4 1 6 15062.2 1040.94 27
-4 1 6 16660.7 1107.31 3
4 -1 -6 14046.1 732.154 54
-4 1 5 913.184 733.105 46
4 -1 -5 936.334 267.447 54
4 -1 -5 752.075 248.124 11
-4 1 5 1805.35 573.63 27
4 -1 -5 798.094 216.679 59
-4 1 5 757.733 466.828 3
-4 1 4 2902.43 1041.24 46
4 -1 -4 3322.16 401.351 11
4 -1 -4 3322.38 352.141 59
-4 1 4 3786.25 1023.81 60
-4 1 4 3766.91 573.284 27
4 -1 -3 26051.2 1567.36 49
-4 1 3 26320.6 2298.84 46
4 -1 -3 24471.9 870.491 11
-4 1 3 21189.9 1929.68 33
4 -1 -3 24039 1577.22 52
-4 1 3 25701.7 2275.02 31
-4 1 3 23298.6 1944.3 60
4 -1 -2 88795.9 2460.66 49
4 -1 -2 85084.2 2867.32 52
-4 1 2 91259.9 3291.07 33
-4 1 2 88045.5 3393.82 32
-4 1 2 92548.2 3790.81 31
-4 1 2 86081 3170.4 60
4 -1 -1 99570.9 2215.49 49
-4 1 1 106908 2577.35 48
-4 1 1 103007 2858.36 47
-4 1 1 105988 3013.33 60
4 -1 -1 103176 3205.94 55
-4 1 1 104515 2632.29 1
4 -1 -1 102974 3020.89 52
4 -1 0 45804.1 2033.03 55
4 -1 0 44143.6 1975.12 52
-4 1 -1 7588.07 965.072 45
4 -1 1 6784.93 851.955 52
4 -1 1 7465.93 859.504 55
-4 1 -1 6947.68 707.677 50
-4 1 -2 128058 3895.94 45
-4 1 -2 125694 4150.9 44
-4 1 -2 128185 3025.84 30
4 -1 2 134109 3840.02 55
4 -1 2 117329 2495.54 51
-4 1 -3 54941.7 2707.96 44
-4 1 -3 51253.5 2437.61 43
-4 1 -3 52314.6 2655.31 42
-4 1 -3 51628.9 2000.53 61
4 -1 3 54449.5 2558.84 8
4 -1 3 53962.6 2065.47 51
-4 1 -4 143978 4561.73 42
-4 1 -4 139217 4551.11 37
-4 1 -4 139231 4422.82 36
4 -1 4 141995 2258.25 9
-4 1 -4 149462 3890.2 61
4 -1 4 143349 4473.05 8
4 -1 4 148567 4046.28 51
-4 1 -5 53445.1 3037.86 37
-4 1 -5 51121.1 2831.62 36
-4 1 -5 54149.4 2576.85 61
4 -1 5 53381.2 1503.12 9
4 -1 5 57393.9 3126.71 8
4 -1 5 53105.1 2772.21 51
-4 1 -6 21848.9 1851 13
-4 1 -6 21248.4 1882.44 41
-4 1 -6 22803.4 2149.01 37
-4 1 -6 22103.1 1994.67 36
4 -1 6 21948.5 991.996 18
4 -1 6 23151.1 1097.88 9
4 -1 6 22444.7 2213.11 8
-4 1 -6 22439.4 922.18 15
4 -1 6 20294.8 931.168 21
4 -1 7 266.618 252.753 21
-4 1 -7 304.836 374.278 13
-4 1 -7 367.176 261.242 38
4 -1 7 273.078 325.061 18
-4 1 -7 57.1123 215.579 25
4 -1 7 -93.5967 278.44 9
4 -1 7 259.164 302.426 58
4 -1 7 206.581 561.898 8
-4 1 -7 131.636 193.085 15
-4 1 -8 22507.4 960.949 38
4 -1 8 22627.8 1023.56 18
-4 1 -8 25037 1003.48 25
4 -1 8 23749.2 976.471 58
-4 1 -8 25746.9 1014.49 24
4 -1 8 21402.4 2126.74 8
4 -1 9 3021.09 345.186 18
4 -1 9 2940.24 307.903 58
-4 1 -9 3019.01 303.442 16
-4 1 -9 3582.23 340.658 24
-4 1 -9 3648.35 349.204 25
4 -1 10 2742.55 230.605 18
-4 1 -10 3641.84 238.868 25
-4 0 8 19287.8 693.515 19
4 0 -8 20039.5 539.562 54
-4 0 7 439.291 381.325 19
-4 0 7 764.675 393.233 17
4 0 -7 826.867 238.531 54
-4 0 6 591.124 720.237 2
-4 0 6 416.715 782.047 28
-4 0 6 -385.094 446.508 17
-4 0 6 71.4295 443.021 3
4 0 -6 163.9 244.058 54
-4 0 5 11663.6 1824.9 2
-4 0 5 11363.5 893.61 27
-4 0 5 11630.1 985.067 3
4 0 -5 11545.3 676.389 54
-4 0 4 2802.12 1360.98 46
4 0 -4 2193.3 341.524 11
-4 0 4 1140 408.441 27
-4 0 4 2181.82 775.415 60
4 0 -4 2456.1 325.219 59
4 0 -4 1953.2 314.178 54
-4 0 4 2189.38 544.138 3
-4 0 3 4140.77 1239.5 46
4 0 -3 3775.61 381.738 11
-4 0 3 3838.49 529.918 27
-4 0 3 3715.9 896.345 60
4 0 -3 3739.12 720.573 52
-4 0 2 19283.1 1794.85 46
-4 0 2 18842.1 1562.94 33
-4 0 2 20104.3 1845.07 31
-4 0 2 18260.2 1545.29 60
4 0 -2 20805.7 1470.5 52
-4 0 1 1396.31 379.768 47
-4 0 1 1522.46 514.011 32
-4 0 1 2361.02 770.139 31
4 0 -1 1529.52 463.866 52
-4 0 0 897.941 501.052 31
4 0 0 399.387 323.555 55
4 0 0 533.997 405.482 52
4 0 1 65136.7 2287.88 55
4 0 1 70201.7 2383.88 52
-4 0 -1 66912.2 1717.58 50
-4 0 -2 3609.15 783.073 45
-4 0 -2 2718.72 645.521 30
4 0 2 3153.36 561.469 55
4 0 2 2860.95 595.421 52
-4 0 -3 21233.7 1812.44 44
-4 0 -3 19913.1 1409.16 39
4 0 3 18951.5 1352.13 8
-4 0 -3 20855 1450.18 29
-4 0 -3 19890 1023.9 61
4 0 3 19889.4 1321.76 55
-4 0 -4 4894.57 949.002 43
-4 0 -4 4442.3 943.452 42
-4 0 -4 4621.05 630.872 61
4 0 4 4354.63 366.108 9
4 0 4 4465.09 684.663 55
4 0 4 3654.71 740.869 8
-4 0 -5 18097.4 1747.82 42
-4 0 -5 16806.2 711.135 40
-4 0 -5 18648.2 1761.13 37
4 0 5 17330.1 783.075 9
4 0 5 19490.3 1696.91 8
-4 0 -6 15235.7 1700.33 37
-4 0 -6 15335.4 1588.78 36
4 0 6 15439.6 776.41 18
4 0 6 15608 853.692 9
4 0 6 14954.3 1680.42 8
4 0 6 14472.8 767.094 21
-4 0 -6 14489.7 749.378 15
-4 0 -6 14448.3 716.779 14
4 0 7 688.75 263.394 21
-4 0 -7 959.141 566.409 13
-4 0 -7 555.646 318.477 41
-4 0 -7 978.111 280.205 25
-4 0 -7 1040.38 566.563 37
-4 0 -7 728.784 504.031 36
4 0 7 1226.91 360.071 18
4 0 7 1126.31 376.508 9
4 0 7 1461.05 774.267 8
-4 0 -7 944.393 248.915 15
-4 0 -7 1247.17 303.511 14
-4 0 -8 47674.1 1446.67 38
4 0 8 47361.1 1471.86 18
4 0 8 49874.5 1620.08 9
-4 0 -8 49800.3 1496.44 25
4 0 8 48721.6 3284.99 8
-4 0 -8 51016.8 1521.92 15
4 0 8 44575 1332.48 21
-4 0 -8 50353 3019.92 13
4 0 9 15803.8 803.557 18
4 0 9 15969.4 868.787 9
-4 0 -9 18903.8 849.037 25
4 0 9 16770.2 796.537 58
-4 0 -9 17208.7 741.395 24
4 0 9 17642.1 1853.89 8
4 0 10 66.932 152.121 18
-4 0 -10 69.9771 135.873 25
4 0 10 219.509 140.425 58
-4 -1 7 6247.22 580.333 19
-4 -1 7 7523.4 564.72 17
4 1 -7 6933.65 414.696 54
-4 -1 6 5802.72 763.788 19
4 1 -6 4610.62 439.633 54
-4 -1 6 4379.88 1215.87 28
-4 -1 6 5114.26 625.444 17
-4 -1 5 4920.26 1287.83 2
-4 -1 5 4884.8 1348.28 28
-4 -1 5 5895.88 684.329 17
-4 -1 5 5375.54 756.01 3
4 1 -5 5649.09 501.931 54
-4 -1 4 19621.1 2225.28 2
-4 -1 4 21172.3 2416.49 28
-4 -1 4 20224.7 1029.34 27
-4 -1 4 19079.6 2102.02 60
-4 -1 4 21017.3 1243.95 3
4 1 -4 16257.4 1472.28 52
4 1 -4 19382.2 775.744 53
4 1 -4 19534.5 854.965 54
-4 -1 3 20325.2 2103.34 46
-4 -1 3 22559.4 1020.15 27
-4 -1 3 20560.7 1935.47 60
-4 -1 3 22476.5 1132.28 3
4 1 -3 23008.1 846.467 54
4 1 -3 22748.2 1686.28 52
-4 -1 2 75647.5 3534.96 46
-4 -1 2 75677.1 1768.43 3
4 1 -2 74277 2860.45 52
-4 -1 1 4612.89 865.285 46
4 1 -1 5301.65 792.919 52
-4 -1 0 73936.1 2546.32 46
-4 -1 0 67073.4 2265.06 32
-4 -1 0 74509.1 2837.47 31
4 1 0 74213.1 2546.85 52
-4 -1 -1 141661 3004.86 46
-4 -1 -1 145113 3345.39 31
4 1 1 146405 3370.48 52
-4 -1 -2 107189 3217.29 45
-4 -1 -2 101777 2377.01 31
4 1 2 99921.5 2648.93 55
4 1 2 97950.6 2645.65 52
-4 -1 -3 1123.69 639.704 45
-4 -1 -3 307.753 595.437 30
4 1 3 865.377 304.635 55
4 1 3 781.368 358.379 8
4 1 3 582.166 378.597 52
-4 -1 -4 200351 5606.17 44
-4 -1 -4 193496 5408.89 43
-4 -1 -4 199093 4886.27 39
-4 -1 -4 192172 4601.13 29
4 1 4 181108 4147.25 8
4 1 4 187099 3567.23 55
-4 -1 -5 19502.7 1720.96 43
-4 -1 -5 19946.2 1826.62 42
-4 -1 -5 18731.2 806.423 40
4 1 5 17769.9 748.44 9
4 1 5 18144.2 1538.23 8
-4 -1 -6 32420.8 2407.04 42
-4 -1 -6 32254.1 1076.57 40
-4 -1 -6 31526.9 2352.68 37
4 1 6 28301.6 1081.9 9
4 1 6 29281.1 2163.66 8
-4 -1 -6 30459.4 1073.73 14
-4 -1 -7 27017.2 2244.24 37
-4 -1 -7 25474.2 2026.55 36
4 1 7 25516.6 1036.87 18
4 1 7 27320.7 1146.57 9
4 1 7 24283.4 2212.28 8
-4 -1 -7 26804.1 1088.88 15
-4 -1 -7 26535.1 1055.27 14
4 1 7 25795.5 1047.03 21
-4 -1 -8 4798.93 1051.61 13
4 1 8 5703.18 540.632 18
4 1 8 6154.32 611.861 9
-4 -1 -8 6799.48 571.455 25
-4 -1 -8 6138.52 560.177 15
4 1 8 5087.61 1125.72 8
-4 -1 -8 6895.42 588.134 14
4 1 8 6315.43 570.24 21
-4 -1 -9 455.918 346.157 13
4 1 9 1141.75 337.579 9
4 1 9 844.792 292.964 18
-4 -1 -9 914.077 240.11 24
4 1 9 867.555 493.497 8
-4 -1 -9 967.59 303.099 15
-4 -1 -9 1022.58 297.45 25
-4 -1 -10 9751.49 512.546 11
4 1 10 9173.74 543.771 18
4 1 10 9603.27 607.483 9
4 1 10 9824.65 558.116 58
-4 -1 -10 10788.1 596.085 25
-4 -1 -11 5880.79 319.666 25
-4 -2 7 28181.9 888.857 19
4 2 -7 27695.6 636.153 54
-4 -2 6 6388.78 686.071 19
-4 -2 6 7387.7 628.869 17
4 2 -6 6875.07 456.396 54
-4 -2 5 19027.3 1205.18 19
-4 -2 5 17602.1 2174.46 28
-4 -2 5 19611.2 1038.56 17
4 2 -5 18525.7 826.176 54
4 2 -4 1717.38 327.596 54
-4 -2 4 1846.23 1007.33 2
-4 -2 4 1709.31 583.392 3
-4 -2 4 2041.3 1205.36 28
-4 -2 4 1358.8 423.688 17
4 2 -4 1093.89 266.796 24
4 2 -4 1592.24 306.199 53
-4 -2 3 35830.1 2826.41 2
4 2 -3 37382 1124.91 54
-4 -2 3 36871.4 2966.2 28
-4 -2 3 35837.3 1267.38 17
-4 -2 3 32231.5 2593.75 60
-4 -2 3 36573.9 1476.19 3
4 2 -3 32968.4 1038.32 59
4 2 -3 35010.4 1144.17 24
4 2 -3 35120.6 2214 52
-4 -2 2 33408.5 2467.27 2
-4 -2 2 33218.7 2495.9 28
-4 -2 2 28848.8 1169.37 3
4 2 -2 29199.9 1914.48 52
-4 -2 1 23004.1 1866.03 2
-4 -2 1 24857.7 928.923 3
4 2 -1 24507.1 1647.26 52
-4 -2 0 631.024 582.108 46
-4 -2 0 240.27 532.146 2
4 2 0 364.842 371.99 52
-4 -2 0 247.293 240.899 3
-4 -2 -1 483.137 412.357 46
-4 -2 -1 850.942 616.94 2
4 2 1 654.817 409.539 52
-4 -2 -2 15024.4 1115.18 2
4 2 2 13289.6 1011.52 52
-4 -2 -2 12533 635.935 51
-4 -2 -3 77696.7 2903.16 45
-4 -2 -3 71007.9 2695.99 30
4 2 3 74077.2 2180.73 52
-4 -2 -4 1108.69 775.624 44
-4 -2 -4 708.386 520.462 39
-4 -2 -4 353.262 626.047 29
4 2 4 422.569 311.362 52
-4 -2 -5 925.562 681.808 44
-4 -2 -5 494.916 570.823 43
-4 -2 -5 35.3076 456.255 39
4 2 5 158.759 167.277 9
-4 -2 -6 115110 2181.1 40
4 2 6 113259 1992.95 9
4 2 7 249.657 254.944 21
-4 -2 -7 574.815 265.82 40
-4 -2 -7 496.721 559.855 37
4 2 7 443.032 266.562 9
-4 -2 -7 375.938 243.462 14
-4 -2 -8 60962.9 3241.15 37
4 2 8 55545.7 1541.66 18
4 2 8 59658.8 1715.9 9
-4 -2 -8 59037.1 1690.05 15
-4 -2 -8 61748.4 1709.04 14
4 2 8 57588.1 1581.06 21
4 2 9 15993.6 850.905 18
4 2 9 17476.1 933.938 9
-4 -2 -9 19571.9 923.749 25
4 2 9 17771.2 1956.97 8
-4 -2 -9 17930.4 931.53 15
4 2 9 17388.5 838.419 21
-4 -2 -9 17886.9 1890.32 13
4 2 10 6312.55 487.471 18
4 2 10 6333.62 527.662 9
-4 -2 -10 7437.43 520.84 25
-4 -2 -10 8136.13 577.54 15
-4 -2 -11 10183.1 476.422 25
4 2 11 8926.97 425.838 18
4 2 11 9131.35 452.485 58
-4 -3 6 129.926 276.729 19
4 3 -6 169.878 143.093 54
-4 -3 6 -195.811 208.256 22
-4 -3 5 4992.49 658.516 19
4 3 -5 4870.95 437.817 54
4 3 -5 3867.72 342.53 53
-4 -3 4 2107.24 571.622 19
4 3 -4 1918.73 358.357 54
-4 -3 4 1110.49 473.538 4
-4 -3 4 762.454 969.096 28
-4 -3 4 2382.33 506.066 17
4 3 -4 1626.84 344.647 24
4 3 -3 6121.68 560.182 24
-4 -3 3 6142.75 589.989 17
-4 -3 3 7282.09 1551.63 28
4 3 -3 6338.78 540.031 54
-4 -3 3 5101.09 1303.07 2
-4 -3 2 26544.8 2408.86 2
4 3 -2 26980.7 939.884 54
-4 -3 2 25994.1 1178.53 3
-4 -3 2 26093.3 2477.9 28
4 3 -2 26126 1014.3 24
4 3 -2 25597 1919.22 52
4 3 -1 2106.18 597.994 12
-4 -3 1 2836.46 1088.47 2
-4 -3 1 2627.98 982.711 28
-4 -3 1 2381.68 416.257 3
4 3 -1 1837.11 578.727 52
4 3 0 28262.2 1767.11 12
-4 -3 0 28293.5 2028.35 2
-4 -3 0 28556.9 1998.75 28
-4 -3 0 27511.4 943.095 3
4 3 0 29312.8 1766.08 52
-4 -3 -1 122527 3731.82 2
-4 -3 -1 125138 3680.26 28
4 3 1 123292 3316.3 52
-4 -3 -2 86865.7 3017.36 30
-4 -3 -2 80177.5 2632.34 28
4 3 2 82768 2514.53 52
-4 -3 -2 78391.9 1934.58 51
-4 -3 -2 77721.5 2757.12 2
-4 -3 -3 1622.26 597.064 45
-4 -3 -3 1435.24 685.69 30
4 3 3 2394.86 479.694 52
-4 -3 -3 1344.11 395.379 51
-4 -3 -4 380.015 628.11 29
4 3 4 693.82 288.912 52
-4 -3 -5 67655.7 3276.72 44
-4 -3 -5 63447.6 3220.09 43
-4 -3 -5 64137.5 3168.96 39
4 3 5 57551 1268.38 10
-4 -3 -6 325.993 559.217 43
-4 -3 -6 253.617 503.49 42
-4 -3 -6 41.2546 233.247 40
-4 -3 -6 308.106 493.554 39
4 3 6 -148.793 221.058 10
4 3 6 401.643 322.194 60
4 3 6 -90.822 158.751 9
4 3 7 -257.117 288.445 21
-4 -3 -7 613.477 611.851 42
-4 -3 -7 -28.3738 257.57 40
4 3 7 -69.4173 205.86 9
-4 -3 -7 -35.7089 251.619 14
-4 -3 -8 40914.8 2530.86 37
4 3 8 41694.8 1376.63 9
-4 -3 -8 41369.4 1400.38 14
4 3 8 39383.7 1319.17 21
4 3 9 232.51 269.415 9
4 3 9 -148.29 306.901 21
-4 -3 -9 10.9839 458.291 13
4 3 9 261.427 234.867 18
-4 -3 -9 167.137 242.177 15
-4 -3 -9 131.162 218.783 25
-4 -3 -9 36.6187 243.443 14
4 3 10 8316.1 557.376 18
4 3 10 7997.24 632.589 9
-4 -3 -10 9454.97 587.509 25
4 3 10 6973.68 1161.91 8
4 3 10 8812.61 560.721 21
-4 -3 -11 15026 633.869 11
-4 -3 -11 13825.4 574.572 25
-4 -4 6 5663.58 376.268 19
-4 -4 5 4470.67 530.405 19
4 4 -5 3722.43 324.267 54
4 4 -5 3858.2 297.013 53
-4 -4 5 2946.35 448.76 22
-4 -4 4 7191.72 720.857 4
-4 -4 4 8540.18 788.433 19
4 4 -4 7789.62 544.869 54
4 4 -4 7612.73 576.74 24
-4 -4 4 6621.05 791.641 22
-4 -4 3 13581.8 987.942 19
-4 -4 3 13591.2 1011.28 4
4 4 -3 14345.6 843.558 24
4 4 -3 14696.7 765.96 54
-4 -4 2 2715.02 546.978 19
-4 -4 2 3464.1 652.262 4
-4 -4 2 2302.57 1040.15 28
4 4 -2 3036.73 421.419 24
4 4 -2 2665.41 695.209 52
4 4 -2 3069.79 397.224 54
4 4 -1 989.589 459.122 12
-4 -4 1 1727.42 1137.12 28
4 4 -1 1011.21 286.936 24
4 4 -1 827.667 251.234 54
4 4 -1 776.168 482.445 52
4 4 0 99255.1 3543.37 12
-4 -4 0 101522 4146.68 28
4 4 1 15047 1380.72 12
-4 -4 -1 13946.2 783.188 4
-4 -4 -1 13701.1 1479.68 28
4 4 1 14972.6 1253.95 52
4 4 2 23534.2 1716.08 12
-4 -4 -2 25232.8 919.347 4
-4 -4 -2 23777.8 1727.61 30
4 4 2 22697.3 1399.21 52
-4 -4 -2 22169.3 1244.9 51
-4 -4 -3 4258.95 753.72 45
-4 -4 -3 4796.09 458.814 4
-4 -4 -3 4701.14 989.124 30
-4 -4 -3 4408.19 1010.38 29
4 4 3 4642.03 612.88 52
-4 -4 -3 4245.18 617.546 51
-4 -4 -4 54804.6 2847.28 29
4 4 4 51575.9 1719.7 52
-4 -4 -4 54126.1 2325.98 51
-4 -4 -5 66223.9 3151.4 44
-4 -4 -5 64680.1 3269.42 43
-4 -4 -5 65760.3 3285.11 39
4 4 5 62387.4 1340.95 10
-4 -4 -5 66458.3 3204.22 29
-4 -4 -6 31114.8 2287.43 43
-4 -4 -6 30535 2161.29 42
-4 -4 -6 27048.6 1101.39 40
-4 -4 -6 30913.5 2288.36 39
4 4 6 27586.9 935.053 10
4 4 6 30143.4 1931.1 60
-4 -4 -7 4519.2 877.024 42
-4 -4 -7 4605.98 504.98 40
4 4 7 4744.09 432.619 10
4 4 7 4642.97 857.078 60
4 4 7 4030.93 422.45 21
-4 -4 -8 136868 2592.87 14
4 4 8 129632 2361.74 9
4 4 8 136172 2452.06 21
4 4 9 124.953 258.292 21
-4 -4 -9 610.087 476.473 13
-4 -4 -9 207.726 218.652 25
4 4 9 67.0585 252.662 9
-4 -4 -9 880.643 323.045 15
-4 -4 -9 464.985 303.227 14
-4 -4 -10 1478.58 564.102 13
4 4 10 1253.01 300.752 21
-4 -4 -10 1121.04 267.724 25
-4 -4 -10 1060.98 306.663 15
-4 -4 -10 1543.99 347.223 14
4 4 10 1265.82 298.947 9
-4 -4 -11 36532.1 1037 15
4 4 11 33538.3 1021.93 9
-4 -4 -11 34476.9 905.609 25
4 4 12 225.673 112.644 58
-4 -5 5 1149.73 258.107 19
-4 -5 4 4509.15 521.038 19
4 5 -4 3926.56 352.685 54
4 5 -4 4487.24 370.908 53
-4 -5 4 3611.9 547.385 22
-4 -5 3 30432 1336.65 4
-4 -5 3 33647.2 1353.65 19
4 5 -3 34768.3 1262.17 24
4 5 -3 33211.8 1069.42 54
-4 -5 3 31331.4 1561.57 22
-4 -5 2 12192.6 1007.78 4
-4 -5 2 12531.2 857.566 19
4 5 -2 13187.1 708.508 16
4 5 -2 12983.3 822.264 24
4 5 -2 13029.7 729.666 54
-4 -5 2 11920.9 1044.97 22
4 5 -1 14985.1 1565.27 12
-4 -5 1 14398.7 899.409 19
-4 -5 1 15103.6 1072.11 4
4 5 -1 16584.8 901.168 24
4 5 -1 14937.5 773.315 16
4 5 -1 15460.7 783.75 54
4 5 0 28033.2 2100.69 12
-4 -5 0 28157.6 1276.98 4
-4 -5 0 25617 1928.23 30
4 5 0 27604.1 1006.38 16
4 5 0 26455.2 1059.63 24
4 5 0 26257.4 944.084 54
4 5 1 12094.7 1356.11 12
-4 -5 -1 11696.9 803.281 4
4 5 1 11513.4 613.094 10
-4 -5 -1 12564.8 1363.07 30
4 5 2 12317.3 1339.62 12
-4 -5 -2 13166.7 810.882 4
4 5 2 13372.2 672.356 10
-4 -5 -2 12234.1 1385.82 30
4 5 2 13822.1 1211.93 52
-4 -5 -2 14114.5 1195.82 51
-4 -5 -3 24138.5 1633.68 45
-4 -5 -3 25591 980.109 4
4 5 3 25270 885.697 10
-4 -5 -3 23590.6 1882.42 30
-4 -5 -3 24172.3 2124.89 29
4 5 3 24509.6 1430.15 52
-4 -5 -3 25000.6 1591.08 51
-4 -5 -4 10111.2 1096.21 51
4 5 4 10067.3 591.309 10
-4 -5 -4 9842.94 1411.73 29
-4 -5 -4 9169.78 620.34 5
-4 -5 -5 51523.2 2728.94 44
-4 -5 -5 48049.3 2757.12 43
-4 -5 -5 52227 3024.34 39
4 5 5 48908.2 1267.78 10
-4 -5 -5 50371.5 1353.25 5
-4 -5 -5 52674.8 2623.51 51
-4 -5 -6 9239.33 1292.12 43
-4 -5 -6 7821.66 1273.55 39
4 5 6 7656.9 531.563 10
-4 -5 -7 27380.2 2005.51 42
-4 -5 -7 26801 1083.84 40
4 5 7 25956.5 960.974 10
-4 -5 -7 27317.6 1059.44 6
4 5 7 27964.1 2072.88 60
4 5 7 27837.8 1062.34 21
-4 -5 -8 22834 1020.83 40
-4 -5 -8 21614 928.192 6
4 5 8 18616.8 1770.43 60
-4 -5 -8 21955 957.299 7
-4 -5 -8 21654.3 1037.33 14
4 5 8 20543.2 960.349 21
4 5 9 1210.06 348.017 21
-4 -5 -9 1054.44 236.959 25
4 5 9 789.043 251.151 9
-4 -5 -9 1459.22 318.437 15
-4 -5 -9 1358.89 376.308 14
4 5 10 26879.2 1033.78 9
-4 -5 -10 31435.9 984.817 25
-4 -5 -10 31496.9 1115.25 15
-4 -5 -10 31041.2 1149.91 14
4 5 10 30550.1 1095.29 21
-4 -5 -10 28696.2 2205.34 13
4 5 11 -116.597 172.888 21
-4 -5 -11 365.379 133.002 25
4 5 11 268.65 145.198 9
-4 -5 -11 235.904 147.932 15
-4 -6 4 2905.93 322.981 19
4 6 -4 2766.12 239.561 53
-4 -6 3 -81.7674 258.439 19
4 6 -3 287.072 183.63 54
-4 -6 3 562.975 392.583 22
-4 -6 2 3998.82 504.607 19
4 6 -2 4891.59 444.451 16
4 6 -2 4575.31 527.133 24
4 6 -2 4814.52 449.017 54
-4 -6 2 4919.61 755.49 22
4 6 -1 1282.14 584.397 12
-4 -6 1 1708.85 400.256 19
-4 -6 1 1039.33 531.752 4
4 6 -1 1491.88 364.51 24
4 6 -1 1188.61 302.893 16
4 6 -1 1769.03 359.646 54
-4 -6 1 1616.99 538.594 22
4 6 0 964.66 629.177 12
-4 -6 0 437.154 515.39 4
4 6 0 722.51 308.928 24
4 6 0 326.737 245.779 16
4 6 0 663.006 265.627 54
-4 -6 0 114.223 402.073 22
-4 -6 -1 39963.6 1627.51 22
4 6 1 41745 2686.17 12
-4 -6 -1 42478.7 1587.88 4
4 6 1 40639.4 1223.73 10
4 6 1 41841 1306.4 16
4 6 1 43089.6 1230.32 54
4 6 1 41776 1337.78 24
4 6 2 34465.3 2355.26 12
-4 -6 -2 34030.5 1339.78 4
4 6 2 33182.8 1103.11 10
-4 -6 -2 33579 2503.09 29
4 6 2 34269.9 1144.35 16
-4 -6 -2 31554.2 1326.32 22
4 6 2 31818.4 1977.16 52
-4 -6 -2 31420.7 2076.81 51
4 6 3 10337.2 1297.49 12
4 6 3 9750.81 630.241 10
-4 -6 -3 11029.5 1503.6 29
4 6 3 10446.6 1044.42 52
-4 -6 -3 10279.1 1195.12 51
-4 -6 -3 10127 762.474 5
-4 -6 -4 -252.335 346.993 5
-4 -6 -4 -71.8738 654.026 29
4 6 4 108.729 282.507 10
-4 -6 -4 -10.1978 331.099 51
-4 -6 -5 45850.7 2714.3 43
-4 -6 -5 45301.6 2930.8 39
4 6 5 45579 1277.95 10
-4 -6 -5 46067.2 1425.4 5
-4 -6 -5 44287.7 2560.6 51
4 6 6 23489.2 996.645 20
-4 -6 -6 21755.5 1839.64 43
-4 -6 -6 21996.1 2045.24 39
4 6 6 22354 912.338 10
-4 -6 -6 23490.5 1060.67 6
4 6 6 21964 883.574 16
-4 -6 -6 22810.5 1895.31 51
4 6 6 22930.2 966.553 21
4 6 7 193.285 307.782 21
-4 -6 -7 308.097 272.889 40
4 6 7 362.233 292.611 10
-4 -6 -7 320.682 249.163 6
4 6 8 790.568 333.524 21
-4 -6 -8 782.034 293.101 40
4 6 8 423.725 237.848 10
-4 -6 -8 623.461 273.69 6
-4 -6 -8 1205.04 346.442 14
-4 -6 -8 580.563 245.96 7
-4 -6 -9 15790.6 796.01 6
-4 -6 -9 14704.2 786.512 15
-4 -6 -9 15818.4 797.629 7
-4 -6 -9 15238.2 836.986 14
4 6 9 15088.9 852.928 21
-4 -6 -10 570.395 409.623 13
4 6 10 -27.1931 264.708 21
-4 -6 -10 205.752 159.027 6
-4 -6 -10 233.332 207.879 15
-4 -6 -10 60.694 227.786 14
-4 -6 -11 8025.16 463.147 15
4 6 11 8581.32 515.874 21
-4 -7 3 7997.92 425.597 19
-4 -7 3 7023.38 539.538 22
-4 -7 2 5552.75 462.229 19
4 7 -2 4784.17 395.429 16
-4 -7 2 4873.63 625.629 22
-4 -7 1 2169.24 447.511 5
-4 -7 1 1685.22 326.484 19
4 7 -1 2326.02 370.177 16
-4 -7 1 2158.2 558.789 22
4 7 0 29034.4 2370.15 12
4 7 0 30239.9 1211.24 24
4 7 0 32017.2 1183.92 16
-4 -7 0 31335.1 1523.46 22
4 7 1 10810 1480.27 12
4 7 1 11251.9 693.657 10
4 7 1 11418.1 742.233 16
-4 -7 -1 9197.97 881.765 22
-4 -7 -1 10908.9 833.454 5
4 7 2 26698.4 2222.03 12
4 7 2 28127.3 1087.42 10
4 7 2 28909 1120.14 16
-4 -7 -2 26754.9 1351.14 22
4 7 2 23432.8 1838.36 52
-4 -7 -2 28742.8 1267.71 5
4 7 3 22139.7 1978.9 12
4 7 3 22610.3 987.031 10
-4 -7 -3 22772.1 2109.68 29
4 7 3 21955.7 955.151 16
-4 -7 -3 22085.6 1140.08 22
-4 -7 -3 23617.3 1145.41 5
-4 -7 -3 21858.9 1890.63 51
4 7 4 22179.5 981.15 10
4 7 4 20827.4 932.662 16
-4 -7 -4 22464.8 1100.97 5
-4 -7 -4 20994.2 1891.82 51
4 7 5 45953.3 1350.03 20
-4 -7 -5 45338.2 2988.1 39
4 7 5 45904.5 1393.39 10
-4 -7 -5 45826.3 1619.97 6
4 7 5 47592.6 1382.79 16
-4 -7 -5 47765.6 1541.32 5
-4 -7 -5 46424.7 2821.23 51
4 7 6 42672.3 1404.36 20
-4 -7 -6 44526.7 1366.8 40
-4 -7 -6 42663.2 2882.24 39
4 7 6 46548.7 1378.75 10
-4 -7 -6 47906.8 1589.81 6
4 7 6 46001.1 1333.66 16
-4 -7 -6 44079.6 2815.28 51
4 7 6 47026.6 1397.87 21
4 7 7 530.97 351.264 21
4 7 7 295.155 271.215 20
-4 -7 -7 73.1977 224.59 40
4 7 7 196.765 279.214 10
-4 -7 -7 469.143 303.715 6
-4 -7 -8 87789.3 1892.02 40
-4 -7 -8 87025 1993.56 6
4 7 8 82199 1750.18 10
-4 -7 -8 81518.1 1916.53 14
4 7 8 88089.1 1999.29 21
-4 -7 -9 4869.86 477.565 6
-4 -7 -9 3820.67 395.75 15
-4 -7 -9 3907.55 439.537 7
-4 -7 -9 4221.97 449.96 14
4 7 9 4414.36 515.994 21
-4 -7 -10 19715.9 818.68 6
-4 -7 -10 18044.7 781.823 14
4 7 10 19871.4 891.841 21
-4 -7 -11 7777.44 415.134 6
4 7 11 8061.82 493.303 21
4 8 -2 118.063 101.909 16
4 8 -2 590.695 164.636 53
-4 -8 2 194.623 204.968 22
-4 -8 1 22476.6 1082.1 22
4 8 -1 23294.1 818.061 16
4 8 0 275.62 242.5 16
-4 -8 0 807.462 390.885 22
4 8 1 23323.2 1036.04 16
4 8 1 21550 872.836 10
-4 -8 -1 22458.4 1226.61 22
-4 -8 -1 20043.7 1014.9 5
4 8 2 10725.5 1490.92 12
4 8 2 9886.33 700.306 10
4 8 2 8889.13 688.232 16
-4 -8 -2 8331.03 814.977 22
-4 -8 -2 9004.38 770.638 5
4 8 3 12349.7 1561.74 12
4 8 3 14328.5 833.826 10
4 8 3 13848.4 816.593 16
-4 -8 -3 13086 932.233 22
-4 -8 -3 13643.6 914.044 5
4 8 4 82083 1926.23 10
4 8 4 79245.7 1851 16
-4 -8 -4 77352.1 2029.1 22
-4 -8 -4 79669.1 2098.37 5
4 8 5 44475.6 1343.81 20
4 8 5 46559.4 1462.14 10
-4 -8 -5 45558.5 1638.34 6
4 8 5 44542.3 1396.46 16
4 8 6 8443.15 671.544 20
-4 -8 -6 7748.23 1217.21 39
4 8 6 9494.3 692.495 10
-4 -8 -6 10097.9 793.604 6
4 8 6 8527.09 635.767 16
4 8 6 9216.88 667.785 21
4 8 7 20702.8 982.446 20
4 8 7 20055.6 936.76 10
-4 -8 -7 20775.3 1033.14 6
4 8 7 19507 973.932 21
-4 -8 -8 12936.6 777.635 6
4 8 8 12159.2 685.341 10
-4 -8 -8 12497.1 705.28 14
4 8 8 12610.6 803.951 21
4 8 9 404.949 290.465 21
-4 -8 -9 579.648 243.944 6
-4 -8 -9 466.198 199.338 14
-4 -8 -9 653.237 234.941 7
-4 -8 -10 14055.8 661.536 6
-4 -8 -10 12493 646.793 7
4 8 10 13928.3 725.174 21
4 8 11 2675.57 317.242 21
-4 -8 -11 2223.93 238.065 6
4 9 -1 7638.07 344.514 16
-4 -9 1 8260.68 477.214 22
4 9 -1 8482.53 335.534 53
4 9 0 842.917 233.379 16
-4 -9 0 964.624 301.395 22
4 9 1 20951.9 864.546 16
-4 -9 -1 23661 1090.34 22
4 9 2 2095.23 345.976 10
4 9 2 2321.5 401.573 16
-4 -9 -2 1968.84 374.216 6
-4 -9 -2 2293.15 454.642 22
4 9 3 685.515 309.596 10
4 9 3 744.309 283.106 16
-4 -9 -3 882.104 293.05 6
-4 -9 -3 815.733 348.231 22
4 9 4 17830.6 917.454 10
-4 -9 -4 17230.8 968.596 6
4 9 4 18074.3 871.078 16
-4 -9 -4 17770.8 979.679 22
4 9 5 60677.1 1538.97 20
4 9 5 65163.4 1720.48 10
-4 -9 -5 62005.1 1818.6 6
4 9 5 58493.7 1570.51 16
4 9 6 13100.8 799.758 20
4 9 6 15748.5 853.908 10
-4 -9 -6 15406.9 920.638 6
4 9 6 12317 748.101 16
4 9 7 4988.52 531.608 20
-4 -9 -7 4622.38 518.561 6
4 9 7 4188.48 482.6 10
4 9 7 4000.03 465.352 21
-4 -9 -8 14121 788.964 6
4 9 8 14958.8 731.559 10
-4 -9 -8 13510.7 796.878 7
4 9 8 13753.4 767.751 21
-4 -9 -9 14545.1 738.353 6
-4 -9 -9 13878.8 733.483 7
4 9 9 14638.4 765.955 21
4 9 10 2323.46 345.229 21
-4 -9 -10 2172.35 288.779 6
-4 -9 -10 1760.49 255.777 7
-4 -9 -11 8269.53 400.088 6
4 9 11 9744.47 475.271 21
4 10 1 5622.4 375.083 16
-4 -10 -1 5955.57 455.318 22
4 10 2 1022.33 224.389 10
4 10 2 646.733 235.259 16
-4 -10 -2 1005.43 271.575 22
4 10 3 2195.87 336.069 10
4 10 3 2152 349.17 16
-4 -10 -3 1909.06 337.281 22
4 10 4 12532.9 711.884 10
4 10 4 11280.5 673.165 16
-4 -10 -4 13144.7 737.281 22
4 10 5 -104.912 268.591 10
-4 -10 -5 100.189 232.347 6
4 10 5 -176.217 230.005 16
-4 -10 -5 96.8418 196.585 22
4 10 6 5054.19 462.372 20
-4 -10 -6 5002.36 478.411 6
4 10 6 3861.47 411.458 16
4 10 7 4460.4 476.017 20
-4 -10 -7 4258.48 441.065 6
4 10 7 5189.48 466.809 10
4 10 7 4375.38 392.669 21
-4 -10 -8 7754.1 554.661 6
4 10 8 7997.77 513.851 10
-4 -10 -8 7588.97 559.298 7
4 10 8 7915.47 526.519 21
4 10 9 635.768 237.451 21
-4 -10 -9 734.938 210.075 6
-4 -10 -9 485.266 179.652 7
-4 -10 -10 16018 605.066 6
-4 -10 -10 15542.8 614.927 7
4 10 10 15636.9 614.238 21
-4 -10 -11 4791.01 265.538 6
4 10 11 4117.73 274.133 21
-4 -11 -3 617.476 166.512 22
4 11 4 33024.1 892.069 10
4 11 4 31783.8 842.023 16
-4 -11 -4 34494.7 888.207 22
4 11 5 4248.09 368.127 10
4 11 5 3621.34 317.717 16
-4 -11 -6 13707.5 589.751 6
4 11 6 16374.5 683.474 10
4 11 7 166.123 178.168 10
-4 -11 -7 383.947 168.515 6
-4 -11 -7 125.248 149.385 7
4 11 8 746.934 165.701 21
4 11 8 1048.78 203.74 10
-4 -11 -8 746.274 181.791 6
-4 -11 -8 1002.84 203.632 7
-4 -11 -9 6164.52 384.716 7
4 11 9 5358.23 335.007 21
-4 -11 -10 2428.58 203.501 6
4 11 10 2031.28 198.853 21
5 -9 -6 2818.66 196.216 59
5 -9 -5 5445.75 310.822 59
-5 9 5 3268.39 284.564 21
-5 9 4 145.657 206.631 21
5 -9 -4 402.78 125.318 59
5 -9 -4 406.304 132.196 56
-5 9 3 209.579 178.37 20
5 -9 -3 -2.3966 126.374 56
5 -9 -3 -145.583 106.26 59
5 -9 -2 25901.1 749.53 56
5 -9 -1 30.1567 125.104 56
5 -9 0 439.112 141.7 56
5 -9 1 908.212 129.102 56
5 -8 -7 1507.57 153.953 59
5 -8 -6 322.793 137.59 59
-5 8 5 334.944 229.732 21
-5 8 5 626.627 273.525 26
5 -8 -5 507.356 174.57 59
5 -8 -5 435.289 169.029 56
5 -8 -4 11456 569.547 59
5 -8 -4 11588.9 585.581 56
5 -8 -3 23805.2 799.559 59
5 -8 -3 25333.8 898.71 56
-5 8 2 7302.54 1163.99 34
5 -8 -2 6901.79 512.398 56
-5 8 1 10391.4 577.274 23
5 -8 -1 10749.3 624.188 56
5 -8 0 6183.11 473.441 56
-5 8 0 5495.64 453.288 23
5 -8 1 8090.75 497.975 56
-5 8 -1 7192.01 499.04 23
5 -8 2 945.409 195.827 56
-5 8 -2 734.62 188.618 23
-5 7 7 353.956 218.967 18
5 -7 -7 683.524 155.492 59
-5 7 6 14702.2 793.532 26
5 -7 -6 15201.1 629.526 59
-5 7 5 19813.2 993.672 26
5 -7 -5 20621 818.358 59
5 -7 -5 20449.3 803.412 56
-5 7 4 33504.6 2549.13 34
-5 7 4 34396.9 2710.43 33
5 -7 -4 35749.3 1123.75 59
5 -7 -4 35285.8 1131.8 56
-5 7 3 1861.74 631.348 34
5 -7 -3 1497.4 281.103 59
5 -7 -3 1836.98 333.879 56
5 -7 -2 19729 797.729 59
5 -7 -2 19935.4 940.039 56
-5 7 1 6708.45 1168.21 35
5 -7 -1 6991.28 545.293 58
5 -7 -1 6992.79 580.711 56
-5 7 1 7668.33 560.757 23
-5 7 0 4697.41 973.979 35
5 -7 0 6068.27 547.162 56
-5 7 0 5543.48 515.777 23
5 -7 0 5565.32 460.699 58
5 -7 1 3261.63 413.469 56
-5 7 -1 2640.08 397.674 23
5 -7 1 2317.05 299.034 58
5 -7 2 6889.57 525.123 56
-5 7 -2 7264.78 552.139 23
-5 7 -3 10102.9 473.134 16
5 -7 3 10869.3 579.805 56
-5 7 -3 10780.2 592.652 23
-5 7 -4 2964.5 230.445 16
5 -7 4 3033.3 253.316 56
-5 6 7 864.228 281.18 18
-5 6 7 856.658 445.892 27
5 -6 -7 1491.22 204.795 59
-5 6 6 2267.55 393.9 26
5 -6 -6 2306.06 317.455 59
-5 6 5 781.655 365.131 26
5 -6 -5 860.657 281.328 59
5 -6 -5 618.284 233.557 56
-5 6 4 9778.67 1512.92 34
-5 6 4 9881.58 1552.8 33
5 -6 -4 11083.5 661.842 59
5 -6 -4 9814.86 676.006 56
-5 6 3 1393.45 593.707 35
-5 6 3 1233.24 623.294 34
-5 6 3 1460.87 707.827 32
5 -6 -3 2422.27 353.239 59
5 -6 -3 1810.61 340.659 56
-5 6 2 3953.37 980.94 47
-5 6 2 3012.33 800.168 35
5 -6 -2 3110.01 354.69 59
5 -6 -2 3177.18 439.64 58
5 -6 -2 3129.21 424.736 56
-5 6 1 9397.12 1352.7 47
-5 6 1 9163.3 1354.24 35
5 -6 -1 10395.2 587.173 59
5 -6 -1 9727.8 673.176 58
5 -6 -1 10152.7 714.005 56
-5 6 0 550.189 490.971 48
-5 6 0 697.061 443.783 47
-5 6 0 205.841 344.422 35
5 -6 0 445.42 229.134 58
5 -6 0 643.326 325.495 56
-5 6 -1 4983.96 1010.49 35
5 -6 1 4258.56 441.07 58
5 -6 1 5564.17 540.69 56
5 -6 2 119208 2078.46 58
-5 6 -2 123025 2071.74 16
5 -6 3 -340.378 208.09 58
5 -6 3 -165.51 218.792 56
-5 6 -3 -347.318 222.463 16
-5 6 -4 3750.24 374.633 16
-5 6 -4 3366.44 302.609 24
5 -6 4 3236 352.732 56
-5 6 -4 3205.36 377.346 23
-5 6 -5 22028.2 597.201 24
-5 6 -5 23212.2 695.894 16
5 -6 5 23220.2 699.164 56
-5 5 7 -321.861 254.139 18
-5 5 7 173.862 427.564 27
5 -5 -7 159.579 127.952 59
5 -5 -6 3637.98 367.344 59
-5 5 6 2932.14 540.672 27
-5 5 6 2489.98 394.706 26
-5 5 5 -178.558 604.986 33
-5 5 5 647.439 372.047 26
5 -5 -5 437.398 249.861 59
5 -5 -5 272.094 217.989 56
-5 5 4 259.737 460.515 34
-5 5 4 179.926 536.38 33
-5 5 4 -120.629 605.499 32
5 -5 -4 9.37518 215.541 59
5 -5 -4 208.62 263.457 56
-5 5 3 51503.6 3151.99 47
-5 5 3 49423 2867.42 35
-5 5 3 51981.5 3064.79 34
-5 5 3 52242.7 3306.13 32
5 -5 -3 53463.8 1451.73 59
5 -5 -3 52833.1 1531.55 56
-5 5 2 20172.1 1926.87 47
-5 5 2 19901.1 1847.09 35
5 -5 -2 21836.8 908.46 59
5 -5 -2 22429 972.813 58
5 -5 -2 21755.5 978.699 56
5 -5 -2 18831.2 1816.13 55
-5 5 1 9797.3 1327.18 48
-5 5 1 9866.7 1358.97 47
-5 5 1 9532.23 1291.22 35
5 -5 -1 8843.82 557.642 59
5 -5 -1 9496.71 645.717 58
5 -5 -1 10008.1 679.416 56
5 -5 -1 7316.38 1173.42 55
-5 5 1 9174.79 1377.16 50
-5 5 0 8315.18 1241.44 48
-5 5 0 8242.59 1204.15 41
5 -5 0 8150.41 602.472 58
5 -5 0 9070.05 656.191 56
5 -5 0 7750.37 1264.56 55
-5 5 0 7586.68 1267.23 50
-5 5 -1 46343.9 2912.25 48
-5 5 -1 43698.9 2817.36 41
5 -5 1 44734.8 1326.02 58
5 -5 1 46859.4 1467.39 56
-5 5 -2 22126.2 2058.93 48
-5 5 -2 24381 2210.63 41
-5 5 -2 23132.2 980.68 38
5 -5 2 22248.9 941.202 58
5 -5 2 24275.1 1072.36 56
-5 5 -3 1561.82 636.001 41
-5 5 -3 1302.2 317.381 38
5 -5 3 1219.52 359.95 18
5 -5 3 1127.99 283.509 58
-5 5 -3 1215.4 270.851 24
5 -5 3 1085.8 281.023 56
-5 5 -4 867.369 526.921 41
-5 5 -4 131.662 206.556 38
5 -5 4 443.436 303.421 18
5 -5 4 -67.1708 205.188 58
-5 5 -4 -41.64 230.095 24
5 -5 4 344.039 241.105 56
5 -5 5 212.206 232.481 18
-5 5 -5 526.475 196.813 24
5 -5 5 463.952 203.578 56
-5 5 -5 512.037 254.14 16
-5 5 -6 1019.18 190.383 24
-5 5 -6 1226.98 236.456 16
5 -5 6 1074.46 179.667 56
-5 4 8 97.3379 208.656 17
5 -4 -8 185.333 107.972 54
5 -4 -7 7360.58 390.066 59
-5 4 7 6106.18 492.484 18
-5 4 7 7335.66 662.386 27
5 -4 -7 7618.19 419.609 54
-5 4 6 3258.09 605.542 27
5 -4 -6 2554.76 335.091 59
5 -4 -6 2473.94 288.869 54
-5 4 5 6187.92 1408.53 46
-5 4 5 6150.3 1363.63 33
-5 4 5 6606.9 667.421 26
5 -4 -5 7196.41 538.502 59
-5 4 4 27053.1 2541.94 33
-5 4 4 27697.8 2607.72 32
5 -4 -4 30607.1 1097.44 59
5 -4 -4 30257.7 1169.84 56
-5 4 3 751.752 584.719 34
-5 4 3 1845.19 800.92 32
5 -4 -3 1628.77 311.826 59
5 -4 -3 1499.81 336.567 56
-5 4 2 4254.2 929.202 47
-5 4 2 3673.3 819.698 35
5 -4 -2 4013.08 404.923 59
5 -4 -2 3668.19 417.948 58
5 -4 -2 4402.92 463.323 57
5 -4 -2 3848.48 439.616 56
5 -4 -2 3245.11 802.241 55
-5 4 2 3172.26 858.076 50
-5 4 1 11813.8 1327.44 48
-5 4 1 12362.1 1439.41 47
-5 4 1 12343.3 1399.96 35
5 -4 -1 12613.2 640.228 59
5 -4 -1 12789.9 702.791 58
5 -4 -1 12488.1 726.613 56
5 -4 -1 10420.1 1325.1 55
5 -4 -1 13069.5 706.654 57
-5 4 1 11828.9 1411.87 50
-5 4 0 4437.71 853.659 48
-5 4 0 5045.92 930.54 41
5 -4 0 4997.88 445.662 58
5 -4 0 4954.53 458.598 57
5 -4 0 5721.6 506.991 56
5 -4 0 4654.02 928.052 55
-5 4 0 4600.44 867.006 50
-5 4 -1 5540.75 1015.86 48
-5 4 -1 5360.64 992.315 41
-5 4 -1 6370.26 1028.93 36
5 -4 1 6113.56 512.647 58
5 -4 1 6150.9 486.465 57
5 -4 1 6325.54 529.652 56
5 -4 1 7318.47 1234.61 55
-5 4 -2 30613.8 2349.2 48
-5 4 -2 30470 2420.85 41
-5 4 -2 29758.5 1085.41 38
5 -4 2 29662.5 1135.34 18
-5 4 -2 28968.9 2307.15 36
-5 4 -2 27264.6 2198.56 61
5 -4 2 29087.1 1050.99 58
5 -4 2 26327.3 949.306 57
5 -4 2 30752.7 1170.08 56
5 -4 2 34761.7 2791.02 55
-5 4 -3 21072.6 2003.22 48
-5 4 -3 22069.1 2112.79 41
-5 4 -3 22741.3 1018.96 38
5 -4 3 23296.5 1029.53 18
5 -4 3 20649.3 918.568 58
5 -4 3 22441.7 1008.88 56
-5 4 -4 35379.5 2522.14 48
-5 4 -4 39701.5 2846.19 41
-5 4 -4 42665.5 1419.57 38
5 -4 4 41833.5 1378.78 18
5 -4 4 39850.8 1273.81 58
5 -4 4 41082.3 1351.91 56
-5 4 -5 33228.5 2525.31 41
-5 4 -5 33523 1237.4 38
5 -4 5 35260.6 1261.24 18
5 -4 5 31853.7 1094.05 58
-5 4 -5 32995.3 1154.59 24
5 -4 5 34993.6 1182.9 56
-5 4 -6 19512.8 859.765 38
5 -4 6 18634.2 862.467 18
5 -4 6 16693.3 679.928 58
-5 4 -6 19558.4 812.78 24
5 -4 6 17034.7 722.091 56
5 -4 7 42959.9 1071.36 18
-5 4 -7 42805.1 1015.41 16
-5 4 -7 45256.1 1039.59 24
-5 3 8 26504.9 781.235 17
5 -3 -8 25213.6 577.324 54
-5 3 7 275.092 311.876 27
5 -3 -7 90.6188 167.241 54
-5 3 6 9147.27 829.06 27
5 -3 -6 8487.73 528.233 59
-5 3 6 9790.46 836.593 3
5 -3 -6 9915.78 570.464 54
-5 3 5 7962.94 1536.59 46
5 -3 -5 9581.48 619.676 59
5 -3 -5 9847.19 570.903 54
-5 3 4 46105.4 3297.11 33
-5 3 4 54088.6 3825.33 31
-5 3 4 48129.2 1668.98 26
5 -3 -4 52364.9 1420.65 59
5 -3 -4 56035.3 1579.74 56
-5 3 3 1787.82 697.394 33
-5 3 3 2233.52 866.242 32
-5 3 3 1681.21 722.171 31
5 -3 -3 1662.26 291.834 59
5 -3 -3 2504.05 332.38 57
5 -3 -3 1857.73 339.634 56
-5 3 2 8005.09 1134.16 47
-5 3 2 8403.38 1053.11 35
-5 3 2 9193.96 1360.44 32
5 -3 -2 9322.97 575.681 59
5 -3 -2 8696.06 576.908 58
5 -3 -2 9674.94 575.244 57
5 -3 -2 9222.81 612.011 56
5 -3 -2 7216.8 1074.75 55
-5 3 1 780.834 429.211 48
-5 3 1 933.317 481.221 47
5 -3 -1 -208.874 343.642 55
-5 3 1 223.293 348.084 50
-5 3 0 10306.7 1179.25 48
-5 3 0 9307.37 1073.85 36
5 -3 0 8979.22 1158.99 55
-5 3 0 9917.55 1159.39 50
-5 3 -1 6341.6 977.359 36
5 -3 1 5226.05 970.898 55
-5 3 -1 5731.13 896.038 50
-5 3 -2 39700 2432.63 37
-5 3 -2 41663.5 2635.2 36
-5 3 -2 39623.2 2316.34 61
5 -3 2 39763.8 1178.14 58
5 -3 2 41157.2 1245.01 56
5 -3 2 45104.3 2894.56 55
-5 3 -3 6425.44 1216.35 41
-5 3 -3 6837.74 1105.43 37
5 -3 3 6900.14 545.597 18
-5 3 -3 7207.67 1207.53 36
5 -3 3 6639.17 520.022 58
5 -3 3 7186.14 544.084 56
5 -3 3 8422.34 1353.49 55
-5 3 -4 67640 3632.36 41
-5 3 -4 67052.8 1790.85 38
-5 3 -4 69409.3 3624.74 37
5 -3 4 64299.2 1699.97 18
-5 3 -4 70124.8 3722.9 36
5 -3 4 66145 1670.82 58
5 -3 4 68242 1687.59 56
-5 3 -5 3752.71 947.894 41
-5 3 -5 3116.08 448.675 38
5 -3 5 3164.21 441.758 18
5 -3 5 3350.17 434.381 58
5 -3 5 3418.77 410.22 56
-5 3 -6 802.561 539.991 41
-5 3 -6 1127.58 334.037 38
5 -3 6 699.695 289.596 18
5 -3 6 991.746 282.556 58
-5 3 -7 196.479 162.783 38
5 -3 7 335.502 229.22 18
5 -3 7 164.721 191.299 58
-5 3 -7 273.177 222.326 24
5 -3 8 459.004 183.124 18
-5 3 -8 439.217 178.277 24
-5 3 -8 591.429 198.57 16
-5 2 8 2534.14 287.204 19
5 -2 -8 3008.44 202.722 54
-5 2 7 2390.75 430.811 17
5 -2 -7 1964.09 253.563 54
-5 2 6 733.17 428.088 27
5 -2 -6 438.291 180.363 59
5 -2 -6 534.476 236.547 54
-5 2 6 320.092 389.048 3
-5 2 5 -34.2357 426.208 27
5 -2 -5 -243.583 197.255 59
5 -2 -5 -255.059 238.476 54
-5 2 4 2300.55 996.485 46
-5 2 4 3454.83 1081.42 33
-5 2 4 2641.53 1065.3 31
5 -2 -4 2271.55 323.055 59
5 -2 -4 2984.83 339.07 54
-5 2 3 3040.53 930.387 33
-5 2 3 2370.65 811.253 32
-5 2 3 1999.93 903.255 31
5 -2 -3 3420.19 379.693 59
5 -2 -3 4762.57 509.315 56
5 -2 -3 2910.67 658.714 52
-5 2 2 32305.6 2057.89 47
-5 2 2 35085 2464.54 32
-5 2 2 35509.1 2741.28 31
5 -2 -2 34535.3 1122.95 56
5 -2 -2 31883.4 2000.78 52
-5 2 1 31974.8 1780.71 48
-5 2 1 32003.6 1942.3 47
5 -2 -1 30748.4 2016.41 55
5 -2 -1 32166 1976.41 52
5 -2 0 51905.8 2581.4 55
5 -2 0 49677.5 2487.85 52
-5 2 0 49060 2251.54 50
-5 2 -1 55222.1 2767.51 45
-5 2 -1 49432.6 2759.53 44
5 -2 1 51219.8 2608.46 55
-5 2 -1 53331.3 2319.86 50
-5 2 -2 -19.4448 487.906 44
-5 2 -2 87.1133 480.687 42
5 -2 2 27.9515 410.008 55
-5 2 -3 3222.87 725.534 42
-5 2 -3 3029.82 808.137 37
-5 2 -3 3143.48 806.148 36
5 -2 3 4024.29 875.285 55
-5 2 -4 7020.47 1079.13 42
-5 2 -4 6572.97 1160.87 37
5 -2 4 7244.59 525.571 18
-5 2 -4 6867.17 1205.63 36
5 -2 4 7147.23 547.45 58
5 -2 4 8142.41 1257.53 55
5 -2 4 6046.26 544.559 21
-5 2 -5 21395 2054.28 41
-5 2 -5 24380 2239.46 37
-5 2 -5 23024.4 2160.45 36
5 -2 5 22156.8 978.421 18
5 -2 5 22134.1 991.51 58
-5 2 -6 6942.51 1219.45 41
-5 2 -6 6594.65 618.679 38
5 -2 6 6761.79 569.489 18
-5 2 -6 6893.03 543.774 25
5 -2 6 6579.98 576.311 58
-5 2 -7 10105.2 1336.75 41
-5 2 -7 11756.2 744.407 38
5 -2 7 11703.1 731.665 18
-5 2 -7 12084.6 670.6 25
5 -2 7 10836.6 690.571 58
-5 2 -8 8747.87 560.347 38
5 -2 8 8705.38 549.455 18
5 -2 8 8751.37 517.611 58
-5 2 -8 9617.87 519.754 25
-5 2 -8 10712.8 603.562 24
5 -2 9 7305.57 386.067 18
-5 2 -9 8078.96 365.366 16
-5 1 7 42414.5 1221 17
5 -1 -7 40285 930.882 54
-5 1 6 1126.53 941.068 28
-5 1 6 442.14 332.72 27
5 -1 -6 541.714 240.086 54
-5 1 6 -53.8082 456.692 3
-5 1 5 9911.51 1791.03 46
-5 1 5 10717.4 896.578 27
5 -1 -5 8344.44 563.359 59
-5 1 5 10533.4 973.843 3
5 -1 -5 10579.9 634.163 54
-5 1 4 67535.8 4368.92 46
-5 1 4 66109.7 2086.28 27
5 -1 -4 61726.4 1483.41 59
5 -1 -4 62761.4 1483.87 54
-5 1 3 9006.92 1547.38 46
-5 1 3 7955.79 1538.31 31
-5 1 3 4878.41 981.972 60
5 -1 -3 8099.29 554.718 59
5 -1 -3 7935.84 516.95 54
5 -1 -3 8106.46 503.989 53
5 -1 -3 7278.38 994.8 52
-5 1 2 1388.12 714.719 33
-5 1 2 957.048 621.692 32
-5 1 2 1786.34 754.049 31
5 -1 -2 488.009 350.516 52
-5 1 1 91083.5 3011.28 47
-5 1 1 95478 3663.38 32
-5 1 1 96290.9 4054.91 31
5 -1 -1 88794.3 3244.36 52
5 -1 0 8900.82 1060.34 55
5 -1 0 9162.39 1057.53 52
-5 1 -1 53824.9 2631.68 45
5 -1 1 50278.3 2398.71 55
5 -1 1 55413.8 2494.67 52
-5 1 -2 73582.3 3364.8 45
-5 1 -2 73591.6 3546.77 44
-5 1 -2 73993.3 2698.66 30
5 -1 2 64532.2 2775.09 55
-5 1 -3 1726.3 718.692 44
-5 1 -3 1509.04 629.188 43
5 -1 3 1506.81 508.209 55
-5 1 -4 12524.6 1404.15 43
-5 1 -4 12671.7 1537.03 42
5 -1 4 12454.6 1372.53 55
-5 1 -5 67625.8 3569.57 42
-5 1 -5 60286.8 3466.56 37
-5 1 -5 62691.2 3438.81 36
5 -1 5 57820.6 1469.87 18
5 -1 5 59582.6 1562.89 58
5 -1 5 63241.5 3355.16 8
5 -1 5 57389.7 1582.7 21
-5 1 -6 20473.8 2147.38 37
-5 1 -6 19754.1 1999.76 36
5 -1 6 18994.7 901.858 18
5 -1 6 19694.4 969.12 58
5 -1 6 18842.8 2020.48 8
5 -1 6 18725.3 973.175 21
-5 1 -7 44093.7 2858.9 41
5 -1 7 44571.5 1407.38 18
-5 1 -7 49095.4 1463.34 25
5 -1 7 46447.1 1464.89 58
5 -1 7 43042.1 3047.49 8
-5 1 -7 46082.1 1329.64 15
5 -1 7 42981.9 1402.67 21
-5 1 -8 6558.1 548.723 38
5 -1 8 6217.81 504.926 18
-5 1 -8 7296.94 541.611 25
5 -1 8 5972.41 524.078 58
-5 1 -8 6378.67 473.387 15
5 -1 9 8786.22 511.293 18
-5 1 -9 10921.8 549.352 25
5 -1 9 9555.06 495.911 58
-5 1 -9 10796.5 546.488 24
-5 0 7 7506.21 574.298 19
-5 0 7 7673.82 491.057 17
5 0 -7 7445.24 371.943 54
-5 0 6 195.802 351.564 17
5 0 -6 1138.79 269.077 54
-5 0 5 10202.2 1697.07 2
-5 0 5 11556.4 1979.4 28
-5 0 5 13149 1062.54 3
5 0 -5 12870.4 698.165 54
-5 0 4 3612.22 1167.47 46
-5 0 4 2900.63 525.733 27
5 0 -4 2922.19 380.992 59
5 0 -4 3342.18 415.577 54
-5 0 4 3973.66 671.217 3
-5 0 3 13663.5 2010.66 46
-5 0 3 16038.4 1024.07 27
-5 0 3 10152.8 1506.67 60
5 0 -3 13141.8 684.881 59
5 0 -3 13040.3 660.341 54
5 0 -3 12433.9 630.217 53
5 0 -3 11503.1 1272.29 52
-5 0 2 64108.4 3581.47 46
-5 0 2 63769.2 3788.75 31
-5 0 2 54501.5 2928.97 60
5 0 -2 60046.2 2787.33 52
-5 0 1 43521.8 2607.72 46
-5 0 1 40471.2 2440.01 32
-5 0 1 43454 2773.7 31
-5 0 1 37298.9 2150.74 60
5 0 -1 41378.2 2247.77 52
-5 0 0 345251 5455.77 47
-5 0 0 353278 6556 32
5 0 0 362965 6454.72 52
-5 0 -1 131387 3720.06 31
5 0 1 130186 3665.41 52
-5 0 -2 11938.1 1336.16 45
-5 0 -2 12326 1198.86 30
5 0 2 11430.4 1103.5 55
5 0 2 12481.2 1161.55 52
-5 0 -3 54891.7 3050.1 45
-5 0 -3 58298.6 3330.55 44
-5 0 -3 51200 2489.3 30
-5 0 -3 50311.6 2524.26 29
5 0 3 46565.8 2232.8 55
-5 0 -4 119363 4833.03 44
-5 0 -4 111639 4471.72 43
-5 0 -5 250.323 562.348 42
-5 0 -5 812.072 247.22 40
5 0 5 623.274 435.467 8
5 0 6 3534.5 445.9 21
-5 0 -6 3959.47 1051.51 42
-5 0 -6 3147.41 984.691 37
-5 0 -6 2420.21 721.641 36
5 0 6 3248.22 443.622 9
5 0 6 2143.86 793.727 8
5 0 7 548.138 326.073 21
-5 0 -7 -32.2627 528.724 37
-5 0 -7 470.156 470.404 36
5 0 7 248.379 228.535 18
5 0 7 621.939 308.799 9
5 0 7 955.241 645.865 8
-5 0 -7 447.026 227.382 15
-5 0 -7 459.939 200.063 14
-5 0 -8 5942.48 1087.49 13
5 0 8 7363.95 566.27 18
-5 0 -8 7793.92 624.062 25
5 0 8 7380.38 618.626 58
5 0 8 5323.59 1083.85 8
-5 0 -8 7782 594.633 15
5 0 8 7004.02 576.128 21
-5 0 -9 874.121 224.727 38
5 0 9 614.157 238.778 18
-5 0 -9 793.858 268.148 25
5 0 9 564.684 256.363 58
-5 0 -9 555.002 228.718 24
-5 0 -9 645.303 226.386 15
5 0 10 434.045 146.394 18
-5 0 -10 398.923 150.126 25
5 0 10 550.108 156.043 58
-5 0 -10 359.91 125.722 24
-5 -1 7 -595.566 210.984 19
5 1 -7 142.262 102.402 54
-5 -1 6 5027.72 616.183 19
-5 -1 6 4777.72 508.004 17
5 1 -6 4553.47 374.348 54
-5 -1 5 2867.33 942.086 2
-5 -1 5 1950.97 947.688 28
-5 -1 5 3038.51 515.789 17
5 1 -5 3220.57 391.195 54
-5 -1 4 517.587 876.737 2
-5 -1 4 1454.69 1004.89 28
-5 -1 4 1105.56 437.315 17
5 1 -4 670.055 272.609 59
-5 -1 4 1039.4 558.247 3
5 1 -4 1762.76 357.194 54
5 1 -4 1250.35 270.654 53
5 1 -3 23653.6 910.421 59
-5 -1 3 25605.3 2551.54 2
-5 -1 3 18847.5 2039.85 60
-5 -1 3 24766.9 1318.84 3
5 1 -3 24532.1 929.982 54
5 1 -3 22788.1 889.5 53
5 1 -3 19788.6 1699.47 52
-5 -1 2 1995.85 1110.7 46
-5 -1 2 1261.34 607.733 60
5 1 -2 1450.23 268.582 59
5 1 -2 1495.53 278.308 54
5 1 -2 1466.99 287.163 53
5 1 -2 1565.49 602.859 52
-5 -1 2 1745.78 459.11 3
-5 -1 1 34631.7 2379.14 46
5 1 -1 34469.7 2087.73 52
-5 -1 0 223349 5125.36 46
-5 -1 0 230031 5745.05 31
5 1 0 232506 5162.99 52
-5 -1 -1 301.582 341.676 46
-5 -1 -1 251.006 394.322 31
5 1 1 282.937 381.451 52
-5 -1 -2 12313.3 1308.29 45
-5 -1 -2 13114.2 1088.13 31
5 1 2 10989.4 1050.28 55
5 1 2 13001.6 1138.79 52
-5 -1 -3 36960 2381.91 45
-5 -1 -3 33933.4 2029.32 30
5 1 3 30393.4 1684.02 55
5 1 3 36586.2 1839.02 52
-5 -1 -4 40253 2948.24 44
-5 -1 -4 38235.7 2776.22 43
-5 -1 -4 40165.7 2460.22 39
-5 -1 -4 34032.2 2278.82 29
5 1 4 33807.1 1744.53 55
-5 -1 -5 1730.14 828.092 44
-5 -1 -5 2368.7 877.402 43
-5 -1 -5 1409.61 640.056 42
5 1 5 1631.63 273.175 9
5 1 5 1722.77 500.837 8
-5 -1 -6 5608.36 1272.38 42
-5 -1 -6 5452.82 531.158 40
5 1 6 4993.74 470.424 9
5 1 6 4945.61 964.574 8
-5 -1 -6 5467.57 521.987 14
5 1 6 4799.26 493.371 21
-5 -1 -7 9361.95 1480.4 37
-5 -1 -7 7798.35 1218.86 36
5 1 7 8954.33 651.577 9
5 1 7 8897.18 1300.36 8
-5 -1 -7 9482.28 666.489 14
5 1 7 8929.2 684.861 21
-5 -1 -8 23268.7 2185.82 13
-5 -1 -8 22746 2180.2 37
5 1 8 19646.7 880.764 18
5 1 8 20737.4 1022.35 9
-5 -1 -8 21550.1 1023.93 25
5 1 8 18738.3 2009.55 8
-5 -1 -8 21910.1 1044.13 15
-5 -1 -8 23377 1002.6 14
5 1 8 19715.1 957.561 21
-5 -1 -9 4766.37 943.668 13
-5 -1 -9 3951.14 434.831 38
5 1 9 3504.95 381.923 18
5 1 9 4040.28 460.752 9
-5 -1 -9 5090.96 501.02 25
5 1 9 4522.73 485.857 58
-5 -1 -9 5098.12 498.163 15
5 1 9 3792.63 837.454 8
5 1 9 4265.16 430.424 21
5 1 10 5531.57 377.699 18
5 1 10 6182.97 445.643 58
-5 -1 -10 5876.57 363.548 24
-5 -1 -11 14893.1 468.685 25
5 2 -6 634.898 178.482 54
-5 -2 6 60.1361 254.545 22
-5 -2 5 11425.9 904.732 19
-5 -2 5 10376.1 823.788 4
-5 -2 5 10399.1 711.388 17
5 2 -5 9950.33 569.608 54
-5 -2 4 19415.8 2380.28 2
-5 -2 4 19705.3 2487.85 28
-5 -2 4 16988.3 959.143 17
5 2 -4 19623.7 865.758 54
5 2 -4 18547.1 784.451 53
-5 -2 3 5928.09 1438.09 2
-5 -2 3 6373.9 1578.13 28
-5 -2 3 6918.58 798.114 3
5 2 -3 5803.27 526.738 59
5 2 -3 6628.61 536.987 54
5 2 -3 7172.72 551.852 53
-5 -2 2 3818.66 1096.97 28
-5 -2 2 3073.35 1027.16 2
5 2 -2 4680.63 480.506 59
5 2 -2 4513.32 432.785 54
-5 -2 2 4569.32 615.161 3
5 2 -2 4452.68 429.366 53
5 2 -2 4331.39 877.846 52
-5 -2 1 15365.3 1740.8 2
-5 -2 1 14647.9 1730.69 28
-5 -2 1 13671.3 796.728 3
5 2 -1 14747.2 1429.25 52
-5 -2 0 15004.8 1469.48 46
-5 -2 0 16240.1 1626.91 2
-5 -2 0 15388.2 717.333 3
5 2 0 15632.9 1402.56 52
-5 -2 -1 77439.9 3024.7 2
-5 -2 -1 72746.1 2862.16 28
5 2 1 74256.9 2802.84 52
-5 -2 -2 2626.85 667.057 2
-5 -2 -2 2845.44 609.864 28
5 2 2 3179.28 642.113 52
-5 -2 -3 86296.1 3440.17 45
-5 -2 -3 84798.3 3277.75 30
5 2 3 83920 2697.83 52
-5 -2 -4 3257.47 982.428 44
5 2 4 3749.33 386.796 10
-5 -2 -4 2882.02 809.046 29
5 2 4 3880.09 618.795 52
-5 -2 -5 2321.59 818.333 44
-5 -2 -5 3238.75 1000.3 43
-5 -2 -5 2232.12 795.287 39
5 2 5 2754.21 375.309 10
-5 -2 -6 42439.2 2943.39 43
-5 -2 -6 44495.9 3079.7 42
-5 -2 -6 42896.7 1407.24 40
5 2 6 37789.8 2335.03 8
5 2 6 40505.2 1254.67 21
-5 -2 -7 66749.5 3732.05 42
-5 -2 -7 67013.8 1762.49 40
-5 -2 -7 63347.5 3654.72 37
5 2 7 61538.1 1582.77 9
-5 -2 -7 65748 1779.78 14
5 2 7 61495.9 1662.27 21
-5 -2 -8 62928.7 3533.51 37
5 2 8 55603.2 1653.47 9
5 2 8 58418.8 3288.83 8
-5 -2 -8 61264.2 1762.72 15
-5 -2 -8 64589.4 1774.22 14
5 2 8 59476 1666.73 21
-5 -2 -9 17223.4 1873.27 13
5 2 9 15688.9 857.388 9
-5 -2 -9 18199.7 912.389 25
5 2 9 14074.9 1601.49 8
-5 -2 -9 17666 933.98 15
-5 -2 -9 18869.8 928.71 14
5 2 9 16772.5 849.268 21
5 2 10 10046.8 622.201 9
-5 -2 -10 11566.8 635.086 25
-5 -2 -10 12241.7 684.176 15
5 2 10 9518.09 537.138 21
-5 -2 -11 620.876 153.275 25
5 2 11 1026.46 194.895 58
-5 -3 5 25158 1099.77 19
5 3 -5 24909.1 769.136 54
-5 -3 4 -266.308 426.415 19
-5 -3 4 638.902 513.431 4
5 3 -4 -191.497 264.452 54
5 3 -4 -412.838 225.573 53
-5 -3 3 3829.47 659.09 19
-5 -3 3 4566.3 1340.44 28
5 3 -3 4921.01 504.731 54
5 3 -3 4783.36 462.196 53
-5 -3 2 67555 4120.65 2
-5 -3 2 70739 4248.21 28
5 3 -2 68290 1589.66 54
5 3 -2 66103.9 1569.32 53
-5 -3 1 1147.76 916.224 2
-5 -3 1 1135.86 849.534 28
5 3 -1 731.388 303.812 59
-5 -3 1 1430.53 392.389 3
5 3 -1 950.167 259.209 54
5 3 -1 1633.87 649.396 52
-5 -3 0 33464 2576.98 2
-5 -3 0 34404.7 2452.89 28
-5 -3 0 32169.4 1102.75 3
5 3 0 34169.2 2098.6 52
-5 -3 -1 64884.2 3098.95 2
-5 -3 -1 66321.2 3050.96 28
5 3 1 67768.8 2782.29 52
-5 -3 -2 42553.7 2273.85 2
-5 -3 -2 41924.6 2454.08 30
-5 -3 -2 42333.6 2208.59 28
5 3 2 42484.1 2060.95 52
-5 -3 -3 36068 2233.87 45
5 3 3 36051.2 1011.42 10
-5 -3 -3 39914.6 2376.26 30
5 3 3 38037.8 1824.43 52
-5 -3 -4 30462.2 2136.81 45
5 3 4 31348.6 1002.25 10
-5 -3 -4 32255.4 2330.22 29
5 3 4 32916.4 1622.33 52
-5 -3 -5 19614 2057.7 44
-5 -3 -5 17971.8 1970.61 43
-5 -3 -5 18144.4 1944.42 39
5 3 5 17720.4 789.899 10
-5 -3 -5 20073.5 1947.48 29
-5 -3 -6 280.701 650.007 43
-5 -3 -6 787.625 579.589 42
-5 -3 -6 866.396 686.371 39
5 3 6 1553.82 322.585 10
5 3 7 452.828 307.713 21
-5 -3 -7 -468.911 672.272 42
-5 -3 -7 237.387 306.404 40
5 3 8 624.181 293.547 21
-5 -3 -8 1505.9 373.921 40
-5 -3 -8 274.395 402.542 37
5 3 8 1180.24 302.202 9
-5 -3 -8 977.842 358.223 14
5 3 9 2438.36 415.458 21
-5 -3 -9 2195.76 651.504 37
-5 -3 -9 2997.39 423.331 25
5 3 9 2279.9 371.444 9
-5 -3 -9 2262.7 403.714 15
-5 -3 -9 2565.61 411.399 14
5 3 10 165.951 232.323 21
-5 -3 -10 112.052 208.714 25
5 3 10 -128.907 199.234 9
-5 -3 -10 375.059 250.578 15
5 3 11 4146.44 359.366 58
-5 -3 -11 4933.09 381.081 15
-5 -3 -11 4556.27 339.111 25
-5 -4 5 1908.91 298.977 19
5 4 -5 1458.95 184.659 54
-5 -4 5 1511.79 310.691 22
-5 -4 4 5638.12 621.659 4
-5 -4 4 6274.23 613.553 19
5 4 -4 6529 454.082 54
-5 -4 4 5410.29 680.921 22
5 4 -4 6378.85 422.078 53
-5 -4 3 20886.1 1115.88 19
-5 -4 3 20654 1213.23 4
5 4 -3 19584.8 854.554 54
5 4 -3 22313.4 878.417 53
-5 -4 2 873.57 418.895 19
-5 -4 2 1198.09 587.973 4
5 4 -2 1240.24 360.648 54
-5 -4 1 8601.83 1598.66 28
5 4 -1 10264.5 646.998 54
5 4 -1 8768.76 1216.12 52
-5 -4 0 16042.7 1967.38 28
5 4 0 14942.6 724.363 16
5 4 0 16768.1 737.782 54
5 4 0 15393.1 1534.24 52
-5 -4 -1 1166.66 813.433 28
5 4 1 1035.99 508.498 52
-5 -4 -2 1478.05 395.349 4
-5 -4 -2 1542.38 726.703 30
5 4 2 1491.33 284.86 10
5 4 2 908.678 433.497 52
-5 -4 -3 7746.15 1102.62 45
-5 -4 -3 8586.65 592.822 4
5 4 3 8916.24 544.268 10
-5 -4 -3 8604.31 1251.89 30
5 4 3 8152 919.009 52
-5 -4 -4 85254 3520.3 45
5 4 4 89662.9 1716.76 10
-5 -4 -4 91202.8 4041.41 29
5 4 4 92657.6 2761.73 52
-5 -4 -4 84436 1782.51 5
-5 -4 -5 9575.02 1503.91 44
-5 -4 -5 10970.4 1584.84 43
-5 -4 -5 10302 1554.98 39
5 4 5 10829.4 648.142 10
-5 -4 -5 10847 1531.4 29
-5 -4 -5 11103.1 660.637 5
-5 -4 -6 2868.26 903.932 44
-5 -4 -6 3351.55 990.958 43
-5 -4 -6 4022.36 1099.39 39
5 4 6 3469.41 420.383 10
-5 -4 -7 35557.7 2675.63 43
-5 -4 -7 33118.4 2501.66 42
-5 -4 -7 34369 1286.87 40
5 4 7 34129.2 1132.96 10
5 4 7 35080.6 1222.49 21
-5 -4 -8 59742.4 3335.49 42
-5 -4 -8 63819.6 1745.22 40
-5 -4 -8 58600.8 1811.23 14
5 4 8 58689.6 1651.03 21
5 4 9 3955.64 490.344 21
-5 -4 -9 3815.09 476.346 15
-5 -4 -9 4093.3 497.064 14
-5 -4 -10 42392.2 1222.29 25
-5 -4 -10 46139.7 1394.49 15
-5 -4 -10 46525.4 1401.49 14
5 4 10 43471.7 1278.67 21
-5 -4 -10 41531 2723.95 13
-5 -4 -11 8391.09 453.611 25
-5 -4 -11 8736 512.807 15
5 4 11 8299.85 463.568 21
5 4 12 -24.2911 101.408 58
-5 -5 4 2169.51 309.732 19
5 5 -4 2375.69 244.487 54
5 5 -4 2041.38 220.733 53
-5 -5 4 2272 430.846 22
-5 -5 3 22754.1 1143.64 4
-5 -5 3 25174.9 1045.72 19
5 5 -3 25689.6 869.738 54
-5 -5 3 22321.1 1272.4 22
5 5 -3 26333.7 874.377 53
-5 -5 2 30322.1 1432.25 4
-5 -5 2 29146.1 1202.74 19
5 5 -2 30634.3 1066.99 54
-5 -5 2 27926 1579.63 22
5 5 -2 32642.7 1100.54 53
-5 -5 1 2847.95 675.054 4
5 5 -1 2996.03 380.908 16
5 5 -1 3026.91 413.99 54
-5 -5 0 102718 2557.61 4
-5 -5 0 97256.3 4108.11 30
5 5 0 94759.8 1959.98 16
5 5 0 104457 1984.74 54
5 5 0 101093 4057.88 52
-5 -5 -1 -495.901 451.98 4
-5 -5 -1 115.547 507.544 30
5 5 1 118.704 220.935 16
5 5 1 497.129 280.095 54
5 5 1 515.431 479.373 52
-5 -5 -2 12198.6 842.221 4
5 5 2 12278.4 665.335 10
-5 -5 -2 13211 1645.63 30
5 5 2 12271.6 693.894 16
5 5 2 14566.2 675.146 54
5 5 2 12186.3 1230.25 52
-5 -5 -3 51723.6 2684.55 45
-5 -5 -3 53462.4 1539.22 4
5 5 3 50180.3 1333.15 10
-5 -5 -3 54421.4 3117.47 30
-5 -5 -3 56037.8 3489.72 29
5 5 3 50518.8 2309.05 52
-5 -5 -4 3625.22 733.396 45
5 5 4 4967.38 479.596 10
-5 -5 -4 5952.28 1263.47 29
-5 -5 -4 5333.93 591.422 5
-5 -5 -5 9995.73 1410.04 44
5 5 5 10326.4 648.353 10
-5 -5 -5 10556.2 1638.24 29
-5 -5 -5 9954.52 682.293 5
5 5 6 544.474 274.666 21
-5 -5 -6 -263.04 592.112 44
-5 -5 -6 626.269 674.756 43
-5 -5 -6 95.8346 650.167 39
5 5 6 265.587 250.163 10
5 5 6 300.065 232.006 16
-5 -5 -6 999.846 328.005 6
-5 -5 -6 182.034 331.735 51
-5 -5 -7 18430.9 1906.04 43
-5 -5 -7 16390.4 1716.84 42
-5 -5 -7 17593.9 959.492 40
-5 -5 -7 17065.6 1986.4 39
5 5 7 18207.3 847.28 10
-5 -5 -7 17956.4 913.439 6
5 5 7 17182.5 877.306 21
-5 -5 -8 62624.1 3254.02 42
-5 -5 -8 64356.4 1771.34 40
5 5 8 61794.9 1535.52 10
5 5 8 64783.4 1727.12 21
5 5 9 1085.24 398.796 21
-5 -5 -9 994.083 305.428 14
5 5 10 590.017 283.244 21
-5 -5 -10 -69.8904 312.022 13
-5 -5 -10 711.685 196.706 25
-5 -5 -10 856.018 277.682 15
-5 -5 -10 621.62 264.057 14
-5 -5 -11 4959.84 335.801 25
-5 -5 -11 5196.32 398.516 15
5 5 11 4992.97 396.656 21
5 5 12 2534.83 230.572 58
-5 -6 3 6620.95 439.463 19
-5 -6 3 5795.71 600.574 22
-5 -6 2 -13.1282 254.811 19
5 6 -2 263.105 228.924 54
5 6 -2 257.165 237.118 53
-5 -6 2 263.174 386.645 22
5 6 -1 5597.97 484.088 16
-5 -6 1 5385.5 700.201 4
5 6 -1 5846.92 508.962 54
-5 -6 1 4871.61 708.164 22
-5 -6 0 1722.12 601.118 4
5 6 0 1808.66 364.184 16
5 6 0 1621.09 349.305 54
-5 -6 0 2074.43 539.05 22
-5 -6 -1 347.365 550.655 4
-5 -6 -1 151.675 637.392 29
5 6 1 24.4456 284.694 16
5 6 1 368.147 301.11 54
-5 -6 -1 220.22 415.654 22
-5 -6 -2 6190.08 755.132 4
5 6 2 5663.8 510.635 10
-5 -6 -2 3331.97 806.228 30
-5 -6 -2 5278.36 1196.6 29
5 6 2 5973.13 572.467 16
-5 -6 -2 4846.11 623.594 22
5 6 2 5256.26 904.012 52
5 6 3 64.4859 263.655 10
5 6 3 340.791 270.479 16
5 6 3 -344.215 345.822 52
5 6 4 24149.4 987.978 10
-5 -6 -4 25053.8 2399.84 29
5 6 4 21895.6 971.107 16
-5 -6 -4 24320.8 1138.37 5
-5 -6 -5 4191.3 1012.53 43
5 6 5 5356.53 522.661 10
-5 -6 -5 5793.71 1413.55 29
5 6 5 4227.39 467.817 16
-5 -6 -5 5022.24 596.329 5
-5 -6 -6 10468.2 1446.96 43
-5 -6 -6 10191.3 1583.18 39
5 6 6 10893.8 689.275 10
-5 -6 -6 10282 780.521 6
5 6 6 10436.6 692.37 16
-5 -6 -6 9155.14 1247.02 51
5 6 6 10347.9 694.884 21
5 6 7 1896.02 373.137 21
-5 -6 -7 1635.86 754.632 43
-5 -6 -7 2072.85 404.185 40
-5 -6 -7 1951.02 996.946 39
5 6 7 1824.29 357.635 10
-5 -6 -7 1927.97 390.089 6
-5 -6 -7 2722.1 790.839 51
-5 -6 -8 16518.7 891.509 40
5 6 8 15872.5 802.311 10
-5 -6 -8 16414.7 870.755 6
5 6 8 15795.3 877.618 21
-5 -6 -9 38270.1 1198.1 6
-5 -6 -9 36098.2 1322.69 14
5 6 9 38299.9 1301.02 21
5 6 10 516.311 292.304 21
-5 -6 -10 515.024 215.43 15
-5 -6 -10 674.151 248.53 14
-5 -6 -11 7460.6 453.369 15
5 6 11 8636.03 517.288 21
-5 -7 2 14095.1 833.906 22
5 7 -2 15104.9 566.945 53
-5 -7 1 3734.99 458.521 5
5 7 -1 4018.43 380.723 16
5 7 -1 4585.71 405.531 53
-5 -7 1 4881.16 634.899 22
5 7 0 9664.2 653.203 16
-5 -7 0 9157.46 849.152 22
5 7 1 3703.1 483.028 16
-5 -7 -1 2521.9 546.641 22
-5 -7 -2 2998.94 597.166 5
5 7 2 3116.02 424.019 10
5 7 2 3338.13 452.109 16
-5 -7 -2 2773.5 563.914 22
5 7 3 47827.4 1421.78 10
-5 -7 -3 44140.9 3118.77 29
5 7 3 46161.7 1467.81 16
-5 -7 -3 42151.3 1619.26 22
-5 -7 -3 48650 1716.25 5
5 7 4 38537.2 1301.81 10
-5 -7 -4 38738 2973.17 29
5 7 4 36225.4 1270.57 16
-5 -7 -4 37966.7 1515.65 5
-5 -7 -5 399.018 645.454 39
5 7 5 34.5069 298.429 10
5 7 5 42.9423 257.832 16
-5 -7 -5 297.735 419.053 5
-5 -7 -6 11746.8 1649.14 39
5 7 6 13191 792.865 10
-5 -7 -6 13445.4 904.111 6
5 7 6 12339.7 758.464 16
5 7 6 13460.3 739.184 21
-5 -7 -7 22888.5 1047.59 40
-5 -7 -7 20369.8 2042.17 39
5 7 7 22922.2 991.644 10
-5 -7 -7 21792.5 1098.5 6
5 7 7 20578.1 959.32 16
5 7 7 22097.5 1017.3 21
-5 -7 -8 13850.3 785.253 40
5 7 8 14427.1 766.787 10
-5 -7 -8 14066 826.495 6
5 7 8 15372.4 858.197 21
-5 -7 -9 12351.2 697.038 6
5 7 9 11066.8 623.37 10
-5 -7 -9 12798.5 713.16 7
-5 -7 -9 11690.8 740.035 14
5 7 9 12098.4 753.05 21
-5 -7 -10 10827.6 563.409 6
-5 -7 -10 9529.64 585.025 14
5 7 10 11097.3 667.558 21
-5 -7 -11 8783.51 481.873 14
5 7 11 9551.96 536.243 21
5 7 12 1266.64 172.624 21
5 8 -1 2606.98 248.68 16
-5 -8 1 2942.78 425.393 22
5 8 -1 2936.87 270 53
5 8 0 3915.16 380.116 16
5 8 0 4692.14 384.969 53
-5 -8 0 3853.84 514.631 22
-5 -8 0 2917.65 383.142 5
-5 -8 -1 362.761 346.384 5
5 8 1 358.25 280.603 16
-5 -8 -1 569.672 405.5 22
5 8 2 25587.4 965.649 10
5 8 2 28289.7 1133.31 16
-5 -8 -2 25767.8 1289.11 22
-5 -8 -2 26133.1 1219.38 5
-5 -8 -3 1298.55 512.368 5
5 8 3 1168.49 345.312 10
5 8 3 929.424 363.891 16
-5 -8 -3 1121.27 416.113 22
5 8 4 34669.7 1242.29 10
5 8 4 32042.5 1240.43 16
-5 -8 -4 35486.3 1478.62 5
-5 -8 -5 -656.041 690.46 39
5 8 5 119.543 323.777 10
5 8 5 259.928 266.362 16
-5 -8 -5 328.764 344.848 6
-5 -8 -5 388.456 473.878 5
5 8 6 4420.36 538.765 10
5 8 6 4392.01 503.577 16
-5 -8 -6 4212.86 574.196 6
-5 -8 -7 11410.9 694.213 40
-5 -8 -7 9573.53 1367.11 39
5 8 7 12083.3 743.233 10
-5 -8 -7 12378.7 840.898 6
5 8 7 11399.3 714.296 16
5 8 7 12330.7 718.92 21
5 8 8 1916.23 375.9 21
-5 -8 -8 1816.59 306.649 40
5 8 8 2041.94 376.554 10
-5 -8 -8 1448.2 339.218 6
5 8 9 2892.14 427.264 21
5 8 9 2699.09 359.103 10
-5 -8 -9 2569.76 368.97 6
-5 -8 -9 2760.08 361.53 14
-5 -8 -9 2776.19 363.771 7
5 8 10 394.333 251.839 21
-5 -8 -10 271.874 158.376 6
-5 -8 -10 423.916 185.034 14
-5 -8 -10 -74.5197 144.371 7
5 8 11 807.634 224.68 21
-5 -8 -11 784.204 142.932 6
5 9 0 619.275 153.452 16
5 9 0 553.499 138.697 53
-5 -9 0 480.067 196.26 22
5 9 1 7679.92 501.28 16
-5 -9 -1 7376.47 572.655 22
5 9 1 7183.95 388.022 53
5 9 2 791.798 281.09 16
-5 -9 -2 942.083 283.455 6
-5 -9 -2 580.191 286.262 5
5 9 2 1176.99 222.777 53
-5 -9 -2 822.695 334.837 22
5 9 3 2368.19 344.133 10
5 9 3 2595.01 419.352 16
-5 -9 -3 2309.26 410.923 6
-5 -9 -3 3164.99 462.906 5
-5 -9 -3 2965.69 453.103 22
5 9 4 45367.1 1357.72 10
-5 -9 -4 42751 1529.87 6
5 9 4 45411.1 1364.95 16
-5 -9 -4 44717.3 1411.97 22
5 9 5 3257.16 452.145 10
5 9 5 3027.71 426.448 16
-5 -9 -5 2902.65 488.2 6
5 9 6 1880.79 394.812 10
5 9 6 1603.12 328.315 16
-5 -9 -6 1473.26 415.144 6
5 9 7 6305.59 557.915 10
-5 -9 -7 7146.55 638.014 6
5 9 7 5564.23 512.526 16
5 9 7 6093.92 493.353 21
5 9 8 41290.9 1203.87 10
-5 -9 -8 39663.4 1297.74 6
5 9 8 38720.6 1151.1 21
-5 -9 -9 7870.57 542.409 6
5 9 9 6843.68 461.428 10
-5 -9 -9 6808.15 518.734 7
5 9 9 6867.42 506.713 21
-5 -9 -10 5995.47 406.432 6
-5 -9 -10 5474.98 388.193 7
5 9 10 5744.64 435.711 21
-5 -9 -11 4388.26 274.984 6
5 9 11 4056.45 316.167 21
5 10 2 872.064 209.752 16
-5 -10 -2 831.416 211.145 22
5 10 3 7893.58 445.356 10
5 10 3 8415.56 528.299 16
-5 -10 -3 7565.06 499.465 22
5 10 4 13730.4 663.439 10
5 10 4 13536.6 687.459 16
-5 -10 -4 13213.7 645.053 22
5 10 5 920.761 287.563 10
5 10 5 1026.32 288.07 16
-5 -10 -5 666.785 267.298 6
5 10 6 1154.31 325.95 10
-5 -10 -6 865.478 294.209 6
5 10 6 497.592 237.539 16
-5 -10 -7 10931.9 667.34 6
5 10 7 11050.6 622.514 10
-5 -10 -8 17154.5 773.665 6
5 10 8 17400 720.144 10
-5 -10 -8 15940.7 770.113 7
5 10 8 15681.3 627.548 21
-5 -10 -9 3422.02 335.735 6
5 10 9 3053.94 304.71 10
-5 -10 -9 3234.53 332.625 7
5 10 9 3134.25 312.704 21
5 10 10 513.097 162.128 21
-5 -10 -10 582.075 155.356 6
5 10 11 19356.2 522.536 21
5 11 4 2032.45 233.743 16
5 11 5 1319.58 212.551 10
-5 -11 -5 913.245 160.379 6
5 11 5 1163.11 210.116 16
-5 -11 -6 19862.7 683.714 6
5 11 6 17911.1 604.19 16
-5 -11 -7 855.678 188.832 6
5 11 7 1164.94 220.006 10
-5 -11 -7 997.125 215.92 7
-5 -11 -8 2052.09 234.308 6
-5 -11 -8 2049.49 254.574 7
-5 -11 -9 745.06 147.202 6
6 -8 -5 1484.47 164.439 59
6 -8 -4 433.026 133.805 59
6 -8 -4 246.466 132.28 56
6 -8 -3 30246 726.69 59
6 -8 -3 33015.2 872.51 56
6 -8 -2 3328.42 319.958 56
6 -8 -1 14123.7 605.23 56
6 -8 0 23062.5 742.207 56
6 -8 1 17727.7 599.828 56
6 -7 -6 1064.9 159.594 59
6 -7 -5 1030.87 190.702 59
-6 7 4 6420.01 560.71 26
6 -7 -4 7285.56 446.509 59
6 -7 -4 7219.36 475.651 56
6 -7 -3 1259.97 227.853 59
6 -7 -3 1348.7 269.364 56
6 -7 -2 1842.93 246.544 59
6 -7 -2 2589.78 364.966 56
6 -7 -1 15886.4 778.061 56
6 -7 0 768.426 243.348 56
-6 7 0 882.891 226.173 23
6 -7 1 3165.49 320.536 58
6 -7 1 3580.82 369.698 56
-6 7 -1 3604.38 392.255 23
6 -7 2 4230.76 313.645 58
6 -7 2 5186.51 395.166 56
-6 7 -2 5092.18 419.36 23
6 -7 3 1912.68 221.28 56
6 -6 -6 5178.06 346.195 59
6 -6 -5 36343.4 1012.09 59
-6 6 4 9202.46 709.724 26
6 -6 -4 9803.76 597.79 59
6 -6 -4 9880.99 625.685 56
-6 6 3 3047.82 828.453 34
-6 6 3 2022.44 837.24 33
6 -6 -3 1304.68 274.161 59
6 -6 -3 1886.1 349.044 56
-6 6 2 18104 1871.27 34
6 -6 -2 20890.3 834.212 59
6 -6 -2 20843.8 970.165 56
-6 6 1 4566.17 934.329 35
6 -6 -1 6491.95 448.717 59
6 -6 -1 6232.65 545.351 58
6 -6 -1 5681.49 545.82 56
-6 6 0 226.243 437.101 35
6 -6 0 100.4 232.155 58
6 -6 0 -114.847 226.757 56
6 -6 1 16052.8 778.227 58
6 -6 1 16325.5 839.886 56
6 -6 2 1127.12 254.777 58
6 -6 2 921.148 253.612 56
6 -6 3 1701.36 278.651 58
6 -6 3 1912.24 283.403 56
-6 6 -4 18665 625.336 16
6 -6 4 20398.5 696.898 56
-6 6 -4 20110.6 773.323 23
-6 5 6 37030.8 1302.78 27
6 -5 -6 35059.6 902.361 59
6 -5 -5 10098.5 568.875 59
-6 5 4 2443.49 895.135 33
-6 5 4 4061.29 547.329 26
6 -5 -4 3942.73 427.381 59
6 -5 -4 3875.1 442.5 56
-6 5 3 990.634 595.482 34
-6 5 3 -336.523 558.418 33
6 -5 -3 128.413 217.947 59
6 -5 -3 41.0852 227.852 56
-6 5 2 2746.49 732.524 35
-6 5 2 1902.72 703.304 34
-6 5 2 2877.18 959.508 32
6 -5 -2 3286.82 379.05 59
6 -5 -2 3384.97 448.788 56
6 -5 -1 1515.58 288.336 59
6 -5 -1 1883.44 386.979 58
6 -5 -1 1562.56 361.937 56
-6 5 0 16391.5 1789.23 35
6 -5 0 17901.1 872.851 58
6 -5 0 18122.7 939.408 56
-6 5 -1 22022.9 1989.56 41
6 -5 1 22450.2 974.643 58
6 -5 1 24967.3 1069.43 56
-6 5 -2 4936.52 1033.29 41
6 -5 2 4227.5 455.247 58
6 -5 2 4423.02 469.342 56
-6 5 -3 1306.43 599.382 41
-6 5 -3 1709.11 302.77 38
6 -5 3 1790.82 317.954 58
6 -5 3 1928.45 338.492 56
-6 5 -4 2375.43 323.429 38
6 -5 4 2495.1 316.192 58
-6 5 -4 2377.14 280.293 24
6 -5 4 2492.07 324.19 56
6 -5 5 4181.78 317.684 58
-6 5 -5 5159.03 387.806 16
-6 5 -5 4959.66 343.347 24
6 -5 5 4517.65 331.867 56
-6 5 -6 924.135 168.697 16
-6 4 7 2319.31 292.328 17
-6 4 6 754.064 390.712 27
6 -4 -6 139.911 152.095 59
-6 4 5 -57.894 401.759 27
6 -4 -5 75.8681 188.464 59
-6 4 4 7865.15 1505.33 33
6 -4 -4 7504.46 556.844 59
6 -4 -4 7520.31 621.343 56
-6 4 3 11989.6 1763.8 33
-6 4 3 12026.5 1821.76 32
6 -4 -3 12651 731.528 59
6 -4 -3 11147.7 724.717 56
-6 4 2 9266.51 1364.46 47
-6 4 2 10632.4 1409.19 34
-6 4 2 10109.1 1567.82 32
6 -4 -2 11298.2 684.478 59
6 -4 -2 11932.3 753.361 56
-6 4 1 25395.8 2029.69 48
-6 4 1 24801.6 2149.53 47
-6 4 1 23743.3 1959.18 35
6 -4 -1 24835 962.156 59
6 -4 -1 25556.2 1032.9 58
6 -4 -1 27003.9 1037.23 57
6 -4 -1 28114.3 1127.41 56
6 -4 0 15707.6 831.696 58
-6 4 0 13739.4 1529.59 48
6 -4 0 13806.5 664.345 59
6 -4 0 15362.3 788.949 57
6 -4 0 14496.9 829.844 56
-6 4 -1 5736.4 1064.3 48
-6 4 -1 5711.69 1043.55 41
6 -4 1 5308.15 522.556 58
6 -4 1 6198.31 546.891 57
6 -4 1 5958.14 547.047 56
-6 4 -2 26627.1 2283.22 48
-6 4 -2 25703.2 2239.51 41
6 -4 2 27969.9 1082.69 58
6 -4 2 25175 986.293 57
6 -4 2 28429.5 1119.79 56
-6 4 -3 10684.3 1530.54 41
-6 4 -3 12127.1 736.263 38
6 -4 3 11189.5 693.787 58
6 -4 3 11742.3 721.466 56
-6 4 -4 7096.75 1298.97 41
-6 4 -4 6276.76 550.217 38
6 -4 4 5936.33 529.913 58
6 -4 4 6486.41 518.657 56
-6 4 -5 18038.3 863.082 38
6 -4 5 18174.2 842.279 18
6 -4 5 19517.8 828.15 58
-6 4 -5 19071.4 826.002 24
6 -4 5 18292 759.176 56
-6 4 -6 11847.6 623.518 38
6 -4 6 11406.4 539.319 58
-6 4 -6 12457.6 595.467 24
-6 4 -7 1137.82 179.859 24
-6 4 -7 730.306 173.788 16
-6 3 7 582.988 228.191 17
6 -3 -6 33101.6 861.292 59
6 -3 -6 34444.5 799.304 54
-6 3 5 13731.9 961.058 27
6 -3 -5 16172 714.307 59
-6 3 4 9424.6 1721.48 46
6 -3 -4 11724 692.462 59
-6 3 3 48319.5 3364.27 33
-6 3 3 49507.4 3556.59 32
6 -3 -3 57934.2 1525.94 59
6 -3 -3 58915.9 1627.08 56
-6 3 2 13914.7 1591.39 47
-6 3 2 17888.4 2045.92 32
-6 3 2 14162.3 1981.13 31
6 -3 -2 17686.2 835.271 59
6 -3 -2 17650.9 815.105 57
6 -3 -2 16950 863.925 56
6 -3 -2 15629.6 737.969 53
-6 3 1 1391.74 567.727 47
-6 3 1 1355.16 515.438 35
6 -3 -1 1312.37 288.842 59
6 -3 -1 1458.67 302.65 58
6 -3 -1 1306.16 324.899 57
6 -3 -1 1217.4 302.766 56
6 -3 -1 981.813 517.095 55
6 -3 -1 1363.27 310.723 53
-6 3 0 5210.49 933.311 48
6 -3 0 5263.58 438.937 59
6 -3 0 5132.99 475.334 58
6 -3 0 5128.16 472.173 57
6 -3 0 5330.62 500.273 56
6 -3 0 5555.03 1058.37 55
6 -3 0 5338.39 504.382 53
-6 3 -1 19729.3 1826.26 48
-6 3 -1 18609.3 1742.46 36
6 -3 1 19755.7 858.774 57
6 -3 1 20673.6 909 58
6 -3 1 18917.5 896.964 56
6 -3 1 19317.1 1870.34 55
-6 3 -2 2236.25 716.569 36
6 -3 2 2521.57 388.777 58
6 -3 2 2597.7 390.905 57
6 -3 2 2665.44 382.915 56
6 -3 2 3117.57 832.774 55
-6 3 -3 15673.4 1834.16 41
-6 3 -3 17333 1769.05 37
-6 3 -3 18531.4 1971.82 36
6 -3 3 17438.8 868.053 58
6 -3 3 16429.5 776.106 57
6 -3 3 17017.5 841.255 56
-6 3 -4 1186.22 633.919 41
-6 3 -4 2239.72 401.801 38
-6 3 -4 1925.47 733.252 37
-6 3 -4 2113.84 797.751 36
6 -3 4 1803.6 350.391 18
6 -3 4 1603.23 350.179 58
6 -3 4 1959.9 318.567 56
-6 3 -5 20343 999.795 38
6 -3 5 20402.3 921.574 18
6 -3 5 20206.1 928.884 58
-6 3 -6 6344.86 538.917 38
6 -3 6 6297.35 519.424 18
6 -3 6 5942.19 485.999 58
-6 3 -7 7202.78 498.677 38
6 -3 7 7092.89 463.423 18
6 -3 7 7104.24 437.712 58
-6 3 -7 7839.54 504.877 24
-6 3 -8 6676.44 345.997 16
-6 3 -8 7063.77 357.865 24
-6 2 6 4272.86 472.61 17
6 -2 -6 3299.69 287.881 59
6 -2 -6 3994.49 310.702 54
-6 2 5 2644.79 537.748 27
6 -2 -5 2430.12 319.133 59
6 -2 -5 2517.02 306.157 54
-6 2 5 2684.92 590.76 3
-6 2 4 876.299 791.041 46
-6 2 4 1924.85 512.788 27
6 -2 -4 1663.33 320.095 59
-6 2 3 12140.5 1891.03 46
6 -2 -3 12351.6 715.632 59
6 -2 -3 12415 773.985 56
6 -2 -3 11462.5 596.5 53
-6 2 2 3386.41 978.153 33
-6 2 2 4508.29 1112.32 32
-6 2 2 2959.69 990.205 31
6 -2 -2 3778.04 430.547 59
6 -2 -2 3948.99 407.779 57
6 -2 -2 3865.78 438.941 56
6 -2 -2 3347.89 405.752 53
6 -2 -2 3297.45 815.065 52
-6 2 1 7524.09 1076.02 47
-6 2 1 8362.89 1295.11 32
-6 2 1 9179.13 1510.94 31
6 -2 -1 9155.19 592.622 59
6 -2 -1 8696.33 565.425 58
6 -2 -1 9096.53 579.774 57
6 -2 -1 8632.66 613.288 56
6 -2 -1 8744 575.555 53
6 -2 -1 9493.59 1287.39 52
-6 2 0 78410.8 3157.93 48
-6 2 0 67741.1 3295.04 45
6 -2 0 77378.9 1587.95 59
6 -2 0 77217.9 1625.1 57
6 -2 0 79771.4 1651.02 58
6 -2 0 76735.1 1709.77 56
6 -2 0 72945.7 3440.64 55
6 -2 0 72348.6 1599.21 53
-6 2 -1 11057 1389.66 45
-6 2 -1 11004.7 1338.77 36
6 -2 1 12566 672.744 58
6 -2 1 11810.9 645.21 57
6 -2 1 11290 649.92 56
6 -2 1 10822.7 1333.71 55
6 -2 1 12276.2 681.774 53
-6 2 -2 6878.5 1099.9 36
6 -2 2 7302.58 527.744 58
6 -2 2 8260.91 557.773 57
6 -2 2 7737.68 543.81 56
6 -2 2 6697.49 1055.19 55
-6 2 -3 63608.9 3303.24 42
-6 2 -3 63850.9 3475.34 37
-6 2 -3 67248 3603.81 36
6 -2 3 70809.1 1680 58
6 -2 3 61934.7 1475.61 57
6 -2 3 65695.7 1560.16 56
6 -2 3 67309.3 3401.59 55
-6 2 -4 15131.3 1683.06 42
-6 2 -4 15566.1 1780.99 37
-6 2 -4 14925.7 1772.22 36
6 -2 4 16386.6 851.976 58
6 -2 4 14472.8 1587.76 55
-6 2 -5 589.264 518.991 41
-6 2 -5 963.274 538.817 37
-6 2 -5 978.669 716.193 36
6 -2 5 498.123 223.1 18
6 -2 5 1040.53 333.531 58
-6 2 -6 19307.3 1970.29 41
-6 2 -6 20145.8 1010.78 38
-6 2 -6 22156.8 2143.69 37
6 -2 6 20908.3 909.982 18
-6 2 -6 18288.5 2003.64 36
-6 2 -6 19413.8 852.454 25
6 -2 6 20790.1 968.449 58
-6 2 -7 729.694 238.546 38
6 -2 7 871.415 230.383 18
-6 2 -7 1047.16 221.683 25
6 -2 7 1605.47 322.666 58
6 -2 8 428.022 168.64 18
-6 2 -8 422.808 137.573 25
6 -2 8 425.387 186.567 58
-6 2 -8 453.705 214.807 24
-6 2 -9 7419.69 325.723 24
-6 1 6 -120.688 262.519 17
6 -1 -6 300.478 167.547 54
-6 1 5 4173.97 1396.02 28
6 -1 -5 4116.98 396.355 59
6 -1 -5 3941.92 367.189 54
-6 1 5 4200.12 674.402 3
-6 1 4 25941 2829.89 46
6 -1 -4 26956.8 999.333 59
-6 1 4 31878.1 1560.07 3
6 -1 -4 27615.4 939.046 54
-6 1 3 879.217 688.062 46
6 -1 -3 1402.39 320.348 59
6 -1 -3 1185.88 266.183 54
6 -1 -3 1189.25 281.202 53
-6 1 2 34494.9 2910.73 46
-6 1 2 38334.4 3277.71 31
6 -1 -2 35362.4 1149.45 59
6 -1 -2 35728.1 1220.26 56
6 -1 -2 32462.4 1052.49 53
6 -1 -2 32916.3 2234.98 52
-6 1 1 37565.2 2701.51 32
-6 1 1 44097 3189.87 31
6 -1 -1 40730.8 1204.05 59
6 -1 -1 41038.3 1125.69 57
6 -1 -1 40774.8 1239.43 56
6 -1 -1 39055.1 1137.15 53
6 -1 -1 39680.8 2444.83 52
-6 1 0 327.42 511.245 31
6 -1 0 1084.19 251.394 59
6 -1 0 1313.07 278.355 57
6 -1 0 1300.45 301.504 53
6 -1 0 1191.76 503.88 52
-6 1 -1 3476.93 838.52 45
6 -1 1 2868.24 696.733 55
6 -1 1 2997.37 689.924 52
-6 1 -2 32158.4 2472.61 45
-6 1 -2 35386.9 2716.56 44
6 -1 2 32336.2 2182.65 55
-6 1 -3 1819.58 595.02 44
-6 1 -3 445.313 558.489 43
6 -1 3 1782.83 307.893 58
6 -1 3 1453.44 295.327 57
6 -1 3 1485.02 523.913 55
6 -1 3 1437.71 322.368 21
-6 1 -4 7801.69 1208.35 43
-6 1 -4 7289.13 1295.37 42
6 -1 4 8406.92 609.37 58
6 -1 4 6820.2 498.724 57
6 -1 4 5845.12 968.579 55
6 -1 4 8248.48 642.127 21
6 -1 5 540.446 322 21
-6 1 -5 54.6878 521.756 37
-6 1 -5 -122.498 400.026 36
6 -1 5 689.477 313.458 58
6 -1 6 3463.33 497.519 21
-6 1 -6 3798.47 1054.24 37
-6 1 -6 3693.73 975.792 36
6 -1 6 3378.99 472.593 58
-6 1 -7 22548.7 2071.55 41
6 -1 7 23964.2 934.694 18
-6 1 -7 24699.2 1017.35 25
6 -1 7 24990 1066.05 58
-6 1 -8 23907.8 990.671 38
6 -1 8 21822.9 814.407 18
-6 1 -8 24611.9 917.8 25
6 -1 8 25201.2 944.23 58
-6 1 -9 11218.9 482.729 25
6 -1 9 10315.3 484.702 58
-6 1 -9 11446.2 533.867 24
-6 0 6 3387.03 482.124 19
-6 0 6 2903.44 341.41 17
6 0 -6 3197.96 269.263 54
-6 0 5 9653.54 669.923 17
-6 0 5 10773 889.691 3
6 0 -5 9490.31 528.644 54
-6 0 4 43.7183 936.334 28
-6 0 4 -185.311 803.787 2
6 0 -4 209.543 213.569 59
6 0 -4 -10.3052 235.665 54
-6 0 4 42.4879 502.803 3
6 0 -4 -109.987 213.566 53
-6 0 3 6653.27 1498.38 46
6 0 -3 7635.09 568.104 59
-6 0 3 9690.4 895.206 3
6 0 -3 8299.34 552.462 54
6 0 -3 7885.58 538.219 53
6 0 -2 33417.6 1130.85 59
-6 0 2 30859 2733.13 46
6 0 -2 32777.6 985.215 54
6 0 -2 32218.3 1058.09 53
6 0 -2 27267 2044.35 52
-6 0 1 1329.48 553.893 46
-6 0 1 1410.75 684.31 31
6 0 -1 1652.67 268.896 57
6 0 -1 1943.93 320.858 59
6 0 -1 1429.61 265.346 56
6 0 -1 1861.27 329.544 53
6 0 -1 2565.26 745.933 52
-6 0 0 35618.2 2291.15 46
-6 0 0 35722.3 2546.46 31
6 0 0 35989.7 1062.61 59
6 0 0 33914 1049.95 53
6 0 0 34527.5 2231.02 52
-6 0 -1 38906 2349.15 31
6 0 1 39888 2354.52 52
-6 0 -2 12999.5 1535.67 45
-6 0 -2 13094.8 1232.55 31
-6 0 -2 13468 1393.51 30
6 0 2 11581.7 1237.44 55
6 0 2 12917 1322.94 52
-6 0 -3 25825.1 2307.89 45
-6 0 -3 27410.5 2532.5 44
-6 0 -3 26149.7 2008.89 30
6 0 3 24335.4 1818.64 55
-6 0 -4 5580.64 1290.83 44
-6 0 -4 3013.21 895.968 43
6 0 4 5596.32 478.575 58
6 0 4 4209.23 403.666 57
6 0 4 4577.31 801.574 55
6 0 4 4920.81 463.223 21
-6 0 -5 124953 4995.32 43
-6 0 -5 120505 5310.72 42
6 0 5 115733 2226.62 58
6 0 5 112162 2250.41 21
6 0 6 329.83 292.86 21
-6 0 -6 467.075 573.846 42
-6 0 -6 -131.795 638.642 37
-6 0 -6 652.401 581.085 36
6 0 6 782.435 306.531 58
-6 0 -7 42705.2 3138.15 37
-6 0 -7 36820.4 2786.21 36
6 0 7 40521.4 1369.52 58
-6 0 -7 40239.8 1312.72 15
6 0 7 38644.6 1389.56 21
6 0 8 1567.97 328.659 21
-6 0 -8 1940.01 347.506 25
6 0 8 1387.51 365.032 58
-6 0 -8 1730.49 297.45 15
-6 0 -9 240.011 168.166 38
-6 0 -9 119.752 191.44 25
6 0 9 77.5313 197.454 58
-6 0 -9 -251.642 177.276 15
-6 0 -10 464.984 128.386 25
6 0 10 419.709 124.225 58
-6 0 -10 495.247 117.739 24
-6 -1 6 9468.35 559.046 19
6 1 -6 9813.39 380.925 54
-6 -1 5 153.968 403.38 19
6 1 -5 824.588 225.116 54
-6 -1 4 645.705 855.742 2
-6 -1 4 -568.697 465.616 3
6 1 -4 6.38022 230.764 54
6 1 -4 429.945 221.836 53
-6 -1 3 7892.38 1743 2
-6 -1 3 8605.59 1720.77 28
-6 -1 3 7835.56 830.907 3
6 1 -3 6598.77 559.242 59
6 1 -3 7096.85 531.188 54
6 1 -3 7080.87 518.802 53
-6 -1 2 -276.836 799.356 2
6 1 -2 468.835 247.97 59
6 1 -2 -25.1923 232.39 54
6 1 -2 -110.493 241.155 53
-6 -1 2 284.727 417.685 3
-6 -1 1 5614.72 1157.5 46
6 1 -1 7241.07 551.226 59
-6 -1 1 6625.43 604.715 3
6 1 -1 5928.23 431.012 54
6 1 -1 6230.44 508.378 53
6 1 -1 6999.24 1092.01 52
-6 -1 0 60570.6 2997.25 46
6 1 0 62358.3 1460.32 59
6 1 0 58423.3 1389.54 53
6 1 0 59105.1 2903.12 52
-6 -1 -1 2315.41 642.16 31
6 1 1 1821.94 554.745 52
-6 -1 -2 51018.8 2877.29 45
-6 -1 -2 47253 2316.52 31
-6 -1 -2 51076.6 2707.34 30
6 1 2 48990.7 2453.78 52
-6 -1 -3 66070.3 3527.3 45
-6 -1 -3 66319.2 3165.37 30
6 1 3 66603.7 2825.28 52
-6 -1 -4 1601.93 892.569 44
-6 -1 -4 2063.22 812.509 39
-6 -1 -4 1333.07 753.95 29
6 1 4 1474.22 458.787 55
-6 -1 -5 4864.69 1290.11 44
-6 -1 -5 5678.05 1306.43 43
-6 -1 -5 5858.61 1349.19 42
-6 -1 -5 4501.64 908.449 39
6 1 5 5247.68 458.01 58
6 1 5 4495.34 412.987 57
6 1 5 5007.08 513.796 21
-6 -1 -6 18496.3 2216.71 42
-6 -1 -6 17764.8 915.978 40
6 1 6 16825.2 862.108 58
6 1 6 16792.9 891.569 21
-6 -1 -6 17232.6 888.845 14
6 1 7 2956.6 443.198 21
-6 -1 -7 2747.26 940.426 42
-6 -1 -7 2435.98 839.19 37
-6 -1 -7 2209.38 794.33 36
6 1 7 2511.69 416.572 58
-6 -1 -7 2899.75 397.246 14
-6 -1 -8 9571.74 1466.26 37
-6 -1 -8 8603.72 1333.57 36
6 1 8 11296.3 746.697 58
-6 -1 -8 10390.6 708.318 15
-6 -1 -8 11117.5 668.715 14
6 1 8 9515.47 695.584 21
6 1 9 894.827 277.782 21
-6 -1 -9 1332.54 305.416 25
6 1 9 1267.77 349.648 58
-6 -1 -9 997.277 257.217 15
-6 -1 -10 1362.78 228.507 25
6 1 10 1305.46 237.672 58
-6 -1 -10 1155.78 189.361 24
-6 -2 5 170.333 297.082 19
6 2 -5 55.0195 151.006 54
6 2 -4 32387.7 997.965 54
6 2 -4 30560.7 881.642 53
-6 -2 3 703.028 928.03 2
-6 -2 3 896.153 1053.02 28
6 2 -3 368.119 251.427 54
6 2 -3 -199.838 229.007 53
-6 -2 2 16286.2 2211.28 2
-6 -2 2 14911.2 2030.62 28
-6 -2 2 16314.9 1039.02 3
6 2 -2 15416.8 819.459 59
6 2 -2 16832.8 793.526 54
6 2 -2 15235.9 773.153 53
-6 -2 1 14289.8 1897.98 2
-6 -2 1 14266.7 1912.75 28
-6 -2 1 13564 847.089 3
6 2 -1 14049.7 778.681 59
6 2 -1 13780.2 697.624 54
6 2 -1 13879.6 736.869 53
6 2 -1 13803.4 1511.63 52
-6 -2 0 23340.2 2112.69 2
-6 -2 0 22930.8 2089.71 28
6 2 0 23597.1 923.577 59
6 2 0 20863.4 763.466 54
6 2 0 23160 889.927 53
6 2 0 22474.5 1846.03 52
-6 -2 -1 919.316 698.244 2
-6 -2 -1 -272.592 525.882 28
6 2 1 201.766 379.9 52
-6 -2 -2 71441.8 3026.94 2
6 2 2 67477.4 1409.01 10
6 2 2 70886.9 2974.6 52
-6 -2 -3 11692.9 1501.66 45
6 2 3 10751.4 635.004 10
-6 -2 -3 11975 1458.52 30
6 2 3 11646.3 1148.23 52
-6 -2 -4 22495.8 2111.04 45
-6 -2 -4 23570.1 2435.28 44
6 2 4 22921.7 921.45 10
-6 -2 -4 22557.8 2126.17 29
6 2 4 21478.9 1548.88 52
-6 -2 -5 7893.82 1427.56 44
-6 -2 -5 8555.21 1563.73 43
-6 -2 -5 7171.6 1215.42 39
-6 -2 -5 9160.03 1420.24 29
6 2 5 7939.73 538.044 57
6 2 5 7298.78 568.966 21
6 2 6 3342.84 418.217 21
-6 -2 -6 3367.09 1041.91 43
-6 -2 -6 4574.67 1249.39 42
-6 -2 -6 3091.41 501.269 40
6 2 6 3228.41 386.427 57
-6 -2 -7 78863.4 4328.19 42
-6 -2 -7 76604.9 1947.89 40
-6 -2 -7 76203 1982.28 14
6 2 7 74044.8 1876.16 21
-6 -2 -8 107480 4862.18 37
-6 -2 -8 109651 2287.32 14
6 2 8 106043 2257.94 21
-6 -2 -9 3035.82 813.496 13
-6 -2 -9 4616.05 1001.27 37
-6 -2 -9 5027.91 524.873 25
6 2 9 4677.2 487.631 58
-6 -2 -9 3793.45 455.922 15
-6 -2 -9 4531.36 458.146 14
6 2 9 4860.75 497.974 21
-6 -2 -10 17118.3 748.256 25
6 2 10 16033.3 719.036 58
-6 -2 -10 14722 589.414 24
-6 -2 -10 18386.1 780.575 15
6 2 10 15031.7 646.983 21
-6 -2 -11 25277.4 669.038 25
6 2 11 23632.2 635.627 58
6 3 -5 19623.4 533.773 54
-6 -3 5 15091.5 770.219 22
-6 -3 4 992.713 355.706 19
-6 -3 4 602.33 409.623 4
6 3 -4 1394.71 259.763 54
6 3 -4 788.342 199.251 53
-6 -3 3 8436.96 759.428 19
-6 -3 3 9083.5 888.807 4
-6 -3 3 7766.55 1649.53 28
6 3 -3 9723.73 594.263 54
6 3 -3 9128.65 562.096 53
-6 -3 2 6465.2 1507.24 28
6 3 -2 7504.52 566.719 54
6 3 -2 7534.35 571.749 53
-6 -3 2 7964.81 1649.5 2
-6 -3 1 2192.86 1105.66 2
-6 -3 1 2122 1022.96 28
6 3 -1 2064.99 354.003 54
6 3 -1 2040.63 393.269 53
-6 -3 0 6190.28 1338.38 2
-6 -3 0 5287.49 1283.59 28
6 3 0 6138.18 592.765 59
6 3 0 5762.58 460.415 54
6 3 0 5439.39 495.323 53
6 3 0 4601.75 873.544 52
-6 -3 -1 11787.8 1566.49 2
-6 -3 -1 10533.9 1441.95 28
6 3 1 13622.1 761.218 59
6 3 1 11626.6 581.189 54
6 3 1 11626 632.219 53
6 3 1 12348.5 1367.79 52
-6 -3 -2 8058.39 1258.58 2
6 3 2 8663.8 538.663 10
-6 -3 -2 10305.3 1409.77 30
-6 -3 -2 7356.39 1152.59 28
6 3 2 9507.96 1132.27 52
-6 -3 -3 6958.05 1244.71 45
6 3 3 8362.31 561.819 10
-6 -3 -3 9025.88 1354.73 30
6 3 3 8428.43 1026.94 52
-6 -3 -4 13348.8 1591.35 45
6 3 4 13309.3 725.597 10
-6 -3 -4 13278.6 1648.92 30
-6 -3 -4 13711.8 1762.85 29
6 3 4 13388.6 1211.91 52
-6 -3 -5 23373.3 2429.87 44
-6 -3 -5 22812 2433.78 43
-6 -3 -5 23763.7 2305.45 39
6 3 5 23141.2 984.567 10
-6 -3 -5 24051.8 2262.45 29
6 3 5 22207.8 889.078 57
6 3 6 29.1869 257.368 21
-6 -3 -6 220.906 632.119 44
-6 -3 -6 38.9553 804.825 43
-6 -3 -6 -1030.74 812.468 39
6 3 6 69.5683 276.465 10
6 3 6 -165.638 245.099 57
-6 -3 -7 39947.8 3035.23 43
-6 -3 -7 38918.5 3056.95 42
-6 -3 -7 38914.2 1473.59 40
6 3 7 33027.6 1070.5 57
6 3 7 38290.4 1314.69 21
6 3 8 902.959 325.626 21
-6 -3 -8 243.066 495.59 42
-6 -3 -8 1384.7 362.828 40
-6 -3 -8 526.246 541.971 37
-6 -3 -8 1287.03 350.848 14
6 3 9 2477.1 415.661 21
-6 -3 -9 2875.91 439.895 15
-6 -3 -9 3620.44 459.298 14
6 3 10 2759.19 359.608 21
-6 -3 -10 2902.3 351.365 25
6 3 10 2475.38 349.884 58
-6 -3 -10 3013.98 371.603 15
-6 -3 -11 4610.21 331.956 25
6 3 11 4610.05 336.286 58
-6 -3 -11 5078.88 361.735 15
-6 -4 4 -78.2493 217.753 19
6 4 -4 34.5567 143.07 54
6 4 -4 173.416 128.242 53
-6 -4 4 444.759 332.438 22
-6 -4 3 5913.95 546.539 19
-6 -4 3 4818.26 641.725 4
6 4 -3 6064.28 443.132 54
6 4 -3 6056.06 433.779 53
-6 -4 2 7012.3 634.945 19
-6 -4 2 7111.88 807.849 4
6 4 -2 8488.59 594.261 54
6 4 -2 8680.19 603.486 53
-6 -4 1 425.585 537.562 4
-6 -4 1 1486.37 1192.47 28
6 4 -1 809.733 283.851 54
6 4 -1 812.596 321.695 53
-6 -4 0 5301.81 740 4
-6 -4 0 5841.9 1396.32 28
6 4 0 5549.01 491.573 54
6 4 0 5241.77 506.931 53
-6 -4 -1 24966.8 1198.04 4
-6 -4 -1 24699.4 2240.72 30
-6 -4 -1 26247.5 2328.23 28
6 4 1 23820.7 948.599 16
6 4 1 25174.9 910.039 54
6 4 1 23363.6 919.826 53
6 4 1 25142.4 1971.63 52
-6 -4 -2 22504 1079.87 4
6 4 2 19852 808.766 10
-6 -4 -2 23597.6 2166.06 30
6 4 2 20801.9 909.796 16
6 4 2 21302.6 828.334 57
6 4 2 22440.4 814.952 54
6 4 2 20422.1 814.263 53
6 4 2 21913 1744.78 52
-6 -4 -3 14611 1713.05 45
-6 -4 -3 15020.2 826.539 4
6 4 3 13168.9 707.688 10
-6 -4 -3 13699.6 1759.72 30
6 4 3 13713.4 741.246 16
6 4 3 14294.2 715.654 57
6 4 3 13781.6 1323.1 52
-6 -4 -4 14969.2 1714.88 45
6 4 4 13752.3 751.783 10
-6 -4 -4 13530.5 1756.17 30
-6 -4 -4 12340 1861.17 29
6 4 4 13783.6 762.024 16
6 4 4 14717 738.087 57
6 4 4 12214.2 1153.1 52
-6 -4 -4 12908.8 802.855 5
-6 -4 -5 19034.2 2159.74 44
6 4 5 20156.3 907.018 10
-6 -4 -5 18818.9 2128.79 29
6 4 5 19353.9 915.299 16
6 4 5 19836.9 872.246 57
-6 -4 -5 19823.9 923.365 5
-6 -4 -6 6657.24 1305.93 44
-6 -4 -6 6530.63 1380.28 43
-6 -4 -6 6508 1357.05 39
6 4 6 6019.84 562.536 10
6 4 6 5883.91 516.337 57
6 4 6 6552.37 545.402 21
-6 -4 -7 93083 4611.6 43
-6 -4 -7 86820.6 4425.3 42
-6 -4 -7 91823 2264.23 40
6 4 7 84797.2 1910.12 10
6 4 7 86376.8 1818.89 57
6 4 7 89279.4 2016.92 21
6 4 8 3406.45 488.328 21
-6 -4 -8 3044.05 925.253 42
-6 -4 -8 3254.95 474.455 40
-6 -4 -8 3344.73 524.368 14
6 4 9 353.826 324.55 21
-6 -4 -9 763.224 495.579 37
-6 -4 -9 193.163 276.975 14
-6 -4 -10 55913.4 1393.86 25
-6 -4 -10 57239.2 1530.96 15
6 4 10 59557.5 1468.78 21
6 4 11 1948.46 260.501 21
-6 -4 -11 2322.84 255.329 25
6 4 11 1795.04 259.291 58
-6 -4 -11 2476.81 280.691 15
6 5 -3 1250.34 217.747 54
6 5 -3 1019.52 192.613 53
-6 -5 3 687.235 369.001 22
-6 -5 2 33944.5 1447.93 4
6 5 -2 34613.4 1029.84 54
-6 -5 2 35017.3 1572.72 22
6 5 -2 35153.8 1032 53
-6 -5 1 1022.08 554.247 4
6 5 -1 1201.41 328.585 54
6 5 -1 991.798 336.368 53
-6 -5 0 21254.1 1247.08 4
-6 -5 0 18837 1981.23 30
6 5 0 19202.6 861.955 16
6 5 0 22449.3 929.495 54
6 5 0 22211.5 933.141 53
-6 -5 -1 24352.2 1280.85 4
-6 -5 -1 25450.1 2339.94 30
6 5 1 22903.5 984.101 16
6 5 1 26720.5 998.646 54
6 5 1 24951.4 972.054 53
-6 -5 -2 45517.2 2907.76 45
-6 -5 -2 53360.2 1753.04 4
6 5 2 50320.1 1307.41 10
-6 -5 -2 53315.6 3419.55 30
6 5 2 49239.1 1455.78 16
6 5 2 53868.2 1355.77 54
6 5 2 51296.4 1307.94 53
6 5 2 51811.5 2738.91 52
-6 -5 -3 4065.65 962.956 45
6 5 3 4500.97 474.398 10
-6 -5 -3 4865.43 611.89 4
-6 -5 -3 4168.98 1123.44 30
-6 -5 -3 4788.63 1271.82 29
6 5 3 4250.41 491.698 16
6 5 3 4788.92 454.37 57
6 5 3 4613.73 397.732 53
6 5 3 3903.37 808.769 52
-6 -5 -4 3320.22 538.551 5
-6 -5 -4 3612.63 919.167 45
-6 -5 -4 4538.52 1380.9 29
6 5 4 3229.75 437.232 10
6 5 4 3076.21 434.428 16
-6 -5 -5 748.49 403.302 5
-6 -5 -5 458.273 567.692 44
-6 -5 -5 1495.92 1093.5 29
6 5 5 877.695 296.043 10
6 5 5 762.84 298.623 16
-6 -5 -6 34143.2 2777.7 44
-6 -5 -6 33023.2 2856.61 43
-6 -5 -6 35987.5 2953.51 39
6 5 6 34300.8 1228.75 10
-6 -5 -6 30895.4 1320.69 6
6 5 6 33976.9 1220.71 16
6 5 6 32834.4 1125.98 21
-6 -5 -7 5865.22 1270.73 43
-6 -5 -7 4323.2 1040.62 42
-6 -5 -7 5922.6 654.178 40
-6 -5 -7 6561.84 1335.15 39
6 5 7 5763.94 565.353 10
-6 -5 -7 5680.38 565.305 6
6 5 7 5938.91 543.501 21
6 5 8 711.978 339.734 21
-6 -5 -8 727.08 460.929 42
-6 -5 -8 1156.01 382.151 40
6 5 8 964.154 309.659 10
6 5 8 640.694 264.469 57
-6 -5 -9 11489.1 752.661 40
-6 -5 -9 9669.91 728.137 14
6 5 9 10797.4 712.357 21
6 5 10 1404.62 347.144 21
-6 -5 -10 1127.15 248.843 25
-6 -5 -10 1293.38 309.254 15
-6 -5 -10 1185.55 292.28 14
6 5 11 294.779 198.47 21
-6 -5 -11 130.32 125.316 25
6 5 11 294.699 175.06 58
-6 -5 -11 115.885 142.292 15
6 6 -2 2266.98 284.114 53
-6 -6 2 2330.54 458.722 22
-6 -6 1 5335.39 681.475 4
6 6 -1 5434.98 460.779 53
-6 -6 1 5464.78 649.445 22
-6 -6 0 869.56 515.208 4
6 6 0 678.329 234.983 16
6 6 0 1230.28 321.918 54
6 6 0 1209.76 312.811 53
-6 -6 0 718.874 439.779 22
-6 -6 -1 1540.46 572.706 4
6 6 1 837.588 293.373 16
6 6 1 1179.48 336.948 53
-6 -6 -1 451.215 415.12 22
-6 -6 -2 3981.4 660.147 4
-6 -6 -2 3321.62 1080.2 30
-6 -6 -2 3763 1202.52 29
6 6 2 3604.17 477.443 16
6 6 2 3645.74 407.08 53
-6 -6 -2 2565.38 538.138 22
-6 -6 -3 20650.7 1148.07 4
6 6 3 21090.4 921.714 10
-6 -6 -3 20217.7 2375.97 29
6 6 3 21215.1 1014.15 16
6 6 3 20487.5 868 57
6 6 3 20250.2 799.152 53
6 6 4 34991.3 1205.74 10
-6 -6 -4 34571.6 3048.43 29
6 6 4 34000.4 1261.83 16
-6 -6 -4 32985.5 1415.85 5
-6 -6 -5 10783.4 1604.58 44
6 6 5 14421.7 824.015 10
-6 -6 -5 14925.3 2014.7 29
6 6 5 13952.4 831.103 16
-6 -6 -5 14448.1 931.555 5
-6 -6 -6 894.278 725.651 44
-6 -6 -6 169.76 578.48 43
-6 -6 -6 346.463 641.635 39
6 6 6 565.872 323.16 10
6 6 6 983.488 327.49 16
-6 -6 -6 867.754 396.765 6
-6 -6 -7 20237.5 2128.87 43
-6 -6 -7 15801.9 1745.82 42
-6 -6 -7 20905.9 1102.75 40
-6 -6 -7 19684.4 2128.08 39
6 6 7 20984.8 974.23 10
-6 -6 -7 19762.8 1027.48 6
6 6 7 20294.4 917.246 21
-6 -6 -8 12581.8 822.218 40
6 6 8 12696 743.887 10
-6 -6 -8 12386.1 744.361 6
6 6 8 13143.4 765.704 21
6 6 9 650.428 292.406 21
-6 -6 -9 481.612 278.534 40
6 6 9 713.291 238.683 57
-6 -6 -9 176.785 260.796 14
6 6 10 1056.91 307.212 21
-6 -6 -10 720.535 200.638 25
-6 -6 -10 718.849 217.866 15
-6 -6 -10 1557.35 324.993 14
-6 -6 -11 15817 643.822 15
-6 -6 -11 17254.1 688.681 14
6 6 11 17533.6 683.172 21
-6 -7 2 5345.54 403.582 22
6 7 -2 6108.1 267.743 53
-6 -7 1 8987.05 707.554 22
6 7 -1 9814.18 470.094 53
-6 -7 1 7937.04 566.914 5
6 7 0 12723.7 636.235 16
-6 -7 0 13672.6 897.082 22
6 7 0 14801.4 663.287 53
-6 -7 0 12464.8 797.531 5
6 7 1 23584.7 975.429 16
-6 -7 -1 21553.9 1174.49 22
6 7 1 24141.3 890.853 53
-6 -7 -1 23521.7 1145.8 5
6 7 2 21402 1004.52 16
-6 -7 -2 21967.8 1160.62 22
6 7 2 23166.1 869.262 53
-6 -7 -2 23146.5 1227.59 5
-6 -7 -3 5944.72 768.141 5
6 7 3 5080.34 506.376 10
-6 -7 -3 6602.21 1452.76 29
6 7 3 5468.67 556.133 16
6 7 3 5004.02 425.985 53
-6 -7 -4 4585.12 688.241 5
6 7 4 4658.5 506.8 10
-6 -7 -4 4872.54 1365.41 29
6 7 4 4175.45 515.591 16
6 7 5 23607.5 1048.48 10
6 7 5 22366.3 1044.41 16
-6 -7 -5 23447.6 1197.35 5
-6 -7 -6 -837.398 762.267 43
-6 -7 -6 843.624 647.195 39
6 7 6 551.893 341.571 10
6 7 6 286.087 296.645 16
-6 -7 -6 -20.7664 331.755 6
-6 -7 -7 50053.2 3078.04 43
-6 -7 -7 51902.8 1656.05 40
-6 -7 -7 54764.9 3467.03 39
6 7 7 57771.4 1569.94 10
-6 -7 -7 54533.9 1719.86 6
6 7 7 56856.9 1566.09 16
6 7 7 57285.7 1479.71 21
-6 -7 -8 12269.9 789.08 40
6 7 8 12625.8 738.887 10
-6 -7 -8 11972.5 758.243 6
6 7 8 13323.6 749.72 21
6 7 9 107.368 274.997 21
-6 -7 -9 -5.10343 212.614 40
6 7 9 -109.353 235.685 10
-6 -7 -9 144.118 198.041 6
6 7 9 -245.119 235.608 57
-6 -7 -9 148.652 242.752 14
-6 -7 -10 10094.9 578.509 15
-6 -7 -10 10645.3 613.331 14
6 7 10 12164.5 676.596 21
-6 -7 -11 17200.7 647.62 14
6 7 11 18240 680.734 21
6 8 0 9037.99 426.037 16
-6 -8 0 9121.38 612.271 22
6 8 1 10875.4 590.269 16
-6 -8 -1 11741.6 752.456 22
6 8 1 10928 524.442 53
-6 -8 -1 10527.1 701.585 5
-6 -8 -2 2079.73 459.643 5
6 8 2 1442.91 336.311 16
6 8 2 1851.74 262.957 53
-6 -8 -2 1638.99 401.436 22
6 8 3 19554.6 837.556 10
6 8 3 21968.3 989.076 16
-6 -8 -3 19276.1 976.993 22
-6 -8 -3 20335.6 1106.37 5
6 8 4 3214.7 431.885 10
6 8 4 2435.36 437.326 16
6 8 4 2042.37 313.694 57
-6 -8 -4 2507.69 543.478 5
-6 -8 -5 2677.47 934.8 39
6 8 5 3044.72 444.644 10
6 8 5 3041.83 449.413 16
-6 -8 -5 3266.01 551.687 6
-6 -8 -5 2760.37 559.56 5
6 8 6 124058 2310.59 10
-6 -8 -6 123321 2704.36 6
6 8 6 122916 2283.66 16
-6 -8 -7 474.816 244.609 40
-6 -8 -7 425.236 450.643 39
6 8 7 431.862 319.098 10
6 8 7 563.353 289.363 16
-6 -8 -7 813.836 327.91 6
6 8 8 502.35 243.663 21
-6 -8 -8 83.3078 203.611 40
6 8 8 406.475 268.553 10
-6 -8 -8 11.5499 229.294 6
6 8 9 24085.2 873.541 10
-6 -8 -9 23732 900.463 6
-6 -8 -9 21675.2 899.727 14
-6 -8 -9 21539.1 859.88 7
6 8 9 21907.3 896.68 21
6 8 10 1252.03 273.235 21
-6 -8 -10 1029.49 202.513 6
6 8 10 1182.97 211.585 57
-6 -8 -10 857.567 181.528 15
-6 -8 -10 944.653 215.03 14
-6 -8 -11 3341.87 261.394 14
6 8 11 3994.62 325.059 21
6 9 1 4392.75 307.696 16
-6 -9 -1 4533.02 366.988 22
6 9 2 3253.97 346.247 16
-6 -9 -2 3517.49 380.405 5
-6 -9 -2 3473.59 377.622 22
6 9 3 15.0881 229.204 16
-6 -9 -3 -132.107 254.758 6
-6 -9 -3 -152.868 311.455 5
-6 -9 -3 479.867 246.732 22
6 9 4 19540.9 815.355 10
-6 -9 -4 17621.8 986.683 6
6 9 4 20416.2 893.173 16
6 9 5 969.08 305.625 10
6 9 5 540.908 285.418 16
6 9 5 551.865 213.85 57
-6 -9 -5 790.309 350.85 6
6 9 6 6605.31 548.639 10
-6 -9 -6 5297.55 591.578 6
6 9 6 5898.55 520.489 16
-6 -9 -7 7218.07 1138.65 39
6 9 7 7550.19 566.452 10
-6 -9 -7 8616.54 675.334 6
6 9 7 5944.02 530.478 16
6 9 8 1203.67 244.852 21
6 9 8 1116.95 284.382 10
-6 -9 -8 1552.24 311.107 6
6 9 9 190.973 186.828 21
6 9 9 -142.396 210.613 10
-6 -9 -9 428.269 173.84 6
-6 -9 -9 290.726 161.057 14
-6 -9 -9 184.266 144.091 7
-6 -9 -10 6326.6 377.378 6
6 9 10 6426.51 362.676 57
-6 -9 -10 5288.18 330.812 14
6 9 10 6546.33 413.527 21
6 9 11 4129.93 276.216 21
6 10 3 3189.17 297.122 16
-6 -10 -3 2007.26 215.531 6
6 10 4 1783.78 230.272 10
6 10 4 1865.27 293.771 16
-6 -10 -4 1364.5 257.692 6
6 10 5 2599.55 307.993 10
6 10 5 3046.75 353.654 16
-6 -10 -5 2147.22 345.214 6
-6 -10 -6 4944.12 468.731 6
6 10 6 4778.8 421.852 16
6 10 6 4115.18 348.518 57
6 10 7 15247.6 677.069 10
-6 -10 -7 14576.6 724.599 6
6 10 8 2394.55 292.448 10
-6 -10 -8 2090.4 290.983 6
-6 -10 -9 5673.38 385.042 6
6 10 9 4982.71 354.903 57
-6 -10 -9 5072.44 369.734 7
6 10 10 1680.83 179.621 21
6 10 10 1831.01 189.052 57
6 11 5 1042.91 167.337 16
-6 -11 -6 14347.3 512.296 6
-6 -11 -7 483.786 137.005 6
6 11 7 343.395 116.967 57
-6 -11 -8 7442.74 372.293 6
6 11 8 5252.09 291.144 57
-6 -11 -9 1879.81 178.113 6
7 -8 -2 -22.2102 86.3737 56
7 -8 -1 3064.71 217.111 56
7 -7 -4 -84.4719 95.6239 59
7 -7 -3 77.9146 109.074 59
7 -7 -3 191.945 140.576 56
7 -7 -2 266.107 160.291 56
7 -7 -1 11872 560.246 56
7 -7 0 3296.33 317.163 56
7 -7 1 565.161 168.508 56
7 -7 2 2762.19 226.659 56
7 -6 -5 8555.22 382.194 59
7 -6 -4 636.395 175.709 59
7 -6 -3 13546.3 588.547 59
7 -6 -3 14143.6 658.742 56
7 -6 -2 31856 882.06 59
7 -6 -2 33975.4 1074.19 56
7 -6 -1 1987.55 317.721 56
7 -6 0 250.789 220.097 58
7 -6 0 -32.8759 210.912 56
7 -6 1 54573.9 1338.35 56
-7 6 -1 52066.5 1321.77 23
7 -6 2 4932.64 384.256 58
7 -6 2 4976.32 395.427 56
-7 6 -2 5080.05 436.664 23
7 -6 3 1826.47 233.319 58
7 -6 3 2280.13 238.998 56
-7 6 -3 2178.69 288.175 23
7 -5 -5 348.728 150.655 59
7 -5 -4 4229.91 368.399 59
7 -5 -3 1086.4 249.034 59
7 -5 -3 1333.98 302.9 56
7 -5 -2 372.073 195.889 59
7 -5 -2 -140.146 241.593 56
-7 5 1 -247.813 365.136 34
7 -5 -1 208.136 174.01 59
7 -5 -1 39.8129 243.629 56
7 -5 0 9145.88 639.559 58
7 -5 0 8480.64 620.732 56
7 -5 1 3101.84 407.828 58
7 -5 1 2840.84 384.821 56
7 -5 2 5260.75 470.379 58
7 -5 2 4792.05 441.324 56
7 -5 3 20109.6 792.908 58
7 -5 3 18365.4 759.467 56
7 -5 4 11287.3 543.987 58
7 -5 4 9996.01 489.358 56
7 -5 5 2.72402 113.138 58
-7 5 -5 253.821 128.702 16
7 -4 -5 509.035 171.796 59
7 -4 -4 655.988 239.088 59
7 -4 -3 9723.34 620.837 59
7 -4 -3 9298.44 656.612 56
7 -4 -2 10063.2 626.424 59
7 -4 -2 10311.5 708.152 56
7 -4 -1 12781.5 690.939 59
7 -4 -1 13393 753.851 58
7 -4 -1 13346.1 803.9 56
-7 4 0 -170.765 381.739 35
7 -4 0 -118.567 163.66 59
7 -4 0 21.2279 247.284 58
7 -4 0 282.994 295.559 57
7 -4 0 355.199 272.109 56
7 -4 1 15975 828.956 58
7 -4 1 16918 823.755 57
7 -4 1 15264.7 813.48 56
-7 4 -2 3455.7 834.998 41
7 -4 2 3880.45 459.939 58
7 -4 2 4041.51 432.659 57
7 -4 2 3973.95 439.152 56
7 -4 3 19362.5 876.455 58
7 -4 3 20692.6 875.077 56
-7 4 -4 25213.1 969.725 38
7 -4 4 26112 889.593 56
7 -4 5 5408.67 422.396 58
-7 4 -5 4566.6 368.925 24
7 -4 6 6097.21 356.219 58
-7 4 -6 6561.53 378.397 16
-7 4 -6 5804.28 344.009 24
7 -3 -5 571.045 176.756 59
7 -3 -4 5333.73 433.122 59
7 -3 -3 15936.6 781.529 59
-7 3 2 19607.5 2257.13 46
7 -3 -2 21475 923.306 59
7 -3 -2 23209.2 892.212 57
7 -3 -2 22224.4 1000.48 56
7 -3 -2 20995 834.968 53
-7 3 1 2193.91 680.093 32
7 -3 -1 3512.69 402.695 59
7 -3 -1 2811.06 392.068 58
7 -3 -1 3645.08 440.196 57
7 -3 -1 2681.14 403.27 56
-7 3 0 5892.52 1096.68 47
7 -3 0 6878.59 513.535 59
7 -3 0 7734.87 599.692 58
7 -3 0 7550.81 590.329 57
7 -3 0 7257.2 598.439 56
7 -3 1 45261.4 1368.56 58
7 -3 1 44643.7 1325.59 57
7 -3 1 44028.7 1401.56 56
-7 3 -2 1468.56 688.503 48
-7 3 -2 637.342 511.26 41
7 -3 2 698.806 280.126 58
7 -3 2 522.582 261.009 57
7 -3 2 619.898 232.6 56
-7 3 -3 2544.75 826.077 41
-7 3 -3 2562.05 810.427 36
7 -3 3 2306.63 392.855 58
7 -3 3 1461.97 304.467 57
7 -3 3 1763.1 328.733 56
-7 3 -4 -245.292 381.844 41
-7 3 -4 316.127 222.178 38
-7 3 -4 -103.831 325.532 37
7 -3 4 -47.218 249.73 58
-7 3 -5 24098.8 1021.76 38
7 -3 5 24008.1 968.132 58
-7 3 -6 540.475 205.337 38
7 -3 6 185.136 196.081 58
7 -3 7 1981.83 231.016 58
-7 3 -7 2008.38 236.517 24
7 -2 -5 770.987 223.621 59
7 -2 -4 4615.35 416.368 59
-7 2 4 4629.08 623.263 3
7 -2 -3 14495.7 757.179 59
7 -2 -3 14874.8 644.518 53
-7 2 2 438.642 550.019 46
7 -2 -2 801.849 297.02 59
7 -2 -2 914.16 263.315 57
7 -2 -2 1065.55 347.518 56
7 -2 -2 1045.99 289.992 53
-7 2 1 -631.015 696.682 46
7 -2 -1 231.702 240.874 59
7 -2 -1 215.286 272.227 57
7 -2 -1 123.057 216.815 56
7 -2 -1 -129.402 264.777 53
-7 2 0 14509.7 1825.98 32
7 -2 0 14021.1 736.655 59
7 -2 0 16467.2 795.31 58
7 -2 0 15465.5 788.471 57
7 -2 0 14672.5 812.243 56
7 -2 0 14227 794.951 53
-7 2 -1 2663.1 623.175 48
7 -2 1 3285.81 369.436 59
7 -2 1 3404.73 420.744 58
7 -2 1 3771.75 435.357 57
7 -2 1 3517.56 427.274 56
7 -2 1 3963.35 478.373 53
-7 2 -2 -266.569 495.644 36
7 -2 2 386.844 248.876 58
7 -2 2 -103.687 266.571 57
7 -2 2 217.72 189.875 56
-7 2 -3 25529.2 2250.04 37
-7 2 -3 25858.2 2348.36 36
7 -2 3 28582.5 1102.36 58
7 -2 3 27110 1035.86 57
-7 2 -4 9904.47 1407.06 37
-7 2 -4 10806.4 1578.38 36
7 -2 4 11335.4 727.533 58
7 -2 4 10979.8 654.844 57
-7 2 -5 24898.6 2321.66 41
-7 2 -5 24994.3 2243.21 37
-7 2 -5 23967.3 2296.99 36
7 -2 5 28720.2 1108.03 58
-7 2 -6 8740.02 1309.85 41
-7 2 -6 9578.24 667.838 38
-7 2 -6 9642.82 1360.3 37
7 -2 6 10562.3 668.739 58
-7 2 -7 6355.53 492.693 38
7 -2 7 7866.46 511.712 58
7 -2 8 460.925 162.292 58
-7 2 -8 655.965 175.666 24
7 -1 -5 7495.22 354.989 54
7 -1 -4 5.62241 205.317 59
-7 1 4 116.775 394.261 3
7 -1 -3 2514.01 370.513 59
7 -1 -3 2639.34 326.833 53
-7 1 3 2672.22 589.093 3
-7 1 2 19861.4 2290.2 46
7 -1 -2 24051.1 992.831 59
7 -1 -2 21534.7 861.616 53
-7 1 1 9.76547 628.595 46
7 -1 -1 158.45 223.692 59
7 -1 -1 384.658 264.997 57
7 -1 -1 230.915 233.359 56
7 -1 -1 325.854 263.53 53
7 -1 0 7742.23 567.266 59
7 -1 0 6743.46 539.894 57
7 -1 0 6922.48 551.366 56
7 -1 0 6421.2 555.844 53
-7 1 -1 30209.4 2353.16 31
7 -1 1 31267.2 1045.72 59
7 -1 1 33529 1077.67 58
7 -1 1 33627.2 1123.07 57
7 -1 1 31538.3 1089.36 56
7 -1 1 33265 1140.92 53
-7 1 -2 -478.568 680.864 44
7 -1 2 218.087 229.19 58
7 -1 2 127.86 236.66 57
7 -1 2 21.1136 394.231 55
7 -1 2 65.0369 313.296 53
-7 1 -3 50956.8 3390.83 44
7 -1 3 56074.8 1485.72 58
7 -1 3 52446.8 1426.04 57
7 -1 3 47829.8 2905.18 55
-7 1 -4 18697.8 2022.97 42
-7 1 -4 20284.3 2155.35 36
7 -1 4 22028.4 978.271 58
7 -1 4 21187.4 912.076 57
-7 1 -5 1329.52 625.237 42
-7 1 -5 2101.01 836.422 37
-7 1 -5 2068.41 780.892 36
7 -1 5 2850.88 418.676 58
-7 1 -6 8591.94 1410.47 37
-7 1 -6 7999.66 1353.36 36
7 -1 6 10161.8 692.883 58
-7 1 -7 1231.6 601.447 37
-7 1 -7 899.772 228.774 25
7 -1 7 1125.87 306.014 58
-7 1 -8 4709.01 417.273 38
-7 1 -8 5051.17 368.334 25
7 -1 8 5147.37 408.561 58
7 -1 9 2233.58 207.472 58
-7 1 -9 2658.31 242.334 24
-7 0 5 1477.92 383.499 19
7 0 -5 1019.57 165.048 54
7 0 -4 989.415 286.245 59
-7 0 4 1000.08 394.669 3
7 0 -4 1632.36 238.82 54
-7 0 3 12653.5 1952.22 28
-7 0 3 10944.1 1857 2
7 0 -3 10908 668.386 59
-7 0 3 11604.5 897.549 3
7 0 -3 11515.3 576.66 54
7 0 -3 10379.2 562.216 53
-7 0 2 3118.39 863.505 46
7 0 -2 3491.77 449.532 59
-7 0 2 2987.43 1184.49 2
7 0 -2 4010.17 408.391 53
-7 0 2 4259.75 589.593 3
7 0 -1 45572.2 1351.17 59
7 0 -1 43258.2 1158.86 57
-7 0 1 43654.4 1496.28 3
7 0 -1 42367.8 1262.95 53
-7 0 0 132046 5406.38 31
7 0 0 140831 2376.56 59
7 0 0 139312 2233.23 57
7 0 0 134744 2268.85 56
7 0 0 141759 2329.33 53
7 0 0 138849 4870.62 52
-7 0 -1 9764.88 1491.42 45
-7 0 -1 9774.58 1394.74 31
7 0 1 9734.02 609.076 57
7 0 1 9776.49 620.336 59
7 0 1 10493.8 659.926 53
7 0 1 9472.52 1285.61 52
-7 0 -2 26944.6 2436.11 45
-7 0 -2 28720 2179.72 30
7 0 2 28337.9 961.169 59
7 0 2 30168 1066.38 57
7 0 2 30504.4 1048.22 53
7 0 2 31490.2 2232.58 52
-7 0 -3 6866.53 1387.61 44
7 0 3 8403.59 573.864 58
7 0 3 7918.92 571.384 57
7 0 3 7064.16 1102.09 55
7 0 3 8703.18 589.196 53
7 0 4 659.501 292.588 21
-7 0 -4 -449.324 723.413 44
-7 0 -4 1052.53 734.755 43
7 0 4 195.079 224.636 58
7 0 4 172.082 232.027 57
-7 0 -5 55031.4 3359.86 43
-7 0 -5 56208.1 3606.44 42
7 0 5 58850.7 1577.28 58
7 0 5 50436.6 1362.49 57
7 0 5 56509 1611.39 21
7 0 6 176.37 298.186 21
-7 0 -6 -262.95 601.764 42
-7 0 -6 -161.748 538.995 37
-7 0 -6 -324.63 511.216 36
7 0 6 137.184 261.392 58
-7 0 -7 13629.5 1746.97 37
7 0 7 12688.1 761.197 58
7 0 7 11039.2 750.729 21
-7 0 -8 2795.41 775.675 37
-7 0 -8 3390.41 379.825 25
7 0 8 3580.73 410.112 58
-7 0 -9 2866.57 284.258 25
7 0 9 2853.44 310.496 58
7 1 -5 4745.98 259.483 54
-7 -1 4 8377.55 707.798 19
7 1 -4 8522.21 446.865 54
7 1 -4 8322.11 403.476 53
-7 -1 3 10181.8 1743.72 28
-7 -1 3 9108.48 792.33 3
7 1 -3 9576.08 640.928 59
7 1 -3 9207.68 539.284 54
7 1 -3 8491.73 509.03 53
-7 -1 2 -367.956 1006.92 2
-7 -1 2 924.494 912.301 28
7 1 -2 675.742 354.513 59
7 1 -2 -10.8041 199.838 54
-7 -1 2 1007.15 435.962 3
7 1 -2 363.663 261.595 53
-7 -1 1 1971.73 923.877 28
-7 -1 1 2354.82 1084.88 2
7 1 -1 1730.64 348.489 59
7 1 -1 1460.38 348.076 53
-7 -1 0 376.711 678.07 28
-7 -1 0 -261.343 662.677 2
7 1 0 -9.00821 262.945 59
7 1 0 341.579 210.478 57
7 1 0 221.516 266.788 53
-7 -1 -1 2062.42 890.007 2
7 1 1 948.256 282.232 59
7 1 1 994.642 272.071 57
7 1 1 919.527 290.877 53
7 1 1 1244.26 540.163 52
-7 -1 -2 1759.95 659.276 45
-7 -1 -2 2204.6 816.352 30
7 1 2 2122.01 321.665 59
7 1 2 1939.39 334.763 57
7 1 2 1906.7 367.865 53
7 1 2 1251.09 581.411 52
-7 -1 -3 5628.73 1310.32 45
-7 -1 -3 4341.39 915.081 30
7 1 3 4337.39 446.457 57
7 1 3 4942.72 460.675 53
7 1 3 4517.3 862.194 52
7 1 4 302.82 262.987 21
-7 -1 -4 330.656 617.794 43
7 1 4 -64.3383 188.588 58
7 1 4 -151.184 255.33 57
7 1 4 532.609 263.543 53
-7 -1 -5 11705.9 1879.9 44
-7 -1 -5 12860.2 1848.56 43
-7 -1 -5 11897.2 1827.51 42
7 1 5 12391.3 717.339 58
7 1 5 11046.1 672.724 57
7 1 5 11719.9 765.758 21
-7 -1 -6 16231.4 2049.62 42
-7 -1 -6 16528.2 874.297 40
7 1 6 16717.1 858.812 58
7 1 6 14406.5 716.676 57
7 1 6 17222 932.142 21
-7 -1 -7 11151.3 1684.42 42
-7 -1 -7 8171.78 1421.84 37
-7 -1 -7 7649.17 1350.27 36
7 1 7 9717.63 688.293 58
7 1 7 9322.93 716.429 21
7 1 8 -11.8341 280.696 21
7 1 8 40.7579 243.634 58
-7 -1 -8 -1.03125 187.006 15
-7 -1 -9 14015.1 692.703 25
7 1 9 13169.2 657.984 58
-7 -1 -9 12971.8 602.572 15
7 1 10 13029 504.402 58
-7 -1 -10 12196.1 459.506 24
-7 -2 4 2657.1 371.29 19
7 2 -4 2607.72 255.393 54
7 2 -4 2191.69 203.34 53
-7 -2 3 315.877 350.23 19
-7 -2 3 379.779 751.004 28
7 2 -3 645.659 225.444 54
7 2 -3 822.734 229.275 53
-7 -2 2 3418.87 1136.32 2
-7 -2 2 4219.2 1320.25 28
7 2 -2 4566.96 427.339 54
7 2 -2 4221.24 426.166 53
-7 -2 1 15546.5 2046.66 2
-7 -2 1 17473.9 2118.7 28
7 2 -1 16573.1 931.454 59
7 2 -1 17252.4 744.515 54
7 2 -1 17867.7 845.054 53
-7 -2 0 12746.6 1741.14 2
-7 -2 0 11993 1698.76 28
7 2 0 11837 785.648 59
7 2 0 12339.6 724.886 53
-7 -2 -1 19641.4 1964.02 2
-7 -2 -1 18628.7 1875.63 28
7 2 1 21551.7 966.603 59
7 2 1 20146.4 829.956 57
7 2 1 20933.1 883.653 53
7 2 1 19718.8 1820.66 52
-7 -2 -2 67656.1 3777.55 45
-7 -2 -2 72911.8 3777.66 30
7 2 2 64085.6 1611.28 59
7 2 2 68960.9 1555.28 57
7 2 2 67076.2 1526.65 53
7 2 2 65747.6 3186.08 52
-7 -2 -3 5521.32 1279.74 45
-7 -2 -3 5268.32 1109.15 30
7 2 3 5575.11 523.298 59
7 2 3 5899.99 498.845 57
7 2 3 5637.02 462.586 53
7 2 3 6408.21 1026.15 52
-7 -2 -4 3256.76 1133.62 44
-7 -2 -4 2987.1 1007.56 39
-7 -2 -4 3118.67 1087.96 29
7 2 4 3061.18 405.453 57
7 2 4 2830.33 350.358 53
7 2 4 3495.38 714.648 52
-7 -2 -5 101900 5262.1 44
-7 -2 -5 90919 4944.46 43
-7 -2 -5 90992.9 4173.23 39
-7 -2 -5 97779.4 4458.48 29
7 2 5 90359.6 1884.38 57
7 2 5 90946.7 1922.22 21
7 2 6 2607.37 406.899 21
-7 -2 -6 2621.13 1032.98 43
-7 -2 -6 2753.85 1093.74 42
-7 -2 -6 2705.98 509.481 40
7 2 6 2267.66 365.144 58
7 2 6 2337.86 357.29 57
7 2 7 268.084 302.514 21
-7 -2 -7 -534.861 706.92 42
-7 -2 -7 -158.683 278.743 40
7 2 7 5.33585 233.506 58
-7 -2 -7 -261.329 238.138 14
7 2 8 1562.28 371.984 21
-7 -2 -8 1993.7 767.279 37
7 2 8 1599.18 328.468 58
-7 -2 -8 1228.33 287.447 14
7 2 9 3347.63 414.693 21
-7 -2 -9 3192.29 792.096 37
-7 -2 -9 3325.13 420.636 25
7 2 9 3240.39 383.964 58
-7 -2 -9 3282.58 387.644 15
-7 -2 -9 3230.26 340.712 14
-7 -2 -10 3748.72 342.581 25
7 2 10 3340.6 316.35 58
-7 -2 -10 3635.92 314.254 15
7 3 -4 3209.43 231.689 54
-7 -3 4 1943.22 390.765 22
-7 -3 3 11981.8 875.686 4
7 3 -3 11436.7 537.959 54
7 3 -3 11876.3 525.541 53
-7 -3 2 -1150.55 528.035 4
-7 -3 2 159.403 878.923 28
7 3 -2 172.872 208.327 54
7 3 -2 -50.9852 234.237 53
-7 -3 1 11943.9 1754.04 28
7 3 -1 14729.7 721.981 54
7 3 -1 14867.4 765.208 53
-7 -3 1 12410.2 1861.59 2
-7 -3 0 91867.1 4564.04 2
-7 -3 0 99818.9 4596.72 28
7 3 0 97446.9 1769.53 54
7 3 0 93954 1889.11 53
-7 -3 -1 194.149 741.808 2
-7 -3 -1 -1089.5 914.96 30
-7 -3 -1 1.7328 784.165 28
7 3 1 -199.162 222.215 57
7 3 1 -24.7342 265.156 53
-7 -3 -2 3126.66 890.082 45
-7 -3 -2 3666.49 1083.58 30
7 3 2 2373.41 374.076 16
7 3 2 2163.16 326.129 57
7 3 2 2154.15 350.664 53
7 3 2 2475.66 744.948 52
-7 -3 -3 2579.33 1037.72 45
7 3 3 3864.84 443.674 10
-7 -3 -3 3129.54 1009.84 30
7 3 3 4257.04 478.632 16
7 3 3 3958.83 437.975 57
7 3 3 4433.95 424.192 53
7 3 3 3959.57 786.664 52
-7 -3 -4 6818.14 1362.07 45
7 3 4 10218.9 672.822 10
-7 -3 -4 10789.7 1646.02 30
-7 -3 -4 10219 1718.86 29
7 3 4 9716.35 640.89 57
7 3 4 9805.04 551.31 53
7 3 4 9026.74 1150.96 52
-7 -3 -5 8794.8 1675.17 44
-7 -3 -5 9935.17 1743.19 43
-7 -3 -5 10299.7 1588.79 39
7 3 5 10284.2 723.654 10
-7 -3 -5 9192.18 1621.79 29
7 3 5 9475.92 660.146 57
7 3 5 9160.41 639.218 21
-7 -3 -6 11579.5 1846.07 44
-7 -3 -6 10273.4 1732.15 43
-7 -3 -6 8583.53 1446.44 39
7 3 6 10047.7 648.268 57
7 3 6 9392.7 710.248 21
-7 -3 -7 7928.86 1547.5 43
-7 -3 -7 9149.02 1586.79 42
-7 -3 -7 8077.47 718.336 40
7 3 7 8398 586.617 58
7 3 7 7900.92 556.428 57
7 3 7 8941.53 673.387 21
-7 -3 -8 11158.1 1616.84 42
-7 -3 -8 12770.1 803.727 40
-7 -3 -8 9414.78 1503.62 37
7 3 8 10506.4 671.389 58
-7 -3 -8 10854.7 749.306 14
7 3 8 11625.3 780.494 21
-7 -3 -9 5077.83 972.236 37
7 3 9 5396.68 472.989 58
-7 -3 -9 5871.61 559.761 15
-7 -3 -9 6653.04 520.584 14
7 3 9 7261.91 590.099 21
-7 -3 -10 5675.47 433.095 25
7 3 10 5461.96 413.894 58
-7 -3 -10 6404.13 462.928 15
7 3 10 5891.38 451.116 21
-7 -3 -11 9291.94 404.532 25
-7 -3 -11 10070.4 407.903 15
7 4 -3 -109.774 147.211 54
7 4 -3 -113.718 143.254 53
-7 -4 3 199.674 317.378 22
-7 -4 2 505.252 406.043 4
7 4 -2 72.0783 192.907 54
7 4 -2 124.103 210.704 53
-7 -4 1 3470.17 674.671 4
7 4 -1 2758.78 364.513 54
7 4 -1 3180.15 409.799 53
-7 -4 0 5054.54 709.031 4
7 4 0 4875 478.653 54
7 4 0 4446.16 470.266 53
-7 -4 -1 28235.1 1334.18 4
-7 -4 -1 27841.2 2555.09 30
7 4 1 27747.6 958.276 54
7 4 1 26287.7 1002.19 53
-7 -4 -2 1305.42 476.763 4
7 4 2 934.814 292.5 16
7 4 2 958.481 284.285 57
7 4 2 426.908 259.731 53
-7 -4 -3 28871.1 1188.6 4
7 4 3 27578 1022.07 10
-7 -4 -3 28183.4 2616.21 30
7 4 3 26097.8 1085.32 16
7 4 3 29232.1 1055.77 57
7 4 3 28215.4 953.44 53
7 4 3 23472.4 1844.35 52
-7 -4 -4 6859.22 1409.08 45
7 4 4 6179.44 554.892 10
-7 -4 -4 6175.7 1516.65 29
7 4 4 5792.07 573.836 16
7 4 4 6755.75 570.828 57
-7 -4 -4 5751.29 607.522 5
-7 -4 -5 16780 2206.66 44
-7 -4 -5 15082.2 1993.01 39
7 4 5 17824.6 902.852 10
-7 -4 -5 15296.1 2067.43 29
7 4 5 17293 855.826 57
-7 -4 -6 14631.8 2019.99 44
-7 -4 -6 12605.4 1924.33 43
-7 -4 -6 13743.3 1845.6 39
7 4 6 14568 845.843 10
7 4 6 14164.4 779.077 57
7 4 6 13407.1 766.499 21
-7 -4 -7 20826.4 2268 43
-7 -4 -7 17506.1 2108.9 42
-7 -4 -7 19137.4 1085.45 40
-7 -4 -7 16431.8 1906.09 39
7 4 7 16994.4 832.468 57
7 4 7 18190.8 896.106 21
-7 -4 -8 38278.5 2855.81 42
-7 -4 -8 41517.4 1463.04 40
7 4 8 37918.4 1171.44 58
7 4 8 37425.7 1097.29 57
-7 -4 -8 40291.2 1480.05 14
7 4 8 42104.6 1357.77 21
7 4 9 11797.4 652.542 58
-7 -4 -9 13153.2 776.45 14
-7 -4 -10 13764.1 668.052 25
7 4 10 12624.7 603.729 58
-7 -4 -10 14283.5 710.986 15
-7 -4 -10 14752.8 690.777 14
7 4 10 15067.5 704.335 21
7 4 11 1873.4 218.449 21
-7 -4 -11 1674.22 199.707 25
7 4 11 1541.89 203.472 58
-7 -4 -11 2064.85 237.346 15
7 5 -2 606.201 195.85 53
-7 -5 2 400.074 335.834 22
-7 -5 1 30565.7 1335.22 4
7 5 -1 30709 940.312 54
-7 -5 1 28183.7 1341.27 22
7 5 -1 29607.4 921.351 53
-7 -5 0 963.9 500.977 4
7 5 0 743.983 263.952 54
7 5 0 809.4 288.714 53
-7 -5 0 135.309 362.878 22
-7 -5 -1 13382.3 971.703 4
7 5 1 12864 692.792 16
7 5 1 13716.7 712.359 54
7 5 1 12713.9 711.302 53
-7 -5 -2 26707.1 1303.33 4
-7 -5 -2 24638 2446.35 30
7 5 2 24881.4 1033.26 16
7 5 2 25378.9 951.331 53
-7 -5 -3 225.206 391.37 4
-7 -5 -3 -556.85 911.477 30
7 5 3 451.586 263.374 10
7 5 3 242.382 284.674 16
7 5 3 236.591 237.34 57
7 5 3 113.79 215.991 53
7 5 4 11681.2 716.635 10
-7 -5 -4 12187.2 1832.42 29
7 5 4 10317.2 745.316 16
7 5 4 11670.6 698.145 57
-7 -5 -4 11540.1 839.969 5
-7 -5 -5 17343.7 2193.01 44
7 5 5 20473 977.687 10
-7 -5 -5 21161.9 2469.3 29
7 5 5 18781.9 958.427 16
7 5 5 19614.7 917.527 57
-7 -5 -5 17945.2 969.733 5
-7 -5 -6 18532.1 2217.21 44
-7 -5 -6 19274 2296.72 43
-7 -5 -6 20310.7 2261.34 39
7 5 6 20902.8 984.787 10
-7 -5 -6 15908.1 960.916 6
7 5 6 21589 967.879 57
7 5 7 2978.38 418.634 21
-7 -5 -7 2682.6 912.176 43
-7 -5 -7 2805.17 881.813 42
-7 -5 -7 3481.23 1041.63 39
7 5 7 3486.19 492.06 10
7 5 7 3650.26 448.803 57
-7 -5 -8 15244.8 1789.46 42
-7 -5 -8 16252.1 945.153 40
7 5 8 16222.6 766.284 57
7 5 8 17572 875.621 21
-7 -5 -9 46579.3 1406.35 40
-7 -5 -9 45907.8 1449.07 14
7 5 9 46889.1 1367.39 21
-7 -5 -10 13092.8 633.466 25
7 5 10 12560 571.162 58
-7 -5 -10 13237.6 705.387 15
-7 -5 -10 15085.1 722.846 14
7 5 10 14405.7 706.969 21
-7 -5 -11 2904.91 249.045 25
7 5 11 2950.35 250.133 58
-7 -5 -11 2950.06 288.899 15
7 5 11 3615.17 311.97 21
7 6 -2 6211.34 270.712 53
-7 -6 1 1810.07 344.904 5
7 6 -1 2523.94 273.007 53
-7 -6 1 1959.27 407.486 22
-7 -6 0 5274.37 630.8 4
-7 -6 0 4085.26 566.781 22
7 6 0 6067.93 458.412 53
-7 -6 -1 1130.78 469.359 4
-7 -6 -1 1071.54 814.259 29
7 6 1 1087.16 251.184 16
7 6 1 1366 297.264 53
-7 -6 -1 1068.06 381.142 22
-7 -6 -2 50.6357 433.166 4
-7 -6 -2 121.671 792.019 29
7 6 2 444.331 241.011 16
7 6 2 349.574 262.972 53
-7 -6 -2 134.397 302.297 22
7 6 3 4729.95 436.601 10
-7 -6 -3 6005.31 1476.63 29
7 6 3 4686.73 516.396 16
7 6 3 5225.33 448.291 57
7 6 3 5044.43 429.637 53
-7 -6 -3 6732.85 757.587 5
7 6 4 12549.2 742.564 10
-7 -6 -4 13955.8 2083.33 29
7 6 4 11909.1 772.651 16
7 6 4 12292 700.064 57
-7 -6 -4 12114.1 907.439 5
7 6 5 29717.6 1149.91 10
-7 -6 -5 31428.9 2981.67 29
7 6 5 28834.8 1171.8 16
7 6 5 30952.7 1127.62 57
-7 -6 -5 30021.5 1292.44 5
-7 -6 -6 363.117 708.007 44
-7 -6 -6 1201.31 807.496 43
-7 -6 -6 1019.36 738.54 39
7 6 6 642.791 368.451 10
7 6 6 957.905 345.39 16
7 6 6 875.474 336.31 57
-7 -6 -6 725.307 352.586 6
-7 -6 -7 4115.23 968.302 43
-7 -6 -7 4195.83 1073.68 42
-7 -6 -7 7224.35 1360.43 39
7 6 7 6879.2 625.349 10
-7 -6 -7 5823.21 562.385 6
7 6 7 6044.98 543.651 57
7 6 7 6145.81 521.35 21
-7 -6 -8 27625.3 1178.66 40
7 6 8 28951.6 1088.34 10
7 6 8 28430.2 1016.19 57
7 6 8 29151.7 1064.99 21
-7 -6 -9 5444.38 501.357 40
7 6 9 5483.11 420.964 57
-7 -6 -9 4734.92 495.13 14
7 6 9 5015.28 466.642 21
-7 -6 -10 10789.4 606.778 15
-7 -6 -10 11810.6 643.137 14
7 6 10 12462.9 652.964 21
-7 -6 -11 8936.92 450.132 15
-7 -6 -11 9702.99 475.346 14
7 6 11 9433.67 462.573 21
-7 -7 0 3832.45 420.663 5
-7 -7 0 3378.17 412.773 22
7 7 0 3920.01 303.057 53
7 7 1 5859.29 434.604 16
-7 -7 -1 6477.25 563.681 22
7 7 1 6936.76 441.27 53
-7 -7 -1 6526.01 604 5
7 7 2 16505.7 793.022 16
-7 -7 -2 16389.5 886.533 22
7 7 2 17155.5 689.389 53
-7 -7 -2 17405.4 978.56 5
-7 -7 -3 5712.98 1313.4 29
7 7 3 5595.39 542.145 16
7 7 3 5277.42 405.696 53
-7 -7 -3 5904.19 704.394 5
7 7 4 10828.7 670.114 10
-7 -7 -4 12002.1 1812.43 29
7 7 4 12866.4 787.134 16
7 7 4 13243.3 691.948 57
-7 -7 -4 12888.1 911.272 5
-7 -7 -5 11554.5 1857.46 39
7 7 5 13479.1 764.706 10
7 7 5 13684.9 823.669 16
7 7 5 13903.6 757.684 57
-7 -7 -5 14690.2 970.158 5
-7 -7 -6 -522.041 623.436 43
-7 -7 -6 957.244 755.839 39
7 7 6 230.891 303.633 10
7 7 6 257.065 283.102 16
7 7 6 322.743 274.438 57
-7 -7 -6 392.069 354.167 6
-7 -7 -7 8715.6 1341.9 43
-7 -7 -7 8221.16 719.782 40
-7 -7 -7 8725.65 1418.42 39
7 7 7 10099.1 680.816 10
-7 -7 -7 8166.45 695.084 6
7 7 7 9801.68 647.099 57
-7 -7 -8 21267.1 996.724 40
7 7 8 23099 946.714 10
-7 -7 -8 21330.8 920.242 6
7 7 8 22404.5 895.629 57
7 7 8 20623.7 841.825 21
7 7 9 214.218 221.352 21
-7 -7 -9 234.197 209.818 40
7 7 9 230.637 194.846 57
-7 -7 -9 -53.0441 224.738 14
7 7 10 6851.98 356.821 57
-7 -7 -10 6157.54 443.645 15
-7 -7 -10 6691.55 469.331 14
7 7 10 6400.11 457.653 21
7 7 11 -112.826 138.311 21
-7 -7 -11 91.9739 101.019 15
-7 -7 -11 117.385 115.574 14
7 8 1 9092.34 398.259 16
-7 -8 -1 9509.07 509.022 22
7 8 1 10092.9 399.974 53
-7 -8 -2 182.727 276.114 5
7 8 2 357.112 199.668 16
7 8 2 396.199 161.163 53
-7 -8 -2 693.623 252.752 22
7 8 3 25341.9 927.95 16
-7 -8 -3 26361.2 1105.08 5
7 8 4 29004.2 971.091 10
7 8 4 30534.7 1098.29 16
-7 -8 -4 31374.2 1292.82 5
7 8 5 3453.73 407.388 10
7 8 5 3708.07 462.393 16
7 8 5 3380.41 373.606 57
-7 -8 -5 2627.66 518.363 6
-7 -8 -5 4064.95 559.372 5
-7 -8 -6 22203.6 2178.16 39
7 8 6 26701.4 1035.52 10
-7 -8 -6 25147.5 1205.85 6
7 8 6 25941.1 1036.15 16
7 8 6 29581.1 1025.71 57
-7 -8 -7 4081.36 454.018 40
-7 -8 -7 3359.57 918.214 39
7 8 7 4651.59 464.065 10
-7 -8 -7 4739.69 528.622 6
7 8 7 4691.73 462.948 57
-7 -8 -8 197.633 220.955 40
7 8 8 168.407 242.719 10
-7 -8 -8 51.0653 202.115 6
7 8 8 347.935 256.635 57
-7 -8 -9 46508.5 1200.65 40
7 8 9 47800.7 1163.45 10
-7 -8 -9 46043 1117.99 6
-7 -8 -9 44685.1 1238.86 14
7 8 9 46385.6 1116.28 21
7 8 10 12643.1 473.823 57
-7 -8 -10 12454.9 560.094 14
7 8 10 13053.2 565.818 21
7 8 11 12908.7 466.245 21
7 9 2 498.759 133.853 16
-7 -9 -2 234.265 133.616 6
7 9 3 1157.06 229.289 16
-7 -9 -3 940.193 254.032 6
7 9 4 262.452 212.33 16
-7 -9 -4 337.399 248.588 6
7 9 5 7208.24 478.672 10
-7 -9 -5 7147.44 594.947 6
7 9 5 7233.53 529.054 16
7 9 5 6538.25 386.485 57
7 9 6 455.713 238.798 10
7 9 6 87.0537 227.049 16
-7 -9 -6 216.309 275.094 6
7 9 6 154.419 198.831 57
7 9 7 5057.7 428.84 10
-7 -9 -7 5772.29 519.663 6
7 9 7 5359.45 433.663 57
7 9 8 710.197 228.192 10
-7 -9 -8 594.68 217.003 6
7 9 8 892.816 229.606 57
7 9 9 656.197 182.822 10
-7 -9 -9 647.819 186.383 6
7 9 9 700.437 204.946 57
-7 -9 -9 625.24 180.949 14
7 9 10 3798.92 251.812 57
7 9 10 3494.03 253.139 21
-7 -10 -4 3929.83 284.887 6
7 10 4 4423.32 308.009 16
7 10 5 50.5098 144.834 16
-7 -10 -5 322.96 150.832 6
-7 -10 -6 20784 772.489 6
7 10 6 15032.1 467.149 57
7 10 7 2552.81 274.877 10
-7 -10 -7 2492.6 291.538 6
-7 -10 -8 1070.27 194.321 6
7 10 8 1514.92 203.028 57
-7 -10 -9 1228.53 169.48 6
7 10 9 1170.04 172.769 57
8 -6 -2 1221.32 190.275 56
8 -6 -1 5922.75 373.963 56
8 -6 0 5943.12 377.632 56
8 -6 1 18252.7 606.162 56
8 -6 2 -135.786 95.8764 56
8 -5 -4 5118.12 284.276 59
8 -5 -3 2493.78 248.998 59
8 -5 -2 1173.03 193.95 59
8 -5 -2 1491.88 245.578 56
8 -5 -1 2540.72 243.906 59
8 -5 -1 3323.53 345.765 56
8 -5 0 4614.17 398.566 56
8 -5 1 -211.029 191.565 58
8 -5 1 -112.679 155.9 56
8 -5 2 4705.57 382.613 58
8 -5 2 4041.52 338.542 56
8 -5 3 22432.5 720.663 58
8 -5 3 19470.4 606.315 56
8 -5 4 3027.25 245.732 58
8 -4 -4 7702.84 393.398 59
8 -4 -3 19.2917 157.661 59
8 -4 -2 4548.17 386.398 59
8 -4 -2 5126.69 454.062 56
8 -4 -1 3437.61 335.286 59
8 -4 -1 3588.24 388.922 56
8 -4 0 -118.29 196.984 58
8 -4 0 62.5764 189.357 56
8 -4 1 4957.95 450.085 58
8 -4 1 5424.23 458.723 56
8 -4 2 5394.01 467.789 58
8 -4 2 4696.8 408.187 56
8 -4 3 1645 284.611 58
8 -4 3 1492.81 235.701 56
8 -4 4 16905.4 683.367 58
8 -4 5 418.858 160.385 58
8 -3 -4 6055.21 381.425 59
8 -3 -3 1014.95 239.536 59
8 -3 -2 464.39 227.898 59
8 -3 -1 2397.23 336.198 59
8 -3 -1 2533.45 357.192 56
8 -3 0 12975.9 653.468 59
8 -3 0 14449.3 739.859 58
8 -3 0 15380 758.161 57
8 -3 0 14324.1 746.739 56
8 -3 1 11112.9 661.606 58
8 -3 1 11017.8 668.865 57
8 -3 1 10694.5 647.152 56
8 -3 2 16162.3 794.687 58
8 -3 2 16078.9 786.607 57
8 -3 2 16158.5 771.416 56
8 -3 3 21259.3 900.32 58
8 -3 3 19385.2 808.422 57
8 -3 4 10597.1 630.248 58
8 -3 5 21856.5 810.797 58
8 -3 6 14.93 139.099 58
-8 3 -6 -155.538 145.131 24
8 -2 -4 1945.4 283.311 59
8 -2 -3 36668.4 1036.86 59
8 -2 -2 303.93 240.907 59
8 -2 -2 207.042 226.919 53
8 -2 -1 21196.1 880.555 59
8 -2 -1 21750.5 858.083 57
8 -2 -1 21214 923.754 56
8 -2 -1 21439.1 859.501 53
8 -2 0 1894.71 314.922 59
8 -2 0 1545.92 293.544 58
8 -2 0 2138.65 356.41 57
8 -2 0 1534.11 311.083 56
8 -2 0 1975.5 387.413 53
8 -2 1 3429.69 357.166 59
8 -2 1 4166.84 435.293 58
8 -2 1 4502.66 475.979 57
8 -2 1 3538.73 415.46 56
8 -2 2 571.274 249.903 58
8 -2 2 631.167 305.589 57
8 -2 2 527.742 217.915 56
8 -2 3 7684.99 564.525 58
8 -2 3 7710.21 573.024 57
-8 2 -4 611.421 551.546 41
8 -2 4 247.773 236.748 58
8 -2 4 239.475 209.606 57
-8 2 -5 19183.8 905.41 38
-8 2 -5 17361 1729.39 37
-8 2 -6 -477.649 216.373 38
8 -2 6 370.855 216.526 58
8 -2 7 3773.07 315.101 58
8 -1 -3 1945.56 349.031 59
8 -1 -3 1700.35 233.582 53
-8 1 2 11040.7 1569.32 28
8 -1 -2 9373.48 603.167 59
8 -1 -2 10197.5 560.897 53
8 -1 -1 289.06 256.177 59
8 -1 -1 809.788 256.606 57
8 -1 -1 665.393 285.391 53
8 -1 0 8496.29 588.777 59
8 -1 0 9718.66 614.846 57
8 -1 0 7653.66 576.826 56
8 -1 0 8975.21 622.208 53
8 -1 1 16849.5 786.789 59
8 -1 1 17273 772.911 58
8 -1 1 19133.6 864.596 57
8 -1 1 17888.4 827.428 56
8 -1 1 19079.4 892.504 53
8 -1 2 237.062 207.966 58
8 -1 2 63.9186 251.317 57
8 -1 2 124.436 305.098 53
8 -1 3 3900.96 425.025 58
8 -1 3 4288.2 493.777 57
-8 1 -4 7326 1284.56 37
-8 1 -4 6714.36 1218.22 36
8 -1 4 9803.95 652.255 58
8 -1 4 9978.39 647.944 57
-8 1 -5 1407.64 478.264 42
-8 1 -5 1573.36 694.376 37
8 -1 5 3139.46 412.613 58
8 -1 5 2632.2 329.121 57
-8 1 -6 23677.5 2048.45 37
8 -1 6 26112.5 971.117 58
-8 1 -7 8842.69 562.243 38
-8 1 -7 7623.84 433.164 25
8 -1 8 7140.44 400.496 58
8 0 -3 11465.4 480.311 53
-8 0 2 113.169 569.627 28
8 0 -2 -95.5714 338.721 59
8 0 -2 197.357 212.984 53
-8 0 1 8204 1443.1 28
-8 0 1 8547.24 1429.73 2
8 0 -1 9622.8 655.423 59
8 0 -1 9380.81 612.709 53
8 0 0 74765.8 1706.1 59
8 0 0 73745.1 1580.1 57
8 0 0 72372.5 1651.75 53
-8 0 -1 42.6659 583.021 30
8 0 1 -160.329 263.481 59
8 0 1 68.031 241.669 57
8 0 1 312.651 287.694 53
8 0 2 12406.3 684.883 59
8 0 2 13920.2 757.451 57
8 0 2 13985.9 772.447 53
-8 0 -3 56267.7 3765.35 44
-8 0 -3 53188.4 3472.07 43
8 0 3 69809.3 1575.48 58
8 0 3 69674.5 1674.28 57
8 0 3 69121.7 1609.38 53
-8 0 -4 25810.4 2510.02 44
8 0 4 28594.1 1047.76 58
8 0 4 28674.3 1068.92 57
-8 0 -5 1357.97 685.207 42
-8 0 -5 1091.01 608.777 36
8 0 5 1714.09 333.968 58
8 0 5 1245.79 338.984 57
-8 0 -6 -431.286 556.452 42
-8 0 -6 -29.968 420.145 37
8 0 6 -18.5628 238.171 58
-8 0 -7 3957.74 932.223 37
8 0 7 4789.77 434.99 58
-8 0 -8 8580.62 483.042 25
8 0 8 10036.4 540.193 58
8 0 9 419.214 133.194 58
-8 0 -9 368.137 139.858 24
8 1 -3 3834.63 297.613 53
8 1 -2 346.615 208.998 53
-8 -1 1 27834.7 2424.4 2
-8 -1 1 29782.4 2449.38 28
8 1 -1 32604.3 1225.97 59
8 1 -1 35416.1 1091.25 53
-8 -1 0 2822.96 1025.75 2
8 1 0 2755.74 485.766 59
8 1 0 2374.63 330.285 57
8 1 0 2026.56 390.007 53
8 1 1 17386 884.132 59
8 1 1 17750 807.03 57
8 1 1 16958.4 823.383 53
-8 -1 -2 -619.207 602.779 30
8 1 2 354.022 376.646 59
8 1 2 321.347 271.776 57
8 1 2 31.0371 283.236 53
-8 -1 -3 6102.6 1289.3 44
-8 -1 -3 3919.46 1051.72 30
-8 -1 -3 5482.81 1166.15 29
8 1 3 7844.86 599.456 57
8 1 3 7290.66 562.78 53
-8 -1 -4 756.175 586.836 44
-8 -1 -4 940.516 654.025 43
8 1 4 750.714 307.642 57
8 1 4 1648.18 333.524 53
-8 -1 -5 1187.62 820.265 44
-8 -1 -5 -731.438 515.87 43
-8 -1 -5 334.639 568.773 42
8 1 5 42.9418 196.59 58
8 1 5 97.84 255.18 57
8 1 5 390.858 255.414 21
8 1 6 564.444 323.213 21
8 1 6 465.208 239.998 58
8 1 6 199.564 208.862 57
-8 -1 -7 9450.78 1396.42 42
-8 -1 -7 7516.97 1280.79 37
8 1 7 9507.7 603.912 58
8 1 7 10149.2 678.422 21
8 1 8 7459.8 507.061 58
-8 -1 -8 6469.21 424.261 15
-8 -1 -9 7910.51 445.877 25
8 1 9 7685.58 425.623 58
8 2 -3 681.934 142.327 54
8 2 -3 511.239 138.422 53
8 2 -2 10295.1 474.174 54
8 2 -2 11279.1 542.182 53
-8 -2 1 3549.38 922.662 28
8 2 -1 3462.47 393.314 53
-8 -2 0 529.274 734.751 2
-8 -2 0 271.871 720.968 28
8 2 0 264.765 273.153 53
-8 -2 -1 19869.6 2155.17 30
8 2 1 22602.6 1060.68 59
8 2 1 22144 862.732 57
8 2 1 21016.5 904.927 53
-8 -2 -2 7564.27 1414.15 30
8 2 2 8711.88 599.649 57
8 2 2 8692.73 612.825 53
-8 -2 -3 1544.41 813.296 30
-8 -2 -3 -253.07 752.717 29
8 2 3 685.745 295.185 57
8 2 3 300.455 261.857 53
-8 -2 -4 21285.6 2502.11 44
-8 -2 -4 20142 2260.82 29
8 2 4 19655.9 898.957 57
8 2 4 21274.3 843.46 53
-8 -2 -5 17794.5 2261.01 44
-8 -2 -5 19104.7 2289.45 43
8 2 5 19862.5 905.317 57
8 2 5 20792.2 925.539 21
-8 -2 -6 17293.4 2086.7 43
-8 -2 -6 18281.8 2182.81 42
-8 -2 -6 18616.9 973.616 40
8 2 6 19449.7 830.363 58
8 2 6 18408.6 837.166 57
8 2 6 19547.8 913.823 21
-8 -2 -7 54744.3 3457.78 42
-8 -2 -7 51797.1 1426.5 40
8 2 7 55631.1 1417.98 58
8 2 7 48529 1224.19 57
8 2 7 57215.1 1540.98 21
-8 -2 -7 49480.5 1340.07 14
8 2 8 83.373 235.134 21
-8 -2 -8 285.976 382.574 37
8 2 8 -216.619 212.726 58
-8 -2 -8 127.454 166.727 15
-8 -2 -9 15267.1 695.088 25
8 2 9 14342.8 621.275 58
-8 -2 -9 14215.1 609.089 15
8 2 9 15463.9 700.379 21
-8 -2 -10 5377.5 326.735 25
8 2 10 4902.49 294.167 58
-8 -3 3 12672.5 656.775 22
8 3 -2 1449.19 214.81 54
8 3 -2 1479.69 233.226 53
-8 -3 1 4466.93 595.121 4
8 3 -1 4996.17 371.819 54
8 3 -1 4921.52 427.694 53
-8 -3 0 5755.87 663.409 4
8 3 0 6203.01 514.213 53
-8 -3 -1 1841.75 456.514 4
8 3 1 1838.62 365.113 53
-8 -3 -2 1877.62 836.225 30
8 3 2 1417.93 296.448 57
8 3 2 1237.11 335.833 53
-8 -3 -3 15542.8 2044.74 30
-8 -3 -3 16177.6 2129.21 29
8 3 3 16553.3 801.077 57
8 3 3 15831.6 754.62 53
-8 -3 -4 18570.3 2381.84 44
-8 -3 -4 19534.4 2399.82 29
8 3 4 21943.7 949.953 57
8 3 4 19922.2 799.18 53
-8 -3 -5 1273.29 849.407 44
-8 -3 -5 -425.606 835.368 43
-8 -3 -5 5.77135 571.274 39
-8 -3 -5 -914.737 814.846 29
8 3 5 -233.976 260.747 57
8 3 6 1125.92 295.394 21
-8 -3 -6 -213.611 727.884 44
-8 -3 -6 678.471 766.064 43
-8 -3 -6 1344.04 562.364 39
8 3 6 861.395 288.025 57
-8 -3 -7 3689.48 1040.77 43
-8 -3 -7 3122.23 986.723 42
-8 -3 -7 4405.31 525.785 40
8 3 7 4029.13 411.431 57
8 3 7 4936.13 487.101 21
-8 -3 -8 39068.9 2773.52 42
-8 -3 -8 39069.6 1226.55 40
8 3 8 37247.9 1093.41 58
-8 -3 -8 35939.5 1146.07 14
8 3 8 36872.8 1225.12 21
8 3 9 455.548 236.044 21
8 3 9 364.514 176.532 58
-8 -3 -9 386.789 189.849 15
-8 -3 -9 252.768 150.191 14
-8 -3 -10 9211.56 479.675 25
8 3 10 9401.95 426.61 58
-8 -3 -10 9576.79 453.883 15
8 3 10 10525.9 504.774 21
8 4 -2 2267.3 220.885 53
-8 -4 2 1338.56 310.587 22
-8 -4 1 10352.9 762.862 4
8 4 -1 11384.3 541.813 53
-8 -4 1 10180.2 722.067 22
-8 -4 0 3205.16 537.308 4
8 4 0 3580.52 408.159 53
-8 -4 -1 333.216 388.479 4
8 4 1 254.694 245.818 53
-8 -4 -2 1255.8 447.919 4
8 4 2 853.723 244.398 57
8 4 2 1328.91 316.413 53
-8 -4 -3 33586.8 2921.13 30
8 4 3 37942.5 1175.37 57
8 4 3 34290 1057.04 53
8 4 4 319.447 268.982 57
8 4 4 -243.778 224.354 53
-8 -4 -5 569.164 747.455 44
-8 -4 -5 1961.77 984.213 43
-8 -4 -5 1194.13 666.529 39
-8 -4 -5 1487.08 1069.05 29
8 4 5 1697.95 355.036 57
-8 -4 -6 5524.89 1326.38 43
-8 -4 -6 7527.1 1350.97 39
8 4 6 7770.51 588.454 57
8 4 7 -72.1198 214.852 21
-8 -4 -7 -189.746 560.6 43
-8 -4 -7 -997.079 762.306 42
-8 -4 -7 180.073 289.366 40
8 4 7 264.629 238.502 57
8 4 8 1886.37 343.351 21
-8 -4 -8 1100.98 592.519 42
-8 -4 -8 1993.88 369.509 40
8 4 8 1467.24 274.656 57
-8 -4 -8 1684.55 334.477 14
8 4 9 21133 726.091 58
-8 -4 -9 21446.7 834.77 14
8 4 9 22198.4 866.89 21
8 4 10 1267.27 229.845 21
-8 -4 -10 1147.41 216.234 25
8 4 10 1451.81 192.253 58
-8 -4 -10 986.316 207.37 15
-8 -4 -10 1550.43 214.941 14
-8 -5 1 10200 613.262 22
8 5 -1 12210.1 476.246 53
-8 -5 0 10539.3 741.437 4
-8 -5 0 9730.91 671.42 22
8 5 0 11834.4 560.834 53
8 5 1 171.567 238.977 53
-8 -5 -1 -18.0677 271.954 22
-8 -5 -2 5653.4 635.172 4
8 5 2 4800.27 424.143 16
8 5 2 5989.33 476.476 53
-8 -5 -3 3898.64 588.331 5
-8 -5 -3 3573.39 1265.77 29
8 5 3 3186.28 406.364 16
8 5 3 3773.2 387.237 57
8 5 3 3821.38 391.908 53
8 5 4 7857.81 568.145 10
-8 -5 -4 9973.95 1909.35 29
8 5 4 10143.1 649.814 57
8 5 4 9669.01 539.955 53
-8 -5 -4 9896.96 762.343 5
-8 -5 -5 16918.5 2183.15 43
-8 -5 -5 16856.2 2107.14 39
8 5 5 17965 866.499 10
-8 -5 -5 20549.5 2471.95 29
8 5 5 19993.9 899.977 57
-8 -5 -6 4862.75 1208.87 43
-8 -5 -6 4997.68 1173.27 39
8 5 6 5700.55 553.322 10
8 5 6 5521.44 514.582 57
-8 -5 -7 21422.6 2222.17 43
-8 -5 -7 17265.4 2006.43 42
-8 -5 -7 20646 1087.94 40
-8 -5 -7 18058.2 1946.17 39
8 5 7 21736 905.04 57
8 5 7 21326.4 864.329 21
-8 -5 -8 8332.4 641.743 40
8 5 8 8640.19 541.17 57
8 5 8 7153.7 544.474 21
-8 -5 -9 16827.1 783.28 40
8 5 9 14702.8 562.491 57
-8 -5 -9 15227.4 746.853 14
8 5 9 15750.2 721.352 21
8 5 10 2112.95 275.483 21
-8 -5 -10 1712.65 246.422 25
-8 -5 -10 2251.38 281.559 15
-8 -5 -10 1968.18 248.079 14
-8 -5 -11 4960.08 285.419 15
8 5 11 4490.55 272.495 21
-8 -6 0 296.56 234.546 5
8 6 0 696.914 184.675 53
-8 -6 0 295.714 203.326 22
8 6 1 19330 676.805 53
-8 -6 -1 19318.1 906.734 5
-8 -6 -2 4683.13 557.963 5
8 6 2 4280.98 388.728 16
8 6 2 4660.82 381.603 53
-8 -6 -3 23993.5 2460.49 29
8 6 3 25140.8 956.825 16
8 6 3 25729.7 812.82 57
8 6 3 27116.6 835.547 53
-8 -6 -3 27556.5 1215.29 5
-8 -6 -4 1307.46 416.815 5
8 6 4 1233.74 253.536 10
-8 -6 -4 2167.32 1041.06 29
8 6 4 1443.1 342.666 16
8 6 4 1478.4 299.344 57
-8 -6 -5 181.848 569.84 43
-8 -6 -5 -1055.41 831.864 39
8 6 5 91.6638 228.279 10
-8 -6 -5 688.098 739.228 29
8 6 5 229.745 235.382 57
-8 -6 -5 104.211 326.489 5
-8 -6 -6 983.002 598.643 43
-8 -6 -6 1998.05 727.118 39
8 6 6 1677.68 382.054 10
8 6 6 1510.45 342.535 57
-8 -6 -6 1017.35 344.763 6
-8 -6 -7 1008.17 508.229 43
-8 -6 -7 826.324 658.252 42
-8 -6 -7 2336.78 445.629 40
-8 -6 -7 2349.19 835.336 39
8 6 7 2798.69 405.421 10
8 6 7 2996.47 397.089 57
-8 -6 -8 16098.5 852.223 40
8 6 8 15994.1 705.417 21
8 6 9 2330.59 310.537 21
-8 -6 -9 2084.48 318.61 40
8 6 9 2024.59 262.283 57
-8 -6 -9 2264.78 337.975 14
-8 -6 -10 4817.97 380.197 15
-8 -6 -10 5770.18 395.927 14
8 6 10 5673.52 400.842 21
8 6 11 384.248 120.056 21
-8 -6 -11 574.532 120.164 15
8 7 1 6523.75 326.755 53
-8 -7 -2 1132.31 331.444 5
8 7 2 1020.77 204.55 16
8 7 2 733.13 174.132 53
8 7 3 7434.25 500.419 16
8 7 3 7348.25 394.341 53
8 7 4 137.222 213.899 16
8 7 4 87.1302 168.01 57
-8 -7 -4 245.356 340.646 5
-8 -7 -5 706.368 533.358 39
8 7 5 1045.67 250.998 10
8 7 5 897.834 312.638 16
8 7 5 1160.87 251.193 57
-8 -7 -5 1450.86 409.598 5
-8 -7 -6 16348.8 1921.98 39
8 7 6 17491.8 800.116 10
-8 -7 -6 16935.1 934.243 6
8 7 6 19100.1 804.995 57
-8 -7 -7 1080.88 354.498 40
-8 -7 -7 1523.77 691.157 39
8 7 7 932.164 304.885 10
-8 -7 -7 568.598 223.422 6
8 7 7 1117.39 305.797 57
-8 -7 -8 1608.38 320.115 40
-8 -7 -8 1891.03 268.235 6
8 7 8 2314.78 324.701 57
-8 -7 -9 13378.1 661.655 40
8 7 9 13837.9 563.836 57
-8 -7 -9 12342.3 660.666 14
8 7 9 12618.4 553.602 21
8 7 10 1713.05 228.469 21
8 7 10 1493.39 164.229 57
-8 -7 -10 1547.08 218.011 15
-8 -7 -10 1732.65 237.436 14
-8 -8 -2 7741.18 462.232 6
8 8 3 7078.98 417.888 16
-8 -8 -3 8191.26 539.434 5
-8 -8 -4 8262.31 616.352 6
8 8 4 8487.5 517.732 16
-8 -8 -4 8777.63 609.909 5
8 8 5 29871.1 886.327 10
8 8 5 31690.8 1010.95 16
8 8 5 30400.3 824.27 57
8 8 6 2479.23 336.026 10
8 8 6 3250.89 331.691 57
-8 -8 -6 2880.64 413.627 6
-8 -8 -7 4526.61 427.189 40
8 8 7 5886.83 446.078 10
-8 -8 -7 5035.62 458.71 6
8 8 7 5909.49 421.272 57
-8 -8 -8 19781 777.132 40
8 8 8 21409.3 778.64 10
-8 -8 -8 19169.9 705.812 6
8 8 8 22663.2 761.825 57
8 8 9 1242.14 210.457 57
-8 -8 -9 986.472 215.239 14
-8 -8 -10 138.915 99.6446 15
-8 -8 -10 168.597 117.418 14
-8 -9 -4 1459.86 233.394 6
-8 -9 -5 492.878 208.658 6
-8 -9 -6 1054.09 252.668 6
8 9 6 1249.88 185.301 57
8 9 7 1314.08 220.214 10
-8 -9 -7 1019.1 228.338 6
8 9 7 1415.1 196.759 57
-8 -9 -8 7804.38 411.895 6
8 9 8 8747.09 411.106 57
8 9 9 63.0556 110.106 57
9 -4 -2 396.536 144.785 59
9 -4 -1 1001.51 178.089 59
9 -4 0 1005.96 187.049 56
9 -4 1 705.828 165.632 56
9 -4 2 7751.48 430.1 58
9 -4 3 2529.57 250.375 58
9 -4 4 116.346 113.878 58
9 -3 -3 -2.51783 149.179 59
9 -3 -2 1205.54 240.572 59
9 -3 -1 -178.022 161.945 59
9 -3 0 15881.7 588.835 59
9 -3 1 101.172 140.602 56
9 -3 2 93.2407 172.59 58
9 -3 3 29814.1 889.332 58
9 -3 4 14721.5 594.824 58
9 -3 5 357.46 147.152 58
9 -2 -2 2005.84 303.54 59
9 -2 -1 16280.7 701.294 59
9 -2 0 445.256 226.863 59
9 -2 0 918.941 249.513 57
9 -2 1 587.524 251.961 57
9 -2 1 348.462 171.547 56
9 -2 2 13417 645.157 58
9 -2 2 15337.4 714.4 57
9 -2 3 164.163 173.413 58
9 -2 3 50.6443 221.007 57
9 -2 4 1657.28 263.14 58
9 -2 4 1866.07 260.975 57
9 -2 5 1767.46 257.37 58
9 -2 6 5269.83 337.303 58
9 -1 -2 814.954 293.443 59
9 -1 -1 4505.2 471.945 59
9 -1 -1 4719.24 370.541 53
9 -1 0 239.769 287.514 59
9 -1 0 390.969 187.022 57
9 -1 0 482.603 250.628 53
9 -1 1 3811.07 435.339 59
9 -1 1 5176.88 454.078 57
9 -1 2 26994.5 964.098 57
9 -1 3 4259.08 390.336 58
9 -1 3 4679.71 455.941 57
9 -1 4 7.84686 168.168 58
9 -1 4 -69.8271 224.657 57
9 -1 5 13970.5 644.53 58
9 -1 5 13883.9 595.737 57
9 -1 6 54.5831 149.735 58
9 -1 7 13098.3 507.417 58
9 0 -2 4817.89 299.241 53
9 0 -1 3718.88 486.554 59
9 0 -1 3854.08 337.831 53
9 0 0 3762.53 524.169 59
9 0 0 3659.85 345.398 57
9 0 0 4203.47 412.755 53
9 0 1 1029.22 390.676 59
9 0 1 1442.82 289.586 57
9 0 1 1483.78 332.704 53
9 0 2 6505.89 507.396 57
9 0 2 6798.33 537.337 53
9 0 3 10882.2 650.528 57
9 0 4 11208.2 599.971 58
9 0 4 11242.6 642.646 57
9 0 5 6733.26 473.303 58
9 0 5 6919.47 491.742 57
9 0 6 6747.98 453.699 58
9 0 6 6553.5 410.946 57
9 0 7 6904.56 418.189 58
9 0 8 10253.8 415.844 58
9 1 -2 990.448 181.34 53
9 1 -1 7899.53 454.022 53
9 1 0 1977.04 323.097 53
9 1 1 2083.1 306.332 57
9 1 1 2297.07 382.777 53
9 1 2 18906.7 820.579 57
9 1 2 18716.7 821.805 53
9 1 3 5036.05 480.461 57
9 1 3 4427.44 452.47 53
-9 -1 -4 4669.84 1032.2 43
9 1 4 12608.8 704.717 57
-9 -1 -5 121.066 449.031 42
9 1 5 -146.921 254.518 57
9 1 6 14343.4 649.691 58
9 1 6 14693.8 667.364 57
9 1 7 5293.79 387.823 58
-9 -1 -8 9455.73 475.371 25
9 1 8 12207.2 498.773 58
9 2 -2 660.035 128.473 53
9 2 -1 826.765 202.374 53
-9 -2 0 3285.99 443.778 4
9 2 0 3979.56 373.183 53
9 2 1 19187.6 732.339 57
9 2 1 21724.4 839.687 53
9 2 2 2524.3 360.658 57
9 2 2 2043.76 359.241 53
-9 -2 -3 2345.91 871.786 29
9 2 3 2045.57 345.868 57
9 2 3 2240.25 358.405 53
9 2 4 15772.6 786.12 57
9 2 4 14923.8 695.97 53
-9 -2 -5 -487.872 817.078 43
-9 -2 -5 509.015 517.205 42
9 2 5 398.029 260.618 57
-9 -2 -6 3283.14 925.977 42
9 2 6 3816.68 401.236 57
9 2 7 29253.4 850.717 58
9 2 7 29767.7 852.317 57
9 2 8 124.112 136.386 58
-9 -2 -8 -181.819 121.117 15
-9 -2 -9 6830.03 373.468 25
9 2 9 6814.99 321.441 58
9 3 -1 7011.21 358.51 53
-9 -3 1 4371.14 365.641 22
9 3 0 425.27 207.4 53
9 3 1 19987.9 767.949 53
9 3 2 2824.92 333.852 57
9 3 2 2619.03 352.197 53
-9 -3 -3 6804.41 1375.32 29
9 3 3 7340.91 533.357 57
9 3 3 6881.87 500.784 53
-9 -3 -4 4229.62 1118.44 29
9 3 4 4618.59 453.35 57
9 3 4 4248.63 405.337 53
-9 -3 -5 440.467 580.152 43
9 3 5 331.549 263.59 57
-9 -3 -6 11034.1 730.301 40
9 3 6 12433 665.896 57
-9 -3 -7 12349.4 668.23 40
-9 -3 -7 11498.7 593.505 14
9 3 8 9006.33 422.914 57
-9 -3 -9 3216.68 266.634 15
9 4 -1 1174.2 141.446 53
9 4 0 8447.68 417.053 53
9 4 1 6524.03 438.654 53
9 4 2 15153.8 659.128 53
-9 -4 -2 13821.2 751.746 5
-9 -4 -3 1960.21 902.483 29
9 4 3 2048.3 304.949 57
9 4 3 2387.55 317.921 53
-9 -4 -4 211.73 483.462 39
-9 -4 -4 1400.33 976.8 29
9 4 4 1279.45 297.694 57
9 4 4 833.089 241.999 53
-9 -4 -5 423.862 571.447 43
-9 -4 -5 419.158 629.755 39
-9 -4 -5 1473.35 815.166 29
9 4 5 652.217 258.042 57
-9 -4 -6 19490.9 1835 39
9 4 6 30881 1019.03 57
-9 -4 -7 2494.75 374.261 40
9 4 7 2772.07 341.851 57
-9 -4 -8 2406.92 305.607 40
9 4 8 2045.97 252.089 57
9 4 8 1944.55 292.862 21
-9 -4 -8 1759.11 264.064 14
-9 -4 -9 739.108 185.09 15
9 4 9 800.011 185.567 21
-9 -4 -9 734.636 161.371 14
-9 -4 -10 1382.75 175.757 25
9 5 0 1458.37 171.139 53
-9 -5 -1 2835.72 353.869 5
9 5 1 4059.7 302.588 53
-9 -5 -2 199.956 266.365 5
9 5 2 362.861 197.316 53
-9 -5 -3 -76.1419 267.038 5
9 5 3 -162.493 155.261 57
9 5 3 -91.3921 185.25 53
9 5 4 3733.69 367.995 57
9 5 4 3081.99 290.845 53
-9 -5 -5 3940.11 1045.7 39
9 5 5 5676.75 460.836 57
-9 -5 -6 -176.864 437.68 39
9 5 6 696.576 257.387 57
-9 -5 -7 1717.9 359.259 40
9 5 7 1886.62 313.01 57
-9 -5 -8 39566.6 1157.95 40
9 5 8 40774.6 978.959 57
9 5 9 -204.357 156.323 21
9 5 9 -239.422 141.35 57
-9 -5 -10 1876.19 196.747 25
-9 -5 -10 2354.82 213.442 15
9 6 1 19610.5 484.474 53
9 6 2 2724.73 243.578 53
9 6 3 21223.4 615.539 53
-9 -6 -3 22439 881.962 5
9 6 4 3233.02 296.057 57
-9 -6 -4 2865.38 378.962 5
9 6 5 36.4075 173.912 57
-9 -6 -5 194.938 226.563 6
9 6 6 2657.35 340.794 57
-9 -6 -7 11573.2 705.988 40
9 6 7 13117.9 605.835 57
-9 -6 -8 1562.93 276.701 40
9 6 8 1833.63 257.581 57
9 6 9 178.992 121.532 57
-9 -6 -9 293.705 159.544 14
-9 -6 -10 4103.56 273.143 15
-9 -7 -2 57.7234 138.244 6
-9 -7 -4 4339.86 441.719 6
9 7 5 936.488 201.178 57
-9 -7 -5 966.893 269.037 6
-9 -7 -6 34202.6 1002.38 6
9 7 6 41038.8 977.002 57
-9 -7 -7 3758.7 396.242 40
9 7 7 4271.64 347.679 57
-9 -7 -8 4941.4 401.42 40
9 7 8 6086.48 366.53 57
9 7 9 13280.6 446.629 57
-9 -7 -9 13384.7 543.442 14
-9 -8 -4 -0.54649 123.214 6
-9 -8 -5 18265.1 682.902 6
9 8 6 2115.88 208.368 57
-9 -8 -6 1729.81 235.733 6
-9 -8 -7 -24.1837 113.661 6
9 8 7 363.854 135.376 57
9 8 8 30620 691.363 57
-9 -8 -8 27244.7 776.379 14
10 -2 4 1952.56 181.085 58
10 -1 1 703.895 178.574 57
10 -1 2 10573.9 500.174 57
10 -1 3 1599.95 247.546 57
10 -1 4 266.066 128.332 58
10 -1 4 503.557 164.522 57
10 -1 5 25025.3 616.314 58
10 0 1 11455.1 472.963 57
10 0 2 7232.6 426.355 57
10 0 3 11.9267 187.807 57
10 0 4 6138.72 410.767 57
10 0 5 6192.01 376.108 57
10 0 6 9342.44 362.267 58
10 1 0 15301.8 507.182 53
10 1 1 6662.43 358.64 57
10 1 1 7572.02 421.367 53
10 1 2 10687.2 509.093 57
10 1 3 1432.85 257.071 57
10 1 4 192.03 196.177 57
10 1 5 3941.79 347.698 57
10 1 6 16459.2 564.637 57
10 2 0 9109.71 366.792 53
10 2 1 440.409 165.311 53
10 2 2 223.332 173.718 57
10 2 2 24.2665 189.339 53
10 2 3 192.238 174.264 57
10 2 3 565.074 206.037 53
10 2 4 7429.41 468.769 57
10 2 5 4244.08 372.127 57
10 2 6 3962.92 326.599 57
10 2 7 72.9384 122.936 57
-10 -2 -8 4575.15 268.789 25
10 3 1 9336.28 401.865 53
10 3 2 553.457 150.882 57
10 3 2 729.831 195.055 53
10 3 3 11074.2 503.095 57
10 3 3 11271.8 510.153 53
10 3 4 5826.65 408.658 57
10 3 5 1188.22 253.811 57
10 3 6 19341.2 694.033 57
10 3 7 1344.96 202.176 57
10 4 1 2352.77 186.686 53
10 4 2 6896.49 352.824 53
10 4 3 2628.89 246.408 57
10 4 3 2725.2 258.904 53
10 4 4 734.564 185.825 57
10 4 4 648.617 180.213 53
10 4 5 7662.05 450.932 57
-10 -4 -6 2676.21 332.189 40
10 4 6 4940.86 364.69 57
10 4 7 111.14 158.365 57
10 4 8 -64.6797 106.292 57
10 5 3 217.415 117.798 53
10 5 4 6667.22 354.485 57
10 5 5 7164.69 398.766 57
-10 -5 -6 5179.5 432.422 40
10 5 6 7708.93 417.182 57
10 5 7 127.427 150.265 57
-10 -5 -7 -41.3746 148.916 14
10 5 8 19196.1 523.413 57
10 6 5 42.8249 111.15 57
10 6 6 3150.58 253.301 57
10 6 7 5602.11 318.858 57
10 6 8 2333.43 192.714 57
11 1 4 8924.94 342.8 57
11 2 4 -62.488 94.3333 57
11 2 5 570.968 126.601 57
11 3 5 225.781 103.054 57
