#------------------------------------------------------------------------------
#$Date: 2019-11-25 08:43:28 +0200 (Mon, 25 Nov 2019) $
#$Revision: 240553 $
#$URL: file:///home/coder/svn-repositories/cod/cif/4/12/99/4129909.cif $
#------------------------------------------------------------------------------
#
# This file is available in the Crystallography Open Database (COD),
# http://www.crystallography.net/
#
# All data on this site have been placed in the public domain by the
# contributors.
#
data_4129909
loop_
_publ_author_name
'Liniger, Marc'
'VanderVelde, David G.'
'Takase, Michael K.'
'Shahgholi, Mona'
'Stoltz, Brian M.'
_publ_section_title
;
 Total Synthesis and Characterization of 7-Hypoquinuclidonium
 Tetrafluoroborate and 7-Hypoquinuclidone BF3 Complex.
;
_journal_issue                   3
_journal_name_full               'Journal of the American Chemical Society'
_journal_page_first              969
_journal_page_last               974
_journal_paper_doi               10.1021/jacs.5b11750
_journal_volume                  138
_journal_year                    2016
_chemical_formula_sum            'C6 H12 B F4 N O2'
_chemical_formula_weight         216.98
_space_group_crystal_system      triclinic
_space_group_IT_number           2
_space_group_name_Hall           '-P 1'
_space_group_name_H-M_alt        'P -1'
_atom_sites_solution_hydrogens   mixed
_atom_sites_solution_primary     direct
_atom_sites_solution_secondary   difmap
_audit_creation_method           SHELXL-2014/7
_cell_angle_alpha                103.512(2)
_cell_angle_beta                 91.167(2)
_cell_angle_gamma                98.484(2)
_cell_formula_units_Z            2
_cell_length_a                   5.4701(2)
_cell_length_b                   7.6337(3)
_cell_length_c                   11.2184(4)
_cell_measurement_reflns_used    4557
_cell_measurement_temperature    100(2)
_cell_measurement_theta_max      74.40
_cell_measurement_theta_min      4.06
_cell_volume                     449.76(3)
_computing_cell_refinement       'SAINT v8.34A (Bruker-AXS, 2007)'
_computing_data_collection       'APEX2 v2014.7-1 (Bruker-AXS, 2014)'
_computing_data_reduction        'SAINT v8.34A (Bruker-AXS, 2007)'
_computing_molecular_graphics    'Bruker SHELXTL'
_computing_publication_material  'Bruker SHELXTL'
_computing_structure_refinement  'SHELXL-2014/7 (Sheldrick, 2014)'
_computing_structure_solution    'SHELXS-2013/1 (She ldrick, 2013)'
_diffrn_ambient_temperature      100(2)
_diffrn_detector_area_resol_mean 10.24
_diffrn_measured_fraction_theta_full 0.997
_diffrn_measured_fraction_theta_max 0.992
_diffrn_measurement_device_type  'Bruker D8 VENTURE Kappa Duo PHOTON 100 CMOS'
_diffrn_measurement_method       '\f and \w scans'
_diffrn_radiation_type           CuK\a
_diffrn_radiation_wavelength     1.54178
_diffrn_reflns_av_R_equivalents  0.0537
_diffrn_reflns_av_unetI/netI     0.0430
_diffrn_reflns_Laue_measured_fraction_full 0.997
_diffrn_reflns_Laue_measured_fraction_max 0.992
_diffrn_reflns_limit_h_max       6
_diffrn_reflns_limit_h_min       -6
_diffrn_reflns_limit_k_max       9
_diffrn_reflns_limit_k_min       -9
_diffrn_reflns_limit_l_max       13
_diffrn_reflns_limit_l_min       -14
_diffrn_reflns_number            6970
_diffrn_reflns_point_group_measured_fraction_full 0.997
_diffrn_reflns_point_group_measured_fraction_max 0.992
_diffrn_reflns_theta_full        67.679
_diffrn_reflns_theta_max         74.488
_diffrn_reflns_theta_min         4.059
_diffrn_source                   'I\mS HB micro-focus sealed tube'
_exptl_absorpt_coefficient_mu    1.495
_exptl_absorpt_correction_T_max  0.7538
_exptl_absorpt_correction_T_min  0.6051
_exptl_absorpt_correction_type   multi-scan
_exptl_absorpt_process_details   'SADABS-2014/4 (Sheldrick, 2014)'
_exptl_crystal_colour            colourless
_exptl_crystal_density_diffrn    1.602
_exptl_crystal_density_method    'not measured'
_exptl_crystal_description       Block
_exptl_crystal_F_000             224
_exptl_crystal_size_max          0.150
_exptl_crystal_size_mid          0.050
_exptl_crystal_size_min          0.050
_refine_diff_density_max         0.266
_refine_diff_density_min         -0.339
_refine_diff_density_rms         0.065
_refine_ls_extinction_method     none
_refine_ls_goodness_of_fit_ref   1.043
_refine_ls_hydrogen_treatment    mixed
_refine_ls_matrix_type           full
_refine_ls_number_parameters     139
_refine_ls_number_reflns         1825
_refine_ls_number_restraints     3
_refine_ls_restrained_S_all      1.043
_refine_ls_R_factor_all          0.0451
_refine_ls_R_factor_gt           0.0378
_refine_ls_shift/su_max          0.000
_refine_ls_shift/su_mean         0.000
_refine_ls_structure_factor_coef Fsqd
_refine_ls_weighting_details
'w=1/[\s^2^(Fo^2^)+(0.0395P)^2^+0.2495P] where P=(Fo^2^+2Fc^2^)/3'
_refine_ls_weighting_scheme      calc
_refine_ls_wR_factor_gt          0.0918
_refine_ls_wR_factor_ref         0.0965
_reflns_Friedel_coverage         0.000
_reflns_number_gt                1571
_reflns_number_total             1825
_reflns_threshold_expression     'I > 2\s(I)'
_cod_data_source_file            ja5b11750_si_003.cif
_cod_data_source_block           P15095
_cod_database_code               4129909
_shelx_shelxl_version_number     2014/7
_shelx_space_group_comment
; 
The symmetry employed for this shelxl refinement is uniquely defined 
by the following loop, which should always be used as a source of 
symmetry information in preference to the above space-group names. 
They are only intended as comments. 
;
_shelx_estimated_absorpt_t_min   0.807
_shelx_estimated_absorpt_t_max   0.929
_shelx_res_file
; 
  
    P15095.res created by SHELXL-2014/7 
  
  
TITL P15095 in P-1 
CELL 1.54178   5.47010   7.63370  11.21840 103.5123  91.1674  98.4836 
ZERR    2.00   0.00020   0.00030   0.00040   0.0020   0.0021   0.0020 
LATT  1 
SFAC C H B N O F 
UNIT 12 24 2 2 4 8 
TEMP -173 
SIZE 0.05 0.05 0.15 
  
ACTA 
WPDB -2 
CONF 
  
L.S. 10 
BOND $H 
FMAP 2 
PLAN 20 
  
dfix 0.91 n1 h1n1 n1 h1n2 
dfix 0.84 o2 h2o 
  
EQIV $1 -x, -y+1, -z+1 
EQIV $2 x-1, y, z 
EQIV $3 -x+1, -y+1, -z+1 
EQIV $4 x, y+1, z 
EQIV $5 -x+1, -y, -z+2 
EQIV $6 x-1, y-1, z 
  
HTAB 
HTAB N1 F1_$1 
HTAB N1 F4_$2 
HTAB N1 F1 
HTAB N1 F2_$3 
HTAB C1 O2_$4 
HTAB C2 F4 
HTAB O2 O1_$5 
HTAB C4 F3_$6 
HTAB C5 F1_$1 
HTAB C5 F3_$6 
  
WGHT    0.039500    0.249500 
FVAR       0.50991 
N1    4   -0.006706    0.379175    0.655541    11.00000    0.01575    0.01319 = 
         0.01066    0.00475    0.00053    0.00500 
H1N1  2   -0.122704    0.425264    0.618960    11.00000    0.02116 
H1N2  2    0.131754    0.391414    0.613999    11.00000    0.01617 
C1    1    0.034170    0.484050    0.786811    11.00000    0.02494    0.01415 = 
         0.01209    0.00132   -0.00148    0.00826 
AFIX  23 
H1A   2   -0.125856    0.481738    0.826529    11.00000   -1.20000 
H1B   2    0.102880    0.612778    0.790478    11.00000   -1.20000 
AFIX   0 
C2    1    0.212476    0.401365    0.855304    11.00000    0.02210    0.01388 = 
         0.01319    0.00274   -0.00330    0.00547 
AFIX  23 
H2A   2    0.229602    0.467093    0.943000    11.00000   -1.20000 
H2B   2    0.377632    0.415955    0.821112    11.00000   -1.20000 
AFIX   0 
C3    1    0.120778    0.199567    0.844559    11.00000    0.01483    0.01564 = 
         0.01224    0.00674    0.00232    0.00607 
AFIX  13 
H3    2   -0.043625    0.188305    0.881804    11.00000   -1.20000 
AFIX   0 
O1    5    0.495675    0.195883    0.958552    11.00000    0.02104    0.01759 = 
         0.02050    0.00758   -0.00600    0.00296 
O2    5    0.206534   -0.053556    0.916413    11.00000    0.01636    0.01682 = 
         0.01758    0.00917    0.00028    0.00548 
H2O   2    0.316367   -0.097198    0.953693    11.00000    0.03527 
C4    1    0.083892    0.097419    0.708225    11.00000    0.01716    0.01136 = 
         0.01421    0.00386   -0.00257    0.00420 
AFIX  23 
H4A   2    0.244564    0.105651    0.669220    11.00000   -1.20000 
H4B   2    0.019991   -0.033035    0.701338    11.00000   -1.20000 
AFIX   0 
C5    1   -0.098116    0.180594    0.642818    11.00000    0.01649    0.01216 = 
         0.01632    0.00526   -0.00439    0.00224 
AFIX  23 
H5A   2   -0.118210    0.116764    0.554766    11.00000   -1.20000 
H5B   2   -0.261673    0.165334    0.678522    11.00000   -1.20000 
AFIX   0 
C6    1    0.293888    0.114563    0.912292    11.00000    0.01768    0.01594 = 
         0.01054    0.00499    0.00314    0.00685 
B1    3    0.520620    0.719895    0.620809    11.00000    0.01457    0.01447 = 
         0.01394    0.00253    0.00083    0.00341 
F1    6    0.272362    0.674006    0.576365    11.00000    0.01528    0.02326 = 
         0.01891    0.00673   -0.00187    0.00378 
F2    6    0.669176    0.755709    0.527197    11.00000    0.02458    0.02519 = 
         0.02196    0.00209    0.01119   -0.00138 
F3    6    0.546916    0.871836    0.718445    11.00000    0.02292    0.01924 = 
         0.02078   -0.00467    0.00575    0.00193 
F4    6    0.587529    0.572064    0.660229    11.00000    0.03157    0.02444 = 
         0.02535    0.00786   -0.00141    0.01706 
  
HKLF 4 
  
REM  P15095 in P-1 
REM R1 =  0.0378 for    1571 Fo > 4sig(Fo)  and  0.0451 for all    1825 data 
REM    139 parameters refined using      3 restraints 
  
END 
  
WGHT      0.0396      0.2496 
  
REM Instructions for potential hydrogen bonds 
HTAB N1 F1_$1 
HTAB N1 F4_$2 
HTAB N1 F1 
HTAB N1 F2_$3 
HTAB C1 O2_$4 
HTAB C2 F4 
HTAB O2 O1_$5 
HTAB C4 F3_$6 
HTAB C5 F1_$1 
HTAB C5 F3_$6 
  
REM Highest difference peak  0.266,  deepest hole -0.339,  1-sigma level  0.065 
Q1    1   0.2132  0.1606  0.8817  11.00000  0.05    0.27 
Q2    1   0.0673  0.5844  0.5359  11.00000  0.05    0.24 
Q3    1   0.0420 -0.1032  0.9736  11.00000  0.05    0.23 
Q4    1   0.4291  0.4558  0.6974  11.00000  0.05    0.23 
Q5    1   0.0010  0.1441  0.6734  11.00000  0.05    0.23 
Q6    1   0.1290  0.6729  0.6374  11.00000  0.05    0.20 
Q7    1   0.1370  0.4332  0.8203  11.00000  0.05    0.20 
Q8    1   0.2573  0.1764  0.6395  11.00000  0.05    0.19 
Q9    1   0.0039  0.4380  0.5339  11.00000  0.05    0.19 
Q10   1   0.2966  0.2270  0.6546  11.00000  0.05    0.18 
Q11   1   0.1919  0.5885  0.6793  11.00000  0.05    0.18 
Q12   1   0.6703  0.0790  0.8900  11.00000  0.05    0.18 
Q13   1   0.7331  0.2068  0.9716  11.00000  0.05    0.17 
Q14   1   0.6954  0.7858  0.4175  11.00000  0.05    0.17 
Q15   1  -0.3302  0.3826  0.7851  11.00000  0.05    0.17 
Q16   1   0.2667  0.4618  0.6692  11.00000  0.05    0.16 
Q17   1   0.1410  0.7909  0.6427  11.00000  0.05    0.16 
Q18   1   0.4994  0.9024  0.6238  11.00000  0.05    0.16 
Q19   1   0.0931  0.6939  0.5253  11.00000  0.05    0.16 
Q20   1  -0.1372  0.0833  0.9316  11.00000  0.05    0.16 
;
_shelx_res_checksum              75692
_shelx_hkl_file
; 
  -1   0   0    8.84    0.63 
  -1   0   0    7.20    0.63 
  -1   0   0    9.13    0.79 
   1   0   0    8.42    0.63 
   1   0   0    8.64    0.75 
   1   0   0    7.62    0.73 
   1   0   0    9.57    0.60 
  -2   0   0   34.00    2.24 
   2   0   0   34.79    2.52 
   2   0   0   29.37    2.38 
   2   0   0   34.00    2.14 
  -3   0   0    3.26    0.58 
   3   0   0    2.62    0.29 
   3   0   0    1.85    0.83 
  -4   0   0   51.85    3.61 
  -4   0   0   46.76    3.55 
  -4   0   0   48.82    4.03 
   4   0   0   52.25    3.27 
  -5   0   0   18.20    1.91 
  -5   0   0   17.01    1.63 
   5   0   0   18.41    1.53 
   5   0   0   17.14    1.25 
  -6   0   0   -0.42    0.69 
  -6   0   0   -0.28    0.48 
   6   0   0    0.51    0.36 
   6  -1   0    7.60    0.69 
   6  -1   0    6.02    0.79 
  -6   1   0    8.99    1.05 
  -6   1   0    6.68    1.23 
   5  -1   0   33.54    2.72 
   5  -1   0   40.89    2.56 
  -5   1   0   37.91    2.89 
  -5   1   0   42.41    3.15 
  -5   1   0   41.36    2.92 
  -5   1   0   34.79    3.20 
   4  -1   0   11.77    2.19 
   4  -1   0   13.78    0.95 
  -4   1   0   13.84    1.44 
  -4   1   0   14.14    1.36 
  -4   1   0   11.19    1.56 
  -4   1   0   14.06    1.62 
   3  -1   0    0.39    0.15 
   3  -1   0    0.59    0.72 
  -3   1   0   -0.15    0.30 
   2  -1   0  173.46   11.40 
   2  -1   0  169.37   11.04 
   2  -1   0  176.20   11.35 
   2  -1   0  177.20   11.09 
  -2   1   0  169.06   11.13 
   1  -1   0   32.06    1.97 
   1  -1   0   30.40    2.13 
  -1   1   0   32.35    1.98 
  -1   1   0   27.16    1.98 
  -1   1   0   28.53    2.15 
   0  -1   0    0.12    0.15 
   0  -1   0    0.00    0.32 
   0   1   0    0.21    0.19 
  -1  -1   0  137.50    9.03 
  -1  -1   0  122.35    8.84 
  -1  -1   0  138.62    8.88 
  -1  -1   0  138.14    8.93 
   1   1   0  152.80    9.07 
  -2  -1   0   44.76    3.17 
  -2  -1   0   47.73    3.32 
   2   1   0   50.75    3.24 
   2   1   0   49.57    3.59 
   2   1   0   44.99    3.07 
  -3  -1   0  238.88   16.26 
  -3  -1   0  254.33   16.30 
  -3  -1   0  273.38   16.28 
   3   1   0  241.16   16.09 
  -4  -1   0    2.21    0.67 
  -4  -1   0    2.53    0.83 
  -4  -1   0    2.13    0.62 
   4   1   0    2.01    0.33 
  -5  -1   0   17.43    1.71 
  -5  -1   0   14.39    1.54 
   5   1   0   13.94    1.35 
   5   1   0   15.07    1.11 
  -6  -1   0    2.50    0.51 
  -6  -1   0    2.85    0.75 
   6   1   0    2.28    0.39 
   6   1   0    2.01    0.41 
   6  -2   0   75.40    4.68 
   6  -2   0   68.52    4.71 
  -6   2   0   74.24    4.99 
  -6   2   0   69.97    4.84 
   5  -2   0  145.33    9.76 
   5  -2   0  161.18    9.69 
  -5   2   0  144.53   10.12 
  -5   2   0  134.59    9.91 
  -5   2   0  156.78   10.09 
  -5   2   0  162.07    9.96 
   4  -2   0   28.21    3.06 
   4  -2   0   33.32    2.06 
  -4   2   0   32.51    2.48 
  -4   2   0   27.59    2.44 
  -4   2   0   32.29    2.41 
   3  -2   0    0.21    0.13 
   3  -2   0   -0.21    0.72 
  -3   2   0    0.02    0.31 
   2  -2   0    6.29    1.42 
   2  -2   0    7.90    0.53 
  -2   2   0    7.57    0.66 
  -2   2   0    6.66    1.50 
   1  -2   0  207.88   13.15 
   1  -2   0  213.49   13.41 
   1  -2   0  195.58   13.05 
  -1   2   0  197.04   13.11 
  -1   2   0  209.63   13.40 
   0  -2   0   44.73    2.94 
   0  -2   0   43.84    3.19 
   0   2   0   42.11    2.82 
  -1  -2   0   72.56    5.32 
  -1  -2   0   82.94    5.03 
  -1  -2   0   75.77    5.13 
   1   2   0   79.49    5.32 
   1   2   0   67.62    4.86 
  -2  -2   0    7.63    0.82 
  -2  -2   0    4.96    1.09 
   2   2   0    5.73    0.49 
  -3  -2   0   -0.44    2.93 
  -3  -2   0    0.27    0.58 
  -3  -2   0    0.57    0.50 
  -3  -2   0    1.01    0.60 
   3   2   0    0.13    0.17 
  -4  -2   0   24.52    2.07 
  -4  -2   0   22.69    1.92 
  -4  -2   0   22.55    1.87 
  -4  -2   0   22.29    1.82 
   4   2   0   21.88    1.86 
   4   2   0   23.33    1.58 
  -5  -2   0   31.94    2.48 
  -5  -2   0   31.46    2.57 
   5   2   0   32.92    2.19 
  -6  -2   0    7.47    0.90 
  -6  -2   0    7.01    1.02 
   6   2   0   10.03    0.83 
   6  -3   0    0.34    0.27 
   6  -3   0   -0.22    0.32 
  -6   3   0   -0.53    0.36 
  -6   3   0   -0.89    0.59 
   5  -3   0   88.65    5.71 
   5  -3   0   91.08    5.64 
  -5   3   0   84.47    6.19 
  -5   3   0   93.17    6.09 
  -5   3   0   77.39    5.87 
   4  -3   0    4.87    1.54 
   4  -3   0    6.95    1.17 
   4  -3   0    5.57    0.59 
  -4   3   0    7.56    1.43 
  -4   3   0    5.90    1.20 
  -4   3   0    5.82    1.12 
   3  -3   0   86.59    7.13 
   3  -3   0  114.04    6.58 
  -3   3   0  105.20    6.78 
  -3   3   0  101.72    6.92 
  -3   3   0  103.12    6.83 
   2  -3   0  280.59   18.51 
  -2   3   0  299.77   18.65 
   1  -3   0   33.84    2.34 
   1  -3   0   33.44    2.14 
   1  -3   0   33.55    3.01 
  -1   3   0   35.79    2.25 
  -1   3   0   32.09    2.97 
  -1   3   0   28.90    2.17 
   0  -3   0  138.44    8.87 
   0  -3   0  142.71    8.68 
   0   3   0  123.88    8.68 
   0   3   0  137.24    9.53 
  -1  -3   0    4.11    0.69 
  -1  -3   0    4.55    1.06 
  -1  -3   0    5.58    2.37 
   1   3   0    1.99    1.30 
  -2  -3   0   94.72    5.94 
  -2  -3   0   80.86    6.75 
  -2  -3   0   93.57    5.89 
   2   3   0   84.94    5.75 
  -3  -3   0    0.49    0.65 
  -3  -3   0    0.08    0.50 
  -3  -3   0    0.02    0.52 
   3   3   0   -0.88    0.56 
   3   3   0    0.05    0.20 
  -4  -3   0   29.05    2.43 
  -4  -3   0   30.40    2.30 
  -4  -3   0   29.17    2.36 
  -4  -3   0   33.73    2.42 
   4   3   0   26.75    2.14 
   4   3   0   28.88    2.02 
  -5  -3   0   -0.40    0.51 
  -5  -3   0   -0.84    0.48 
  -5  -3   0   -0.13    0.58 
   5   3   0    0.29    0.33 
   5   3   0   -0.12    0.41 
  -6  -3   0    1.11    0.45 
  -6  -3   0    1.31    0.37 
   6  -4   0    2.33    0.41 
   6  -4   0    3.26    0.53 
  -6   4   0    1.62    0.63 
  -6   4   0    2.01    0.45 
   5  -4   0    6.15    0.84 
   5  -4   0    5.84    2.48 
   5  -4   0    7.06    0.60 
  -5   4   0    6.03    1.03 
  -5   4   0    5.18    1.55 
   4  -4   0    5.30    0.76 
   4  -4   0    5.58    0.51 
   4  -4   0    4.38    1.58 
  -4   4   0    6.12    1.12 
  -4   4   0    4.55    1.00 
  -4   4   0    6.49    1.29 
   3  -4   0   16.12    1.33 
   3  -4   0   17.12    1.16 
  -3   4   0   15.77    1.50 
  -3   4   0   17.53    1.63 
  -3   4   0   18.08    1.80 
   2  -4   0    7.33    0.87 
   2  -4   0    7.62    0.57 
   2  -4   0    6.51    1.27 
  -2   4   0    8.30    1.66 
  -2   4   0    7.21    0.80 
  -2   4   0    6.77    1.20 
   1  -4   0  192.61   12.56 
  -1   4   0  200.24   12.71 
   0  -4   0   74.45    4.94 
   0   4   0   74.43    6.31 
   0   4   0   67.72    4.65 
  -1  -4   0   94.59    6.20 
  -1  -4   0   94.33    6.38 
  -1  -4   0   93.76    6.19 
   1   4   0   89.12    6.05 
   1   4   0   96.88    6.23 
  -2  -4   0   26.26    1.91 
  -2  -4   0   24.28    1.87 
  -2  -4   0   24.30    2.24 
   2   4   0   22.90    1.66 
  -3  -4   0    4.93    0.94 
  -3  -4   0    4.76    0.87 
  -3  -4   0    6.09    0.89 
   3   4   0    4.56    0.55 
   3   4   0    3.99    0.63 
  -4  -4   0   31.71    2.33 
  -4  -4   0   28.40    2.41 
  -4  -4   0   30.73    2.23 
  -4  -4   0   30.91    2.39 
   4   4   0   29.07    2.10 
   4   4   0   32.49    2.19 
  -5  -4   0   -0.22    0.45 
  -5  -4   0    0.42    0.51 
   5   4   0   -0.10    0.41 
   5   4   0    0.71    0.30 
   5   4   0    0.45    0.28 
   6  -5   0    0.27    0.24 
  -6   5   0    0.17    0.55 
  -6   5   0    0.38    0.29 
   5  -5   0    7.72    3.23 
   5  -5   0   10.30    0.84 
   5  -5   0   10.58    0.97 
  -5   5   0   10.41    1.37 
  -5   5   0    8.38    1.10 
  -5   5   0    8.68    1.11 
   4  -5   0    2.37    0.44 
   4  -5   0    1.15    1.69 
   4  -5   0    3.15    0.44 
  -4   5   0    2.43    0.68 
  -4   5   0    1.74    0.71 
  -4   5   0    1.91    1.16 
  -4   5   0    2.70    0.95 
   3  -5   0    0.57    0.25 
   3  -5   0    0.24    0.35 
   3  -5   0   -0.22    1.26 
  -3   5   0    0.64    0.84 
  -3   5   0    0.83    0.65 
  -3   5   0    0.80    0.73 
   2  -5   0    0.59    0.33 
   2  -5   0    1.02    1.12 
   2  -5   0    0.58    0.21 
  -2   5   0   -0.08    0.78 
  -2   5   0    0.13    0.52 
  -2   5   0    0.25    0.64 
   1  -5   0   26.76    1.77 
   1  -5   0   26.57    1.84 
   1  -5   0   24.06    2.14 
   1  -5   0   26.88    2.29 
  -1   5   0   29.31    2.00 
  -1   5   0   22.19    2.19 
   0  -5   0    4.65    0.75 
   0  -5   0    3.57    0.94 
   0  -5   0    3.26    0.58 
   0  -5   0    4.05    0.67 
   0  -5   0    4.05    0.72 
   0   5   0    4.77    1.07 
   0   5   0    4.13    0.52 
  -1  -5   0    4.82    0.85 
  -1  -5   0    5.96    0.85 
   1   5   0    5.01    0.55 
   1   5   0    7.01    1.40 
  -2  -5   0   30.85    2.29 
  -2  -5   0   33.18    2.27 
   2   5   0   28.94    2.18 
   2   5   0   29.85    2.10 
  -3  -5   0   13.40    1.32 
  -3  -5   0   16.26    1.66 
  -3  -5   0   12.90    1.26 
   3   5   0   13.47    1.07 
   3   5   0   13.40    1.17 
  -4  -5   0   42.03    2.91 
  -4  -5   0   39.92    2.81 
  -4  -5   0   41.09    3.01 
  -4  -5   0   37.78    2.98 
   4   5   0   43.80    2.81 
   4   5   0   43.55    2.80 
  -5  -5   0    4.16    0.64 
   5   5   0    3.16    0.44 
   5   5   0    4.69    0.42 
   5  -6   0   57.86    3.62 
   5  -6   0   53.33    3.63 
  -5   6   0   56.11    3.82 
  -5   6   0   53.35    3.76 
   4  -6   0   16.08    3.12 
   4  -6   0   16.45    1.35 
   4  -6   0   19.20    1.35 
  -4   6   0   20.49    1.92 
  -4   6   0   19.01    2.60 
   3  -6   0   14.79    1.10 
   3  -6   0   14.71    1.14 
   3  -6   0    9.95    2.75 
  -3   6   0   16.50    1.72 
  -3   6   0   11.27    1.54 
  -3   6   0   14.84    1.47 
  -3   6   0   17.25    2.03 
   2  -6   0   12.33    0.99 
   2  -6   0   12.67    0.96 
   2  -6   0    9.16    2.34 
  -2   6   0    8.54    1.59 
  -2   6   0   11.34    1.41 
  -2   6   0   12.70    1.48 
   1  -6   0    1.37    1.71 
   1  -6   0    1.39    0.70 
   1  -6   0    0.02    0.41 
   1  -6   0    0.39    0.33 
  -1   6   0    0.20    0.65 
  -1   6   0    0.12    0.60 
  -1   6   0    0.23    0.68 
   0  -6   0    9.89    1.13 
   0  -6   0   11.74    1.03 
   0  -6   0   11.01    1.07 
   0   6   0    9.28    0.93 
   0   6   0   10.66    1.01 
   0   6   0    9.22    1.62 
  -1  -6   0   33.43    2.44 
  -1  -6   0   31.98    2.36 
   1   6   0   33.15    2.89 
   1   6   0   29.86    2.26 
   1   6   0   33.84    2.26 
  -2  -6   0    0.40    0.47 
  -2  -6   0   -0.23    0.47 
   2   6   0   -0.37    0.39 
   2   6   0   -0.17    0.32 
  -3  -6   0    1.38    0.43 
  -3  -6   0    1.77    0.49 
   3   6   0    2.54    0.60 
   3   6   0    1.75    0.40 
  -4  -6   0   -0.95    0.53 
  -4  -6   0   -0.13    0.40 
   4   6   0    0.33    0.21 
   5  -7   0    0.78    0.17 
  -5   7   0    0.94    0.35 
   4  -7   0    5.38    0.77 
   4  -7   0    4.22    0.50 
  -4   7   0    4.13    0.89 
  -4   7   0    4.32    0.81 
   3  -7   0    0.24    0.51 
   3  -7   0   -1.60    2.60 
  -3   7   0    1.43    0.86 
   2  -7   0    5.19    0.63 
   2  -7   0    4.82    2.81 
   2  -7   0    4.44    0.78 
  -2   7   0    5.11    1.05 
  -2   7   0    4.06    1.22 
   1  -7   0  249.02   16.40 
   1  -7   0  241.65   16.46 
   1  -7   0  241.21   16.29 
  -1   7   0  266.64   16.56 
  -1   7   0  273.95   16.69 
   0  -7   0    1.53    0.51 
   0  -7   0    0.03    0.52 
   0   7   0    2.23    1.06 
   0   7   0    0.54    0.79 
   0   7   0    0.47    0.36 
  -1  -7   0    4.82    0.82 
  -1  -7   0    5.14    0.81 
   1   7   0    4.52    1.54 
   1   7   0    4.65    0.62 
  -2  -7   0   -0.54    0.40 
  -2  -7   0   -0.37    0.34 
   2   7   0    0.52    0.88 
   2   7   0    0.06    0.28 
  -3  -7   0    6.52    0.90 
  -3  -7   0    5.21    0.87 
  -3  -7   0    5.84    0.71 
   3   7   0    7.29    0.58 
   4  -8   0    1.74    0.27 
   4  -8   0    0.99    0.29 
  -4   8   0    2.08    0.48 
  -4   8   0    1.58    0.38 
   3  -8   0    8.14    0.72 
   3  -8   0    9.01    0.82 
  -3   8   0    9.99    0.97 
   2  -8   0    1.14    0.52 
   2  -8   0    2.13    0.45 
   2  -8   0    3.49    0.93 
  -2   8   0    1.63    0.55 
   1  -8   0   -0.16    0.38 
   1  -8   0   -0.17    0.54 
  -1   8   0   -0.46    0.60 
   0  -8   0    0.54    0.40 
   0   8   0    0.82    0.60 
  -1  -8   0    0.12    0.35 
  -1  -8   0    0.43    0.33 
   1   8   0   -1.74    1.39 
  -2  -8   0   12.52    1.04 
  -2  -8   0   12.23    0.97 
   2   8   0   11.53    0.95 
   2  -9   0    8.93    0.80 
   1  -9   0   11.38    1.10 
   1  -9   0    9.52    0.88 
  -1   9   0   11.83    1.07 
  -1   9   0   10.63    1.69 
   0  -9   0   -0.22    0.41 
   0  -9   0   -0.50    0.35 
   0   9   0   -0.31    0.68 
   0   9  -1    2.15    1.05 
   0  -9   1    1.41    0.49 
  -1   9  -1    1.49    0.59 
   1  -9   1    2.49    0.45 
   2  -9   1    5.92    0.60 
  -3   9  -1    1.76    0.38 
   2   8  -1    0.72    0.37 
  -2  -8   1    0.22    0.28 
   1   8  -1    3.36    0.53 
  -1  -8   1    3.64    0.67 
  -1  -8   1    3.69    0.74 
   0   8  -1   -0.41    0.79 
   0  -8   1    0.91    0.48 
   0  -8   1    0.71    0.48 
  -1   8  -1   -0.12    0.59 
   1  -8   1    0.43    0.51 
   1  -8   1    0.84    0.45 
  -2   8  -1    6.10    0.90 
   2  -8   1    4.34    0.75 
   2  -8   1    7.61    1.11 
  -3   8  -1   10.66    1.06 
   3  -8   1   11.01    0.96 
   3  -8   1    9.59    0.81 
  -4   8  -1    0.68    0.39 
   4  -8   1    0.35    0.29 
   4  -8   1    0.55    0.35 
   3   7  -1   37.73    2.42 
  -3  -7   1   36.61    2.45 
  -3  -7   1   32.73    2.59 
  -3  -7   1   37.71    2.59 
   2   7  -1   24.00    1.71 
   2   7  -1   22.10    1.62 
  -2  -7   1   21.65    1.76 
  -2  -7   1   22.84    1.71 
   1   7  -1   23.09    1.70 
   1   7  -1   21.99    1.80 
  -1  -7   1   24.09    1.85 
  -1  -7   1   24.62    1.85 
   0   7  -1    9.06    1.71 
   0   7  -1    8.69    1.61 
   0  -7   1   11.04    1.11 
   0  -7   1    8.68    1.10 
  -1   7  -1   19.90    1.95 
  -1   7  -1   18.01    1.81 
   1  -7   1   15.25    1.45 
   1  -7   1   15.02    1.30 
   1  -7   1   18.41    1.56 
  -2   7  -1   54.47    4.07 
  -2   7  -1   54.01    3.76 
   2  -7   1   49.12    3.74 
   2  -7   1   50.76    6.94 
   2  -7   1   50.85    3.44 
  -3   7  -1   15.30    2.58 
  -3   7  -1   10.19    1.28 
   3  -7   1    8.85    2.67 
   3  -7   1   12.57    0.95 
   3  -7   1   12.54    1.12 
  -4   7  -1   46.06    3.14 
  -4   7  -1   41.49    3.15 
   4  -7   1   48.01    2.99 
   4  -7   1   44.18    3.05 
  -5   7  -1    0.47    0.31 
   5  -7   1    0.55    0.19 
   4   6  -1    1.74    0.30 
  -4  -6   1    2.09    0.62 
   3   6  -1    0.27    0.35 
   3   6  -1    0.09    0.38 
  -3  -6   1    1.09    0.53 
  -3  -6   1    0.32    0.40 
   2   6  -1    6.44    0.76 
   2   6  -1    5.74    0.71 
  -2  -6   1    7.56    0.91 
  -2  -6   1    5.43    0.93 
   1   6  -1    8.90    0.86 
  -1  -6   1    9.13    1.07 
  -1  -6   1    9.43    1.12 
   0   6  -1   17.81    2.09 
   0   6  -1   19.87    1.48 
   0  -6   1   20.45    1.62 
   0  -6   1   21.06    1.68 
  -1   6  -1    5.06    0.98 
  -1   6  -1    5.46    0.99 
   1  -6   1    4.46    0.63 
   1  -6   1    3.30    0.76 
   1  -6   1    2.59    1.66 
   1  -6   1    6.33    0.82 
  -2   6  -1   18.81    1.73 
  -2   6  -1   13.39    1.67 
   2  -6   1   13.33    2.51 
   2  -6   1   15.24    1.21 
   2  -6   1   14.68    1.68 
   2  -6   1   16.98    1.20 
  -3   6  -1   92.99    6.50 
  -3   6  -1  104.03    6.58 
  -3   6  -1   82.48    6.45 
  -3   6  -1   96.59    6.69 
   3  -6   1  101.46    6.23 
   3  -6   1   97.40    6.25 
  -4   6  -1   25.41    2.05 
  -4   6  -1   23.68    2.08 
  -4   6  -1   25.79    3.08 
   4  -6   1   25.97    1.78 
   4  -6   1   27.10    1.79 
   4  -6   1   22.03    3.70 
  -5   6  -1    1.29    0.87 
  -5   6  -1    1.82    0.49 
   5  -6   1    2.07    0.38 
   5  -6   1    1.34    0.43 
   5   5  -1    0.70    0.26 
  -5  -5   1    0.31    0.53 
   4   5  -1   56.77    3.61 
   4   5  -1   54.28    3.68 
  -4  -5   1   56.36    3.81 
  -4  -5   1   48.08    3.69 
  -4  -5   1   53.52    3.69 
   3   5  -1   27.06    1.82 
   3   5  -1   24.79    1.92 
  -3  -5   1   28.15    2.01 
  -3  -5   1   25.65    2.03 
  -3  -5   1   23.56    2.20 
   2   5  -1    1.65    0.33 
  -2  -5   1    2.29    0.56 
  -2  -5   1    2.93    0.92 
   1   5  -1   82.07    5.35 
   1   5  -1   76.05    5.19 
  -1  -5   1   81.48    5.36 
  -1  -5   1   79.89    5.33 
   0   5  -1   36.23    2.69 
   0   5  -1   42.48    2.87 
   0   5  -1   38.95    3.34 
   0  -5   1   40.64    2.87 
   0  -5   1   41.33    2.89 
   0  -5   1   43.57    2.77 
  -1   5  -1  221.63   15.41 
  -1   5  -1  243.33   15.24 
  -1   5  -1  268.42   15.36 
  -1   5  -1  213.99   15.16 
   1  -5   1  241.88   15.15 
   1  -5   1  230.54   15.31 
   1  -5   1  237.59   15.18 
  -2   5  -1   12.34    1.47 
  -2   5  -1   13.32    1.31 
  -2   5  -1   12.38    1.77 
   2  -5   1   14.71    1.69 
   2  -5   1   11.54    1.81 
   2  -5   1   15.00    0.98 
   2  -5   1   13.44    1.07 
  -3   5  -1   28.85    2.24 
  -3   5  -1   27.33    2.39 
  -3   5  -1   26.91    2.13 
   3  -5   1   21.03    2.81 
   3  -5   1   21.59    1.75 
   3  -5   1   28.54    1.83 
  -4   5  -1   14.53    1.95 
  -4   5  -1   14.57    1.57 
  -4   5  -1   19.06    1.94 
   4  -5   1   15.26    2.77 
   4  -5   1   16.95    1.18 
   4  -5   1   15.23    1.24 
  -5   5  -1   10.11    1.49 
  -5   5  -1    9.30    1.13 
  -5   5  -1   11.82    1.19 
   5  -5   1   11.64    0.90 
   5  -5   1    8.50    3.03 
   5  -5   1   11.00    0.91 
  -6   5  -1    0.08    0.31 
   6  -5   1    0.40    0.19 
   5   4  -1    1.99    0.43 
   5   4  -1    1.74    0.35 
  -5  -4   1    2.21    0.62 
  -5  -4   1    1.85    0.53 
   4   4  -1   10.56    1.07 
   4   4  -1   10.87    0.90 
  -4  -4   1   11.68    1.31 
  -4  -4   1   11.48    1.22 
  -4  -4   1    9.75    1.12 
  -4  -4   1   10.58    1.38 
   3   4  -1   53.96    3.62 
   3   4  -1   50.03    3.75 
  -3  -4   1   55.92    3.82 
  -3  -4   1   54.71    3.91 
  -3  -4   1   59.54    3.77 
   2   4  -1  110.18    7.27 
   2   4  -1  113.01    7.49 
  -2  -4   1  116.03    7.43 
  -2  -4   1  108.36    7.51 
  -2  -4   1  115.25    7.38 
   1   4  -1  164.26   11.22 
  -1  -4   1  185.87   11.35 
   0   4  -1   71.05    5.78 
   0   4  -1   64.19    4.27 
   0  -4   1   58.76    5.78 
   0  -4   1   57.11    4.58 
   0  -4   1   72.14    4.28 
   0  -4   1   71.35    4.55 
  -1   4  -1   68.77    4.20 
   1  -4   1   65.39    4.75 
   1  -4   1   59.08    4.59 
  -2   4  -1   71.35    4.50 
  -2   4  -1   62.77    4.63 
   2  -4   1   65.02    4.39 
   2  -4   1   59.72    4.87 
   2  -4   1   73.13    4.32 
  -3   4  -1    5.33    0.85 
  -3   4  -1    6.20    1.17 
  -3   4  -1    5.05    0.89 
   3  -4   1    5.87    0.47 
   3  -4   1    4.17    1.28 
   3  -4   1    5.33    0.71 
  -4   4  -1   18.54    1.67 
  -4   4  -1   18.85    2.02 
  -4   4  -1   18.56    1.89 
   4  -4   1   18.19    1.38 
   4  -4   1   13.50    2.43 
   4  -4   1   17.90    1.25 
  -5   4  -1    9.62    1.92 
  -5   4  -1    7.35    1.34 
   5  -4   1    7.19    2.73 
   5  -4   1    5.53    0.61 
   5  -4   1    7.14    0.73 
  -6   4  -1    0.62    0.39 
  -6   4  -1   -0.59    1.02 
   6  -4   1    1.21    0.26 
   6   3  -1    0.34    0.22 
  -6  -3   1    0.88    0.41 
  -6  -3   1    0.92    0.33 
   5   3  -1   16.34    1.33 
  -5  -3   1   15.97    1.49 
  -5  -3   1   16.90    1.64 
   4   3  -1   64.75    4.75 
   4   3  -1   70.30    4.62 
  -4  -3   1   72.86    4.98 
  -4  -3   1   75.05    4.84 
  -4  -3   1   66.99    4.70 
  -4  -3   1   74.57    4.91 
   3   3  -1    6.88    0.59 
  -3  -3   1    6.86    1.06 
  -3  -3   1    6.40    0.97 
  -3  -3   1    6.30    0.96 
   2   3  -1   62.37    4.09 
  -2  -3   1   63.97    5.21 
   1   3  -1  186.95   11.83 
   1   3  -1  152.82   11.12 
  -1  -3   1  161.85   11.77 
  -1  -3   1  183.75   11.58 
  -1  -3   1  185.04   11.35 
   0   3  -1  109.15    7.27 
   0  -3   1  101.25    6.96 
   0  -3   1   93.78    7.22 
   0  -3   1  112.26    6.67 
   0  -3   1  102.38    6.85 
  -1   3  -1    1.11    0.23 
  -1   3  -1    0.38    0.98 
   1  -3   1    0.29    1.01 
   1  -3   1    0.55    0.14 
   1  -3   1    1.38    0.55 
   1  -3   1    0.61    0.45 
  -2   3  -1   47.61    3.21 
   2  -3   1   50.42    3.09 
   2  -3   1   44.44    3.25 
  -3   3  -1  108.23    7.29 
  -3   3  -1  114.27    7.23 
  -3   3  -1  112.08    7.13 
  -3   3  -1  107.88    7.31 
   3  -3   1   98.40    7.04 
   3  -3   1   96.49    7.52 
   3  -3   1  118.17    6.94 
  -4   3  -1   58.07    3.97 
  -4   3  -1   63.16    4.19 
  -4   3  -1   59.15    4.04 
  -4   3  -1   47.82    4.01 
   4  -3   1   52.59    4.62 
  -5   3  -1   36.04    3.17 
  -5   3  -1   31.87    2.50 
  -5   3  -1   33.10    2.78 
   5  -3   1   33.74    2.22 
   5  -3   1   32.23    2.30 
  -6   3  -1   22.73    1.91 
  -6   3  -1   26.33    2.12 
   6  -3   1   26.90    1.79 
   6  -3   1   27.29    1.77 
   6   2  -1   16.06    1.14 
  -6  -2   1   13.11    1.21 
  -6  -2   1   13.07    1.34 
   5   2  -1   27.53    1.88 
   5   2  -1   24.12    2.11 
  -5  -2   1   29.36    2.30 
  -5  -2   1   28.60    2.18 
   4   2  -1    9.52    0.81 
  -4  -2   1   10.88    1.40 
  -4  -2   1   11.00    1.22 
  -4  -2   1   12.06    1.31 
   3   2  -1    3.39    0.41 
  -3  -2   1    5.14    0.78 
  -3  -2   1    4.34    0.73 
  -3  -2   1    6.03    1.01 
  -3  -2   1    4.04    2.16 
   2   2  -1  103.77    6.92 
  -2  -2   1  112.74    7.37 
   1   2  -1   10.42    0.80 
   1   2  -1   12.11    1.29 
  -1  -2   1   12.18    1.37 
  -1  -2   1   12.38    1.19 
   0   2  -1   95.71    6.31 
   0   2  -1   88.33    6.02 
   0  -2   1   97.62    6.19 
   0  -2   1   89.85    6.31 
   0  -2   1   95.88    6.13 
  -1   2  -1    4.44    0.42 
  -1   2  -1    6.85    1.35 
   1  -2   1    4.33    0.93 
   1  -2   1    4.70    0.35 
   1  -2   1    5.08    0.53 
   1  -2   1    3.69    0.67 
  -2   2  -1   47.06    2.99 
   2  -2   1   44.92    3.52 
   2  -2   1   37.73    3.22 
   2  -2   1   47.54    2.89 
   2  -2   1   46.19    3.67 
  -3   2  -1  101.36    6.64 
   3  -2   1   90.12    6.91 
   3  -2   1  107.53    6.42 
  -4   2  -1   76.52    5.85 
  -4   2  -1   92.56    6.05 
  -4   2  -1   87.48    6.19 
  -4   2  -1   88.90    5.82 
   4  -2   1   83.47    5.64 
   4  -2   1   90.67    5.52 
   4  -2   1   78.48    6.28 
  -5   2  -1   25.15    2.62 
  -5   2  -1   30.00    2.30 
  -5   2  -1   28.54    2.23 
  -5   2  -1   28.48    2.57 
   5  -2   1   29.91    1.91 
   5  -2   1   23.41    5.48 
   5  -2   1   26.78    2.00 
  -6   2  -1   16.00    1.54 
  -6   2  -1   11.04    1.27 
   6  -2   1   14.22    1.05 
   6  -2   1   13.37    1.02 
   6   1  -1    4.63    0.64 
  -6  -1   1    3.60    0.80 
  -6  -1   1    5.02    0.87 
   5   1  -1    1.10    0.31 
  -5  -1   1    1.53    0.64 
  -5  -1   1    1.21    0.79 
   4   1  -1   15.85    1.06 
  -4  -1   1   15.48    1.42 
  -4  -1   1   15.17    1.46 
  -4  -1   1   13.66    1.53 
  -4  -1   1   12.79    1.47 
   3   1  -1    2.07    0.27 
  -3  -1   1    1.67    0.47 
  -3  -1   1    2.24    0.81 
  -3  -1   1    1.87    0.69 
   2   1  -1  133.70    8.40 
   2   1  -1  116.12    8.22 
  -2  -1   1  132.53    8.43 
  -2  -1   1  126.06    8.36 
  -2  -1   1  126.48    8.23 
   1   1  -1  974.00   56.52 
   1   1  -1  855.35   56.50 
  -1  -1   1  900.42   56.51 
  -1  -1   1  761.88   56.40 
  -1  -1   1  933.69   56.52 
   0   1  -1   91.74    5.86 
   0   1  -1   92.99    5.81 
   0  -1   1   91.98    5.81 
   0  -1   1   80.23    5.81 
   0  -1   1   91.23    5.86 
  -1   1  -1  375.06   24.90 
  -1   1  -1  413.54   24.92 
   1  -1   1  419.42   25.11 
   1  -1   1  350.73   25.04 
  -2   1  -1   17.66    1.25 
   2  -1   1   18.21    1.16 
   2  -1   1   15.00    1.47 
   2  -1   1   19.77    1.78 
   2  -1   1   17.57    1.85 
  -3   1  -1    9.31    0.91 
   3  -1   1    9.48    0.68 
   3  -1   1    9.73    1.32 
  -4   1  -1   49.81    3.59 
  -4   1  -1   50.58    3.73 
  -4   1  -1   55.68    3.69 
  -4   1  -1   44.95    3.60 
   4  -1   1   52.31    3.30 
   4  -1   1   49.17    3.57 
  -5   1  -1    6.99    1.23 
  -5   1  -1    6.70    1.36 
  -5   1  -1    6.38    1.14 
   5  -1   1    5.99    0.60 
  -6   1  -1    2.09    0.59 
  -6   1  -1    2.64    0.78 
   6  -1   1    1.46    0.33 
   6  -1   1    1.95    0.38 
   6   0  -1    1.81    0.37 
   6   0  -1    1.59    0.64 
  -6   0   1    0.50    0.54 
  -6   0   1    1.62    0.78 
   5   0  -1    7.04    0.62 
  -5   0   1    4.75    1.30 
  -5   0   1    7.16    1.17 
  -5   0   1    7.08    1.36 
   4   0  -1   11.28    0.81 
  -4   0   1   10.04    1.19 
  -4   0   1   11.09    1.65 
  -4   0   1   11.33    1.53 
   3   0  -1    1.38    0.86 
   3   0  -1    2.07    0.29 
   3   0  -1    2.23    1.05 
   2   0  -1  258.05   16.96 
   2   0  -1  260.63   16.93 
   2   0  -1  288.00   16.99 
  -2   0   1  246.95   16.89 
   1   0  -1   67.89    4.16 
   1   0  -1   63.59    4.24 
   1   0  -1   67.02    4.17 
  -1   0   1   58.77    4.18 
   0   0   1   74.38    4.82 
  -1   0  -1  145.07    9.93 
  -1   0  -1  167.02   10.15 
   1   0   1  148.86   10.00 
   1   0   1  156.94   10.10 
  -2   0  -1  185.95   11.20 
  -2   0  -1  183.61   11.66 
  -2   0  -1  164.65   11.19 
   2   0   1  168.61   11.52 
   2   0   1  167.67   11.11 
  -3   0  -1  461.75   31.16 
  -3   0  -1  553.95   31.28 
   3   0   1  466.95   31.33 
   3   0   1  463.02   31.01 
  -4   0  -1   70.24    4.93 
   4   0   1   75.36    4.62 
   4   0   1   67.42    4.76 
  -5   0  -1    1.23    0.59 
  -5   0  -1    0.33    0.77 
  -5   0  -1    1.29    0.87 
   5   0   1    1.09    0.31 
   5   0   1    1.72    0.46 
  -6   0  -1   12.70    1.52 
  -6   0  -1   15.32    1.37 
   6   0   1   15.40    1.15 
   6   0   1   14.84    1.11 
   6  -1  -1    2.50    0.51 
   6  -1  -1    3.50    0.50 
  -6   1   1    2.88    0.79 
   5  -1  -1   11.94    0.92 
  -5   1   1   11.18    1.38 
  -5   1   1   11.13    1.71 
  -5   1   1   14.15    1.65 
  -5   1   1   13.21    1.45 
   4  -1  -1    6.70    2.41 
   4  -1  -1    7.07    0.54 
  -4   1   1    5.66    0.91 
  -4   1   1    6.85    1.01 
  -4   1   1    7.38    1.27 
  -4   1   1    5.43    1.14 
   3  -1  -1   14.73    1.02 
   3  -1  -1   12.43    1.50 
   2  -1  -1   42.16    2.61 
   2  -1  -1   40.84    2.88 
   2  -1  -1   37.43    2.90 
   2  -1  -1   41.36    2.77 
  -2   1   1   38.88    2.69 
   1  -1  -1  286.31   17.63 
   1  -1  -1  269.36   17.53 
  -1   1   1  253.87   17.50 
  -1   1   1  286.76   17.63 
   0  -1  -1  351.08   24.06 
   0  -1  -1  367.59   24.18 
   0   1   1  408.58   24.21 
  -1  -1  -1  218.29   14.75 
   1   1   1  236.59   15.02 
   1   1   1  262.48   14.78 
   1   1   1  201.92   14.66 
  -2  -1  -1  110.82    7.65 
  -2  -1  -1  118.51    7.11 
  -2  -1  -1  103.68    7.19 
  -2  -1  -1   94.24    7.05 
   2   1   1  113.84    7.62 
   2   1   1  121.82    7.16 
   2   1   1   98.78    6.97 
  -3  -1  -1   38.57    2.66 
  -3  -1  -1   38.71    2.67 
  -3  -1  -1   34.86    2.76 
  -3  -1  -1   34.91    2.61 
   3   1   1   36.83    2.42 
  -4  -1  -1   -0.66    0.71 
  -4  -1  -1    0.04    0.55 
  -4  -1  -1    0.16    0.54 
  -4  -1  -1    1.12    0.62 
  -5  -1  -1   16.14    1.73 
  -5  -1  -1   18.55    1.84 
  -5  -1  -1   19.72    1.68 
   5   1   1   19.63    1.45 
   5   1   1   17.95    1.32 
  -6  -1  -1    4.71    1.01 
  -6  -1  -1    4.67    0.75 
   6   1   1    4.47    0.64 
   6   1   1    5.85    0.57 
   6  -2  -1   48.32    3.28 
   6  -2  -1   51.30    3.21 
  -6   2   1   50.65    3.54 
  -6   2   1   44.98    3.35 
   5  -2  -1  108.88    6.67 
  -5   2   1   96.63    6.91 
  -5   2   1  103.40    6.92 
  -5   2   1  104.14    7.09 
   4  -2  -1   21.64    2.72 
   4  -2  -1   24.46    1.59 
  -4   2   1   22.40    2.07 
  -4   2   1   23.14    1.93 
  -4   2   1   25.82    2.38 
  -4   2   1   23.51    2.15 
   3  -2  -1  200.25   12.13 
   3  -2  -1  180.06   12.35 
  -3   2   1  190.43   12.31 
  -3   2   1  188.21   12.43 
   2  -2  -1  480.97   32.11 
   2  -2  -1  529.57   32.55 
   2  -2  -1  509.79   32.20 
  -2   2   1  509.79   32.56 
  -2   2   1  490.40   32.22 
   1  -2  -1   25.48    2.17 
   1  -2  -1   26.82    1.85 
   1  -2  -1   25.90    1.71 
  -1   2   1   26.71    1.78 
   0  -2  -1  213.84   14.80 
   0  -2  -1  236.26   14.58 
   0  -2  -1  241.36   14.44 
   0   2   1  228.61   14.83 
   0   2   1  210.61   14.44 
  -1  -2  -1   99.86    7.32 
  -1  -2  -1  109.54    6.93 
   1   2   1  115.93    7.39 
   1   2   1   97.15    6.76 
  -2  -2  -1  121.60    7.39 
  -2  -2  -1  104.47    7.59 
   2   2   1  107.71    7.16 
  -3  -2  -1   -0.13    0.61 
  -3  -2  -1    0.28    0.51 
  -3  -2  -1    0.29    0.50 
   3   2   1   -1.02    0.58 
   3   2   1    0.22    0.18 
  -4  -2  -1    6.15    1.04 
  -4  -2  -1    7.57    1.31 
  -4  -2  -1    8.34    1.06 
  -4  -2  -1    9.58    1.17 
   4   2   1    8.17    0.68 
   4   2   1    7.28    0.95 
  -5  -2  -1    5.74    1.16 
  -5  -2  -1    4.81    1.11 
   5   2   1    4.81    0.65 
   5   2   1    4.81    0.57 
  -6  -2  -1    0.84    0.36 
  -6  -2  -1    1.50    0.56 
   6  -3  -1    0.41    0.33 
   6  -3  -1    1.04    0.33 
  -6   3   1    0.64    0.41 
  -6   3   1    0.40    0.55 
   5  -3  -1    0.15    0.49 
   5  -3  -1   -1.50    2.78 
   5  -3  -1    0.99    0.26 
  -5   3   1    1.57    0.88 
  -5   3   1    1.49    0.61 
  -5   3   1    1.30    1.12 
   4  -3  -1   33.97    3.52 
  -4   3   1   38.50    3.00 
  -4   3   1   41.68    2.81 
  -4   3   1   36.11    2.86 
  -4   3   1   37.50    2.88 
   3  -3  -1    0.92    0.17 
  -3   3   1    1.60    0.72 
  -3   3   1    0.96    0.45 
  -3   3   1    0.53    0.82 
   2  -3  -1   37.18    2.40 
   2  -3  -1   37.51    2.63 
  -2   3   1   35.88    2.55 
   1  -3  -1  103.56    8.04 
   1  -3  -1  114.44    7.54 
  -1   3   1  121.63    7.45 
  -1   3   1  117.59    8.05 
   0  -3  -1   77.21    5.29 
   0  -3  -1   82.89    5.08 
   0   3   1   74.90    5.08 
   0   3   1   80.70    5.93 
  -1  -3  -1  218.57   15.31 
  -1  -3  -1  266.08   15.68 
   1   3   1  229.96   15.30 
   1   3   1  244.09   16.24 
  -2  -3  -1    3.07    0.78 
  -2  -3  -1    4.61    0.82 
  -2  -3  -1    4.92    0.85 
   2   3   1    3.28    0.38 
   2   3   1    3.35    0.63 
  -3  -3  -1   22.75    1.82 
  -3  -3  -1   22.72    1.78 
  -3  -3  -1   18.66    2.48 
   3   3   1   22.89    1.54 
  -4  -3  -1   76.83    5.27 
  -4  -3  -1   74.61    5.08 
  -4  -3  -1   73.89    5.17 
  -4  -3  -1   76.86    5.15 
   4   3   1   74.52    5.00 
   4   3   1   76.52    4.94 
  -5  -3  -1   18.15    1.73 
  -5  -3  -1   17.84    1.62 
  -5  -3  -1   18.62    1.55 
   5   3   1   19.88    1.43 
   5   3   1   19.30    1.39 
   5   3   1   20.26    1.43 
   6  -4  -1   18.81    1.33 
  -6   4   1   16.97    1.41 
  -6   4   1   19.84    1.59 
   5  -4  -1   12.16    0.89 
   5  -4  -1   13.81    1.34 
   5  -4  -1    8.96    2.96 
  -5   4   1   11.23    1.53 
  -5   4   1    9.03    1.20 
  -5   4   1   11.51    2.28 
   4  -4  -1   11.36    1.11 
   4  -4  -1   13.20    0.91 
   4  -4  -1   10.63    2.39 
  -4   4   1   10.32    1.35 
  -4   4   1   13.16    1.59 
  -4   4   1   11.92    1.54 
  -4   4   1   13.02    1.39 
   3  -4  -1   38.23    2.65 
   3  -4  -1   41.68    2.52 
  -3   4   1   38.70    2.82 
  -3   4   1   38.78    2.96 
  -3   4   1   31.66    2.82 
  -3   4   1   38.88    2.84 
   2  -4  -1    5.49    0.86 
   2  -4  -1    6.21    0.51 
  -2   4   1    6.53    1.18 
  -2   4   1    6.87    0.98 
  -2   4   1    6.59    0.80 
   1  -4  -1    1.03    0.67 
   1  -4  -1    0.27    0.16 
   1  -4  -1    0.82    0.63 
  -1   4   1    0.29    0.31 
  -1   4   1    0.34    0.77 
   0  -4  -1   58.62    3.82 
   0  -4  -1   61.11    3.92 
   0  -4  -1   60.28    4.16 
   0   4   1   54.94    3.82 
  -1  -4  -1    2.72    0.79 
  -1  -4  -1    3.04    0.59 
  -1  -4  -1    2.73    0.64 
   1   4   1    2.87    0.37 
   1   4   1    3.07    0.52 
  -2  -4  -1  130.29    8.51 
  -2  -4  -1  123.81    8.54 
  -2  -4  -1  132.59    8.78 
   2   4   1  122.48    8.42 
   2   4   1  138.88    8.37 
  -3  -4  -1   30.11    2.24 
  -3  -4  -1   27.56    2.46 
  -3  -4  -1   31.61    2.29 
   3   4   1   29.78    2.16 
   3   4   1   30.04    2.06 
  -4  -4  -1   25.44    2.11 
  -4  -4  -1   20.18    2.13 
  -4  -4  -1   24.99    1.95 
   4   4   1   27.26    1.81 
   4   4   1   24.69    1.74 
  -5  -4  -1   13.00    1.24 
   5   4   1   13.64    0.97 
   5   4   1   11.65    0.98 
   6  -5  -1    4.05    0.42 
  -6   5   1    3.09    0.61 
   5  -5  -1    9.76    0.80 
   5  -5  -1    8.92    0.83 
   5  -5  -1   14.45    4.63 
  -5   5   1    7.61    1.04 
  -5   5   1   10.56    1.34 
  -5   5   1    9.47    1.32 
   4  -5  -1   72.88    4.50 
   4  -5  -1   71.77    4.54 
  -4   5   1   68.37    5.06 
  -4   5   1   58.85    4.71 
  -4   5   1   69.11    4.68 
  -4   5   1   71.16    4.88 
   3  -5  -1    9.97    0.78 
   3  -5  -1   10.87    0.92 
   3  -5  -1    7.74    1.92 
  -3   5   1    9.97    1.42 
  -3   5   1    8.81    1.22 
  -3   5   1    9.01    1.35 
   2  -5  -1   20.75    1.43 
  -2   5   1   20.23    1.76 
   1  -5  -1  153.63   10.51 
   1  -5  -1  166.37   10.29 
   1  -5  -1  153.19   10.66 
   1  -5  -1  159.30   10.32 
  -1   5   1  175.51   10.50 
  -1   5   1  151.80   10.50 
   0  -5  -1    0.39    0.58 
   0  -5  -1    1.00    0.40 
   0  -5  -1    1.22    0.48 
   0  -5  -1    0.50    0.83 
   0   5   1    0.30    0.35 
   0   5   1   -0.68    0.49 
   0   5   1   -0.21    0.72 
  -1  -5  -1    2.83    1.10 
  -1  -5  -1    3.92    0.66 
  -1  -5  -1    4.85    0.77 
   1   5   1    3.93    0.52 
   1   5   1    2.57    1.16 
  -2  -5  -1    1.87    0.58 
  -2  -5  -1    2.50    0.57 
   2   5   1    1.53    0.46 
   2   5   1    1.30    0.35 
  -3  -5  -1   57.85    4.05 
  -3  -5  -1   56.48    4.03 
   3   5   1   62.32    3.93 
   3   5   1   59.66    3.96 
  -4  -5  -1    0.39    0.44 
  -4  -5  -1    0.90    0.42 
  -4  -5  -1   -0.41    0.51 
   4   5   1    0.40    0.28 
   4   5   1    0.11    0.46 
   5  -6  -1    1.24    0.39 
   5  -6  -1    0.15    0.19 
  -5   6   1    0.66    0.63 
  -5   6   1    0.31    0.55 
  -5   6   1    0.48    0.37 
   4  -6  -1    3.06    2.47 
   4  -6  -1    5.06    0.62 
   4  -6  -1    6.03    0.79 
  -4   6   1    3.60    0.93 
  -4   6   1    5.63    0.95 
   3  -6  -1    3.20    0.44 
   3  -6  -1    2.24    0.40 
   3  -6  -1    3.39    1.96 
  -3   6   1    2.43    0.77 
  -3   6   1    2.71    0.65 
  -3   6   1    2.39    1.11 
  -3   6   1    2.92    0.82 
   2  -6  -1  237.16   15.16 
   2  -6  -1  238.22   15.19 
  -2   6   1  223.69   15.36 
  -2   6   1  246.54   15.49 
   1  -6  -1   78.91    5.58 
   1  -6  -1   79.81    5.36 
   1  -6  -1   81.45    5.38 
  -1   6   1   81.66    5.61 
  -1   6   1   88.98    5.67 
   0  -6  -1   42.34    2.99 
   0  -6  -1   41.23    2.77 
   0  -6  -1   41.01    2.89 
   0   6   1   35.85    2.75 
   0   6   1   44.44    3.16 
  -1  -6  -1   21.72    1.71 
  -1  -6  -1   19.66    1.64 
   1   6   1   19.68    1.55 
   1   6   1   20.96    2.13 
   1   6   1   19.21    1.49 
  -2  -6  -1   20.44    1.60 
  -2  -6  -1   18.92    1.57 
   2   6   1   18.48    1.48 
   2   6   1   18.85    1.44 
  -3  -6  -1   20.42    1.64 
  -3  -6  -1   21.91    1.68 
   3   6   1   22.66    1.55 
   3   6   1   21.40    1.66 
  -4  -6  -1   -0.29    0.34 
  -4  -6  -1   -0.07    0.35 
   4   6   1    0.26    0.21 
   4   6   1   -0.06    0.25 
   5  -7  -1    0.03    0.12 
  -5   7   1   -0.49    0.40 
   4  -7  -1    1.73    0.51 
  -4   7   1    2.55    0.54 
   3  -7  -1   74.82    5.15 
   3  -7  -1   81.13    5.34 
  -3   7   1   81.35    5.32 
   2  -7  -1    0.96    0.60 
   2  -7  -1    0.51    0.29 
   2  -7  -1   -0.19    3.07 
  -2   7   1    0.58    0.52 
  -2   7   1    1.45    1.20 
   1  -7  -1   26.19    1.93 
   1  -7  -1   26.36    1.83 
   1  -7  -1   24.95    2.18 
  -1   7   1   24.97    2.50 
  -1   7   1   26.20    2.11 
   0  -7  -1   15.97    1.48 
   0  -7  -1   13.62    1.31 
   0   7   1   15.80    2.07 
   0   7   1   19.58    1.73 
  -1  -7  -1   11.61    1.55 
   1   7   1   16.13    1.78 
   1   7   1   12.32    1.03 
  -2  -7  -1    4.05    0.69 
  -2  -7  -1    3.18    0.61 
   2   7   1    3.10    0.49 
  -3  -7  -1    8.19    0.82 
  -3  -7  -1    7.97    0.86 
   3   7   1    6.20    0.64 
   3   7   1    8.22    0.68 
   4  -8  -1    1.49    0.35 
  -4   8   1    1.98    0.41 
   3  -8  -1    1.00    0.37 
   3  -8  -1    0.63    0.26 
  -3   8   1    0.78    0.40 
   2  -8  -1   17.96    1.32 
   2  -8  -1   14.25    1.21 
  -2   8   1   18.36    1.43 
   1  -8  -1   -0.39    0.34 
  -1   8   1   -0.79    0.50 
   0  -8  -1   21.77    1.62 
   0  -8  -1   20.15    1.70 
   0   8   1   23.21    1.81 
  -1  -8  -1    0.17    0.34 
  -1  -8  -1    0.98    0.36 
   1   8   1    1.51    0.97 
  -2  -8  -1   17.05    1.12 
  -2  -8  -1   12.70    1.10 
   2  -9  -1    1.33    0.29 
  -2   9   1    2.07    0.39 
   1  -9  -1    2.90    0.40 
  -1   9   1    4.05    0.61 
  -1  -9   2    0.14    0.24 
   0   9  -2   17.27    3.17 
  -1   9  -2   -0.13    0.63 
   1  -9   2    0.41    0.41 
  -2   9  -2   18.50    1.45 
   2  -9   2   18.48    1.58 
  -3   9  -2    5.08    0.74 
   2   8  -2    8.27    0.67 
  -2  -8   2    5.32    1.38 
  -2  -8   2    6.81    0.70 
   1   8  -2    6.30    0.60 
  -1  -8   2    4.91    0.76 
  -1  -8   2    4.54    0.69 
   0   8  -2    3.64    0.60 
   0   8  -2    3.71    1.01 
   0  -8   2    3.73    0.67 
   0  -8   2    3.89    0.74 
  -1   8  -2    3.50    0.85 
   1  -8   2    5.34    0.90 
   1  -8   2    4.94    0.72 
  -2   8  -2   27.19    2.04 
   2  -8   2   26.05    1.86 
   2  -8   2   21.24    1.97 
  -3   8  -2    4.11    0.72 
   3  -8   2    4.78    0.73 
   3  -8   2    3.51    0.62 
  -4   8  -2    0.70    0.32 
   4  -8   2    0.86    0.37 
   3   7  -2    7.53    0.69 
   3   7  -2   10.69    1.16 
  -3  -7   2    7.08    1.01 
  -3  -7   2    7.49    1.03 
   2   7  -2    3.48    0.56 
  -2  -7   2    2.11    0.49 
  -2  -7   2    2.84    0.71 
   1   7  -2   23.12    1.83 
   1   7  -2   24.35    1.87 
  -1  -7   2   28.62    2.04 
  -1  -7   2   26.80    1.97 
   0   7  -2    6.26    1.21 
   0   7  -2    6.45    1.29 
   0  -7   2    6.25    1.04 
   0  -7   2    8.15    0.93 
  -1   7  -2    3.41    1.02 
  -1   7  -2    3.09    0.91 
   1  -7   2    1.63    0.61 
   1  -7   2    3.13    0.63 
  -2   7  -2   44.18    3.41 
  -2   7  -2   41.51    3.07 
   2  -7   2   38.87    2.66 
   2  -7   2   36.74    2.94 
   2  -7   2   35.86    5.91 
  -3   7  -2   28.70    2.68 
  -3   7  -2   30.97    2.50 
  -3   7  -2   34.75    3.56 
   3  -7   2   24.65    4.13 
   3  -7   2   34.65    2.50 
   3  -7   2   34.52    2.78 
   3  -7   2   33.18    2.18 
  -4   7  -2   36.69    2.56 
  -4   7  -2   34.55    2.56 
   4  -7   2   29.96    2.61 
   4  -7   2   37.66    2.35 
  -5   7  -2    6.32    0.81 
   5  -7   2    5.05    0.50 
   4   6  -2    4.24    0.67 
   4   6  -2    5.42    0.54 
  -4  -6   2    3.86    0.83 
  -4  -6   2    3.79    0.75 
   3   6  -2   57.29    3.72 
   3   6  -2   54.32    3.66 
  -3  -6   2   57.90    3.92 
  -3  -6   2   48.28    3.78 
  -3  -6   2   57.88    3.72 
   2   6  -2    0.56    0.35 
  -2  -6   2    1.43    0.46 
  -2  -6   2    1.66    0.96 
  -2  -6   2   -0.65    0.61 
   1   6  -2    7.57    1.14 
   1   6  -2    9.17    0.79 
  -1  -6   2    8.60    0.99 
  -1  -6   2    8.08    1.19 
   0   6  -2   47.31    4.36 
   0   6  -2   49.31    3.23 
   0   6  -2   44.00    3.07 
   0  -6   2   47.70    3.26 
   0  -6   2   42.41    3.22 
  -1   6  -2   54.71    3.46 
  -1   6  -2   47.57    3.38 
  -1   6  -2   51.06    3.75 
  -1   6  -2   54.81    3.61 
   1  -6   2   48.38    3.32 
   1  -6   2   50.13    3.52 
   1  -6   2   43.45    4.23 
  -2   6  -2   30.97    2.40 
  -2   6  -2   25.57    2.43 
   2  -6   2   30.03    2.34 
   2  -6   2   25.92    3.11 
   2  -6   2   30.40    2.00 
  -3   6  -2   56.34    3.95 
  -3   6  -2   52.27    3.79 
  -3   6  -2   44.70    3.91 
   3  -6   2   56.67    3.47 
   3  -6   2   43.09    4.49 
   3  -6   2   55.79    3.45 
  -4   6  -2   57.43    4.02 
  -4   6  -2   62.25    4.69 
  -4   6  -2   53.07    4.77 
   4  -6   2   54.52    3.77 
   4  -6   2   58.72    3.78 
  -5   6  -2    4.53    0.81 
  -5   6  -2    3.36    0.61 
   5  -6   2    4.49    0.47 
   5  -6   2    3.97    0.57 
   5   5  -2    0.24    0.28 
  -5  -5   2    0.80    0.39 
  -5  -5   2    0.05    0.44 
   4   5  -2    1.59    0.42 
  -4  -5   2    0.48    0.51 
  -4  -5   2    1.90    0.70 
  -4  -5   2    1.59    0.63 
   3   5  -2   29.15    2.15 
   3   5  -2   28.82    2.02 
  -3  -5   2   28.80    2.14 
  -3  -5   2   29.61    2.41 
  -3  -5   2   29.55    2.27 
   2   5  -2   -0.25    0.74 
   2   5  -2    1.34    0.32 
  -2  -5   2    1.44    0.62 
  -2  -5   2    1.40    0.79 
  -2  -5   2    1.73    0.51 
   1   5  -2  104.63    7.20 
   1   5  -2  118.28    7.35 
  -1  -5   2  117.34    7.35 
  -1  -5   2  104.20    7.50 
  -1  -5   2  112.80    7.33 
   0   5  -2    1.45    0.55 
   0   5  -2    1.77    1.39 
   0   5  -2    1.37    0.30 
   0  -5   2    1.94    0.75 
   0  -5   2    0.86    0.51 
  -1   5  -2   35.19    2.92 
  -1   5  -2   41.13    2.61 
  -1   5  -2   36.79    2.57 
  -1   5  -2   31.29    2.41 
   1  -5   2   35.76    2.64 
   1  -5   2   36.41    2.39 
   1  -5   2   39.05    2.45 
   1  -5   2   31.73    3.05 
  -2   5  -2    1.14    0.76 
  -2   5  -2    0.99    1.28 
  -2   5  -2    1.71    0.57 
   2  -5   2    1.55    0.34 
   2  -5   2    0.69    1.00 
   2  -5   2    1.44    0.27 
   2  -5   2    1.19    0.84 
  -3   5  -2    9.97    1.35 
  -3   5  -2    8.00    1.73 
  -3   5  -2   12.02    1.40 
   3  -5   2   10.10    0.83 
   3  -5   2    6.65    0.89 
   3  -5   2    7.68    1.87 
  -4   5  -2   27.03    2.25 
  -4   5  -2   26.98    2.67 
  -4   5  -2   26.48    2.59 
   4  -5   2   29.18    1.90 
   4  -5   2   29.45    1.94 
   4  -5   2   23.33    3.35 
  -5   5  -2    7.70    1.08 
  -5   5  -2    6.53    1.06 
  -5   5  -2   10.99    1.71 
   5  -5   2    6.24    2.93 
   5  -5   2    8.43    0.74 
  -6   5  -2    1.57    0.45 
   6  -5   2    2.04    0.31 
   5   4  -2   14.69    1.19 
   5   4  -2   15.66    1.16 
  -5  -4   2   14.41    1.42 
  -5  -4   2   14.85    1.30 
   4   4  -2    5.37    0.59 
  -4  -4   2    3.74    0.75 
  -4  -4   2    5.14    0.87 
  -4  -4   2    5.22    1.13 
   3   4  -2   50.65    3.40 
  -3  -4   2   54.08    3.52 
  -3  -4   2   50.47    3.68 
  -3  -4   2   49.81    3.61 
   2   4  -2   16.57    1.23 
   2   4  -2   17.58    2.01 
  -2  -4   2   17.99    1.46 
  -2  -4   2   19.27    1.67 
  -2  -4   2   16.87    1.65 
   1   4  -2   11.41    0.86 
  -1  -4   2   12.64    1.12 
   0   4  -2  308.49   19.25 
   0  -4   2  253.64   19.12 
   0  -4   2  268.03   18.48 
   0  -4   2  310.52   18.76 
  -1   4  -2  183.85   12.42 
  -1   4  -2  200.75   13.70 
   1  -4   2  224.75   12.41 
   1  -4   2  180.73   13.55 
   1  -4   2  175.26   12.80 
   1  -4   2  197.21   12.83 
  -2   4  -2   20.53    2.02 
  -2   4  -2   24.69    1.68 
   2  -4   2   24.42    1.49 
   2  -4   2   18.56    2.51 
   2  -4   2   21.38    1.58 
   2  -4   2   19.16    2.13 
  -3   4  -2    5.49    1.28 
  -3   4  -2    3.81    0.84 
  -3   4  -2    4.34    0.87 
   3  -4   2    4.44    0.40 
   3  -4   2    3.75    0.62 
   3  -4   2    2.58    1.12 
  -4   4  -2    8.83    1.43 
  -4   4  -2    8.06    1.74 
  -4   4  -2    6.95    1.29 
   4  -4   2    8.84    0.68 
   4  -4   2    7.94    0.81 
   4  -4   2    6.86    1.89 
  -5   4  -2   15.24    2.91 
  -5   4  -2   12.05    1.34 
   5  -4   2   12.15    0.93 
   5  -4   2   11.71    0.98 
   5  -4   2   10.16    2.82 
  -6   4  -2   -0.04    0.39 
   6  -4   2    0.07    0.43 
  -6  -3   2    6.36    0.68 
  -6  -3   2    6.54    0.80 
   5   3  -2    0.68    0.45 
   5   3  -2    0.82    0.52 
  -5  -3   2   -0.20    0.49 
  -5  -3   2    0.01    0.65 
   4   3  -2   21.49    1.50 
  -4  -3   2   21.96    1.99 
  -4  -3   2   19.99    1.99 
  -4  -3   2   21.77    1.88 
   3   3  -2   19.53    1.35 
  -3  -3   2   19.82    1.63 
  -3  -3   2   18.40    1.72 
  -3  -3   2   19.80    1.71 
   2   3  -2   18.79    1.41 
  -2  -3   2   21.38    2.96 
  -2  -3   2   24.28    1.92 
   1   3  -2  668.96   45.77 
   1   3  -2  768.01   46.32 
  -1  -3   2  732.90   46.16 
  -1  -3   2  702.32   46.28 
   0  -3   2  133.86    9.52 
   0  -3   2  154.86    9.63 
   0  -3   2  148.09    9.87 
  -1   3  -2   56.35    4.37 
  -1   3  -2   59.98    3.67 
  -1   3  -2   54.91    3.62 
   1  -3   2   60.05    3.58 
   1  -3   2   53.57    4.37 
   1  -3   2   55.36    3.83 
   1  -3   2   46.46    3.89 
  -2   3  -2   30.32    2.08 
   2  -3   2   26.65    2.44 
   2  -3   2   31.71    1.95 
  -3   3  -2   58.83    4.50 
  -3   3  -2   58.27    4.25 
  -3   3  -2   62.09    4.43 
   3  -3   2   68.52    3.94 
   3  -3   2   55.26    4.56 
   3  -3   2   59.82    4.02 
  -4   3  -2    0.45    1.02 
  -4   3  -2    0.59    0.72 
  -4   3  -2   -0.25    0.68 
   4  -3   2    0.58    0.36 
   4  -3   2   -0.01    1.30 
   4  -3   2    0.11    0.29 
  -5   3  -2   17.75    2.66 
  -5   3  -2   17.45    1.70 
  -5   3  -2   19.33    2.08 
   5  -3   2   18.35    1.40 
   5  -3   2   15.03    3.93 
   5  -3   2   20.03    1.32 
  -6   3  -2   10.30    1.09 
  -6   3  -2   11.75    1.44 
   6  -3   2   12.31    0.94 
   6  -3   2   13.17    0.93 
  -6  -2   2   61.10    3.93 
  -6  -2   2   55.63    3.99 
   5   2  -2    3.83    0.57 
  -5  -2   2    5.65    1.19 
  -5  -2   2    6.08    1.00 
   4   2  -2    6.74    0.62 
  -4  -2   2    7.75    1.09 
  -4  -2   2    7.43    1.29 
  -4  -2   2    6.54    1.00 
   3   2  -2    4.41    0.45 
  -3  -2   2    5.44    1.16 
  -3  -2   2    7.31    1.18 
  -3  -2   2    4.08    0.79 
   2   2  -2   39.34    2.70 
  -2  -2   2   44.69    3.31 
   1   2  -2    3.92    0.84 
   1   2  -2    3.58    0.37 
  -1  -2   2    3.29    0.65 
  -1  -2   2    5.38    0.99 
   0   2  -2   58.99    3.84 
   0   2  -2   63.27    4.17 
   0  -2   2   56.96    4.00 
   0  -2   2   58.00    4.01 
   0  -2   2   60.74    4.17 
  -1   2  -2   99.68    6.51 
  -1   2  -2  102.41    6.53 
   1  -2   2   88.27    6.72 
   1  -2   2  107.14    6.58 
   1  -2   2  100.62    6.89 
   1  -2   2  108.99    6.48 
  -2   2  -2  548.55   34.32 
   2  -2   2  501.54   34.59 
   2  -2   2  561.22   34.97 
   2  -2   2  537.90   34.79 
  -3   2  -2  393.91   24.16 
  -3   2  -2  382.63   24.18 
   3  -2   2  352.62   24.44 
   3  -2   2  371.37   23.94 
  -4   2  -2   14.53    1.51 
  -4   2  -2   11.54    2.28 
  -4   2  -2   13.56    1.47 
  -4   2  -2   12.31    1.55 
   4  -2   2   11.66    1.27 
   4  -2   2   14.75    2.19 
   4  -2   2   15.24    0.99 
  -5   2  -2   30.39    2.39 
  -5   2  -2   29.19    2.32 
  -5   2  -2   27.92    2.64 
  -5   2  -2   27.52    2.81 
   5  -2   2   30.31    1.99 
   5  -2   2   29.06    2.06 
  -6   2  -2    6.82    1.27 
   6  -2   2    7.13    0.65 
   6  -2   2    6.74    0.67 
  -6  -1   2    5.84    1.07 
  -6  -1   2    6.90    0.90 
   5   1  -2  118.54    7.91 
  -5  -1   2  125.20    8.18 
  -5  -1   2  125.44    8.30 
   4   1  -2   43.31    2.87 
  -4  -1   2   46.56    3.20 
  -4  -1   2   40.25    3.20 
  -4  -1   2   45.44    3.31 
  -3  -1   2  158.91   10.38 
  -3  -1   2  163.67   10.33 
  -3  -1   2  150.48   10.27 
   2   1  -2   15.28    1.03 
   2   1  -2   13.68    1.50 
  -2  -1   2   14.07    1.10 
   1   1  -2  327.08   20.10 
   1   1  -2  317.87   20.20 
  -1  -1   2  274.59   20.06 
  -1  -1   2  332.11   20.20 
  -1  -1   2  318.76   20.11 
   0   1  -2  171.68   10.91 
   0   1  -2  170.04   10.84 
   0  -1   2  160.74   10.88 
   0  -1   2  170.09   10.86 
  -1   1  -2  551.84   34.13 
  -1   1  -2  483.12   34.12 
   1  -1   2  564.55   34.46 
   1  -1   2  584.49   34.42 
   1  -1   2  527.40   34.09 
   1  -1   2  499.55   34.29 
  -2   1  -2    8.95    0.76 
  -2   1  -2    9.20    0.74 
   2  -1   2    8.73    1.04 
   2  -1   2    8.79    1.71 
   2  -1   2    8.64    1.70 
  -3   1  -2   19.89    1.68 
  -3   1  -2   19.50    1.78 
  -3   1  -2   18.81    1.49 
   3  -1   2   17.62    1.86 
   3  -1   2   19.61    1.29 
  -4   1  -2    9.83    1.76 
  -4   1  -2   11.01    2.35 
  -4   1  -2   11.46    1.40 
   4  -1   2   14.81    2.23 
   4  -1   2   13.91    1.17 
   4  -1   2   12.16    0.90 
  -5   1  -2    3.60    1.47 
  -5   1  -2    6.73    1.13 
  -5   1  -2    6.25    0.94 
   5  -1   2    5.52    0.75 
   5  -1   2    5.35    0.57 
  -6   1  -2    0.12    0.63 
   6  -1   2    0.54    0.25 
   6  -1   2    0.30    0.36 
   6   0  -2   10.26    0.94 
  -6   0   2   11.84    1.24 
  -6   0   2   11.47    1.26 
   5   0  -2   21.00    1.52 
  -5   0   2   22.18    1.90 
  -5   0   2   23.81    2.08 
   4   0  -2   64.44    3.87 
  -4   0   2   58.70    4.20 
  -4   0   2   50.96    4.85 
  -4   0   2   62.04    4.21 
   3   0  -2   32.34    2.77 
   3   0  -2   23.18    2.33 
  -3   0   2   28.69    1.98 
  -3   0   2   26.05    2.30 
   2   0  -2  307.50   19.49 
  -2   0   2  296.48   19.35 
  -1   0   2  878.90   56.01 
   0   0   2    8.52    0.63 
   0   0   2   10.73    0.83 
  -1   0  -2   52.40    3.82 
  -1   0  -2   61.01    3.87 
  -1   0  -2   63.31    4.23 
   1   0   2   61.83    3.98 
   1   0   2   56.58    4.12 
   1   0   2   58.66    3.79 
  -2   0  -2  282.38   17.52 
  -2   0  -2  282.38   18.26 
  -2   0  -2  255.95   17.51 
  -2   0  -2  279.57   17.53 
   2   0   2  273.78   17.99 
   2   0   2  265.94   17.69 
  -3   0  -2   86.29    6.07 
  -3   0  -2   94.72    6.11 
  -3   0  -2   92.22    6.15 
   3   0   2   95.82    6.34 
   3   0   2   89.66    5.91 
  -4   0  -2    5.68    1.02 
  -4   0  -2    5.42    0.93 
  -4   0  -2    6.62    1.33 
   4   0   2    4.61    0.83 
   4   0   2    5.30    0.50 
  -5   0  -2    5.10    0.89 
  -5   0  -2    7.00    1.10 
   5   0   2    6.00    0.75 
   5   0   2    5.11    0.58 
  -6   0  -2   10.04    1.37 
  -6   0  -2   12.15    1.18 
   6   0   2   11.44    0.95 
   6   0   2   11.54    0.90 
   6  -1  -2   38.32    2.42 
  -6   1   2   36.75    2.66 
  -6   1   2   33.22    2.69 
   5  -1  -2   16.79    1.16 
  -5   1   2   16.53    1.73 
  -5   1   2   15.67    2.04 
  -5   1   2   14.65    1.85 
  -5   1   2   15.93    1.57 
   4  -1  -2   56.58    3.57 
   4  -1  -2   46.23    4.47 
  -4   1   2   60.99    3.96 
  -4   1   2   54.66    3.88 
  -4   1   2   53.63    3.88 
  -4   1   2   58.41    4.48 
   3  -1  -2   13.96    0.99 
   3  -1  -2   14.06    2.06 
  -3   1   2   15.99    1.64 
  -3   1   2   15.34    1.21 
   2  -1  -2  117.81    7.24 
   2  -1  -2  110.49    7.33 
   2  -1  -2  111.88    7.38 
  -2   1   2  106.15    7.23 
   1  -1  -2  510.62   30.43 
   1  -1  -2  460.78   30.30 
  -1   1   2  424.97   30.25 
  -1   1   2  500.74   30.41 
   0  -1  -2  582.19   35.75 
   0  -1  -2  514.92   35.53 
   0  -1  -2  561.71   35.44 
   0   1   2  566.54   35.73 
  -1  -1  -2   62.67    4.50 
  -1  -1  -2   70.25    4.62 
   1   1   2   63.94    4.48 
   1   1   2   71.04    5.01 
   1   1   2   80.77    4.69 
  -2  -1  -2   14.16    2.24 
  -2  -1  -2   11.60    1.09 
   2   1   2   13.07    2.32 
   2   1   2   13.57    1.83 
  -3  -1  -2   21.03    1.79 
  -3  -1  -2   22.11    1.66 
  -3  -1  -2   21.18    1.69 
   3   1   2   17.43    1.66 
   3   1   2   21.07    1.40 
  -4  -1  -2    3.08    0.67 
  -4  -1  -2    3.17    0.93 
  -4  -1  -2    2.92    0.68 
  -4  -1  -2    3.03    0.74 
   4   1   2    3.26    0.44 
  -5  -1  -2    7.02    1.21 
  -5  -1  -2    9.01    1.16 
  -5  -1  -2    8.30    1.41 
   5   1   2    7.39    0.72 
   5   1   2    8.43    0.82 
  -6  -1  -2    0.40    0.43 
  -6  -1  -2    1.31    0.58 
   6   1   2    0.26    0.20 
  -6   2   2    0.05    0.46 
  -6   2   2   -0.21    0.53 
   5  -2  -2   10.32    0.76 
  -5   2   2    8.95    1.47 
  -5   2   2    8.62    1.73 
  -5   2   2    9.50    1.21 
  -5   2   2    8.11    1.41 
   4  -2  -2   30.18    1.79 
   4  -2  -2   22.72    2.92 
  -4   2   2   24.14    2.15 
  -4   2   2   26.39    2.16 
  -4   2   2   28.72    2.40 
  -4   2   2   26.45    2.43 
  -4   2   2   27.46    2.28 
   3  -2  -2   10.08    0.67 
  -3   2   2    8.17    1.44 
  -3   2   2    7.67    1.24 
  -3   2   2    9.76    0.92 
   2  -2  -2   25.17    1.80 
   2  -2  -2   24.00    2.43 
   2  -2  -2   25.77    1.61 
  -2   2   2   24.91    1.74 
  -2   2   2   21.65    2.36 
   1  -2  -2   14.69    1.60 
   1  -2  -2   13.36    0.88 
   1  -2  -2   12.68    1.08 
  -1   2   2   12.60    0.96 
  -1   2   2   12.94    1.62 
   0  -2  -2  532.41   34.70 
   0  -2  -2  544.95   34.54 
   0  -2  -2  535.89   35.02 
   0   2   2  501.21   34.54 
   0   2   2  595.88   35.08 
  -1  -2  -2  100.67    6.54 
  -1  -2  -2   94.27    7.23 
  -1  -2  -2  112.85    6.74 
   1   2   2   97.77    6.53 
  -2  -2  -2   36.24    2.59 
  -2  -2  -2   35.72    3.10 
   2   2   2   33.24    2.30 
  -3  -2  -2    2.36    0.75 
  -3  -2  -2    1.70    0.54 
  -3  -2  -2    1.94    0.57 
   3   2   2    1.95    0.29 
   3   2   2    2.81    0.51 
  -4  -2  -2   24.10    2.20 
  -4  -2  -2   26.93    2.07 
  -4  -2  -2   25.52    2.15 
  -4  -2  -2   24.60    2.01 
   4   2   2   25.67    1.87 
   4   2   2   26.47    1.78 
  -5  -2  -2   13.71    1.58 
  -5  -2  -2   15.37    1.47 
  -5  -2  -2   15.13    1.43 
  -5  -2  -2   15.05    1.36 
   5   2   2   13.81    1.21 
   5   2   2   16.29    1.18 
   5   2   2   13.74    1.11 
  -6  -2  -2   18.63    1.73 
   6   2   2   24.88    1.55 
   6  -3  -2  111.24    6.59 
  -6   3   2   96.10    6.66 
  -6   3   2   98.24    6.76 
   5  -3  -2   -0.94    2.87 
  -5   3   2    2.78    1.25 
  -5   3   2    4.37    0.95 
   4  -3  -2    4.89    0.47 
   4  -3  -2    3.04    1.74 
  -4   3   2    6.36    1.16 
  -4   3   2    4.72    0.98 
  -4   3   2    4.12    0.79 
  -4   3   2    6.27    0.95 
   3  -3  -2    1.43    0.24 
  -3   3   2    2.07    0.82 
  -3   3   2    0.68    0.62 
  -3   3   2    1.20    0.51 
  -3   3   2    2.29    0.72 
   2  -3  -2    1.36    0.65 
   2  -3  -2    1.61    0.23 
   1  -3  -2   48.39    3.46 
   1  -3  -2   50.90    3.22 
  -1   3   2   49.06    3.32 
   0  -3  -2   25.19    3.11 
   0  -3  -2   18.86    1.26 
   0  -3  -2   19.60    1.54 
   0   3   2   12.81    2.87 
   0   3   2   17.68    1.28 
  -1  -3  -2    6.28    0.66 
  -1  -3  -2    6.55    3.54 
  -1  -3  -2    7.37    0.96 
   1   3   2    6.96    0.57 
   1   3   2   13.62    3.01 
  -2  -3  -2   38.40    2.67 
  -2  -3  -2   38.26    2.66 
  -2  -3  -2   37.95    2.90 
   2   3   2   37.78    2.47 
   2   3   2   33.83    2.57 
  -3  -3  -2    9.50    1.09 
  -3  -3  -2   11.30    1.15 
  -3  -3  -2    7.83    1.50 
   3   3   2    9.62    0.96 
  -4  -3  -2   25.23    2.14 
  -4  -3  -2   24.91    2.21 
  -4  -3  -2   25.23    2.06 
  -4  -3  -2   26.86    2.05 
   4   3   2   26.79    1.90 
   4   3   2   27.61    1.84 
  -5  -3  -2    1.80    1.05 
  -5  -3  -2    2.74    0.57 
  -5  -3  -2    2.14    0.50 
  -5  -3  -2    1.49    0.63 
   5   3   2    3.20    0.49 
   5   3   2    3.20    0.49 
   5   3   2    1.94    0.38 
   6  -4  -2    0.56    0.27 
  -6   4   2    0.53    0.46 
  -6   4   2    0.23    0.28 
   5  -4  -2   29.99    2.07 
   5  -4  -2   30.67    1.97 
   5  -4  -2   21.81    5.12 
  -5   4   2   27.91    2.36 
   4  -4  -2    2.50    0.35 
   4  -4  -2    2.76    0.55 
   4  -4  -2    0.74    1.60 
  -4   4   2    2.50    0.67 
  -4   4   2    3.52    0.93 
  -4   4   2    2.85    0.96 
   3  -4  -2   41.69    2.55 
   3  -4  -2   36.90    2.68 
  -3   4   2   40.27    3.02 
  -3   4   2   35.02    2.88 
  -3   4   2   38.60    2.87 
   2  -4  -2    4.68    1.08 
   2  -4  -2    5.56    0.78 
   2  -4  -2    6.20    0.50 
  -2   4   2    6.81    1.23 
  -2   4   2    4.87    1.04 
  -2   4   2    5.33    0.77 
  -2   4   2    7.64    1.24 
   1  -4  -2   49.97    3.31 
   1  -4  -2   51.29    3.61 
   1  -4  -2   48.59    3.21 
  -1   4   2   44.46    3.45 
  -1   4   2   46.10    3.50 
  -1   4   2   54.21    3.38 
   0  -4  -2   11.52    1.45 
   0  -4  -2   10.97    0.97 
   0  -4  -2   10.51    1.30 
   0  -4  -2   10.73    0.79 
   0   4   2   11.33    0.86 
   0   4   2    8.39    0.97 
   0   4   2    7.65    1.32 
  -1  -4  -2    1.98    0.55 
  -1  -4  -2    1.28    0.84 
  -1  -4  -2    1.81    0.61 
  -1  -4  -2    1.78    0.51 
   1   4   2    1.63    0.31 
   1   4   2    2.05    0.88 
  -2  -4  -2   11.96    1.19 
  -2  -4  -2   11.19    1.80 
  -2  -4  -2   12.33    1.21 
   2   4   2   11.68    1.07 
   2   4   2   12.98    0.95 
   2   4   2   14.02    2.09 
  -3  -4  -2    0.16    0.51 
  -3  -4  -2    1.17    1.02 
  -3  -4  -2    0.89    0.88 
   3   4   2    0.50    0.38 
   3   4   2   -0.03    0.30 
  -4  -4  -2    6.54    1.39 
  -4  -4  -2   13.48    1.80 
  -4  -4  -2    9.17    1.28 
  -4  -4  -2   10.82    1.08 
   4   4   2   10.44    0.94 
   4   4   2    8.21    0.87 
  -5  -4  -2   10.80    1.13 
   5   4   2   12.67    0.90 
   5   4   2   13.04    1.02 
   6  -5  -2    1.72    0.30 
  -6   5   2    1.26    0.43 
  -6   5   2    1.02    0.27 
   5  -5  -2    0.34    0.34 
   5  -5  -2    1.15    0.31 
  -5   5   2    0.54    0.40 
  -5   5   2    1.09    0.72 
  -5   5   2    0.77    0.63 
   4  -5  -2    1.35    2.15 
   4  -5  -2   -0.02    0.26 
   4  -5  -2    0.28    0.37 
  -4   5   2   -0.36    0.77 
  -4   5   2    0.41    0.56 
  -4   5   2    0.13    0.55 
  -4   5   2   -0.94    1.24 
   3  -5  -2    6.31    0.76 
   3  -5  -2    5.79    0.59 
   3  -5  -2    5.27    1.62 
  -3   5   2    5.08    1.03 
  -3   5   2    7.01    1.15 
  -3   5   2    6.81    1.17 
  -3   5   2    8.16    1.39 
   2  -5  -2   33.48    2.32 
   2  -5  -2   33.27    2.27 
   2  -5  -2   30.18    3.05 
  -2   5   2   34.56    2.65 
  -2   5   2   33.90    2.58 
  -2   5   2   34.54    2.55 
   1  -5  -2   28.07    1.78 
   1  -5  -2   25.46    2.50 
   1  -5  -2   23.07    2.35 
  -1   5   2   25.62    2.02 
   0  -5  -2    9.79    0.91 
   0  -5  -2    8.87    1.22 
   0  -5  -2    9.77    1.66 
   0   5   2   11.42    0.93 
   0   5   2    9.70    2.00 
  -1  -5  -2    1.47    1.13 
  -1  -5  -2    0.96    0.58 
  -1  -5  -2    0.42    0.47 
   1   5   2    0.75    0.80 
   1   5   2    0.91    0.36 
   1   5   2    1.70    0.40 
  -2  -5  -2  294.74   18.62 
   2   5   2  305.18   18.48 
   2   5   2  263.94   18.84 
   2   5   2  287.73   18.50 
  -3  -5  -2    1.32    0.48 
  -3  -5  -2    1.59    0.52 
   3   5   2    0.79    0.37 
   3   5   2    1.91    0.50 
  -4  -5  -2    0.97    0.39 
  -4  -5  -2    0.18    0.43 
  -4  -5  -2    1.13    0.42 
   4   5   2    0.83    0.25 
   4   5   2    1.00    0.30 
   4   5   2    1.26    0.49 
  -5   6   2    1.79    0.70 
  -5   6   2    1.86    0.38 
   4  -6  -2   31.91    2.07 
  -4   6   2   30.61    2.40 
  -4   6   2   27.30    2.23 
  -4   6   2   29.64    2.16 
   3  -6  -2   13.22    1.03 
   3  -6  -2   10.20    4.06 
   3  -6  -2   12.74    1.05 
  -3   6   2   12.12    1.31 
  -3   6   2   11.28    1.43 
  -3   6   2   12.67    1.49 
  -3   6   2   15.57    2.07 
   2  -6  -2   51.57    3.41 
   2  -6  -2   51.79    3.38 
  -2   6   2   49.67    3.77 
  -2   6   2   49.59    3.59 
   1  -6  -2   27.43    1.88 
   1  -6  -2   26.51    2.31 
   1  -6  -2   26.78    1.89 
   1  -6  -2   20.43    3.38 
   1  -6  -2   23.76    3.09 
  -1   6   2   25.60    2.17 
  -1   6   2   30.08    2.33 
   0  -6  -2   37.47    2.56 
   0  -6  -2   36.23    3.54 
   0  -6  -2   37.14    2.63 
   0  -6  -2   34.54    2.76 
   0   6   2   40.74    2.86 
   0   6   2   33.69    3.23 
  -1  -6  -2   20.91    1.70 
  -1  -6  -2   18.92    1.60 
   1   6   2   20.16    1.45 
   1   6   2   18.15    1.92 
  -2  -6  -2   20.24    1.66 
  -2  -6  -2   19.47    1.63 
   2   6   2   20.92    1.50 
   2   6   2   21.71    2.50 
  -3  -6  -2    8.82    0.85 
  -3  -6  -2    7.53    0.83 
   3   6   2    8.03    0.72 
  -4  -6  -2    0.19    0.22 
  -4  -6  -2    0.04    0.38 
   4   6   2    0.20    0.38 
   4   6   2    0.07    0.15 
   4  -7  -2    0.43    0.21 
  -4   7   2   -0.49    0.53 
  -4   7   2   -0.14    0.38 
   3  -7  -2   32.14    2.23 
   3  -7  -2   33.22    2.30 
  -3   7   2   33.03    2.37 
   2  -7  -2   85.96    5.41 
   2  -7  -2   73.54    5.43 
   1  -7  -2   14.15    2.27 
   1  -7  -2   15.48    1.36 
   1  -7  -2   15.66    1.33 
  -1   7   2   15.71    2.46 
  -1   7   2   15.91    1.49 
   0  -7  -2    9.33    0.94 
  -1  -7  -2   77.35    5.35 
  -1  -7  -2   82.50    5.41 
   1   7   2   82.40    5.48 
  -2  -7  -2    3.01    0.61 
  -2  -7  -2    2.27    0.46 
   2   7   2    3.54    0.56 
  -3  -7  -2    3.86    0.58 
  -3  -7  -2    3.48    0.51 
   3   7   2    2.59    0.40 
   3  -8  -2   16.73    1.31 
   3  -8  -2   17.82    1.34 
  -3   8   2   18.94    1.43 
  -3   8   2   21.59    1.40 
   2  -8  -2    5.58    0.67 
  -2   8   2    7.21    0.76 
   1  -8  -2    2.14    0.41 
   1  -8  -2    1.44    0.79 
  -1   8   2    1.88    0.67 
  -1   8   2    1.40    0.47 
   0  -8  -2    8.40    1.08 
   0  -8  -2    6.74    0.76 
   0   8   2    7.67    1.01 
  -1  -8  -2    2.68    0.52 
   1   8   2    2.60    0.86 
  -1  -9   3    2.98    0.58 
   0  -9   3   -0.17    0.26 
  -1   9  -3    0.28    0.87 
   1  -9   3   -0.05    0.32 
  -2   9  -3    0.06    0.58 
   2  -9   3    0.17    0.51 
  -3   9  -3    3.90    0.65 
   2   8  -3   14.17    1.00 
  -2  -8   3   12.96    1.03 
   1   8  -3    5.90    0.63 
  -1  -8   3    5.90    0.74 
   0   8  -3    9.99    0.91 
   0   8  -3   11.94    1.99 
   0  -8   3   11.52    1.05 
  -1   8  -3    5.17    0.95 
   1  -8   3    5.97    1.07 
   1  -8   3    4.01    0.68 
  -2   8  -3    9.07    1.24 
   2  -8   3    6.82    1.01 
   2  -8   3    8.16    1.13 
  -3   8  -3    4.10    0.73 
   3  -8   3    5.08    0.81 
   3  -8   3    3.37    0.95 
   4  -8   3    2.60    0.70 
   3   7  -3    4.88    0.81 
   3   7  -3    5.02    0.54 
  -3  -7   3    3.12    0.93 
   2   7  -3    2.29    0.61 
   2   7  -3    2.12    0.42 
  -2  -7   3    3.42    0.65 
   1   7  -3    4.94    0.74 
  -1  -7   3    5.62    0.82 
   0   7  -3   52.75    3.74 
   0   7  -3   45.99    3.22 
   0   7  -3   38.79    3.80 
   0   7  -3   52.69    3.33 
   0  -7   3   43.93    3.36 
   0  -7   3   49.21    3.33 
  -1   7  -3    9.91    1.63 
  -1   7  -3    9.18    1.79 
   1  -7   3    6.21    1.04 
   1  -7   3    6.61    0.93 
  -2   7  -3   63.77    4.59 
  -2   7  -3   60.28    4.26 
   2  -7   3   59.73    4.14 
   2  -7   3   54.70    3.88 
  -3   7  -3    3.35    0.81 
  -3   7  -3    6.56    1.34 
   3  -7   3    5.53    2.45 
   3  -7   3    4.58    0.99 
  -4   7  -3    5.25    0.92 
  -4   7  -3    5.79    0.98 
   4  -7   3    4.85    0.59 
  -5   7  -3    6.30    0.70 
   5  -7   3    5.51    0.50 
   4   6  -3    5.88    0.93 
   4   6  -3    6.46    0.65 
  -4  -6   3    4.41    0.86 
   3   6  -3    9.27    0.86 
   3   6  -3    8.87    0.94 
  -3  -6   3    9.77    0.96 
  -3  -6   3    8.57    1.22 
   2   6  -3   16.02    1.54 
   2   6  -3   14.78    1.17 
  -2  -6   3   15.25    1.30 
  -2  -6   3   13.88    1.70 
   1   6  -3    0.46    0.31 
   1   6  -3    0.47    0.57 
  -1  -6   3    0.52    0.43 
  -1  -6   3    2.15    0.84 
  -1  -6   3    0.84    0.87 
   0   6  -3    0.28    0.44 
   0   6  -3   -0.46    0.51 
   0  -6   3   -0.35    0.45 
  -1   6  -3   20.37    1.65 
  -1   6  -3   20.39    1.54 
  -1   6  -3   22.56    1.87 
  -1   6  -3   20.62    2.19 
   1  -6   3   21.02    1.69 
   1  -6   3   18.08    2.74 
  -2   6  -3  157.02   10.14 
  -2   6  -3  148.24   10.18 
   2  -6   3  134.67   10.68 
   2  -6   3  158.32    9.87 
   2  -6   3  151.83   10.04 
   2  -6   3  167.34    9.96 
  -3   6  -3   17.66    1.89 
  -3   6  -3   22.24    2.37 
   3  -6   3   22.68    1.53 
   3  -6   3   20.78    1.55 
   3  -6   3   22.17    2.07 
   3  -6   3   20.58    2.95 
  -4   6  -3    8.60    1.26 
   4  -6   3   11.12    0.97 
   4  -6   3   11.22    2.90 
   4  -6   3   10.26    0.85 
  -5   6  -3    0.46    0.46 
  -5   6  -3   -0.03    0.40 
   5  -6   3   -0.15    0.19 
   5   5  -3    1.31    0.31 
  -5  -5   3   -0.28    0.50 
  -5  -5   3    0.78    0.38 
   4   5  -3   17.26    1.44 
   4   5  -3   20.57    1.49 
  -4  -5   3   16.58    1.71 
  -4  -5   3   17.74    1.60 
   3   5  -3    9.84    0.85 
  -3  -5   3    9.22    1.29 
  -3  -5   3   13.31    1.67 
  -3  -5   3    8.89    1.03 
   2   5  -3    0.92    0.28 
   2   5  -3   -0.19    0.69 
  -2  -5   3   -0.08    0.44 
  -2  -5   3    0.54    0.68 
   1   5  -3   11.42    1.24 
   1   5  -3    8.95    0.74 
  -1  -5   3    9.43    1.46 
  -1  -5   3    7.72    0.95 
   0   5  -3  119.40    7.35 
   0   5  -3  102.03    7.21 
   0  -5   3  114.14    7.34 
  -1   5  -3   67.32    3.99 
  -1   5  -3   59.83    3.94 
  -1   5  -3   52.07    3.80 
  -1   5  -3   55.99    4.35 
   1  -5   3   60.35    3.83 
   1  -5   3   54.29    4.43 
   1  -5   3   56.22    3.97 
  -2   5  -3  175.40   12.05 
  -2   5  -3  204.01   11.98 
  -2   5  -3  175.38   11.82 
   2  -5   3  183.56   11.93 
   2  -5   3  186.57   11.77 
   2  -5   3  196.03   11.75 
   2  -5   3  160.57   12.36 
  -3   5  -3   43.71    3.34 
  -3   5  -3   47.42    3.32 
   3  -5   3   46.54    2.97 
   3  -5   3   40.91    3.93 
   3  -5   3   35.98    3.80 
   3  -5   3   47.47    3.00 
  -4   5  -3   -0.90    1.27 
  -4   5  -3    0.33    0.65 
   4  -5   3    0.02    1.62 
   4  -5   3   -0.46    0.30 
   4  -5   3    0.38    0.31 
  -5   5  -3   13.78    1.30 
   5  -5   3    7.80    3.00 
   5  -5   3   13.04    0.96 
   5  -5   3   11.41    0.99 
  -6   5  -3   17.13    1.32 
   6  -5   3   17.57    1.24 
   5   4  -3    0.33    0.40 
   5   4  -3    0.90    0.65 
  -5  -4   3    0.47    0.65 
  -5  -4   3    0.20    0.40 
   4   4  -3    3.75    0.95 
   4   4  -3    4.42    0.59 
  -4  -4   3    4.32    0.94 
  -4  -4   3    6.59    1.04 
  -4  -4   3    5.47    1.04 
   3   4  -3  103.47    6.57 
  -3  -4   3   97.95    6.77 
  -3  -4   3  103.33    6.64 
  -3  -4   3  100.53    6.82 
   2   4  -3  345.84   23.45 
  -2  -4   3  392.53   23.54 
  -2  -4   3  362.55   23.64 
   1   4  -3    1.01    0.26 
  -1  -4   3    0.19    0.92 
  -1  -4   3    1.70    0.52 
   0   4  -3   10.74    0.83 
   0  -4   3   11.18    1.37 
   0  -4   3    8.75    1.70 
  -1   4  -3   22.72    4.36 
  -1   4  -3   31.19    1.93 
  -1   4  -3   26.97    1.83 
   1  -4   3   22.33    2.55 
   1  -4   3   25.50    2.30 
   1  -4   3   21.93    4.32 
  -2   4  -3   41.66    3.19 
  -2   4  -3   37.96    2.96 
  -2   4  -3   46.40    2.98 
   2  -4   3   38.28    3.38 
   2  -4   3   45.12    2.76 
   2  -4   3   42.01    2.82 
  -3   4  -3  133.52    8.62 
  -3   4  -3  127.11    8.70 
   3  -4   3  144.22    8.40 
   3  -4   3  128.41    8.43 
   3  -4   3  118.32    9.09 
  -4   4  -3   67.72    5.08 
  -4   4  -3   74.27    5.27 
  -4   4  -3   70.14    4.99 
   4  -4   3   77.66    4.66 
   4  -4   3   71.94    4.70 
   4  -4   3   65.49    5.62 
  -5   4  -3   31.17    3.09 
   5  -4   3   31.00    4.44 
   5  -4   3   32.04    2.24 
   5  -4   3   36.30    2.34 
  -6   4  -3    0.17    0.38 
   6  -4   3    0.28    0.18 
  -6  -3   3   -0.19    0.46 
   5   3  -3   17.16    1.22 
  -5  -3   3   17.61    1.61 
  -5  -3   3   13.44    1.44 
   4   3  -3   29.06    2.08 
  -4  -3   3   29.76    2.43 
  -4  -3   3   32.90    2.51 
  -4  -3   3   31.36    2.50 
   3   3  -3    2.18    0.32 
  -3  -3   3    0.94    0.77 
  -3  -3   3    2.72    0.95 
   2   3  -3    2.54    0.40 
  -2  -3   3    2.73    0.75 
   1   3  -3    1.62    0.26 
  -1  -3   3    1.61    1.04 
   0   3  -3   40.53    3.33 
   0  -3   3   38.39    3.34 
   0  -3   3   36.05    3.19 
   0  -3   3   38.83    2.81 
  -1   3  -3 1000.00   59.16 
  -1   3  -3  887.23   58.43 
   1  -3   3  962.35   58.59 
   1  -3   3  928.50   58.37 
   1  -3   3  827.53   58.70 
   1  -3   3  893.34   58.97 
  -2   3  -3    0.84    0.41 
  -2   3  -3    0.87    0.33 
   2  -3   3    0.71    0.15 
   2  -3   3    0.11    1.91 
   2  -3   3    1.44    0.73 
  -3   3  -3   32.67    2.24 
  -3   3  -3   28.40    2.43 
   3  -3   3   32.34    1.97 
   3  -3   3   28.66    2.06 
   3  -3   3   25.21    2.64 
  -4   3  -3    5.86    1.04 
  -4   3  -3    6.94    1.43 
  -4   3  -3    4.46    0.92 
   4  -3   3    5.34    0.51 
   4  -3   3    5.70    0.68 
   4  -3   3    4.41    1.60 
  -5   3  -3   19.49    2.15 
  -5   3  -3   20.07    1.76 
  -5   3  -3   16.75    3.21 
   5  -3   3   15.87    3.68 
   5  -3   3   18.13    1.38 
   5  -3   3   18.92    1.33 
  -6   3  -3    0.13    0.43 
   6  -3   3    0.84    0.24 
   6  -3   3    0.28    0.33 
   5   2  -3   21.01    1.45 
  -5  -2   3   18.38    1.88 
  -5  -2   3   20.84    1.73 
   4   2  -3   27.21    1.91 
  -4  -2   3   29.22    2.31 
  -4  -2   3   28.60    2.35 
   3   2  -3   60.83    4.12 
  -3  -2   3   65.22    4.48 
  -3  -2   3   69.52    4.45 
  -3  -2   3   59.55    4.47 
   2   2  -3   80.18    5.16 
   1   2  -3   63.28    4.57 
   1   2  -3   77.41    4.92 
  -1  -2   3   77.44    5.00 
  -1  -2   3   67.11    5.16 
   0   2  -3   62.68    4.17 
   0   2  -3   60.23    3.98 
   0   2  -3   53.94    3.74 
   0  -2   3   58.54    3.94 
   0  -2   3   58.35    3.94 
   0  -2   3   53.85    4.08 
  -1   2  -3  178.08   11.50 
  -1   2  -3  179.79   11.50 
   1  -2   3  174.27   11.93 
   1  -2   3  178.07   12.11 
   1  -2   3  172.47   11.76 
   1  -2   3  193.62   11.47 
  -2   2  -3   39.27    2.54 
  -2   2  -3   35.19    2.51 
   2  -2   3   35.01    2.86 
   2  -2   3   34.04    3.58 
   2  -2   3   41.77    2.45 
  -3   2  -3    0.30    0.72 
  -3   2  -3   -0.39    0.59 
   3  -2   3    0.23    0.43 
   3  -2   3    0.23    0.17 
   3  -2   3    0.07    0.78 
  -4   2  -3  164.22   10.87 
  -4   2  -3  155.10   10.84 
  -4   2  -3  177.97   10.86 
   4  -2   3  165.49   11.37 
   4  -2   3  160.75   10.62 
  -5   2  -3   38.96    3.02 
  -5   2  -3   39.44    3.26 
   5  -2   3   41.11    2.74 
   5  -2   3   41.47    2.69 
  -6   2  -3    2.84    1.66 
   6  -2   3    3.31    0.52 
   6  -2   3    3.29    0.46 
  -6  -1   3    1.17    0.56 
  -6  -1   3    2.07    0.54 
   5   1  -3   61.16    4.15 
  -5  -1   3   65.47    4.44 
  -5  -1   3   64.76    4.55 
   4   1  -3  105.83    6.77 
  -4  -1   3  105.16    7.13 
  -4  -1   3  110.49    7.09 
  -4  -1   3   99.48    7.08 
  -3  -1   3    0.00    0.63 
  -3  -1   3    1.50    0.83 
  -3  -1   3   -0.09    0.38 
   2   1  -3   31.61    2.63 
  -2  -1   3   31.74    2.19 
   1   1  -3   75.85    5.09 
  -1  -1   3   76.54    4.96 
  -1  -1   3   77.39    4.94 
  -1  -1   3   70.68    4.88 
   0   1  -3   19.81    1.34 
   0   1  -3   20.30    1.53 
   0  -1   3   22.15    1.55 
   0  -1   3   18.35    1.61 
   0  -1   3   19.92    1.82 
  -1   1  -3    3.81    0.36 
  -1   1  -3    3.19    0.37 
  -1   1  -3    3.96    0.52 
   1  -1   3    4.15    0.67 
   1  -1   3    3.93    0.32 
   1  -1   3    3.52    0.90 
   1  -1   3    6.93    1.38 
  -2   1  -3  350.28   23.03 
  -2   1  -3  390.84   23.06 
  -2   1  -3  335.31   22.99 
   2  -1   3  355.93   23.64 
   2  -1   3  367.83   23.32 
  -3   1  -3   22.31    1.86 
  -3   1  -3   21.90    1.71 
  -3   1  -3   21.58    1.86 
   3  -1   3   23.13    1.51 
   3  -1   3   22.67    1.70 
   3  -1   3   22.60    2.08 
  -4   1  -3   34.60    2.54 
  -4   1  -3   33.47    2.63 
  -4   1  -3   35.99    3.77 
  -4   1  -3   30.10    2.63 
   4  -1   3   33.74    3.30 
   4  -1   3   30.96    2.29 
  -5   1  -3    6.31    1.19 
  -5   1  -3    5.76    0.94 
  -5   1  -3    6.33    1.19 
   5  -1   3    6.80    0.73 
   5  -1   3    6.92    0.64 
  -6   1  -3    1.92    0.72 
   6  -1   3    1.76    0.29 
   6  -1   3    1.11    0.38 
  -6   0   3   -0.36    0.49 
  -6   0   3    0.35    0.65 
   5   0  -3    6.27    0.65 
  -5   0   3    3.94    1.26 
  -5   0   3    8.93    1.25 
  -5   0   3    8.78    1.37 
  -5   0   3    5.73    1.21 
   4   0  -3   80.23    5.25 
  -4   0   3   82.21    5.60 
  -4   0   3   81.30    5.62 
  -4   0   3   79.98    5.60 
  -4   0   3   84.18    5.66 
   3   0  -3   42.78    3.85 
  -3   0   3   36.50    2.66 
  -3   0   3   37.47    2.94 
   2   0  -3  494.10   31.78 
  -2   0   3  491.15   31.50 
  -1   0   3  466.12   32.12 
  -1   0   3  540.17   32.19 
   0   0  -3  177.37   11.94 
   0   0   3  196.83   12.15 
  -1   0  -3   25.74    1.77 
  -1   0  -3   23.57    1.67 
  -1   0  -3   26.17    2.42 
   1   0   3   25.05    1.65 
   1   0   3   23.36    2.22 
   1   0   3   27.09    1.91 
  -2   0  -3  211.72   14.36 
  -2   0  -3  216.93   15.21 
  -2   0  -3  216.34   14.42 
  -2   0  -3  240.30   14.43 
   2   0   3  235.51   14.61 
   2   0   3  220.04   14.29 
  -3   0  -3  234.35   15.12 
  -3   0  -3  226.14   15.08 
  -3   0  -3  235.18   15.09 
  -3   0  -3  238.12   15.19 
   3   0   3  226.09   14.92 
   3   0   3  260.23   15.40 
   3   0   3  223.92   14.98 
   3   0   3  222.49   14.99 
  -4   0  -3    3.01    0.66 
  -4   0  -3    2.15    0.64 
  -4   0  -3    3.72    1.00 
   4   0   3    2.50    0.55 
   4   0   3    2.37    0.46 
   4   0   3    2.68    0.40 
  -5   0  -3    8.59    1.53 
  -5   0  -3    8.33    1.28 
  -5   0  -3    8.98    1.16 
   5   0   3    6.81    0.76 
   5   0   3    7.80    0.71 
  -6   0  -3    5.87    1.27 
   6   0   3    9.16    0.71 
   6   0   3    8.79    0.86 
  -6   1   3    0.50    0.57 
  -6   1   3    2.12    0.70 
   5  -1  -3    0.07    0.29 
  -5   1   3   -0.10    0.49 
  -5   1   3   -0.25    0.72 
  -5   1   3    0.76    0.86 
  -5   1   3    0.09    1.15 
   4  -1  -3    0.80    1.66 
  -4   1   3    0.62    0.81 
  -4   1   3    0.06    0.63 
  -4   1   3    1.12    0.57 
   3  -1  -3   56.97    4.91 
  -3   1   3   55.37    4.04 
  -3   1   3   61.43    3.98 
  -3   1   3   58.92    4.16 
   2  -1  -3   48.89    3.31 
   2  -1  -3   49.03    3.26 
  -2   1   3   48.28    3.26 
   1  -1  -3  112.21    6.74 
   1  -1  -3  105.36    7.05 
   1  -1  -3  104.55    6.89 
  -1   1   3   98.69    6.80 
  -1   1   3  106.16    7.04 
   0  -1  -3   16.06    1.30 
   0  -1  -3   17.33    1.71 
   0  -1  -3   17.94    1.16 
   0   1   3   18.15    1.72 
  -1  -1  -3  146.77    9.75 
  -1  -1  -3  158.08   10.46 
  -1  -1  -3  155.92    9.90 
   1   1   3  153.62   10.41 
   1   1   3  147.07    9.73 
  -2  -1  -3  103.78    6.94 
  -2  -1  -3   94.87    8.28 
   2   1   3  120.47    7.09 
   2   1   3  100.24    7.98 
   2   1   3  101.26    6.74 
  -3  -1  -3   72.56    5.09 
  -3  -1  -3   73.60    5.04 
  -3  -1  -3   79.82    5.05 
   3   1   3   69.57    4.92 
   3   1   3   78.14    4.85 
  -4  -1  -3    5.54    1.05 
  -4  -1  -3    5.82    1.11 
  -4  -1  -3    4.60    1.06 
  -4  -1  -3    5.74    1.02 
   4   1   3    6.89    0.59 
   4   1   3    5.38    0.81 
   4   1   3    7.26    0.79 
  -5  -1  -3   16.02    2.48 
   5   1   3   15.30    1.55 
   5   1   3   17.59    1.39 
   5   1   3   20.09    1.30 
  -6  -1  -3    0.81    0.64 
   6   1   3    0.85    0.22 
  -6   2   3   -0.66    0.41 
   5  -2  -3    0.70    0.28 
  -5   2   3    0.15    1.30 
  -5   2   3   -0.48    0.48 
  -5   2   3   -0.08    0.76 
   4  -2  -3    0.02    0.20 
   4  -2  -3   -1.39    1.40 
  -4   2   3    1.09    0.72 
  -4   2   3   -1.14    0.73 
  -4   2   3    0.01    0.71 
   3  -2  -3   28.89    1.72 
  -3   2   3   25.45    2.11 
  -3   2   3   24.00    2.04 
  -3   2   3   24.17    2.19 
  -3   2   3   26.64    1.97 
   2  -2  -3    0.20    0.20 
   2  -2  -3   -0.17    0.50 
  -2   2   3    0.48    0.29 
   1  -2  -3  356.67   22.22 
   1  -2  -3  341.64   22.55 
   1  -2  -3  346.65   22.01 
  -1   2   3  346.21   22.54 
  -1   2   3  334.09   22.08 
   0  -2  -3  223.49   14.06 
   0  -2  -3  206.99   14.48 
   0   2   3  219.34   14.53 
  -1  -2  -3   93.28    7.13 
  -1  -2  -3   78.46    5.40 
  -1  -2  -3   75.08    5.19 
   1   2   3   78.95    6.37 
  -2  -2  -3   22.74    1.74 
  -2  -2  -3   21.51    1.68 
  -2  -2  -3   22.12    1.81 
   2   2   3   17.86    1.54 
   2   2   3   20.02    1.41 
  -3  -2  -3   28.40    2.37 
   3   2   3   29.93    1.99 
  -4  -2  -3    5.81    1.06 
  -4  -2  -3    4.64    0.97 
  -4  -2  -3    5.90    1.15 
  -4  -2  -3    5.68    1.00 
   4   2   3    5.13    0.72 
   4   2   3    6.48    0.62 
  -5  -2  -3   51.77    3.59 
  -5  -2  -3   49.80    3.56 
  -5  -2  -3   49.28    3.57 
  -5  -2  -3   52.16    3.71 
   5   2   3   51.00    3.42 
   5   2   3   50.87    3.40 
   5   2   3   53.93    3.41 
   6   2   3    3.72    0.39 
  -6   3   3    0.62    0.37 
  -6   3   3    0.45    0.48 
   5  -3  -3    7.20    3.39 
   5  -3  -3    7.74    0.71 
  -5   3   3    7.58    1.05 
  -5   3   3    7.46    1.25 
  -5   3   3    9.89    1.50 
  -5   3   3   13.07    2.12 
   4  -3  -3   -0.49    1.54 
  -4   3   3    0.42    0.84 
  -4   3   3    0.47    0.66 
  -4   3   3    1.28    0.85 
  -4   3   3    0.46    0.57 
   3  -3  -3  354.69   21.14 
  -3   3   3  343.01   21.38 
  -3   3   3  310.11   21.36 
  -3   3   3  314.32   21.43 
  -3   3   3  332.30   21.26 
   2  -3  -3   95.47    5.50 
  -2   3   3   80.59    5.81 
  -2   3   3   76.00    5.72 
  -2   3   3   86.48    5.70 
  -2   3   3   87.60    5.66 
   1  -3  -3   10.67    1.15 
   1  -3  -3   10.97    0.77 
  -1   3   3   10.27    0.90 
   0  -3  -3    1.29    0.54 
   0  -3  -3    0.60    0.19 
  -1  -3  -3    2.35    0.71 
  -1  -3  -3    2.25    0.37 
  -1  -3  -3    4.11    0.78 
  -1  -3  -3    2.08    0.78 
  -1  -3  -3    1.76    0.58 
   1   3   3    1.58    0.43 
   1   3   3    2.66    0.38 
  -2  -3  -3   43.52    3.42 
  -2  -3  -3   47.79    3.16 
  -2  -3  -3   44.85    3.15 
   2   3   3   47.42    2.96 
   2   3   3   39.31    3.44 
   2   3   3   43.41    3.01 
  -3  -3  -3    6.96    1.89 
  -3  -3  -3    6.97    0.93 
  -3  -3  -3    6.33    0.92 
  -3  -3  -3    4.09    1.00 
   3   3   3    7.03    0.66 
   3   3   3    5.42    0.73 
  -4  -3  -3    6.37    0.92 
  -4  -3  -3    5.60    1.17 
  -4  -3  -3    6.65    1.04 
  -4  -3  -3    4.38    0.90 
   4   3   3    4.77    0.66 
   4   3   3    4.47    0.66 
  -5  -3  -3    4.70    0.80 
  -5  -3  -3    4.53    0.75 
  -5  -3  -3    3.66    0.67 
   5   3   3    5.68    0.52 
   5   3   3    4.49    0.57 
   5   3   3    5.99    0.75 
   6  -4  -3   12.40    1.02 
  -6   4   3   13.22    1.18 
  -6   4   3   11.76    1.08 
   5  -4  -3   12.49    1.20 
   5  -4  -3   11.15    3.70 
  -5   4   3   15.13    1.55 
  -5   4   3   12.98    1.25 
  -5   4   3   13.53    1.47 
   4  -4  -3    1.12    0.28 
   4  -4  -3    0.06    1.85 
   4  -4  -3    1.66    0.53 
  -4   4   3    0.90    0.62 
  -4   4   3    1.21    0.82 
  -4   4   3    1.59    0.60 
  -4   4   3    1.82    1.07 
   3  -4  -3    1.85    0.35 
   3  -4  -3    1.97    0.84 
  -3   4   3    2.67    0.88 
  -3   4   3    3.17    0.72 
  -3   4   3    3.35    0.82 
  -3   4   3    2.26    0.64 
   2  -4  -3    1.07    0.46 
   2  -4  -3    1.29    1.05 
   2  -4  -3    0.67    0.21 
  -2   4   3    0.50    0.57 
  -2   4   3    0.03    0.72 
  -2   4   3    0.04    0.50 
  -2   4   3    0.69    0.66 
   1  -4  -3   59.13    3.72 
   1  -4  -3   56.26    3.79 
   1  -4  -3   57.24    4.13 
  -1   4   3   56.76    4.02 
  -1   4   3   54.55    3.93 
  -1   4   3   57.19    3.88 
   0  -4  -3  444.83   28.68 
   0  -4  -3  458.80   28.54 
   0  -4  -3  440.50   28.50 
   0  -4  -3  447.96   28.60 
   0  -4  -3  454.89   28.88 
   0   4   3  439.63   28.66 
   0   4   3  436.43   28.50 
  -1  -4  -3   73.90    4.99 
  -1  -4  -3   71.40    4.85 
  -1  -4  -3   72.31    4.93 
  -1  -4  -3   71.06    5.25 
   1   4   3   77.97    4.80 
   1   4   3   71.47    5.03 
   1   4   3   75.47    4.83 
  -2  -4  -3    8.69    1.07 
  -2  -4  -3    7.67    0.97 
  -2  -4  -3    6.15    1.53 
   2   4   3    8.51    0.82 
   2   4   3    7.49    1.23 
  -3  -4  -3    0.55    0.49 
  -3  -4  -3    0.49    0.48 
   3   4   3    0.73    0.40 
  -4  -4  -3   17.26    1.52 
  -4  -4  -3   19.71    1.75 
  -4  -4  -3   18.60    1.55 
   4   4   3   17.89    1.39 
   4   4   3   21.16    1.45 
   4   4   3   19.68    1.45 
  -5  -4  -3    0.51    0.42 
   5   4   3    0.12    0.19 
   5   4   3   -0.10    0.18 
   5  -5  -3    4.91    0.66 
   5  -5  -3    4.57    0.61 
  -5   5   3    3.52    0.69 
  -5   5   3    5.43    0.78 
  -5   5   3    5.57    0.73 
   4  -5  -3   -0.16    0.28 
   4  -5  -3    0.33    0.44 
   4  -5  -3   -2.51    2.18 
  -4   5   3   -0.76    0.66 
  -4   5   3    0.10    1.43 
  -4   5   3    0.45    0.56 
  -4   5   3   -0.56    0.50 
   3  -5  -3   21.66    1.47 
   3  -5  -3   20.00    1.65 
  -3   5   3   20.96    1.98 
  -3   5   3   19.96    1.81 
  -3   5   3   20.11    1.73 
   2  -5  -3    0.56    0.38 
   2  -5  -3    0.65    0.27 
   2  -5  -3    2.37    1.65 
  -2   5   3    1.62    0.74 
  -2   5   3   -0.08    0.52 
  -2   5   3   -0.49    1.03 
  -2   5   3   -0.62    0.70 
   1  -5  -3   15.78    1.12 
   1  -5  -3   14.94    1.21 
   1  -5  -3   13.91    2.12 
  -1   5   3   14.84    1.44 
  -1   5   3   13.14    1.44 
   0  -5  -3   40.05    2.79 
   0  -5  -3   38.02    2.68 
   0  -5  -3   35.74    3.26 
   0  -5  -3   38.51    2.70 
   0  -5  -3   42.53    2.97 
   0   5   3   40.98    2.93 
  -1  -5  -3   -0.38    0.46 
  -1  -5  -3    0.27    0.56 
  -1  -5  -3    0.97    2.02 
  -1  -5  -3    0.23    0.48 
   1   5   3   -0.22    0.70 
   1   5   3    0.22    0.33 
  -2  -5  -3    8.20    1.05 
  -2  -5  -3    6.55    2.09 
  -2  -5  -3    7.62    0.97 
   2   5   3   10.99    1.39 
   2   5   3    7.92    0.79 
   2   5   3    8.85    1.02 
  -3  -5  -3   22.33    1.93 
  -3  -5  -3   23.66    1.85 
   3   5   3   17.79    2.00 
   3   5   3   24.82    1.69 
  -4  -5  -3    1.71    0.40 
  -4  -5  -3    2.94    0.45 
  -4  -5  -3    1.75    0.48 
   4   5   3    3.01    0.42 
   4   5   3    2.49    0.43 
   5  -6  -3   15.51    1.20 
  -5   6   3   17.06    1.41 
  -5   6   3   16.29    1.29 
  -5   6   3   14.63    1.29 
   4  -6  -3    1.27    0.31 
   4  -6  -3    0.95    0.37 
  -4   6   3    1.40    0.56 
  -4   6   3    2.40    0.62 
  -4   6   3    1.19    0.46 
   3  -6  -3   12.58    1.08 
   3  -6  -3   13.50    1.06 
   3  -6  -3    9.31    2.69 
  -3   6   3   13.68    1.49 
  -3   6   3   12.73    2.35 
  -3   6   3   14.72    1.27 
   2  -6  -3    3.72    0.60 
   2  -6  -3    2.36    1.96 
   2  -6  -3    3.28    0.61 
  -2   6   3    4.61    0.95 
   1  -6  -3   15.82    1.37 
   1  -6  -3   13.67    1.24 
   1  -6  -3   14.40    2.82 
   1  -6  -3   15.31    1.23 
   1  -6  -3   15.87    2.02 
  -1   6   3   16.03    1.48 
  -1   6   3   14.80    1.90 
   0  -6  -3    0.54    0.45 
   0  -6  -3    0.41    1.77 
   0  -6  -3   -0.21    0.68 
   0  -6  -3   -0.05    0.38 
   0   6   3   -0.49    0.55 
   0   6   3    0.38    1.02 
  -1  -6  -3   29.42    3.80 
  -1  -6  -3   30.97    2.32 
  -1  -6  -3   28.67    2.20 
   1   6   3   33.07    2.40 
   1   6   3   27.13    2.05 
  -2  -6  -3    0.61    0.41 
  -2  -6  -3    1.19    0.50 
   2   6   3    0.52    0.82 
   2   6   3    0.74    0.33 
  -3  -6  -3    3.09    0.58 
   3   6   3    4.45    0.53 
   3   6   3    3.79    0.47 
   4  -7  -3   52.83    3.27 
  -4   7   3   46.75    3.34 
   3  -7  -3   44.19    3.21 
   3  -7  -3   50.50    3.18 
  -3   7   3   44.69    3.29 
  -3   7   3   51.31    3.24 
   2  -7  -3    5.58    0.66 
   2  -7  -3    6.42    0.77 
  -2   7   3    4.19    0.90 
   1  -7  -3    3.50    1.14 
   1  -7  -3    1.34    0.37 
   1  -7  -3    1.14    0.46 
  -1   7   3    1.73    0.57 
   0  -7  -3    0.25    0.64 
   0  -7  -3   -0.13    0.35 
   0   7   3    0.19    0.55 
  -1  -7  -3    8.74    0.99 
  -1  -7  -3    7.48    0.84 
   1   7   3    8.28    1.19 
   2   7   3   23.52    1.69 
   3  -8  -3    0.40    0.24 
  -3   8   3    0.55    0.32 
   2  -8  -3   -0.37    0.25 
  -2   8   3   -0.21    0.68 
  -2   8   3   -0.19    0.32 
   1  -8  -3   20.19    2.83 
   1  -8  -3   25.42    1.80 
  -1   8   3   28.04    1.87 
   0  -8  -3    0.17    0.70 
   0  -8  -3    0.27    0.27 
   0   8   3    0.47    0.42 
  -1  -8  -3    8.47    0.87 
  -1  -8  -3    8.91    0.74 
   1   8   3    8.09    0.89 
  -1  -9   4    0.33    0.26 
   0  -9   4   16.23    1.22 
  -1   9  -4    2.96    0.98 
   1  -9   4    3.25    0.62 
  -2   9  -4   18.95    1.68 
  -3   9  -4    3.25    0.66 
  -2  -8   4    2.17    0.43 
   1   8  -4    8.41    0.76 
   1   8  -4    8.53    1.22 
  -1  -8   4    9.31    0.85 
   0   8  -4   54.69    3.84 
   0  -8   4   61.98    3.95 
  -1   8  -4    0.68    0.85 
  -1   8  -4    0.94    0.51 
   1  -8   4   -0.14    0.46 
  -2   8  -4   13.94    1.66 
   2  -8   4   16.83    1.44 
  -3   8  -4    2.10    0.61 
   3  -8   4    3.70    0.78 
  -4   8  -4    0.90    0.37 
   3   7  -4   26.24    1.82 
   3   7  -4   26.29    1.87 
  -3  -7   4   26.04    2.44 
   2   7  -4   17.76    1.52 
  -2  -7   4   18.74    1.36 
  -2  -7   4   14.55    1.71 
   1   7  -4   43.82    2.93 
   1   7  -4   38.98    2.80 
  -1  -7   4   40.91    3.20 
  -1  -7   4   40.51    2.87 
   0   7  -4   -0.51    0.45 
   0   7  -4    0.09    0.43 
   0   7  -4    0.42    1.28 
   0  -7   4   -0.08    0.91 
   0  -7   4   -0.28    0.44 
  -1   7  -4   72.78    5.12 
  -1   7  -4   70.21    4.66 
  -1   7  -4   66.58    5.02 
   1  -7   4   68.49    4.72 
  -2   7  -4   13.15    2.56 
  -2   7  -4   10.44    1.62 
   2  -7   4   11.57    1.27 
   2  -7   4    9.67    2.78 
   3  -7   4    0.52    0.35 
   3  -7   4    0.73    2.49 
   3  -7   4    1.26    0.73 
  -4   7  -4    1.97    0.54 
  -4   7  -4    0.69    0.54 
   4  -7   4    0.93    0.28 
  -5   7  -4    4.27    0.64 
  -5   7  -4    4.75    0.64 
   4   6  -4   14.92    1.17 
  -4  -6   4   14.93    1.29 
   3   6  -4    5.37    0.69 
  -3  -6   4    6.93    1.10 
  -3  -6   4    4.97    1.09 
   2   6  -4    9.33    1.21 
   2   6  -4    7.39    0.75 
  -2  -6   4    8.87    1.31 
  -2  -6   4    7.68    0.92 
   1   6  -4   34.00    2.36 
   1   6  -4   27.98    2.11 
  -1  -6   4   30.34    2.25 
  -1  -6   4   30.90    2.50 
   0   6  -4    0.61    0.32 
   0   6  -4    0.56    0.55 
   0  -6   4    0.13    0.43 
   0  -6   4   -1.11    0.80 
  -1   6  -4   12.74    1.22 
  -1   6  -4   11.50    1.05 
  -1   6  -4   12.99    1.46 
  -1   6  -4   11.35    1.88 
   1  -6   4   12.61    2.44 
   1  -6   4   12.39    1.22 
  -2   6  -4  103.88    7.41 
  -2   6  -4  113.23    7.74 
  -2   6  -4  121.48    7.69 
   2  -6   4  116.39    7.36 
   2  -6   4  119.86    7.55 
   2  -6   4  107.54    8.23 
  -3   6  -4    4.24    1.49 
  -3   6  -4    2.76    0.87 
   3  -6   4    2.80    1.87 
   3  -6   4    3.00    0.85 
   3  -6   4    3.39    0.54 
   3  -6   4    1.58    0.57 
  -4   6  -4   13.27    1.97 
   4  -6   4   13.14    3.15 
  -5   6  -4    2.23    0.51 
  -5   6  -4    3.88    0.63 
   5  -6   4    3.14    0.38 
  -5  -5   4    0.52    0.37 
   4   5  -4   11.74    1.08 
   4   5  -4   10.08    0.88 
  -4  -5   4    8.34    1.12 
  -4  -5   4    8.44    1.48 
   3   5  -4   21.69    1.58 
   3   5  -4   22.09    2.20 
  -3  -5   4   21.47    1.94 
  -3  -5   4   23.57    2.21 
   2   5  -4    3.47    1.15 
   2   5  -4    3.26    0.49 
  -2  -5   4    3.41    0.72 
  -2  -5   4    3.19    0.57 
   1   5  -4    6.53    1.17 
  -1  -5   4    3.70    0.80 
  -1  -5   4    4.18    0.64 
  -1  -5   4    2.86    0.59 
   0   5  -4    0.01    0.63 
   0  -5   4    1.46    0.48 
  -1   5  -4   39.09    2.68 
  -1   5  -4   40.60    2.69 
  -1   5  -4   31.74    3.15 
   1  -5   4   37.10    2.54 
   1  -5   4   37.99    3.26 
   1  -5   4   36.15    2.67 
  -2   5  -4   48.27    3.98 
  -2   5  -4   55.71    3.79 
  -2   5  -4   56.08    3.68 
   2  -5   4   50.90    4.36 
   2  -5   4   55.17    3.77 
   2  -5   4   55.18    3.60 
   2  -5   4   55.90    3.55 
  -3   5  -4   49.08    3.72 
  -3   5  -4   47.22    3.69 
   3  -5   4   52.30    3.27 
   3  -5   4   49.41    3.55 
   3  -5   4   45.34    4.25 
   3  -5   4   51.40    3.29 
  -4   5  -4   62.06    4.37 
   4  -5   4   62.52    4.04 
   4  -5   4   66.63    4.03 
   4  -5   4   50.71    5.29 
  -5   5  -4    1.67    0.61 
   5  -5   4    2.21    0.48 
   5  -5   4    2.34    0.43 
  -6   5  -4    9.16    0.89 
   6  -5   4   12.16    0.77 
  -5  -4   4    1.85    0.69 
  -5  -4   4    2.18    0.47 
   4   4  -4   43.22    2.94 
  -4  -4   4   42.90    3.20 
  -4  -4   4   46.25    3.34 
   3   4  -4   22.60    1.64 
  -3  -4   4   25.52    2.25 
  -3  -4   4   23.00    2.02 
  -2  -4   4    4.86    0.86 
  -2  -4   4    5.19    1.03 
  -2  -4   4    4.37    0.75 
   1   4  -4   20.21    1.43 
  -1  -4   4   20.10    1.80 
  -1  -4   4   21.70    1.58 
  -1  -4   4   19.53    1.61 
   0   4  -4    3.92    0.45 
   0  -4   4    3.97    0.65 
   0  -4   4    3.15    0.88 
   0  -4   4    3.57    0.60 
  -1   4  -4  181.54   10.79 
  -1   4  -4  166.68   10.82 
  -1   4  -4  158.76   10.72 
   1  -4   4  165.94   11.16 
   1  -4   4  164.46   10.81 
   1  -4   4  162.73   10.77 
  -2   4  -4   50.72    3.57 
  -2   4  -4   48.13    3.84 
   2  -4   4   57.08    3.39 
   2  -4   4   51.61    3.43 
   2  -4   4   49.99    3.61 
   2  -4   4   53.53    4.29 
  -3   4  -4    0.86    0.81 
  -3   4  -4    0.64    0.81 
   3  -4   4    0.41    1.02 
   3  -4   4    0.80    0.23 
   3  -4   4    0.40    0.31 
   3  -4   4   -0.16    0.86 
  -4   4  -4    7.78    1.32 
   4  -4   4    9.18    2.42 
   4  -4   4    8.22    0.79 
   4  -4   4    8.29    0.73 
  -5   4  -4   10.27    1.39 
   5  -4   4    7.70    2.78 
   5  -4   4    9.68    0.86 
   5  -4   4   10.13    0.97 
  -6  -3   4    0.97    0.33 
  -5  -3   4    1.70    0.77 
  -5  -3   4    1.34    0.50 
   4   3  -4    0.34    0.32 
  -4  -3   4    1.39    0.61 
  -4  -3   4    0.59    0.92 
   3   3  -4   92.74    5.97 
  -3  -3   4   84.72    6.36 
  -3  -3   4   99.14    6.26 
   2   3  -4  157.66   10.27 
  -2  -3   4  162.58   10.50 
   1   3  -4    1.17    0.24 
  -1  -3   4    2.08    1.23 
   0   3  -4   23.09    2.68 
   0   3  -4   20.26    1.47 
   0  -3   4   23.96    2.12 
   0  -3   4   20.08    2.60 
   0  -3   4   21.95    1.80 
  -1   3  -4  227.62   14.69 
  -1   3  -4  238.86   14.72 
   1  -3   4  213.52   15.40 
   1  -3   4  235.59   15.08 
   1  -3   4  229.94   14.65 
  -2   3  -4   29.36    2.12 
   2  -3   4   30.67    1.99 
   2  -3   4   29.20    2.07 
   2  -3   4   31.17    2.61 
  -3   3  -4   29.53    2.57 
  -3   3  -4   31.00    2.36 
   3  -3   4   30.05    2.63 
   3  -3   4   31.06    2.91 
   3  -3   4   31.46    2.17 
   3  -3   4   34.13    2.09 
  -4   3  -4  113.77    7.83 
  -4   3  -4  111.06    7.78 
   4  -3   4  109.90    8.33 
   4  -3   4  123.20    7.45 
   4  -3   4  117.94    7.49 
  -5   3  -4    6.97    1.20 
   5  -3   4    7.37    0.71 
   5  -3   4    6.99    0.68 
  -6   3  -4    0.57    0.56 
  -6  -2   4    0.20    0.43 
  -6  -2   4   -0.72    0.47 
   5   2  -4    9.67    0.93 
  -5  -2   4    6.33    1.54 
   4   2  -4   81.94    5.50 
  -4  -2   4   87.16    5.89 
  -4  -2   4   86.31    5.81 
   3   2  -4   10.83    0.91 
  -3  -2   4   10.90    1.28 
  -3  -2   4   12.12    1.58 
   2   2  -4   16.31    1.18 
   2   2  -4   18.86    2.72 
   1   2  -4    6.20    0.52 
  -1  -2   4    7.35    1.25 
   0   2  -4    3.56    0.73 
   0   2  -4    2.84    0.35 
   0  -2   4    2.90    0.85 
   0  -2   4    3.77    0.70 
   0  -2   4    4.76    1.86 
  -1   2  -4  488.23   30.71 
  -1   2  -4  434.89   30.53 
   1  -2   4  493.99   30.86 
   1  -2   4  497.05   30.50 
  -2   2  -4   99.50    6.49 
  -2   2  -4   95.29    6.45 
   2  -2   4  101.83    6.88 
   2  -2   4  105.31    6.41 
   2  -2   4   96.04    7.93 
  -3   2  -4    0.64    0.57 
  -3   2  -4    0.61    0.73 
  -3   2  -4    0.06    0.70 
   3  -2   4    0.41    0.20 
   3  -2   4    0.55    0.35 
  -4   2  -4    3.51    1.16 
  -4   2  -4    5.28    1.65 
  -4   2  -4    2.34    0.81 
   4  -2   4    1.80    0.38 
   4  -2   4    2.69    0.43 
   4  -2   4    2.70    1.50 
  -5   2  -4    1.84    1.71 
  -5   2  -4    2.13    0.74 
   5  -2   4    3.29    0.54 
   5  -2   4    4.02    0.53 
   6  -2   4    0.21    0.18 
  -6  -1   4   14.55    1.38 
  -6  -1   4   14.52    1.30 
  -5  -1   4   11.54    1.57 
  -5  -1   4   12.63    1.38 
  -4  -1   4   59.94    4.64 
  -4  -1   4   70.76    4.63 
  -4  -1   4   66.10    4.69 
  -3  -1   4   44.07    3.49 
  -3  -1   4   48.44    3.54 
  -3  -1   4   49.63    3.63 
  -3  -1   4   49.72    3.43 
  -3  -1   4   53.16    3.56 
   2   1  -4  114.99    7.80 
  -2  -1   4  111.03    7.35 
  -1  -1   4  518.58   32.38 
  -1  -1   4  475.29   32.28 
  -1  -1   4  523.57   32.42 
   0   1  -4   10.30    1.13 
   0   1  -4   10.08    0.76 
   0  -1   4   14.03    1.59 
   0  -1   4   11.45    1.04 
   0  -1   4    9.43    1.30 
  -1   1  -4  108.36    7.86 
  -1   1  -4  124.19    8.03 
   1  -1   4  129.95    7.84 
   1  -1   4  114.38    8.49 
   1  -1   4  124.94    8.46 
   1  -1   4  132.10    8.17 
  -2   1  -4   35.13    2.50 
  -2   1  -4   35.64    2.53 
  -2   1  -4   38.37    2.57 
  -2   1  -4   38.18    2.63 
   2  -1   4   39.37    2.45 
   2  -1   4   38.05    2.90 
  -3   1  -4   49.01    3.51 
  -3   1  -4   51.00    3.51 
  -3   1  -4   46.64    3.43 
   3  -1   4   54.78    3.90 
   3  -1   4   52.09    3.24 
   3  -1   4   44.10    3.35 
   3  -1   4   48.75    3.31 
  -4   1  -4   -0.71    1.18 
  -4   1  -4    0.92    0.74 
  -4   1  -4    0.12    0.63 
   4  -1   4    1.11    1.53 
   4  -1   4    0.21    0.26 
   4  -1   4    0.01    0.36 
   4  -1   4    0.29    0.54 
  -5   1  -4   86.75    6.15 
  -5   1  -4   91.10    6.89 
   5  -1   4   91.34    5.93 
   5  -1   4   94.43    5.91 
   6  -1   4    0.82    0.22 
  -6   0   4   -0.45    0.56 
  -6   0   4    0.43    0.60 
  -5   0   4    4.91    1.00 
  -5   0   4    2.81    1.45 
  -5   0   4    4.30    0.80 
  -4   0   4   13.64    1.47 
  -4   0   4   13.31    1.74 
  -4   0   4   14.39    1.63 
  -4   0   4   17.08    1.68 
   3   0  -4   65.05    6.69 
   3   0  -4   77.56    5.04 
  -3   0   4   74.28    4.95 
  -3   0   4   73.63    5.12 
  -3   0   4   69.14    4.92 
  -3   0   4   73.56    5.04 
  -3   0   4   73.88    4.92 
   2   0  -4    8.97    1.61 
  -2   0   4    7.71    0.74 
  -1   0   4   56.09    3.83 
  -1   0   4   61.81    4.07 
   0   0  -4  130.09    9.92 
   0   0  -4  138.78    9.31 
   0   0   4  166.78    9.61 
  -1   0  -4  111.13    7.26 
  -1   0  -4  102.45    7.11 
  -1   0  -4  108.41    7.92 
   1   0   4  123.34    7.42 
   1   0   4  108.10    7.09 
  -2   0  -4   64.53    4.89 
  -2   0  -4   72.59    6.95 
  -2   0  -4   82.19    5.09 
   2   0   4   84.37    5.31 
   2   0   4   69.56    6.23 
   2   0   4   76.29    4.86 
  -3   0  -4    8.22    1.06 
  -3   0  -4    5.22    1.27 
  -3   0  -4    7.74    1.06 
  -3   0  -4    6.56    1.03 
   3   0   4    7.01    1.50 
   3   0   4    5.86    0.53 
   3   0   4    5.76    0.76 
   3   0   4    5.64    0.77 
  -4   0  -4    2.61    0.66 
  -4   0  -4    3.33    1.01 
  -4   0  -4    2.41    0.70 
   4   0   4    1.73    0.40 
   4   0   4    2.26    0.36 
  -5   0  -4   27.30    2.65 
  -5   0  -4   27.86    2.40 
   5   0   4   30.27    1.99 
   6   0   4   10.63    0.79 
  -6   1   4    1.53    0.61 
   5  -1  -4   28.18    2.07 
  -5   1   4   33.96    2.61 
  -5   1   4   32.30    2.32 
  -5   1   4   30.64    2.54 
  -5   1   4   26.74    2.93 
   4  -1  -4   51.40    3.53 
   4  -1  -4   43.97    4.75 
  -4   1   4   58.97    3.84 
  -4   1   4   58.31    4.11 
  -4   1   4   53.67    3.78 
  -4   1   4   57.14    4.02 
  -4   1   4   54.70    3.94 
   3  -1  -4   57.28    6.39 
  -3   1   4   65.43    4.27 
  -3   1   4   60.90    4.27 
  -3   1   4   61.90    4.48 
  -3   1   4   63.70    4.31 
   2  -1  -4    0.44    0.15 
   2  -1  -4    1.01    0.53 
  -2   1   4   -0.03    0.29 
   1  -1  -4  234.05   15.77 
   1  -1  -4  235.17   15.54 
   1  -1  -4  266.30   15.36 
  -1   1   4  225.59   15.42 
  -1   1   4  241.86   15.77 
   0  -1  -4  319.75   21.80 
   0  -1  -4  339.81   21.43 
   0   1   4  325.68   21.26 
   0   1   4  346.63   21.82 
  -1  -1  -4    1.73    0.50 
  -1  -1  -4    1.01    1.77 
   1   1   4    1.16    0.22 
   1   1   4    1.66    1.94 
  -2  -1  -4   21.21    1.84 
  -2  -1  -4   17.72    1.54 
   2   1   4   23.17    1.43 
   2   1   4   21.40    1.57 
  -3  -1  -4    1.60    0.64 
  -3  -1  -4    1.64    0.70 
  -3  -1  -4    2.39    0.60 
   3   1   4    2.30    0.37 
   3   1   4    1.87    0.42 
   3   1   4    1.93    0.45 
  -4  -1  -4   12.44    1.64 
  -4  -1  -4   11.04    1.60 
  -4  -1  -4   12.01    1.35 
  -4  -1  -4    8.58    1.19 
   4   1   4   11.33    0.98 
   4   1   4   11.29    0.90 
   4   1   4   10.52    0.99 
  -5  -1  -4    0.69    0.85 
  -5  -1  -4    1.49    0.66 
   5   1   4    0.81    0.40 
   6   1   4    7.05    0.56 
  -6   2   4    0.63    0.49 
  -6   2   4   -0.20    0.42 
   5  -2  -4    7.87    0.74 
  -5   2   4    6.94    1.37 
  -5   2   4    8.69    1.83 
   4  -2  -4   54.85    3.25 
  -4   2   4   46.13    3.70 
  -4   2   4   50.34    3.58 
  -4   2   4   49.85    3.71 
  -4   2   4   46.67    3.49 
   3  -2  -4   69.82    3.94 
  -3   2   4   63.16    4.20 
  -3   2   4   53.23    4.13 
  -3   2   4   56.04    4.34 
  -3   2   4   61.08    4.21 
   2  -2  -4    2.61    0.72 
   2  -2  -4    1.56    0.25 
  -2   2   4    0.86    0.59 
  -2   2   4    3.85    1.10 
  -2   2   4    1.49    0.41 
   1  -2  -4   34.58    2.23 
   1  -2  -4   34.94    2.56 
  -1   2   4   32.73    2.32 
   0  -2  -4   13.39    0.86 
   0  -2  -4    9.71    1.21 
  -1  -2  -4   18.07    1.32 
  -1  -2  -4   19.52    1.65 
  -2  -2  -4  127.36    8.20 
  -2  -2  -4  112.96    8.08 
  -2  -2  -4  129.33    8.16 
  -2  -2  -4  131.55    8.37 
   2   2   4  122.32    8.05 
   2   2   4  129.63    8.00 
   2   2   4  117.06    8.23 
  -3  -2  -4   83.50    5.50 
  -3  -2  -4   86.23    5.49 
  -3  -2  -4   73.60    5.59 
   3   2   4   81.98    5.35 
  -4  -2  -4   -0.19    0.50 
  -4  -2  -4   -0.02    0.52 
  -4  -2  -4    0.58    0.64 
  -4  -2  -4    0.45    0.76 
   4   2   4    0.56    0.33 
   4   2   4    0.76    0.32 
   4   2   4    0.10    0.36 
  -5  -2  -4   26.82    2.09 
  -5  -2  -4   23.58    1.98 
  -5  -2  -4   26.72    2.18 
   5   2   4   30.69    1.98 
   5   2   4   25.74    1.88 
   5   2   4   28.95    1.86 
  -6   3   4   17.04    1.43 
   5  -3  -4   -1.03    4.55 
  -5   3   4    5.46    0.93 
  -5   3   4    3.63    0.84 
   4  -3  -4   29.52    1.79 
  -4   3   4   26.13    2.12 
  -4   3   4   24.72    2.39 
  -4   3   4   24.40    2.82 
  -4   3   4   24.43    2.09 
   3  -3  -4    0.05    0.19 
  -3   3   4   -0.48    0.66 
  -3   3   4   -0.02    0.77 
  -3   3   4    0.66    0.58 
  -3   3   4    0.07    0.51 
   2  -3  -4    0.07    0.17 
   2  -3  -4    1.91    0.81 
  -2   3   4   -0.05    0.44 
  -2   3   4    1.13    0.55 
  -2   3   4    0.20    0.57 
  -2   3   4   -0.22    0.75 
   1  -3  -4  128.25    8.71 
   1  -3  -4  133.58    8.40 
  -1   3   4  137.25    8.53 
  -1   3   4  127.34    8.68 
  -1   3   4  126.68    8.54 
   0  -3  -4  263.68   17.04 
   0  -3  -4  252.11   17.23 
   0  -3  -4  276.18   17.00 
   0  -3  -4  273.29   16.94 
   0   3   4  257.54   17.07 
  -1  -3  -4  224.58   14.11 
  -1  -3  -4  223.09   14.17 
  -1  -3  -4  222.62   14.41 
  -1  -3  -4  208.42   14.06 
  -1  -3  -4  219.48   14.24 
   1   3   4  210.07   14.21 
   1   3   4  225.28   14.07 
   1   3   4  219.83   14.04 
  -2  -3  -4   18.77    2.15 
  -2  -3  -4   20.22    1.64 
  -2  -3  -4   18.90    2.10 
   2   3   4   21.17    1.53 
   2   3   4   20.24    1.88 
   2   3   4   19.75    1.44 
  -3  -3  -4   30.38    2.49 
  -3  -3  -4   35.67    2.54 
   3   3   4   36.40    2.34 
   3   3   4   33.40    2.36 
  -4  -3  -4   51.99    3.98 
  -4  -3  -4   46.05    3.67 
   4   3   4   53.88    3.39 
  -5  -3  -4   22.10    1.94 
  -5  -3  -4   25.93    2.18 
   5   3   4   26.71    1.66 
   5   3   4   23.17    1.67 
  -6   4   4    0.53    0.41 
  -6   4   4   -0.03    0.26 
   5  -4  -4   -0.19    0.46 
   5  -4  -4   -0.47    0.32 
  -5   4   4    0.02    0.64 
  -5   4   4    0.73    0.60 
  -5   4   4    0.70    0.45 
   4  -4  -4   -0.21    0.26 
   4  -4  -4    0.66    0.53 
  -4   4   4   -0.36    0.60 
  -4   4   4    0.42    1.21 
  -4   4   4    0.30    0.50 
  -4   4   4    0.45    0.81 
   3  -4  -4   83.87    5.55 
   3  -4  -4   91.12    5.46 
  -3   4   4   80.44    5.70 
  -3   4   4   80.02    5.81 
  -3   4   4   87.34    5.59 
  -3   4   4   80.21    5.82 
   2  -4  -4    1.40    0.52 
   2  -4  -4    1.85    1.37 
   2  -4  -4    1.66    0.27 
  -2   4   4    1.19    0.62 
  -2   4   4    1.23    0.55 
  -2   4   4    1.14    0.79 
   1  -4  -4   20.83    2.24 
   1  -4  -4   22.60    1.67 
   1  -4  -4   23.70    1.56 
  -1   4   4   21.69    1.83 
  -1   4   4   23.39    2.22 
  -1   4   4   23.33    1.78 
  -1   4   4   21.15    1.93 
   0  -4  -4   56.63    4.37 
   0  -4  -4   58.22    4.03 
   0  -4  -4   56.72    4.26 
   0  -4  -4   61.15    3.98 
   0  -4  -4   62.09    3.92 
   0   4   4   52.10    4.03 
   0   4   4   60.94    4.12 
   0   4   4   67.10    4.11 
  -1  -4  -4   10.62    1.06 
  -1  -4  -4    9.47    1.01 
  -1  -4  -4    9.33    1.67 
  -1  -4  -4    9.51    1.30 
   1   4   4    9.31    0.93 
   1   4   4   10.96    1.32 
  -2  -4  -4   65.91    4.65 
  -2  -4  -4   72.23    4.73 
  -2  -4  -4   64.12    5.27 
   2   4   4   69.31    4.52 
   2   4   4   71.67    4.53 
   2   4   4   66.42    4.77 
  -3  -4  -4   72.56    5.11 
  -3  -4  -4   75.54    5.12 
   3   4   4   79.30    4.99 
  -4  -4  -4    1.47    0.56 
  -4  -4  -4    1.26    0.44 
   4   4   4    0.85    0.29 
   4   4   4    1.19    0.30 
   5  -5  -4   66.22    4.33 
   5  -5  -4   63.35    4.31 
  -5   5   4   65.29    4.45 
  -5   5   4   68.32    4.43 
  -5   5   4   66.28    4.40 
   4  -5  -4    6.03    2.66 
   4  -5  -4   10.66    0.86 
   4  -5  -4   10.76    0.95 
  -4   5   4   10.68    1.15 
  -4   5   4    8.91    1.22 
  -4   5   4    9.93    1.37 
   3  -5  -4    3.31    0.51 
   3  -5  -4    4.19    0.52 
  -3   5   4    2.05    0.68 
  -3   5   4    2.83    0.86 
  -3   5   4    1.57    1.25 
  -3   5   4    3.72    0.62 
   2  -5  -4    7.47    0.83 
   2  -5  -4    6.60    0.66 
   2  -5  -4    6.08    2.05 
  -2   5   4    8.98    1.38 
  -2   5   4    8.01    1.29 
  -2   5   4    7.13    1.01 
  -2   5   4    5.79    0.95 
   1  -5  -4   21.58    1.62 
   1  -5  -4   20.85    1.55 
  -1   5   4   21.23    1.97 
  -1   5   4   22.29    1.82 
   0  -5  -4   77.16    6.20 
   0  -5  -4   86.08    5.71 
   0  -5  -4   83.75    5.85 
   0  -5  -4   84.74    5.63 
   0  -5  -4   82.26    5.61 
   0   5   4   90.17    5.80 
   0   5   4   93.94    5.86 
  -1  -5  -4  114.64    7.72 
  -1  -5  -4  122.37    7.80 
  -1  -5  -4  109.36    7.59 
  -1  -5  -4  110.61    8.31 
   1   5   4  118.34    7.57 
   1   5   4  126.28    7.83 
  -2  -5  -4    7.41    4.10 
  -2  -5  -4    7.49    1.09 
  -2  -5  -4    7.73    0.98 
   2   5   4   10.75    1.37 
   2   5   4    8.55    0.80 
  -3  -5  -4    0.07    0.40 
   3   5   4    0.31    0.27 
   3   5   4    0.18    0.29 
  -4  -5  -4    2.78    0.54 
   5  -6  -4   22.66    1.52 
  -5   6   4   19.85    1.58 
  -5   6   4   25.19    1.64 
   4  -6  -4   80.99    4.92 
   4  -6  -4   75.69    4.92 
  -4   6   4   75.01    5.00 
  -4   6   4   69.66    5.00 
   3  -6  -4   14.37    1.16 
   3  -6  -4   15.63    1.17 
   3  -6  -4   11.01    3.14 
  -3   6   4   14.25    1.43 
  -3   6   4   15.70    1.29 
  -3   6   4   13.72    1.42 
   2  -6  -4   78.40    5.25 
   2  -6  -4   83.64    5.28 
  -2   6   4   81.14    5.37 
  -2   6   4   76.41    5.95 
   1  -6  -4    0.78    0.45 
   1  -6  -4    0.67    0.49 
   1  -6  -4   -0.75    2.37 
  -1   6   4    3.67    1.48 
  -1   6   4   -0.28    0.47 
   0  -6  -4    3.85    2.33 
   0  -6  -4    4.12    0.75 
   0  -6  -4    2.93    0.91 
   0  -6  -4    2.65    0.49 
   0   6   4    2.55    1.51 
   0   6   4    2.72    0.71 
  -1  -6  -4   66.42    4.99 
  -1  -6  -4   68.77    4.61 
   1   6   4   66.84    4.52 
   1   6   4   70.77    5.03 
  -2  -6  -4   40.34    3.06 
  -2  -6  -4   41.50    3.03 
   2   6   4   46.15    3.22 
   2   6   4   48.04    2.98 
  -3  -6  -4    0.09    0.26 
  -3  -6  -4    0.14    0.32 
   3   6   4    0.12    0.19 
   4  -7  -4    6.97    0.62 
   4  -7  -4    6.68    0.64 
  -4   7   4    7.98    0.75 
   3  -7  -4   14.16    1.05 
   3  -7  -4   14.31    1.13 
  -3   7   4   13.66    1.13 
  -3   7   4   14.16    1.21 
   2  -7  -4    1.33    0.31 
   2  -7  -4    1.41    0.39 
   2  -7  -4    1.16    0.82 
  -2   7   4    2.07    0.49 
  -2   7   4    1.25    0.51 
   1  -7  -4    1.44    0.36 
   1  -7  -4    1.16    0.40 
  -1   7   4    0.34    0.70 
  -1   7   4    2.22    0.49 
   0  -7  -4    9.05    1.29 
   0  -7  -4    5.63    0.73 
   0   7   4    6.89    0.89 
  -1  -7  -4   16.18    1.38 
  -1  -7  -4   15.04    1.23 
   1   7   4   16.22    1.38 
  -2  -7  -4    0.85    0.31 
  -2  -7  -4   -0.12    0.45 
   2   7   4    2.00    1.29 
   2  -8  -4    6.42    0.61 
  -2   8   4    9.20    1.36 
   1  -8  -4    3.99    0.59 
  -1   8   4    3.87    0.65 
   0  -8  -4    0.23    0.25 
   0   8   4    0.38    0.28 
   0  -9   5    0.43    0.24 
   1  -9   5    5.94    0.68 
  -2   9  -5    0.54    0.72 
   2  -9   5    0.66    0.56 
   2   8  -5    2.41    0.40 
   1   8  -5   24.09    1.93 
  -1  -8   5   25.00    1.76 
   0  -8   5    2.42    0.46 
  -1   8  -5   13.34    1.84 
   1  -8   5   12.29    1.12 
  -2   8  -5    6.86    1.44 
   2  -8   5    8.79    0.96 
  -3   8  -5   12.15    1.38 
   3  -8   5   13.36    1.34 
  -4   8  -5   24.63    1.93 
   3   7  -5   23.59    1.66 
   3   7  -5   22.73    1.78 
  -3  -7   5   24.76    2.02 
   2   7  -5    6.27    1.12 
  -2  -7   5   10.48    1.25 
  -2  -7   5    8.32    0.84 
   1   7  -5    0.02    0.46 
   1   7  -5   -0.30    0.36 
  -1  -7   5    2.17    1.34 
  -1  -7   5   -0.04    0.41 
   0   7  -5    4.88    0.73 
   0   7  -5    5.62    0.87 
   0   7  -5    2.62    1.62 
   0  -7   5    2.52    0.80 
   0  -7   5    3.70    0.60 
  -1   7  -5   45.31    3.20 
  -1   7  -5   40.21    5.59 
  -1   7  -5   48.95    3.82 
   1  -7   5   45.20    3.43 
   1  -7   5   47.86    3.24 
  -2   7  -5   37.72    3.10 
   2  -7   5   42.34    2.84 
   2  -7   5   37.22    4.61 
  -3   7  -5    3.80    0.80 
   3  -7   5    3.00    0.69 
   3  -7   5    4.42    2.73 
  -4   7  -5   12.75    1.32 
  -5   7  -5   15.44    1.09 
  -5   7  -5   12.25    1.10 
   4   6  -5    2.81    0.44 
  -4  -6   5    3.59    0.63 
  -3  -6   5   34.07    2.50 
   2   6  -5    9.49    0.89 
   2   6  -5   10.79    1.33 
  -2  -6   5   11.33    1.34 
  -2  -6   5   10.44    1.02 
   1   6  -5    0.28    0.60 
   1   6  -5   -0.33    0.29 
  -1  -6   5    0.14    0.63 
  -1  -6   5    0.10    0.41 
   0   6  -5  177.30   12.58 
   0   6  -5  210.64   12.70 
   0  -6   5  198.91   12.68 
  -1   6  -5  266.91   15.98 
  -1   6  -5  261.99   16.10 
  -1   6  -5  229.60   15.88 
  -1   6  -5  242.82   16.25 
   1  -6   5  252.13   15.99 
   1  -6   5  230.23   16.54 
  -2   6  -5    2.26    0.60 
  -2   6  -5    1.42    1.32 
  -2   6  -5    2.26    0.99 
   2  -6   5    1.93    0.46 
   2  -6   5    3.25    1.66 
   2  -6   5    2.53    0.62 
  -3   6  -5   -1.07    0.75 
   3  -6   5    0.09    0.30 
   3  -6   5    2.16    2.03 
   3  -6   5   -0.62    0.60 
  -4   6  -5    1.91    0.70 
   4  -6   5    1.53    1.05 
   4  -6   5    0.97    2.62 
   4  -6   5    2.54    0.46 
  -5   6  -5    7.26    0.91 
   5  -6   5    7.31    0.61 
  -5  -5   5   24.12    1.71 
   4   5  -5    0.25    0.55 
   4   5  -5    0.04    0.39 
  -4  -5   5    1.39    1.71 
  -4  -5   5   -0.04    0.46 
   3   5  -5    9.15    0.85 
   3   5  -5   12.16    1.35 
  -3  -5   5    9.29    1.25 
   2   5  -5   14.56    1.65 
   2   5  -5   10.94    0.92 
  -2  -5   5    9.32    1.20 
  -2  -5   5   13.46    1.42 
  -2  -5   5   11.18    1.11 
   1   5  -5   -1.81    0.94 
   1   5  -5   -0.06    0.28 
  -1  -5   5   -0.31    0.40 
  -1  -5   5   -0.17    0.67 
  -1  -5   5    0.03    0.67 
   0   5  -5   11.25    1.37 
   0   5  -5   13.42    1.02 
   0  -5   5   12.34    1.12 
   0  -5   5   11.40    1.10 
  -1   5  -5    0.11    0.60 
  -1   5  -5    0.53    1.38 
  -1   5  -5    0.11    0.36 
   1  -5   5   -0.07    1.18 
   1  -5   5    0.57    0.45 
  -2   5  -5   30.20    2.90 
  -2   5  -5   35.87    2.75 
  -2   5  -5   36.98    2.55 
   2  -5   5   36.65    2.61 
   2  -5   5   34.16    3.31 
   2  -5   5   37.31    2.42 
  -3   5  -5    0.91    0.85 
   3  -5   5    0.24    0.30 
   3  -5   5    0.77    0.68 
   3  -5   5    0.29    0.45 
   3  -5   5    0.70    1.48 
  -4   5  -5   47.98    3.61 
   4  -5   5   50.87    3.25 
   4  -5   5   45.70    4.64 
   4  -5   5   49.70    3.28 
  -5   5  -5   -0.11    0.46 
   5  -5   5    0.39    0.22 
  -5  -4   5    0.35    0.37 
  -5  -4   5    0.28    0.87 
   4   4  -5  186.80   12.54 
  -4  -4   5  195.50   12.77 
  -4  -4   5  204.34   12.93 
   3   4  -5    4.72    0.56 
  -3  -4   5    3.69    0.77 
   2   4  -5   14.63    1.19 
  -2  -4   5   16.13    1.41 
  -2  -4   5   17.82    1.38 
  -2  -4   5   15.50    1.82 
   1   4  -5   41.18    2.79 
  -1  -4   5   43.41    2.89 
  -1  -4   5   40.91    2.89 
   0   4  -5   89.14    6.72 
   0   4  -5  102.07    6.56 
   0  -4   5  103.86    6.62 
   0  -4   5  101.40    6.60 
   0  -4   5  104.09    6.63 
   0  -4   5  106.28    6.94 
  -1   4  -5  157.61   10.15 
  -1   4  -5  139.47   10.22 
  -1   4  -5  177.80   10.22 
   1  -4   5  154.97   10.18 
   1  -4   5  167.28   10.66 
   1  -4   5  153.88   10.22 
   1  -4   5  151.65   10.19 
  -2   4  -5   85.67    6.33 
  -2   4  -5   89.42    6.07 
  -2   4  -5   91.57    5.97 
  -2   4  -5   95.49    6.04 
   2  -4   5   92.44    6.07 
   2  -4   5   97.31    5.91 
   2  -4   5   90.98    6.59 
   2  -4   5   96.00    5.93 
   2  -4   5   82.61    6.00 
  -3   4  -5    0.22    0.79 
   3  -4   5    0.80    0.30 
   3  -4   5    0.68    0.31 
   3  -4   5    1.86    1.21 
   3  -4   5    0.05    0.71 
  -4   4  -5    6.36    1.31 
   4  -4   5    7.96    0.75 
   4  -4   5    6.98    2.01 
   4  -4   5    6.94    0.72 
  -5   4  -5    4.92    0.85 
   5  -4   5    1.24    3.66 
   5  -4   5    4.70    0.55 
   6  -4   5    8.45    0.64 
  -5  -3   5    3.35    0.92 
  -5  -3   5    4.94    0.92 
   4   3  -5   59.04    4.00 
  -4  -3   5   60.76    4.43 
  -4  -3   5   63.11    4.29 
  -3  -3   5    2.02    1.93 
  -3  -3   5    1.73    0.64 
   2   3  -5    2.77    0.44 
  -2  -3   5    2.72    0.63 
  -2  -3   5    2.59    0.69 
   1   3  -5   68.40    5.72 
   1   3  -5   73.96    4.58 
  -1  -3   5   73.90    4.66 
  -1  -3   5   64.77    4.70 
   0   3  -5   13.75    1.04 
   0   3  -5   12.45    2.28 
   0  -3   5   15.85    1.46 
  -1   3  -5    2.71    0.54 
  -1   3  -5    2.70    0.39 
   1  -3   5    3.09    0.88 
  -2   3  -5    2.18    0.42 
  -2   3  -5    1.75    0.59 
  -2   3  -5    1.87    0.57 
  -2   3  -5    1.72    1.10 
   2  -3   5    2.31    0.35 
   2  -3   5    3.06    0.65 
   2  -3   5    0.90    0.79 
   2  -3   5    2.31    0.42 
   3  -3   5  164.77    9.50 
   3  -3   5  134.95    9.67 
   3  -3   5  142.70   10.21 
  -4   3  -5   68.26    5.28 
   4  -3   5   65.93    4.64 
   4  -3   5   70.69    5.60 
   4  -3   5   75.42    4.59 
  -5   3  -5    7.92    1.41 
   5  -3   5    9.59    0.89 
   5  -3   5    9.24    3.17 
   5  -3   5    9.29    0.92 
  -6   3  -5    6.03    0.95 
   6  -3   5    7.89    0.58 
  -6  -2   5    9.00    1.15 
  -6  -2   5   10.56    0.98 
  -5  -2   5   14.15    1.45 
  -5  -2   5   12.98    1.63 
  -4  -2   5   62.46    4.65 
  -4  -2   5   56.19    4.18 
  -3  -2   5   27.62    2.14 
  -3  -2   5   28.39    2.58 
   2   2  -5   21.89    1.69 
  -2  -2   5   28.37    1.97 
  -2  -2   5   26.38    2.10 
   1   2  -5   81.75    5.70 
   1   2  -5   76.56    5.01 
  -1  -2   5   75.67    5.56 
   0   2  -5   27.64    2.03 
   0  -2   5   29.94    2.84 
   0  -2   5   27.97    3.29 
   0  -2   5   35.72    2.39 
  -1   2  -5   12.35    0.98 
  -1   2  -5   13.03    1.60 
   1  -2   5   14.83    3.20 
   1  -2   5   15.36    1.48 
  -2   2  -5    8.96    0.83 
  -2   2  -5   10.19    1.19 
   2  -2   5   10.41    0.89 
   2  -2   5   10.42    1.35 
  -3   2  -5   -0.11    0.74 
   3  -2   5    0.32    0.22 
   3  -2   5   -0.37    0.32 
   3  -2   5    0.68    0.48 
   3  -2   5   -0.29    0.89 
   3  -2   5    0.60    0.78 
  -4   2  -5  132.59    8.98 
   4  -2   5  139.37    8.63 
   4  -2   5  129.82    9.50 
   4  -2   5  132.90    8.66 
   5  -2   5    4.35    0.63 
   6  -2   5    3.02    0.39 
  -6  -1   5   10.98    1.11 
  -5  -1   5    8.42    1.63 
  -4  -1   5    2.31    0.73 
  -4  -1   5    3.39    0.76 
  -4  -1   5    2.50    1.06 
  -3  -1   5  109.75    6.96 
  -3  -1   5   99.25    7.12 
  -3  -1   5  109.65    6.91 
  -3  -1   5  107.88    7.03 
  -3  -1   5   96.70    6.95 
   2   1  -5  258.21   17.60 
  -2  -1   5  270.42   17.03 
   1   1  -5  295.97   16.73 
  -1  -1   5  251.33   17.03 
  -1  -1   5  238.39   16.95 
   0   1  -5   12.95    0.97 
   0   1  -5   14.30    1.61 
   0  -1   5   15.45    1.34 
   0  -1   5   13.83    1.89 
   0  -1   5   13.60    2.20 
  -1   1  -5    6.95    1.06 
  -1   1  -5    6.89    0.61 
   1  -1   5    5.53    1.72 
   1  -1   5    8.98    1.06 
   1  -1   5    7.36    0.61 
   1  -1   5    7.68    1.82 
  -2   1  -5   16.81    1.59 
  -2   1  -5   18.48    1.85 
  -2   1  -5   20.89    1.63 
  -2   1  -5   16.80    1.34 
   2  -1   5   19.91    1.28 
   2  -1   5   17.82    1.40 
   2  -1   5   19.69    1.82 
  -3   1  -5    0.02    0.73 
  -3   1  -5    0.03    0.59 
   3  -1   5   -0.29    0.92 
   3  -1   5   -0.08    0.23 
   3  -1   5   -0.97    0.85 
   3  -1   5    0.32    0.38 
   3  -1   5   -0.34    0.35 
  -4   1  -5   54.27    4.10 
   4  -1   5   49.41    3.76 
   4  -1   5   56.94    3.75 
   4  -1   5   60.35    3.72 
   4  -1   5   61.38    4.98 
  -5   1  -5    1.14    0.91 
   5  -1   5    1.89    0.39 
   6  -1   5    6.98    0.56 
  -6   0   5   -0.07    0.54 
  -5   0   5   31.89    3.17 
  -5   0   5   32.50    2.92 
  -5   0   5   37.59    2.56 
  -4   0   5   -1.39    0.88 
  -4   0   5    0.03    0.73 
  -4   0   5    0.80    0.54 
  -4   0   5    0.96    0.80 
  -4   0   5    0.68    0.93 
   3   0  -5    5.25    1.20 
  -3   0   5    4.50    0.90 
  -3   0   5    4.79    0.89 
  -3   0   5    3.11    1.00 
  -3   0   5    4.79    0.90 
   2   0  -5    8.17    1.83 
  -2   0   5    5.21    0.68 
  -1   0   5   -0.25    0.95 
  -1   0   5    0.82    0.27 
   0   0  -5  102.74    7.47 
   0   0   5  104.07    7.52 
  -1   0  -5   54.50    3.66 
  -1   0  -5   56.57    5.19 
  -1   0  -5   47.55    3.44 
   1   0   5   54.24    3.42 
  -2   0  -5    2.44    0.64 
  -2   0  -5    2.13    0.43 
  -2   0  -5    4.80    0.92 
  -2   0  -5    4.23    0.90 
   2   0   5    4.17    0.62 
   2   0   5    2.81    0.86 
   2   0   5    2.93    0.38 
   2   0   5    3.59    0.49 
  -3   0  -5    0.77    0.69 
  -3   0  -5    1.93    0.69 
  -3   0  -5    2.40    0.87 
   3   0   5    2.74    0.93 
   3   0   5    1.71    0.43 
   3   0   5    2.18    0.33 
   3   0   5    2.40    1.25 
  -4   0  -5    9.08    1.31 
  -4   0  -5    9.52    2.05 
  -4   0  -5   10.34    1.18 
   4   0   5    8.77    0.92 
   4   0   5    9.65    0.81 
   4   0   5    6.99    0.82 
  -5   0  -5    4.10    0.81 
   5   0   5    4.38    0.54 
   5   0   5    3.99    0.74 
   5   0   5    4.25    0.75 
   6   0   5    0.08    0.16 
  -6   1   5    4.39    0.87 
  -5   1   5    1.70    0.64 
  -5   1   5    3.84    1.59 
  -4   1   5   30.05    2.22 
  -4   1   5   25.91    2.49 
  -4   1   5   25.64    2.43 
  -4   1   5   29.09    2.18 
   3  -1  -5   -0.27    1.95 
  -3   1   5    0.05    0.49 
  -3   1   5    1.23    0.58 
  -3   1   5    0.21    0.53 
  -3   1   5    0.80    0.96 
   2  -1  -5   63.91    4.24 
   2  -1  -5   66.12    3.91 
  -2   1   5   59.20    4.06 
  -2   1   5   59.38    4.15 
  -2   1   5   54.45    4.12 
   1  -1  -5  429.67   27.26 
   1  -1  -5  445.95   26.90 
  -1   1   5  389.74   26.95 
   0  -1  -5  647.73   43.64 
   0  -1  -5  713.71   43.41 
  -1  -1  -5   13.50    1.30 
  -1  -1  -5   13.55    1.00 
   1   1   5   13.79    1.00 
  -2  -1  -5   66.22    4.37 
  -2  -1  -5   59.86    4.53 
  -2  -1  -5   59.14    4.36 
  -2  -1  -5   58.61    4.12 
  -2  -1  -5   61.94    4.24 
   2   1   5   66.02    3.98 
   2   1   5   60.65    4.05 
   2   1   5   56.23    4.21 
   2   1   5   60.73    4.03 
  -3  -1  -5   69.11    4.98 
  -3  -1  -5   62.37    5.24 
  -3  -1  -5   75.72    4.97 
   3   1   5   73.77    4.84 
   3   1   5   78.59    4.76 
   3   1   5   76.55    4.80 
  -4  -1  -5    5.84    1.22 
  -4  -1  -5    4.68    0.93 
  -4  -1  -5    4.20    1.11 
  -4  -1  -5    6.57    0.92 
   4   1   5    5.38    0.66 
   4   1   5    5.29    0.66 
   4   1   5    4.03    0.67 
  -5  -1  -5    0.90    0.58 
   5   1   5    0.83    0.48 
   5   1   5    0.55    0.33 
  -6   2   5   29.19    2.06 
  -6   2   5   28.67    2.17 
   5  -2  -5    0.96    0.45 
  -5   2   5    1.90    0.78 
  -5   2   5    1.40    0.88 
  -5   2   5    0.97    0.50 
   4  -2  -5    4.57    0.52 
  -4   2   5    3.46    0.70 
  -4   2   5    4.53    0.81 
  -4   2   5    2.21    0.90 
   3  -2  -5    1.46    0.24 
  -3   2   5    0.40    0.56 
  -3   2   5    1.00    0.63 
  -3   2   5    0.13    0.50 
   2  -2  -5    6.89    1.33 
   2  -2  -5    8.33    0.57 
  -2   2   5    8.10    1.61 
  -2   2   5    6.38    0.99 
  -2   2   5    7.22    1.03 
  -2   2   5    6.32    0.87 
  -2   2   5    5.29    0.93 
   1  -2  -5    9.29    1.11 
  -1   2   5    6.00    1.07 
  -1   2   5   11.54    1.43 
  -1   2   5    8.85    0.83 
  -1   2   5    6.88    1.00 
   0  -2  -5    7.49    1.04 
   0  -2  -5    8.74    0.65 
   0   2   5    8.43    0.79 
   0   2   5    6.75    1.00 
  -1  -2  -5   82.95    5.37 
  -1  -2  -5   76.65    5.48 
  -1  -2  -5   78.38    5.51 
  -1  -2  -5   79.24    5.20 
  -1  -2  -5   83.53    5.28 
   1   2   5   81.92    5.21 
   1   2   5   80.62    5.26 
   1   2   5   74.78    5.33 
  -2  -2  -5   12.68    1.35 
  -2  -2  -5   13.46    1.30 
  -2  -2  -5   10.59    1.24 
  -2  -2  -5   14.32    1.73 
   2   2   5   13.93    1.00 
   2   2   5   12.08    1.12 
   2   2   5   14.16    1.06 
   2   2   5   11.00    1.45 
  -3  -2  -5  188.85   12.25 
  -3  -2  -5  193.98   12.22 
  -3  -2  -5  180.75   12.28 
   3   2   5  183.59   12.11 
   3   2   5  188.36   12.08 
   3   2   5  199.63   12.06 
   3   2   5  176.67   12.26 
  -4  -2  -5   26.43    2.03 
  -4  -2  -5   25.20    2.55 
  -4  -2  -5   24.01    2.01 
   4   2   5   26.14    1.81 
   4   2   5   26.25    1.84 
   4   2   5   25.59    1.84 
  -5  -2  -5    1.19    0.52 
   5   2   5    0.47    0.24 
   5   2   5    0.13    0.17 
  -6   3   5    2.34    0.45 
  -6   3   5    0.67    0.44 
   5  -3  -5   75.34    4.78 
  -5   3   5   76.64    4.96 
  -5   3   5   72.78    5.06 
  -5   3   5   68.97    4.92 
   4  -3  -5   12.29    0.93 
  -4   3   5   11.91    1.52 
  -4   3   5   14.64    2.12 
  -4   3   5   11.19    1.29 
  -4   3   5   11.23    1.29 
   3  -3  -5    7.85    0.60 
  -3   3   5    5.28    1.01 
  -3   3   5    5.18    1.00 
  -3   3   5    5.46    1.04 
  -3   3   5    7.77    1.29 
   2  -3  -5    8.51    1.63 
   2  -3  -5    8.71    0.67 
  -2   3   5    7.45    1.09 
  -2   3   5    8.30    1.45 
  -2   3   5    8.66    1.00 
  -2   3   5    8.88    1.10 
  -2   3   5    7.11    1.08 
   1  -3  -5  100.07    6.11 
   1  -3  -5   95.83    6.00 
   1  -3  -5   90.19    6.41 
  -1   3   5   89.17    6.13 
  -1   3   5   94.12    6.23 
  -1   3   5   93.29    6.29 
  -1   3   5   99.13    6.15 
  -1   3   5   79.57    6.15 
   0  -3  -5   12.48    0.96 
   0  -3  -5   13.89    1.29 
   0  -3  -5   12.63    1.15 
   0  -3  -5   13.68    1.56 
   0   3   5   12.09    1.64 
   0   3   5   12.64    1.27 
   0   3   5   11.06    1.20 
  -1  -3  -5   23.92    1.88 
  -1  -3  -5   23.03    1.77 
  -1  -3  -5   21.79    2.17 
  -1  -3  -5   22.21    1.69 
  -1  -3  -5   22.66    2.07 
   1   3   5   24.77    1.70 
   1   3   5   24.97    1.93 
   1   3   5   23.85    1.75 
  -2  -3  -5   28.22    2.29 
  -2  -3  -5   29.92    2.23 
  -2  -3  -5   26.19    2.88 
   2   3   5   28.96    2.11 
   2   3   5   31.79    2.06 
   2   3   5   29.67    2.03 
   2   3   5   27.57    2.32 
  -3  -3  -5   34.52    2.60 
  -3  -3  -5   34.60    2.58 
   3   3   5   35.21    2.45 
   3   3   5   35.72    2.86 
   3   3   5   34.57    2.45 
   3   3   5   35.73    2.41 
  -4  -3  -5   30.22    2.25 
  -4  -3  -5   32.36    2.42 
  -4  -3  -5   28.58    2.25 
   4   3   5   31.04    2.10 
   4   3   5   31.73    2.14 
  -5  -3  -5    2.59    0.56 
   5   3   5    3.14    0.39 
   5   3   5    2.80    0.41 
   5  -4  -5   40.78    2.65 
  -5   4   5   36.90    2.74 
  -5   4   5   41.37    2.78 
  -5   4   5   39.18    2.87 
   4  -4  -5    2.86    2.38 
   4  -4  -5    0.14    0.54 
   4  -4  -5   -0.17    0.29 
  -4   4   5   -0.28    0.44 
  -4   4   5   -0.36    0.53 
  -4   4   5   -0.69    0.70 
   3  -4  -5    2.49    0.57 
   3  -4  -5    3.68    0.48 
  -3   4   5    4.00    0.99 
  -3   4   5    3.02    0.76 
  -3   4   5    1.81    0.61 
  -3   4   5    0.81    1.18 
  -3   4   5    3.25    0.63 
   2  -4  -5   15.02    2.24 
   2  -4  -5   13.68    0.98 
   2  -4  -5   10.86    1.17 
  -2   4   5   13.71    1.51 
  -2   4   5   11.98    1.40 
  -2   4   5   11.78    1.53 
  -2   4   5   13.04    1.22 
  -2   4   5   12.01    1.36 
   1  -4  -5   58.75    4.69 
   1  -4  -5   63.49    4.16 
  -1   4   5   63.52    4.26 
  -1   4   5   63.96    4.41 
  -1   4   5   60.17    4.31 
   0  -4  -5   13.73    1.17 
   0  -4  -5   10.10    0.96 
   0  -4  -5   10.94    1.86 
   0  -4  -5   14.48    1.91 
   0  -4  -5   11.73    1.08 
   0   4   5   10.03    1.35 
   0   4   5   10.58    1.22 
   0   4   5   11.21    1.40 
  -1  -4  -5   16.43    1.69 
  -1  -4  -5   14.28    1.36 
  -1  -4  -5   17.06    1.52 
   1   4   5   16.07    1.37 
   1   4   5   18.03    1.41 
   1   4   5   18.03    1.60 
  -2  -4  -5   38.40    2.98 
  -2  -4  -5   39.69    2.90 
   2   4   5   44.78    2.76 
   2   4   5   39.69    2.82 
   2   4   5   40.22    3.05 
   3   4   5    3.32    0.60 
   3   4   5    2.55    1.07 
  -4  -4  -5    3.45    0.62 
  -4  -4  -5    1.63    0.43 
  -4  -4  -5    2.64    0.64 
   4   4   5    2.25    0.41 
   5  -5  -5    1.38    0.38 
  -5   5   5    1.08    0.33 
  -5   5   5    1.30    0.48 
  -5   5   5    2.11    0.52 
   4  -5  -5    1.86    0.38 
   4  -5  -5    1.94    0.43 
  -4   5   5    1.75    0.51 
  -4   5   5    1.52    0.50 
  -4   5   5    2.20    0.63 
   3  -5  -5   43.31    2.88 
   3  -5  -5   42.65    2.82 
  -3   5   5   34.69    3.00 
  -3   5   5   46.35    3.05 
  -3   5   5   47.15    3.19 
  -3   5   5   38.37    3.04 
   2  -5  -5   64.74    4.07 
   2  -5  -5   59.83    4.01 
  -2   5   5   61.33    4.14 
  -2   5   5   61.74    4.23 
  -2   5   5   56.82    4.21 
  -2   5   5   59.04    4.61 
   1  -5  -5   22.76    1.80 
   1  -5  -5   23.20    1.64 
   1  -5  -5   24.24    1.71 
   1  -5  -5   17.82    2.99 
  -1   5   5   19.94    1.96 
  -1   5   5   23.58    1.85 
  -1   5   5   22.06    3.02 
   0  -5  -5   15.69    1.44 
   0  -5  -5   17.27    1.51 
   0  -5  -5   17.80    1.40 
   0  -5  -5   15.37    2.83 
   0   5   5   16.98    2.77 
   0   5   5   19.21    1.59 
  -1  -5  -5   28.02    2.19 
  -1  -5  -5   25.94    3.56 
  -1  -5  -5   31.85    2.33 
  -1  -5  -5   33.56    2.52 
   1   5   5   33.20    2.42 
   1   5   5   32.64    2.23 
  -2  -5  -5    0.76    0.57 
   2   5   5    1.79    0.71 
   2   5   5    0.50    0.36 
  -3  -5  -5    2.50    0.49 
  -3  -5  -5    3.71    0.61 
   3   5   5    2.82    0.41 
   4  -6  -5    5.85    0.60 
   4  -6  -5    6.37    0.69 
  -4   6   5    5.23    0.73 
  -4   6   5    4.97    0.93 
   3  -6  -5   10.95    1.01 
   3  -6  -5   11.79    0.92 
   3  -6  -5    9.13    0.91 
  -3   6   5   10.66    0.97 
  -3   6   5    9.49    1.22 
  -3   6   5    9.97    1.15 
   2  -6  -5    5.53    0.70 
   2  -6  -5    5.62    0.83 
   2  -6  -5    5.04    0.73 
  -2   6   5    7.23    1.06 
  -2   6   5    4.88    0.83 
   1  -6  -5    5.82    0.91 
   1  -6  -5    5.25    0.81 
  -1   6   5    6.08    0.99 
  -1   6   5    5.63    0.95 
   0  -6  -5    3.60    0.96 
   0  -6  -5    2.26    0.46 
   0  -6  -5    2.95    0.79 
   0   6   5    2.79    0.88 
  -1  -6  -5   13.11    1.19 
  -1  -6  -5   14.15    1.38 
   1   6   5   13.31    1.16 
   1   6   5   11.69    1.31 
  -2  -6  -5    0.42    0.42 
  -2  -6  -5   -0.14    0.27 
   2   6   5    0.51    0.30 
   2   6   5   -0.20    0.58 
  -3  -6  -5    0.34    0.25 
  -3  -6  -5    1.04    0.48 
  -3  -6  -5    0.16    0.34 
   3   6   5    0.76    0.23 
   3  -7  -5    0.07    0.22 
  -3   7   5    0.16    0.35 
   2  -7  -5    3.13    0.58 
   2  -7  -5    3.95    0.50 
  -2   7   5    5.01    0.91 
  -2   7   5    3.74    0.62 
   1  -7  -5    1.26    0.35 
   1  -7  -5    1.53    0.36 
  -1   7   5    2.34    0.47 
   0  -7  -5    0.07    0.27 
   0  -7  -5   -0.84    1.13 
   0   7   5   -0.18    0.34 
  -1  -7  -5    7.73    0.72 
   0  -9   6   17.00    1.24 
   1  -9   6   19.60    1.42 
  -2   9  -6    0.70    1.19 
   2   8  -6    0.58    0.24 
   1   8  -6   10.80    1.28 
  -1  -8   6   13.04    1.00 
   0  -8   6    2.46    0.82 
   0  -8   6    2.61    0.45 
  -1   8  -6    2.03    1.57 
  -2   8  -6   10.41    1.53 
   2  -8   6    9.57    0.96 
  -3   8  -6    3.21    0.67 
   3  -8   6    5.26    0.92 
  -4   8  -6   47.59    3.22 
   3   7  -6    5.21    0.54 
  -3  -7   6    4.39    0.80 
   2   7  -6   12.61    1.18 
   2   7  -6   10.49    1.04 
  -2  -7   6   11.93    1.26 
   1   7  -6   35.94    2.94 
   1   7  -6   32.39    2.48 
  -1  -7   6   40.81    2.98 
   0   7  -6    4.95    0.77 
   0   7  -6    6.20    0.91 
   0  -7   6    5.53    1.16 
   0  -7   6    5.26    0.79 
  -1   7  -6    2.79    0.72 
  -1   7  -6    3.32    0.63 
  -1   7  -6    2.10    1.52 
   1  -7   6    2.69    0.55 
  -2   7  -6    8.94    1.58 
   2  -7   6    7.52    0.96 
   3  -7   6   -0.13    0.51 
  -4   7  -6    0.61    0.51 
   4  -7   6    1.11    0.87 
   4   6  -6    0.47    0.31 
  -4  -6   6    0.21    0.39 
   3   6  -6    4.11    0.65 
   2   6  -6   12.12    1.09 
   2   6  -6   16.88    1.49 
  -2  -6   6   13.53    1.40 
  -2  -6   6   14.07    1.34 
   1   6  -6    1.56    0.37 
   1   6  -6    2.06    0.62 
  -1  -6   6    1.01    0.47 
  -1  -6   6    1.49    0.65 
   0   6  -6   44.82    3.04 
   0  -6   6   40.64    2.97 
  -1   6  -6   59.80    4.44 
  -1   6  -6   75.77    5.55 
  -1   6  -6   69.35    4.55 
   1  -6   6   66.83    4.54 
  -2   6  -6    3.63    1.11 
   2  -6   6    1.16    1.87 
   2  -6   6    3.79    0.67 
  -3   6  -6    3.33    1.26 
   3  -6   6    4.06    0.74 
   3  -6   6    1.00    1.95 
  -4   6  -6   22.97    2.01 
   4  -6   6   21.76    1.57 
   4  -6   6   22.54    3.93 
   4  -6   6   24.88    2.15 
  -5   6  -6    9.03    0.97 
   4   5  -6    8.86    0.91 
  -4  -5   6    8.45    1.01 
   3   5  -6   10.03    0.92 
   3   5  -6   13.87    2.11 
  -3  -5   6   10.88    1.31 
  -2  -5   6   22.86    1.77 
  -2  -5   6   22.97    1.75 
  -2  -5   6   23.03    2.00 
   1   5  -6   20.14    1.51 
   1   5  -6   20.94    1.94 
  -1  -5   6   19.68    1.85 
  -1  -5   6   21.12    1.62 
  -1  -5   6   20.44    1.60 
   0   5  -6  200.47   14.69 
   0   5  -6  250.75   14.61 
   0   5  -6  221.95   14.44 
   0  -5   6  228.03   14.48 
   0  -5   6  220.70   14.48 
  -1   5  -6    2.34    0.63 
  -1   5  -6    1.57    0.43 
  -1   5  -6    2.76    1.71 
   1  -5   6    2.13    0.52 
   1  -5   6    2.48    1.27 
  -2   5  -6    1.07    1.01 
   2  -5   6    0.96    0.66 
   2  -5   6    0.82    0.52 
   2  -5   6    0.51    0.59 
   2  -5   6   -0.48    1.27 
  -3   5  -6   -0.98    0.85 
   3  -5   6    0.08    0.33 
   3  -5   6    0.23    0.59 
   3  -5   6   -1.85    1.52 
  -4   5  -6    1.78    0.74 
   4  -5   6    0.84    2.20 
  -5   5  -6    4.74    0.90 
   5  -5   6    3.30    0.44 
  -5  -4   6   43.06    2.94 
   4   4  -6   28.91    2.12 
  -4  -4   6   32.33    2.47 
   3   4  -6   23.69    1.82 
  -3  -4   6   29.37    2.09 
  -3  -4   6   26.40    2.18 
   2   4  -6    2.11    0.44 
  -2  -4   6    2.73    0.56 
  -2  -4   6    1.62    0.62 
   1   4  -6  165.79   10.75 
  -1  -4   6  168.04   10.79 
  -1  -4   6  167.03   10.81 
   0   4  -6   37.48    2.60 
   0   4  -6   36.61    2.92 
   0  -4   6   39.06    2.65 
   0  -4   6   39.31    2.67 
   0  -4   6   40.40    2.69 
  -1   4  -6    2.39    0.64 
  -1   4  -6    1.05    0.35 
   1  -4   6    2.21    0.51 
   1  -4   6    2.08    0.48 
   1  -4   6    1.37    0.42 
  -2   4  -6   51.13    4.18 
  -2   4  -6   53.83    3.67 
   2  -4   6   57.11    3.61 
   2  -4   6   56.22    4.40 
   2  -4   6   53.77    3.67 
   2  -4   6   55.35    3.81 
  -3   4  -6   95.62    6.78 
   3  -4   6   99.49    6.53 
   3  -4   6   99.37    6.35 
   3  -4   6   96.96    7.29 
  -4   4  -6   37.46    3.20 
   4  -4   6   46.17    5.13 
   4  -4   6   41.58    2.80 
   4  -4   6   40.84    2.76 
   5  -4   6   60.95    3.98 
  -5  -3   6    2.62    1.90 
  -5  -3   6    4.17    0.88 
   4   3  -6    6.24    0.84 
  -4  -3   6    5.05    1.65 
   3   3  -6   18.29    1.51 
  -3  -3   6   19.14    1.79 
  -3  -3   6   19.51    1.62 
   2   3  -6   14.29    1.06 
  -2  -3   6   13.15    1.27 
  -2  -3   6   15.00    1.51 
   1   3  -6    0.41    0.25 
  -1  -3   6    0.48    0.34 
  -1  -3   6    1.20    0.51 
  -1  -3   6    0.26    0.43 
   0   3  -6    2.17    0.37 
   0   3  -6    1.81    1.91 
   0  -3   6    1.86    0.50 
   0  -3   6    1.69    0.39 
   0  -3   6    2.67    0.87 
   0  -3   6    1.45    0.47 
  -1   3  -6   -0.01    0.23 
  -1   3  -6   -0.26    0.64 
  -1   3  -6   -1.81    1.75 
   1  -3   6   -0.31    0.50 
   1  -3   6    0.84    0.45 
   1  -3   6    0.25    0.73 
   1  -3   6    0.02    0.35 
  -2   3  -6   27.60    1.99 
  -2   3  -6   26.45    2.13 
  -2   3  -6   26.02    2.63 
   2  -3   6   28.53    2.13 
   2  -3   6   25.02    2.19 
   2  -3   6   32.44    2.70 
   2  -3   6   31.42    1.97 
   2  -3   6   28.09    2.00 
  -3   3  -6   29.20    2.62 
   3  -3   6   28.75    2.97 
   3  -3   6   31.42    2.04 
   3  -3   6   28.46    2.06 
   3  -3   6   30.65    2.33 
  -4   3  -6   26.24    2.39 
   4  -3   6   29.33    1.94 
   4  -3   6   27.91    3.24 
   4  -3   6   27.66    1.92 
   4  -3   6   25.66    2.46 
  -5   3  -6    1.19    0.68 
   5  -3   6    1.03    0.63 
   5  -3   6    1.18    0.30 
   6  -3   6   21.31    1.49 
  -5  -2   6    1.29    0.90 
  -5  -2   6    1.05    0.54 
  -4  -2   6    3.48    0.77 
  -4  -2   6    4.13    1.24 
  -3  -2   6   26.25    2.16 
  -3  -2   6   24.18    1.91 
   2   2  -6  144.15   10.31 
  -2  -2   6  161.45   10.47 
  -2  -2   6  163.21   10.44 
  -2  -2   6  175.55   10.61 
   1   2  -6  213.15   13.86 
  -1  -2   6  226.53   13.97 
  -1  -2   6  210.09   13.92 
   0   2  -6   44.50    3.29 
   0   2  -6   50.48    4.25 
   0  -2   6   56.39    3.72 
  -1   2  -6    8.27    2.38 
  -1   2  -6    9.30    0.82 
   1  -2   6    9.79    0.91 
   1  -2   6   12.02    1.04 
   1  -2   6   10.04    1.04 
   1  -2   6   12.84    1.39 
  -2   2  -6   87.01    5.82 
  -2   2  -6   78.98    5.27 
  -2   2  -6   86.69    5.57 
  -2   2  -6   71.70    5.34 
   2  -2   6   76.85    5.27 
   2  -2   6   85.47    5.21 
   2  -2   6   81.12    5.24 
   2  -2   6   77.20    5.36 
  -3   2  -6   85.88    6.04 
   3  -2   6   93.19    5.63 
   3  -2   6   81.74    5.65 
   3  -2   6   86.23    6.40 
  -4   2  -6    1.42    0.80 
   4  -2   6    1.40    0.50 
   4  -2   6    0.75    0.33 
   4  -2   6   -0.35    1.70 
   4  -2   6    0.55    0.42 
  -5   2  -6    1.40    0.71 
   5  -2   6   -0.17    0.23 
   5  -2   6   -0.31    0.50 
   6  -2   6    0.25    0.20 
  -5  -1   6    2.72    0.75 
  -5  -1   6    4.76    1.04 
  -4  -1   6    3.90    0.89 
  -4  -1   6    3.70    0.78 
  -4  -1   6    5.85    1.04 
  -4  -1   6    6.37    1.36 
  -3  -1   6    6.81    1.05 
  -3  -1   6    6.85    1.54 
  -3  -1   6    4.59    0.99 
  -2  -1   6   10.46    1.21 
  -2  -1   6   12.90    1.60 
  -2  -1   6   10.48    1.12 
  -2  -1   6   12.11    1.26 
   1   1  -6    0.03    0.19 
   1   1  -6   -1.24    1.53 
   0   1  -6  406.34   27.08 
   0   1  -6  372.17   26.59 
   0  -1   6  471.80   27.03 
  -1   1  -6  302.60   21.88 
  -1   1  -6  352.64   22.34 
   1  -1   6  408.86   22.41 
   1  -1   6  305.88   22.18 
  -2   1  -6   83.59    6.00 
  -2   1  -6   97.65    6.21 
  -2   1  -6   83.63    6.17 
  -2   1  -6   83.61    5.92 
   2  -1   6   86.42    6.03 
   2  -1   6   98.33    5.91 
   2  -1   6   90.48    5.94 
   2  -1   6  103.14    5.88 
  -3   1  -6   17.46    2.00 
   3  -1   6   21.06    1.51 
   3  -1   6   22.06    2.40 
   3  -1   6   22.12    1.47 
   3  -1   6   20.13    1.55 
  -4   1  -6   68.04    4.74 
   4  -1   6   66.68    4.36 
   4  -1   6   62.18    4.38 
   4  -1   6   60.43    4.67 
   4  -1   6   69.55    4.35 
   4  -1   6   70.65    5.74 
  -5   1  -6    6.03    1.08 
   5  -1   6    7.31    0.66 
   5  -1   6    7.89    0.90 
  -6   0   6    0.60    0.59 
  -5   0   6    6.33    1.40 
  -5   0   6    6.89    1.01 
  -5   0   6    7.83    1.39 
  -4   0   6   40.35    4.10 
  -4   0   6   36.53    2.75 
  -4   0   6   35.49    2.67 
  -4   0   6   32.34    2.93 
  -4   0   6   39.24    3.03 
   3   0  -6    1.74    1.44 
  -3   0   6    3.15    1.17 
  -3   0   6    1.27    0.83 
   2   0  -6  293.02   18.17 
   2   0  -6  303.89   17.82 
  -2   0   6  274.67   18.00 
  -2   0   6  260.95   17.96 
  -2   0   6  263.23   17.95 
   1   0  -6   13.69    0.93 
   1   0  -6   12.04    2.10 
  -1   0   6   12.94    1.24 
   0   0  -6    7.50    0.62 
   0   0  -6    8.45    1.01 
  -1   0  -6    3.75    0.71 
  -1   0  -6    2.51    0.42 
  -1   0  -6    3.83    0.78 
   1   0   6    4.54    0.98 
   1   0   6    2.70    0.60 
   1   0   6    3.20    0.58 
  -2   0  -6    2.57    0.89 
  -2   0  -6    3.09    0.61 
  -2   0  -6    3.36    1.07 
  -2   0  -6    1.66    0.47 
  -2   0  -6    2.66    0.95 
   2   0   6    3.15    0.55 
   2   0   6    3.21    0.67 
   2   0   6    3.49    0.50 
   2   0   6    2.12    0.41 
  -3   0  -6    3.27    0.82 
   3   0   6    3.44    0.64 
   3   0   6    3.22    1.40 
   3   0   6    3.41    0.55 
   3   0   6    3.48    0.80 
   3   0   6    3.31    0.46 
  -4   0  -6   36.15    2.69 
   4   0   6   34.09    2.44 
   4   0   6   34.56    2.40 
   4   0   6   35.99    2.42 
  -5   0  -6    3.47    0.69 
   5   0   6    3.17    1.17 
   5   0   6    2.81    0.48 
   5   0   6    3.02    0.44 
  -6   1   6    4.44    0.78 
  -5   1   6   54.81    3.57 
  -5   1   6   47.87    3.71 
  -4   1   6   16.74    1.92 
  -4   1   6   17.60    1.97 
  -4   1   6   18.69    1.55 
  -4   1   6   18.01    2.44 
   3  -1  -6    4.07    0.47 
  -3   1   6    3.29    0.67 
  -3   1   6    2.71    0.80 
  -3   1   6    3.83    0.82 
   2  -1  -6   28.64    2.33 
  -2   1   6   27.54    2.05 
  -2   1   6   27.09    2.05 
  -2   1   6   21.52    2.78 
  -2   1   6   26.89    2.02 
   1  -1  -6   10.71    1.19 
   1  -1  -6   10.61    0.73 
  -1   1   6    8.11    1.17 
  -1   1   6    9.99    1.14 
  -1   1   6    8.60    1.08 
   0  -1  -6    3.48    0.38 
   0  -1  -6    2.43    0.71 
   0   1   6    3.50    0.62 
  -1  -1  -6   87.55    5.86 
  -1  -1  -6   79.32    5.50 
  -1  -1  -6   89.52    5.60 
   1   1   6   84.57    5.67 
   1   1   6   81.72    5.62 
   1   1   6   85.31    5.55 
  -2  -1  -6    1.41    0.75 
  -2  -1  -6    1.62    0.58 
  -2  -1  -6    1.28    0.57 
  -2  -1  -6    1.50    1.11 
  -2  -1  -6    2.66    0.82 
   2   1   6    1.70    0.40 
   2   1   6    1.18    0.53 
   2   1   6    2.22    0.40 
   2   1   6    2.17    0.66 
  -3  -1  -6    6.39    1.10 
  -3  -1  -6    5.26    1.05 
   3   1   6    5.38    0.96 
   3   1   6    5.72    0.68 
   3   1   6    6.49    0.76 
   3   1   6    5.12    0.70 
  -4  -1  -6   15.68    1.47 
   4   1   6   14.25    1.31 
   4   1   6   17.49    1.27 
   4   1   6   15.47    1.17 
  -5  -1  -6   19.42    1.64 
   5   1   6   18.63    1.43 
   5   1   6   23.15    1.42 
  -6   2   6    1.39    0.48 
  -5   2   6   17.47    1.70 
  -5   2   6   18.53    1.58 
  -5   2   6   16.63    1.45 
   4  -2  -6   14.57    1.03 
  -4   2   6   11.64    1.33 
  -4   2   6   12.00    1.72 
  -4   2   6   11.62    1.25 
  -4   2   6   14.49    2.15 
  -3   2   6   31.59    2.43 
  -3   2   6   31.90    2.66 
  -3   2   6   31.19    2.75 
  -3   2   6   35.44    2.49 
   2  -2  -6   55.80    3.16 
   2  -2  -6   48.48    3.79 
  -2   2   6   48.56    3.39 
  -2   2   6   46.91    3.40 
  -2   2   6   42.94    3.39 
  -2   2   6   45.40    3.30 
  -2   2   6   47.93    3.67 
   1  -2  -6  298.06   18.30 
   1  -2  -6  304.87   18.71 
   1  -2  -6  271.94   18.38 
  -1   2   6  285.98   18.39 
  -1   2   6  286.73   18.56 
  -1   2   6  260.83   18.42 
  -1   2   6  294.10   18.46 
   0  -2  -6    3.80    0.44 
   0  -2  -6    2.47    0.56 
   0  -2  -6    3.12    0.87 
   0  -2  -6    3.02    0.91 
   0   2   6    4.19    0.75 
   0   2   6    4.84    0.80 
   0   2   6    2.21    0.58 
   0   2   6    3.74    0.93 
  -1  -2  -6   65.22    4.74 
  -1  -2  -6   67.44    4.40 
  -1  -2  -6   66.03    4.50 
  -1  -2  -6   61.97    4.32 
  -1  -2  -6   68.05    4.71 
   1   2   6   64.47    4.46 
   1   2   6   67.26    4.37 
  -2  -2  -6    9.39    1.18 
  -2  -2  -6   10.53    1.70 
  -2  -2  -6   10.07    1.23 
   2   2   6    9.14    0.91 
   2   2   6    8.22    1.15 
  -3  -2  -6   10.28    1.15 
  -3  -2  -6    8.53    1.23 
   3   2   6    9.35    0.88 
   3   2   6   11.21    1.66 
   3   2   6   11.39    0.92 
   3   2   6    8.20    1.33 
  -4  -2  -6   16.29    1.73 
  -4  -2  -6   10.35    1.26 
  -4  -2  -6   13.62    1.32 
   4   2   6   13.70    1.09 
   4   2   6   13.27    1.01 
  -5  -2  -6   19.50    1.46 
   5   2   6   17.49    1.17 
   5   2   6   14.77    1.19 
  -5   3   6   53.95    3.90 
  -5   3   6   59.68    3.81 
  -5   3   6   53.41    3.75 
   4  -3  -6   11.40    0.90 
  -4   3   6    9.69    1.21 
  -4   3   6   12.63    1.51 
  -4   3   6    9.99    1.17 
   3  -3  -6    0.33    0.28 
  -3   3   6   -1.50    1.35 
  -3   3   6    0.20    0.93 
  -3   3   6    0.39    0.49 
  -3   3   6   -0.68    0.56 
   2  -3  -6   45.83    3.73 
   2  -3  -6   40.70    2.92 
  -2   3   6   40.27    3.09 
  -2   3   6   45.19    3.01 
  -2   3   6   45.51    3.13 
  -2   3   6   43.85    3.30 
   1  -3  -6    2.99    1.19 
   1  -3  -6    1.24    0.69 
   1  -3  -6    2.07    0.36 
   1  -3  -6    1.88    1.00 
  -1   3   6    1.77    0.60 
  -1   3   6    2.14    0.55 
   0  -3  -6   50.11    3.54 
   0  -3  -6   53.16    3.41 
   0  -3  -6   49.36    3.96 
   0  -3  -6   52.36    3.56 
   0   3   6   50.83    3.73 
   0   3   6   54.35    3.57 
   0   3   6   45.24    3.65 
   0   3   6   53.68    3.50 
  -1  -3  -6    7.97    0.92 
  -1  -3  -6    6.51    1.09 
  -1  -3  -6    5.51    1.13 
  -1  -3  -6    6.34    1.49 
  -1  -3  -6    8.77    0.86 
   1   3   6    7.42    0.87 
   1   3   6    8.39    1.02 
  -2  -3  -6   79.87    5.53 
  -2  -3  -6   84.99    5.46 
  -2  -3  -6   73.20    6.19 
   2   3   6   82.95    5.50 
   2   3   6   76.85    5.28 
   2   3   6   87.18    5.37 
  -3  -3  -6   -0.69    0.53 
  -3  -3  -6    0.78    0.53 
   3   3   6    0.27    0.31 
   3   3   6   -0.09    0.33 
  -4  -3  -6   52.09    3.93 
  -4  -3  -6   58.89    3.94 
  -4  -3  -6   59.09    4.06 
   4   3   6   62.88    3.79 
  -5   4   6    1.60    0.40 
  -5   4   6    2.06    0.50 
   4  -4  -6   43.99    2.84 
   4  -4  -6   34.88    2.77 
  -4   4   6   42.13    2.88 
  -4   4   6   40.51    2.99 
  -4   4   6   39.10    2.84 
   3  -4  -6    0.58    0.46 
   3  -4  -6    1.15    0.34 
  -3   4   6    0.88    0.62 
  -3   4   6    1.32    0.54 
  -3   4   6    1.83    0.84 
   2  -4  -6   46.94    3.11 
   2  -4  -6   50.44    3.22 
   2  -4  -6   40.79    4.38 
  -2   4   6   46.95    3.23 
  -2   4   6   50.45    3.36 
  -2   4   6   44.94    3.50 
  -2   4   6   43.38    3.35 
   1  -4  -6   16.37    1.51 
   1  -4  -6   17.34    1.41 
   1  -4  -6   16.69    1.26 
   1  -4  -6   16.77    2.52 
  -1   4   6   17.99    1.69 
  -1   4   6   16.08    1.61 
  -1   4   6   17.00    1.46 
   0  -4  -6   10.71    2.19 
   0  -4  -6    9.43    0.91 
   0  -4  -6   10.51    1.17 
   0  -4  -6    9.32    1.00 
   0   4   6    9.81    1.12 
   0   4   6    7.21    1.14 
   0   4   6    8.68    1.24 
  -1  -4  -6   -0.16    0.77 
  -1  -4  -6   -0.23    0.97 
  -1  -4  -6    1.07    0.56 
  -1  -4  -6    0.96    0.43 
   1   4   6    1.76    0.47 
   1   4   6    0.78    0.55 
  -2  -4  -6   50.96    3.60 
  -2  -4  -6   49.98    3.65 
   2   4   6   54.07    3.68 
   2   4   6   52.36    3.49 
  -3  -4  -6   17.61    1.46 
  -3  -4  -6   20.88    1.59 
   3   4   6   18.70    1.36 
   3   4   6   14.47    1.74 
  -4  -4  -6    0.53    0.38 
   4   4   6    1.16    0.27 
  -5   5   6    1.31    0.59 
   4  -5  -6   10.78    0.96 
   4  -5  -6   13.07    1.01 
  -4   5   6   11.67    1.04 
  -4   5   6   11.07    1.16 
  -4   5   6   12.94    1.15 
   3  -5  -6   49.10    3.48 
   3  -5  -6   55.56    3.53 
  -3   5   6   51.59    3.66 
  -3   5   6   53.90    3.62 
   2  -5  -6   18.11    1.41 
   2  -5  -6   18.74    1.52 
   2  -5  -6   16.29    1.33 
  -2   5   6   18.54    1.49 
  -2   5   6   18.24    1.64 
   1  -5  -6   34.57    4.58 
   1  -5  -6   42.08    3.01 
   1  -5  -6   49.18    3.13 
   1  -5  -6   44.60    3.04 
  -1   5   6   44.21    3.20 
  -1   5   6   46.49    3.14 
   0  -5  -6   50.70    4.03 
   0  -5  -6   53.77    3.59 
   0  -5  -6   41.71    5.24 
   0  -5  -6   55.62    3.52 
   0  -5  -6   45.33    3.56 
   0   5   6   59.10    3.68 
  -1  -5  -6    1.24    0.49 
  -1  -5  -6    1.22    0.87 
  -1  -5  -6    1.83    0.84 
   1   5   6    2.14    0.50 
   1   5   6    2.99    0.82 
  -2  -5  -6    9.25    0.99 
  -2  -5  -6    7.48    1.14 
   2   5   6   12.23    1.18 
   2   5   6   10.67    0.89 
  -3  -5  -6    2.22    0.57 
  -3  -5  -6    0.88    0.35 
  -3  -5  -6    0.86    0.39 
   3   5   6    1.15    0.24 
   3   5   6    1.59    0.79 
   4  -6  -6    0.11    0.21 
  -4   6   6    0.16    0.44 
   3  -6  -6   14.56    1.31 
   3  -6  -6   17.47    1.35 
   3  -6  -6   17.98    1.26 
  -3   6   6   18.92    1.47 
   2  -6  -6    1.72    0.34 
   2  -6  -6    1.20    0.46 
   2  -6  -6    1.28    0.44 
  -2   6   6    1.62    0.41 
   1  -6  -6   24.19    1.82 
   1  -6  -6   24.66    1.73 
  -1   6   6   21.14    2.02 
  -1   6   6   25.60    1.83 
   0  -6  -6    1.72    1.07 
   0  -6  -6    2.49    0.44 
   0  -6  -6    2.96    0.51 
   0   6   6    2.00    0.49 
  -1  -6  -6    2.36    0.71 
  -1  -6  -6    1.49    0.41 
   1   6   6    1.52    0.51 
  -2  -6  -6    5.97    0.68 
   2   6   6    6.56    0.70 
   2   6   6    8.23    0.97 
   2  -7  -6    2.92    0.53 
   2  -7  -6    2.61    0.44 
  -2   7   6    2.42    0.41 
  -2   7   6    2.71    0.59 
   1  -7  -6    7.08    0.84 
  -1   7   6    8.83    0.74 
   0  -7  -6    4.22    0.66 
   0   7   6    6.51    0.73 
   1  -9   7    0.06    0.25 
   2   8  -7    1.45    0.28 
  -1  -8   7    8.94    0.86 
  -1  -8   7   10.37    1.70 
   0   8  -7   -0.34    0.40 
   0  -8   7   -0.16    0.55 
   0  -8   7   -0.26    0.27 
   1  -8   7    0.45    0.65 
   1  -8   7    0.35    0.36 
  -2   8  -7    3.52    1.12 
   2  -8   7    2.10    0.50 
  -3   8  -7   97.19    6.56 
   3   7  -7    0.24    0.23 
  -3  -7   7   -0.57    0.38 
   2   7  -7    4.55    0.74 
  -2  -7   7    4.85    0.89 
   1   7  -7   12.60    1.16 
   1   7  -7   14.74    1.27 
  -1  -7   7   13.33    1.11 
  -1  -7   7   12.91    1.36 
   0   7  -7    5.12    0.83 
   0  -7   7    6.40    0.81 
  -1   7  -7    8.99    1.26 
  -1   7  -7   13.13    1.15 
   1  -7   7   11.96    1.05 
  -2   7  -7   18.38    2.13 
  -2   7  -7   19.31    1.53 
   2  -7   7   17.92    1.50 
  -3   7  -7   -0.11    0.68 
   3  -7   7   -0.22    0.43 
  -4   7  -7    9.16    1.12 
   4  -7   7    9.56    1.35 
  -4  -6   7    0.79    0.32 
   3   6  -7    4.93    0.73 
  -3  -6   7    6.49    0.90 
   2   6  -7   11.04    1.33 
   2   6  -7   10.19    0.94 
   1   6  -7  161.69    9.66 
  -1  -6   7  142.82    9.56 
  -1  -6   7  137.91    9.70 
   0   6  -7    2.34    0.63 
   0  -6   7    3.31    0.65 
  -1   6  -7    4.78    0.72 
   1  -6   7   -1.07    2.53 
  -2   6  -7   12.89    2.00 
  -2   6  -7   14.99    1.29 
   2  -6   7   12.42    1.26 
   2  -6   7   19.45    4.84 
   3  -6   7    2.36    2.22 
  -4   6  -7   -0.56    0.59 
   4  -6   7    1.09    0.64 
  -5   6  -7   -0.43    0.38 
  -4  -5   7    2.10    0.49 
   3   5  -7   73.81    4.83 
   2   5  -7   35.97    2.97 
  -2  -5   7   32.55    2.46 
  -2  -5   7   35.30    2.65 
   1   5  -7   10.81    1.48 
   1   5  -7    8.69    0.86 
  -1  -5   7    8.01    1.30 
  -1  -5   7    9.82    0.97 
  -1  -5   7   10.01    1.03 
   0   5  -7    0.18    0.63 
   0   5  -7    0.17    0.36 
   0  -5   7    0.80    0.43 
   0  -5   7   -0.22    0.39 
  -1   5  -7    4.75    0.66 
  -1   5  -7    4.21    0.73 
   1  -5   7    5.75    0.83 
   1  -5   7    4.26    0.81 
   1  -5   7    4.59    0.74 
   1  -5   7    4.65    1.58 
  -2   5  -7    2.50    0.80 
  -2   5  -7    2.06    0.64 
  -2   5  -7    3.14    1.21 
   2  -5   7    2.17    0.50 
   2  -5   7    4.96    1.64 
   2  -5   7    4.19    0.83 
  -3   5  -7   43.13    3.44 
   3  -5   7   44.57    4.15 
   3  -5   7   45.99    3.12 
   3  -5   7   40.66    2.90 
  -4   5  -7    2.64    0.82 
   4  -5   7    2.63    0.52 
   4  -5   7    2.70    2.38 
  -5   5  -7    0.51    0.41 
  -5  -4   7    7.40    0.96 
   4   4  -7    5.20    0.85 
  -4  -4   7    4.91    0.77 
  -3  -4   7    0.30    0.56 
  -3  -4   7    0.60    0.58 
   2   4  -7    1.79    0.42 
  -2  -4   7    2.28    0.50 
  -2  -4   7    1.61    0.63 
   1   4  -7   43.87    2.83 
   1   4  -7   34.24    3.38 
  -1  -4   7   45.47    2.92 
   0   4  -7   51.41    3.79 
   0   4  -7   56.89    3.59 
   0  -4   7   57.16    3.88 
   0  -4   7   52.98    3.65 
   0  -4   7   50.11    3.62 
  -1   4  -7    0.89    0.35 
   1  -4   7    0.58    0.38 
   1  -4   7    0.62    1.07 
   1  -4   7    0.56    0.73 
  -2   4  -7   -0.03    0.50 
  -2   4  -7    0.61    0.51 
  -2   4  -7   -0.82    1.15 
   2  -4   7    0.17    0.49 
   2  -4   7    0.91    1.24 
   2  -4   7    0.47    0.41 
  -3   4  -7   21.56    2.11 
  -3   4  -7   18.10    2.19 
   3  -4   7   20.99    2.78 
   3  -4   7   19.70    1.45 
   3  -4   7   17.66    1.69 
  -4   4  -7   16.11    1.83 
   4  -4   7   14.35    2.95 
   4  -4   7   16.41    1.73 
   4  -4   7   17.81    1.40 
  -5   4  -7    2.46    0.61 
   5  -4   7    1.87    0.32 
  -5  -3   7   24.25    1.87 
   3   3  -7    1.14    0.49 
  -3  -3   7    2.32    0.74 
  -3  -3   7    0.51    0.53 
   2   3  -7    0.70    0.32 
  -2  -3   7    0.85    0.63 
  -2  -3   7    0.03    0.44 
   1   3  -7   31.95    2.12 
  -1  -3   7   29.18    2.28 
  -1  -3   7   30.20    2.21 
  -1  -3   7   32.91    2.21 
  -1  -3   7   31.31    2.19 
   0   3  -7    4.79    0.99 
   0   3  -7    6.06    0.61 
   0  -3   7    8.02    1.41 
   0  -3   7    6.39    0.69 
   0  -3   7    6.80    0.87 
   0  -3   7    5.41    0.77 
   0  -3   7    6.71    0.79 
  -1   3  -7    1.71    0.64 
  -1   3  -7    1.34    0.32 
   1  -3   7    0.91    0.34 
   1  -3   7    1.91    0.53 
   1  -3   7    1.22    0.95 
   1  -3   7    1.32    0.45 
  -2   3  -7   -0.42    0.53 
  -2   3  -7   -0.95    1.16 
  -2   3  -7   -0.10    0.44 
   2  -3   7    1.00    0.93 
   2  -3   7    0.54    0.50 
   2  -3   7   -0.18    1.00 
   2  -3   7   -0.12    0.47 
   2  -3   7    0.25    0.59 
  -3   3  -7    2.38    0.98 
  -3   3  -7    3.32    0.77 
   3  -3   7    3.05    0.55 
   3  -3   7    3.64    0.74 
   3  -3   7    3.06    0.57 
   3  -3   7    4.18    1.58 
  -4   3  -7   -0.90    0.75 
   4  -3   7    0.57    0.29 
   4  -3   7    0.21    0.77 
   4  -3   7    0.72    1.87 
  -5   3  -7    4.34    0.94 
   5  -3   7    6.24    0.55 
  -5  -2   7   10.10    1.17 
  -4  -2   7    3.21    0.93 
  -4  -2   7    3.82    0.79 
  -3  -2   7    0.20    0.58 
  -3  -2   7   -0.22    0.62 
  -3  -2   7    1.24    0.53 
   2   2  -7    8.41    0.80 
  -2  -2   7    8.78    1.10 
  -2  -2   7    7.78    1.24 
  -2  -2   7   11.31    1.02 
   1   2  -7   37.12    2.57 
  -1  -2   7   40.60    2.73 
  -1  -2   7   36.64    2.67 
  -1  -2   7   38.70    2.63 
  -1  -2   7   40.09    2.69 
   0   2  -7   59.24    4.31 
   0  -2   7   67.25    4.35 
   0  -2   7   67.30    4.42 
   0  -2   7   72.25    4.45 
   0  -2   7   64.04    4.38 
  -1   2  -7   61.38    4.16 
  -1   2  -7   56.51    4.00 
   1  -2   7   62.06    4.01 
   1  -2   7   61.31    4.08 
   1  -2   7   60.15    4.13 
   1  -2   7   65.84    4.11 
   1  -2   7   56.56    5.32 
  -2   2  -7    4.49    0.65 
  -2   2  -7    3.03    0.62 
  -2   2  -7    5.11    1.18 
  -2   2  -7    4.28    1.41 
   2  -2   7    3.09    0.52 
   2  -2   7    4.36    1.16 
   2  -2   7    4.48    0.66 
   2  -2   7    4.43    0.86 
  -3   2  -7   54.23    3.79 
  -3   2  -7   40.49    3.37 
   3  -2   7   53.44    4.28 
   3  -2   7   51.13    3.25 
   3  -2   7   49.07    3.30 
   3  -2   7   45.81    3.43 
  -4   2  -7   10.39    1.49 
   4  -2   7    8.47    0.84 
   4  -2   7   10.72    0.96 
   4  -2   7    7.62    2.30 
   4  -2   7   11.15    1.40 
  -5   2  -7    0.82    0.58 
   5  -2   7    1.14    0.26 
  -5  -1   7   -0.24    0.99 
  -5  -1   7   -0.65    0.75 
  -4  -1   7    4.73    0.93 
  -4  -1   7    5.66    0.98 
  -4  -1   7    5.74    0.94 
  -4  -1   7    3.62    1.39 
   3   1  -7   -0.61    1.70 
  -3  -1   7    1.01    0.82 
  -3  -1   7    0.31    0.47 
  -3  -1   7    1.00    0.54 
   2   1  -7    0.84    0.31 
  -2  -1   7    1.88    0.83 
  -2  -1   7    0.69    0.52 
  -2  -1   7    0.81    0.52 
  -2  -1   7    0.59    0.48 
   1   1  -7    2.96    0.40 
  -1  -1   7    2.79    0.59 
  -1  -1   7    1.78    0.52 
  -1  -1   7    3.15    0.49 
  -1  -1   7    2.35    0.59 
   0   1  -7    0.29    0.21 
   0  -1   7   -0.45    0.54 
   0  -1   7    0.15    0.42 
   0  -1   7    0.23    0.33 
   0  -1   7   -0.47    0.43 
  -1   1  -7    0.94    0.30 
  -1   1  -7    1.33    2.47 
  -1   1  -7    0.37    0.71 
  -1   1  -7    1.17    0.59 
   1  -1   7    0.59    0.33 
   1  -1   7    1.17    0.47 
   1  -1   7    0.39    0.40 
  -2   1  -7  161.98   10.54 
  -2   1  -7  146.94   10.18 
  -2   1  -7  154.26   10.26 
   2  -1   7  155.43   10.27 
   2  -1   7  162.27   10.19 
   2  -1   7  164.51   10.14 
   3  -1   7  329.14   20.81 
   3  -1   7  359.69   21.63 
   3  -1   7  304.06   20.94 
   3  -1   7  308.52   20.85 
  -4   1  -7   65.82    4.51 
   4  -1   7   64.41    4.14 
   4  -1   7   57.97    4.44 
   4  -1   7   60.69    4.09 
   5  -1   7    4.19    0.48 
  -5   0   7   15.03    1.70 
  -5   0   7   11.96    1.21 
  -4   0   7    2.09    0.55 
  -4   0   7    2.91    0.66 
  -4   0   7    4.37    1.17 
   3   0  -7   37.52    4.06 
  -3   0   7   48.66    3.24 
  -3   0   7   46.57    3.26 
  -3   0   7   48.18    3.75 
   2   0  -7   85.27    5.18 
   2   0  -7   78.19    5.65 
  -2   0   7   78.09    5.36 
  -2   0   7   78.60    5.38 
   1   0  -7   21.62    1.39 
   1   0  -7   19.83    1.86 
  -1   0   7   19.63    1.64 
  -1   0   7   20.50    1.61 
  -1   0   7   18.84    1.58 
  -1   0   7   19.29    1.58 
   0   0  -7   13.32    0.93 
   0   0  -7   13.32    1.53 
   0   0  -7   12.01    1.35 
   0   0   7   11.63    1.05 
   0   0   7   11.84    1.14 
   0   0   7   11.30    1.32 
   0   0   7   12.33    1.14 
  -1   0  -7   73.32    4.93 
  -1   0  -7   61.43    4.50 
  -1   0  -7   70.85    4.64 
   1   0   7   68.23    4.54 
   1   0   7   71.15    4.63 
   1   0   7   68.29    4.62 
  -2   0  -7    0.44    0.48 
  -2   0  -7    0.13    0.56 
  -2   0  -7    0.87    0.82 
  -2   0  -7   -1.15    1.13 
   2   0   7    0.60    0.33 
   2   0   7    0.34    0.37 
  -3   0  -7    2.11    0.92 
  -3   0  -7    1.38    0.69 
   3   0   7    1.51    0.71 
   3   0   7    2.07    0.44 
   3   0   7    1.13    0.34 
  -4   0  -7    3.52    0.85 
   4   0   7    3.46    0.67 
   4   0   7    3.11    0.52 
   4   0   7    5.03    1.03 
  -5   0  -7    2.11    0.53 
   5   0   7    1.87    0.50 
  -5   1   7   -0.42    0.36 
  -5   1   7   -0.37    0.59 
  -5   1   7   -0.07    0.74 
  -4   1   7    0.09    0.45 
  -4   1   7    0.44    0.58 
  -4   1   7    1.50    1.05 
   3  -1  -7    7.46    0.72 
  -3   1   7    6.90    1.48 
  -3   1   7    9.45    1.07 
  -3   1   7    5.80    1.03 
   2  -1  -7  711.31   41.85 
   2  -1  -7  656.52   42.27 
  -2   1   7  650.06   42.04 
  -2   1   7  596.42   42.24 
  -2   1   7  665.23   42.17 
   1  -1  -7    0.95    0.84 
   1  -1  -7    0.10    0.20 
  -1   1   7    0.05    0.43 
  -1   1   7    0.16    0.55 
  -1   1   7    0.98    0.54 
   0  -1  -7   40.07    3.17 
   0  -1  -7   42.26    2.88 
   0  -1  -7   39.70    2.70 
   0   1   7   40.63    2.87 
   0   1   7   42.57    2.77 
   0   1   7   39.21    2.94 
   0   1   7   39.13    2.82 
  -1  -1  -7   -0.16    0.91 
  -1  -1  -7   -2.24    1.22 
  -1  -1  -7    0.17    0.30 
  -1  -1  -7    0.70    0.46 
   1   1   7    0.10    0.32 
   1   1   7    0.15    0.51 
   1   1   7    0.10    0.44 
  -2  -1  -7   67.12    4.82 
  -2  -1  -7   68.95    5.19 
  -2  -1  -7   61.14    4.59 
  -2  -1  -7   71.91    4.83 
   2   1   7   72.12    4.57 
   2   1   7   70.26    4.50 
   2   1   7   69.51    4.69 
  -3  -1  -7   24.36    2.14 
  -3  -1  -7   24.87    2.18 
   3   1   7   30.16    1.86 
   3   1   7   25.65    1.91 
   3   1   7   26.30    2.17 
  -4  -1  -7   12.54    1.37 
   4   1   7   13.48    1.00 
   4   1   7   12.38    1.06 
   4   1   7   13.97    1.72 
  -5  -1  -7    0.44    0.48 
   5   1   7    0.06    0.18 
  -5   2   7    5.53    0.84 
  -5   2   7    7.42    1.27 
  -5   2   7    8.30    0.84 
   4  -2  -7   73.09    4.54 
  -4   2   7   67.15    4.67 
  -4   2   7   68.25    5.09 
  -4   2   7   67.92    4.71 
   3  -2  -7    5.94    0.64 
  -3   2   7    5.91    1.30 
  -3   2   7    6.65    1.10 
  -3   2   7    7.17    1.41 
   2  -2  -7   31.77    3.43 
  -2   2   7   33.52    2.56 
  -2   2   7   34.54    2.90 
  -2   2   7   36.87    2.61 
  -2   2   7   37.38    2.63 
   1  -2  -7    0.57    1.19 
   1  -2  -7    0.73    0.79 
   1  -2  -7    0.32    0.24 
   0  -2  -7    4.10    0.50 
   0  -2  -7    3.28    1.17 
   0   2   7    2.05    0.81 
   0   2   7    4.55    0.76 
   0   2   7    4.55    0.82 
   0   2   7    3.27    0.67 
  -1  -2  -7   56.77    4.50 
  -1  -2  -7   52.19    3.90 
  -1  -2  -7   60.06    3.96 
   1   2   7   61.80    4.04 
   1   2   7   60.93    3.92 
  -2  -2  -7    2.70    0.84 
  -2  -2  -7    3.60    0.79 
  -2  -2  -7    2.60    0.57 
  -2  -2  -7    3.14    1.79 
   2   2   7    4.74    0.93 
  -3  -2  -7  113.05    7.35 
  -3  -2  -7  105.04    7.40 
   3   2   7  115.90    7.18 
   3   2   7  109.64    7.38 
   3   2   7  111.73    7.26 
  -4  -2  -7    0.54    0.53 
   4   2   7    0.65    0.27 
   4   2   7    2.46    1.44 
   4   2   7    0.66    0.47 
  -5   3   7    4.48    0.85 
  -5   3   7    3.84    0.68 
   4  -3  -7    2.79    0.47 
  -4   3   7    2.28    0.84 
  -4   3   7    2.38    0.56 
  -4   3   7    3.82    0.67 
   3  -3  -7   36.96    2.37 
  -3   3   7   34.23    2.58 
  -3   3   7   32.30    2.59 
  -3   3   7   35.70    2.81 
   2  -3  -7   13.60    1.02 
   2  -3  -7   16.43    2.79 
   2  -3  -7   12.50    1.35 
   2  -3  -7   14.30    1.90 
  -2   3   7   12.01    1.64 
  -2   3   7   10.19    1.33 
  -2   3   7   14.21    1.34 
  -2   3   7   14.10    1.24 
   1  -3  -7   69.50    4.48 
   1  -3  -7   74.22    4.58 
   1  -3  -7   68.08    4.67 
  -1   3   7   66.65    4.58 
  -1   3   7   68.52    4.65 
  -1   3   7   61.63    4.64 
   0  -3  -7    2.63    0.53 
   0  -3  -7    6.78    2.27 
   0  -3  -7    3.85    0.82 
   0  -3  -7    3.25    0.49 
   0   3   7    1.39    0.83 
   0   3   7    3.37    0.65 
   0   3   7    2.04    0.89 
  -1  -3  -7    3.23    1.77 
  -1  -3  -7    1.05    0.93 
  -1  -3  -7    0.59    0.44 
  -1  -3  -7    0.56    0.57 
  -1  -3  -7    2.10    0.66 
   1   3   7    1.74    0.45 
   1   3   7    1.39    0.57 
  -2  -3  -7   51.85    5.73 
  -2  -3  -7   66.19    4.54 
  -2  -3  -7   65.32    4.41 
   2   3   7   64.95    4.44 
   2   3   7   69.76    4.32 
  -3  -3  -7   33.24    2.57 
  -3  -3  -7   34.61    2.52 
   3   3   7   36.66    2.63 
   3   3   7   34.82    2.39 
  -4  -3  -7    3.09    0.58 
   4   3   7    4.31    0.47 
  -5   4   7    1.22    0.30 
  -5   4   7    0.75    0.42 
   4  -4  -7    7.34    1.01 
   4  -4  -7    7.91    0.83 
  -4   4   7    7.27    0.86 
  -4   4   7    7.40    0.97 
  -4   4   7    8.61    1.11 
   3  -4  -7   26.10    2.20 
   3  -4  -7   26.74    1.99 
   3  -4  -7   25.17    1.87 
  -3   4   7   30.45    2.36 
   2  -4  -7   26.78    2.04 
   2  -4  -7   24.40    1.79 
   2  -4  -7   26.53    1.91 
  -2   4   7   22.94    2.03 
  -2   4   7   25.56    1.90 
  -2   4   7   26.53    2.01 
   1  -4  -7    1.64    0.44 
   1  -4  -7    1.44    0.41 
   1  -4  -7   -0.54    1.99 
   1  -4  -7    1.47    0.67 
  -1   4   7    1.05    0.68 
  -1   4   7    0.92    0.47 
  -1   4   7    0.32    0.78 
   0  -4  -7   18.78    2.92 
   0  -4  -7   16.18    1.31 
   0  -4  -7   14.85    1.29 
   0  -4  -7   13.93    1.49 
   0   4   7   15.55    1.40 
  -1  -4  -7    9.33    1.10 
  -1  -4  -7   10.00    1.55 
  -1  -4  -7    1.15    3.59 
  -1  -4  -7    8.39    0.94 
   1   4   7    8.09    0.90 
   1   4   7    9.89    1.08 
  -2  -4  -7   -0.08    0.49 
  -2  -4  -7    0.83    0.69 
   2   4   7    0.24    0.55 
   2   4   7   -0.07    0.31 
  -3  -4  -7    2.39    0.47 
  -3  -4  -7    4.98    1.39 
  -3  -4  -7    1.85    0.49 
   3   4   7    4.05    1.06 
   4  -5  -7    0.81    0.32 
  -4   5   7    1.39    0.41 
  -4   5   7    1.17    0.43 
   3  -5  -7   44.37    2.95 
   3  -5  -7   40.88    3.02 
   3  -5  -7   42.34    2.94 
  -3   5   7   48.10    3.08 
  -3   5   7   42.85    3.00 
   2  -5  -7    8.69    0.89 
   2  -5  -7   10.02    1.10 
  -2   5   7   11.24    1.25 
  -2   5   7    6.77    1.11 
  -2   5   7    9.68    0.96 
   1  -5  -7    6.19    0.87 
   1  -5  -7    8.19    1.15 
   1  -5  -7    7.98    1.05 
  -1   5   7    7.47    1.15 
  -1   5   7    7.64    1.22 
   0  -5  -7   15.41    1.35 
   0  -5  -7   14.47    1.25 
   0   5   7   16.34    1.37 
  -1  -5  -7    1.97    0.49 
  -1  -5  -7    0.11    0.76 
   1   5   7    2.01    0.50 
   1   5   7    1.06    0.46 
  -2  -5  -7    8.54    0.85 
  -2  -5  -7    9.23    1.23 
   2   5   7    8.30    0.73 
   3   5   7   -0.03    0.21 
   3  -6  -7    1.00    0.29 
  -3   6   7    1.22    0.50 
   2  -6  -7    3.04    0.80 
   2  -6  -7    2.74    0.48 
  -2   6   7    3.06    0.60 
   1  -6  -7    2.79    0.51 
   1  -6  -7    2.06    0.36 
  -1   6   7    2.77    0.45 
   0  -6  -7    4.79    0.72 
   0   6   7    6.01    0.76 
  -1  -6  -7   24.18    2.20 
   1   6   7   21.16    1.67 
   1   8  -8    0.24    0.35 
  -1  -8   8    0.34    0.44 
   0   8  -8    1.71    0.43 
   0  -8   8    0.84    0.47 
   1  -8   8    6.14    0.97 
  -2   8  -8   13.99    2.89 
   2  -8   8   10.84    1.34 
   2  -8   8   14.93    1.11 
  -3   8  -8   31.27    2.20 
   3  -8   8   23.67    1.85 
   3   7  -8    7.38    0.72 
  -3  -7   8    8.31    0.83 
   2   7  -8    0.18    0.49 
   2   7  -8    1.92    0.47 
  -2  -7   8    0.13    0.43 
   1   7  -8   -0.18    0.43 
   1   7  -8   -0.49    0.45 
  -1  -7   8   -0.14    0.45 
  -1  -7   8    0.50    0.35 
   0   7  -8    8.36    1.27 
   0   7  -8    7.76    0.90 
   0  -7   8    6.37    1.06 
   0  -7   8    6.46    0.79 
  -1   7  -8    9.05    0.94 
  -1   7  -8    8.82    1.19 
   1  -7   8    6.95    0.80 
  -2   7  -8   12.66    2.22 
  -2   7  -8   10.27    1.07 
   2  -7   8    9.47    0.99 
  -3   7  -8    6.20    1.01 
   3  -7   8    5.72    0.77 
   3   6  -8   31.94    2.44 
  -3  -6   8   37.37    2.49 
   2   6  -8   -0.21    0.58 
  -2  -6   8   -0.26    0.47 
   1   6  -8   24.30    1.90 
  -1  -6   8   22.86    1.96 
  -1  -6   8   22.87    1.76 
   0   6  -8   72.40    4.71 
   0  -6   8   66.00    4.60 
  -1   6  -8   40.65    2.76 
   1  -6   8   36.31    2.70 
  -2   6  -8   50.28    3.38 
   2  -6   8   46.37    3.40 
   2  -6   8   52.67    4.94 
  -3   6  -8    0.57    0.87 
   3  -6   8    0.55    0.48 
   3  -6   8    3.45    2.56 
  -4   6  -8   23.87    2.00 
   4  -6   8   26.18    1.99 
  -4  -5   8   -0.37    0.38 
   3   5  -8    5.13    0.72 
   2   5  -8    3.86    0.56 
   2   5  -8    2.35    0.99 
  -2  -5   8    3.18    0.71 
  -2  -5   8    2.42    0.54 
   1   5  -8    2.65    0.49 
   1   5  -8    3.82    0.83 
  -1  -5   8    1.85    0.70 
  -1  -5   8    1.94    0.47 
  -1  -5   8    2.80    0.55 
   0   5  -8   67.21    4.46 
   0   5  -8   61.90    4.31 
   0  -5   8   66.90    4.36 
   0  -5   8   62.63    4.33 
  -1   5  -8  133.58    9.08 
  -1   5  -8  137.51    9.03 
   1  -5   8  134.68    9.03 
   1  -5   8  156.36    9.94 
   1  -5   8  138.30    9.06 
   1  -5   8  132.90    9.00 
  -2   5  -8    1.71    0.83 
  -2   5  -8    2.21    1.37 
  -2   5  -8    1.38    0.59 
   2  -5   8    1.69    0.54 
   2  -5   8    1.04    1.69 
   2  -5   8    1.01    0.43 
  -3   5  -8   23.95    2.54 
   3  -5   8   23.70    1.82 
   3  -5   8   19.99    3.08 
  -4   5  -8   11.23    1.42 
   4  -5   8   12.74    1.33 
  -5   5  -8    0.99    0.44 
  -4  -4   8    0.59    0.51 
  -3  -4   8    1.14    0.56 
   2   4  -8   29.62    2.27 
  -2  -4   8   34.82    2.59 
  -2  -4   8   34.36    2.37 
   1   4  -8  170.84   10.37 
   1   4  -8  139.85   10.53 
  -1  -4   8  171.11   10.37 
  -1  -4   8  147.19   10.41 
  -1  -4   8  171.49   10.42 
   0   4  -8   48.50    3.15 
   0   4  -8   41.83    3.32 
   0  -4   8   46.93    3.15 
   0  -4   8   46.80    3.18 
   0  -4   8   47.18    3.19 
  -1   4  -8   16.96    1.48 
  -1   4  -8   17.41    1.69 
   1  -4   8   23.94    2.59 
   1  -4   8   20.26    1.54 
   1  -4   8   20.88    1.50 
   1  -4   8   19.34    1.56 
  -2   4  -8   18.95    2.59 
  -2   4  -8   17.70    1.64 
  -2   4  -8   18.77    1.67 
   2  -4   8   24.06    2.80 
   2  -4   8   20.37    1.52 
   2  -4   8   20.42    1.65 
  -3   4  -8    0.81    1.01 
  -3   4  -8    2.52    0.93 
   3  -4   8    0.62    2.22 
   3  -4   8    0.67    0.56 
   3  -4   8    1.10    0.48 
   4  -4   8    1.63    0.73 
   4  -4   8    1.68    2.49 
  -5   4  -8   15.43    1.33 
  -5  -3   8   26.34    1.89 
  -4  -3   8    7.36    1.05 
  -4  -3   8    4.44    0.99 
   3   3  -8   42.82    3.10 
  -3  -3   8   46.36    3.35 
  -3  -3   8   48.29    3.18 
   2   3  -8   57.13    3.89 
  -2  -3   8   57.66    4.17 
  -2  -3   8   59.02    4.03 
  -2  -3   8   61.51    4.00 
   1   3  -8   18.86    1.34 
  -1  -3   8   17.80    1.47 
  -1  -3   8   17.43    1.40 
   0   3  -8    1.08    0.36 
   0   3  -8    2.93    0.76 
   0  -3   8    0.57    0.57 
  -1   3  -8    9.32    0.87 
  -1   3  -8   10.16    1.20 
   1  -3   8   10.12    1.01 
   1  -3   8    9.83    0.88 
   1  -3   8    9.86    1.88 
  -2   3  -8   35.46    4.08 
  -2   3  -8   25.81    3.07 
  -2   3  -8   27.26    2.06 
  -2   3  -8   23.67    2.10 
   2  -3   8   27.84    1.98 
   2  -3   8   27.76    2.22 
   2  -3   8   28.45    2.09 
   2  -3   8   31.31    2.98 
  -3   3  -8    5.09    0.83 
   3  -3   8    6.43    0.75 
   3  -3   8    6.14    1.94 
   3  -3   8    4.82    0.96 
  -4   3  -8    9.93    1.48 
   4  -3   8    7.38    1.20 
   4  -3   8    5.09    2.44 
   4  -3   8    6.74    0.73 
  -5   3  -8    0.71    0.45 
  -5  -2   8   -1.15    0.66 
  -4  -2   8   15.36    1.65 
  -4  -2   8   17.01    1.44 
  -3  -2   8    7.22    1.04 
  -3  -2   8    6.61    0.93 
  -3  -2   8    6.68    1.28 
   2   2  -8    0.59    0.37 
  -2  -2   8    0.47    0.66 
  -2  -2   8    0.29    0.44 
  -2  -2   8    0.34    0.45 
   1   2  -8    2.06    0.38 
  -1  -2   8    1.46    0.39 
  -1  -2   8    1.87    0.48 
  -1  -2   8    1.87    0.51 
   0   2  -8    5.49    0.99 
   0   2  -8    6.04    0.66 
   0  -2   8    8.22    0.95 
   0  -2   8    7.56    0.75 
   0  -2   8    6.51    0.81 
   0  -2   8    6.69    0.80 
  -1   2  -8  305.27   19.98 
   1  -2   8  317.88   20.03 
  -2   2  -8   37.51    2.71 
  -2   2  -8   32.74    2.66 
  -2   2  -8   39.80    3.39 
  -2   2  -8   33.12    3.37 
   2  -2   8   37.69    2.57 
   2  -2   8   44.35    3.45 
   2  -2   8   36.71    2.69 
  -3   2  -8    2.21    0.69 
  -3   2  -8    3.00    1.03 
   3  -2   8    1.79    1.71 
   3  -2   8    2.39    0.64 
   3  -2   8    2.20    0.43 
   3  -2   8    2.73    0.46 
  -4   2  -8   38.40    3.47 
   4  -2   8   40.59    2.77 
   4  -2   8   42.16    3.02 
   4  -2   8   48.99    4.87 
   4  -2   8   41.57    2.83 
  -5   2  -8    1.11    0.53 
  -4  -1   8    0.48    0.91 
  -4  -1   8    0.45    0.58 
  -3  -1   8   16.20    1.41 
  -3  -1   8   15.42    1.39 
   2   1  -8    3.19    0.44 
  -2  -1   8    2.86    0.58 
  -2  -1   8    2.16    0.57 
   1   1  -8   24.99    1.70 
  -1  -1   8   25.32    1.89 
  -1  -1   8   22.57    1.79 
  -1  -1   8   23.56    1.90 
  -1  -1   8   25.42    1.79 
   0   1  -8   14.14    1.09 
   0   1  -8   14.92    1.66 
   0   1  -8   15.57    1.77 
   0  -1   8   14.24    1.22 
   0  -1   8   13.72    1.14 
   0  -1   8   13.96    1.33 
   0  -1   8   14.96    1.26 
  -1   1  -8    2.08    0.92 
  -1   1  -8    2.72    1.04 
  -1   1  -8    2.35    0.41 
   1  -1   8    2.40    0.81 
  -2   1  -8   22.20    1.79 
  -2   1  -8   19.13    2.66 
   2  -1   8   22.96    1.66 
   2  -1   8   24.09    1.81 
  -3   1  -8   23.77    2.35 
  -3   1  -8   19.41    2.40 
   3  -1   8   25.13    1.71 
   3  -1   8   22.89    1.87 
   3  -1   8   21.70    1.63 
  -4   1  -8   38.43    3.08 
   4  -1   8   40.04    2.66 
   4  -1   8   41.92    2.99 
   4  -1   8   40.37    2.73 
  -5   1  -8    0.02    0.43 
  -5   0   8    5.08    0.97 
   3   0  -8   18.23    1.36 
  -3   0   8   18.05    1.48 
  -3   0   8   15.04    1.45 
   2   0  -8    8.40    0.75 
   2   0  -8    9.57    1.76 
  -2   0   8    7.25    0.97 
  -2   0   8    8.87    0.99 
   1   0  -8   32.47    2.11 
   1   0  -8   32.82    2.78 
  -1   0   8   28.78    2.20 
  -1   0   8   30.03    2.21 
   0   0  -8   19.99    1.46 
   0   0  -8   22.36    1.80 
   0   0  -8   20.37    2.12 
   0   0   8   18.85    1.68 
   0   0   8   19.13    1.59 
   0   0   8   22.08    1.64 
   0   0   8   20.49    1.54 
  -1   0  -8   28.65    2.23 
  -1   0  -8   32.18    2.37 
  -1   0  -8   34.43    2.90 
   1   0   8   33.06    2.26 
   1   0   8   32.53    2.35 
   1   0   8   33.77    2.48 
  -2   0  -8    8.50    1.92 
  -2   0  -8    6.87    0.98 
  -2   0  -8    6.39    1.00 
  -2   0  -8    5.11    1.10 
   2   0   8    6.29    0.72 
   2   0   8    7.71    0.96 
   3   0   8    2.18    0.66 
   3   0   8    3.60    0.59 
   3   0   8    3.81    0.60 
  -4   0  -8    0.38    0.66 
   4   0   8    0.69    0.71 
   4   0   8    0.88    0.62 
   4   0   8    0.71    0.31 
  -5   0  -8    0.64    0.37 
  -5   1   8    3.63    0.66 
  -5   1   8    3.07    0.60 
  -5   1   8    1.13    1.05 
  -4   1   8  119.11    7.47 
  -4   1   8  102.94    7.37 
  -4   1   8  105.08    7.35 
   3  -1  -8   28.53    1.86 
  -3   1   8   24.97    2.01 
  -3   1   8   25.61    2.03 
  -3   1   8   22.06    2.75 
   2  -1  -8   55.51    4.76 
   2  -1  -8   63.32    3.89 
  -2   1   8   56.76    4.05 
  -2   1   8   59.23    4.07 
   1  -1  -8   34.77    2.58 
   1  -1  -8   39.54    3.26 
   1  -1  -8   38.37    2.88 
  -1   1   8   34.96    2.58 
  -1   1   8   36.84    2.62 
  -1   1   8   39.47    2.71 
  -1   1   8   36.28    2.69 
   0  -1  -8    0.16    0.29 
   0  -1  -8    0.14    1.11 
   0  -1  -8   -0.11    0.50 
   0   1   8    0.18    0.43 
   0   1   8   -0.23    0.43 
   0   1   8    0.76    0.40 
  -1  -1  -8   83.43    6.14 
  -1  -1  -8   92.31    6.77 
  -1  -1  -8   98.37    6.24 
   1   1   8   94.12    6.25 
   1   1   8   97.66    6.17 
   1   1   8   98.34    6.27 
  -2  -1  -8   36.77    3.47 
  -2  -1  -8   31.78    2.54 
  -2  -1  -8   25.66    2.44 
  -2  -1  -8   25.17    2.18 
   2   1   8   31.62    2.28 
   2   1   8   31.69    2.14 
  -3  -1  -8   21.20    2.01 
   3   1   8   25.67    1.93 
   3   1   8   24.43    1.72 
  -4  -1  -8    2.98    0.70 
   4   1   8    6.02    1.14 
   4   1   8    4.62    0.54 
  -5   2   8    6.02    0.92 
  -5   2   8    3.93    0.58 
  -5   2   8    4.65    0.85 
   4  -2  -8   18.17    1.51 
  -4   2   8   17.38    1.47 
  -4   2   8   19.09    1.91 
  -4   2   8   17.72    1.50 
   3  -2  -8    2.22    0.81 
  -3   2   8    2.54    0.60 
  -3   2   8    3.69    0.71 
  -3   2   8    4.37    1.12 
   2  -2  -8   -0.75    2.09 
   2  -2  -8    1.24    0.91 
  -2   2   8    0.08    0.44 
  -2   2   8    1.26    1.31 
  -2   2   8    1.05    0.57 
   1  -2  -8   73.76    4.87 
   1  -2  -8   77.67    4.99 
  -1   2   8   70.02    4.94 
  -1   2   8   77.01    5.04 
  -1   2   8   73.01    5.03 
   0  -2  -8    9.53    1.11 
   0  -2  -8   10.66    0.93 
   0   2   8   10.65    1.07 
   0   2   8    9.12    1.20 
   0   2   8   14.04    1.46 
   0   2   8   10.73    1.04 
  -1  -2  -8    5.98    0.91 
  -1  -2  -8    6.22    0.87 
  -1  -2  -8    8.21    1.86 
  -1  -2  -8    4.14    1.52 
   1   2   8    8.14    0.93 
   1   2   8    6.73    1.28 
   1   2   8    8.11    0.81 
  -2  -2  -8    1.53    0.53 
  -2  -2  -8    2.07    0.88 
  -2  -2  -8    3.26    0.93 
  -2  -2  -8    3.06    2.65 
   2   2   8    2.18    0.45 
   2   2   8    2.82    0.65 
  -3  -2  -8    3.87    0.81 
   3   2   8    4.32    0.59 
   3   2   8    3.76    0.75 
  -4  -2  -8    1.36    0.47 
   4   2   8    3.14    0.94 
   4   2   8    1.38    0.28 
  -5   3   8   -0.23    0.39 
  -5   3   8    0.19    0.22 
   4  -3  -8    9.31    0.98 
  -4   3   8    9.78    1.25 
  -4   3   8    7.50    0.91 
  -4   3   8    6.91    0.82 
   3  -3  -8   29.40    2.15 
   3  -3  -8   24.77    1.89 
  -3   3   8   27.64    2.37 
   2  -3  -8   32.20    2.32 
   2  -3  -8   36.26    2.47 
   2  -3  -8   29.07    4.48 
  -2   3   8   34.17    2.53 
  -2   3   8   35.62    2.52 
  -2   3   8   33.05    2.36 
   1  -3  -8    1.55    1.81 
   1  -3  -8    0.32    0.47 
  -1   3   8    1.45    0.64 
  -1   3   8    1.29    0.56 
  -1   3   8    0.42    0.45 
   0  -3  -8    3.85    0.63 
   0  -3  -8    8.06    2.00 
   0  -3  -8    4.85    0.72 
   0   3   8    6.16    1.25 
   0   3   8    4.53    0.85 
   0   3   8    5.42    0.71 
  -1  -3  -8    0.88    0.71 
  -1  -3  -8    0.24    0.43 
  -1  -3  -8   -0.06    0.75 
  -1  -3  -8   -0.14    2.33 
  -1  -3  -8   -1.09    1.14 
   1   3   8    1.08    0.39 
   1   3   8    0.74    0.48 
  -2  -3  -8    9.35    1.26 
  -2  -3  -8   12.00    1.44 
   2   3   8   12.10    1.20 
   2   3   8    9.03    0.92 
  -3  -3  -8   16.68    1.49 
  -3  -3  -8   15.64    1.52 
   3   3   8   17.43    1.24 
   3   3   8   17.10    1.48 
  -4  -3  -8    0.08    0.31 
   4   3   8    0.44    0.19 
   4  -4  -8    0.31    0.46 
  -4   4   8   -0.69    0.36 
  -4   4   8   -0.31    0.29 
   3  -4  -8    1.34    0.40 
   3  -4  -8    1.24    0.43 
  -3   4   8    0.53    0.51 
  -3   4   8    0.22    0.38 
   2  -4  -8   23.31    1.70 
   2  -4  -8   19.01    1.59 
  -2   4   8   21.55    1.80 
  -2   4   8   21.14    1.64 
  -2   4   8   25.89    1.80 
   1  -4  -8   14.39    1.61 
   1  -4  -8   14.19    1.21 
   1  -4  -8   13.18    1.17 
  -1   4   8   14.63    1.31 
  -1   4   8   13.78    1.54 
   0  -4  -8    4.75    0.88 
   0  -4  -8    5.06    0.82 
   0  -4  -8    4.16    0.73 
   0   4   8    3.82    0.75 
  -1  -4  -8    3.81    0.78 
  -1  -4  -8    4.43    1.18 
   1   4   8    3.29    0.53 
   1   4   8    4.10    0.66 
  -2  -4  -8   12.21    1.15 
  -2  -4  -8    9.86    1.36 
   2   4   8   11.95    1.09 
   2   4   8   10.12    0.89 
   3   4   8    1.00    0.51 
   3   4   8    1.05    0.28 
   3  -5  -8    0.31    0.27 
  -3   5   8   -0.06    0.46 
  -3   5   8    0.60    0.43 
   2  -5  -8    7.34    0.72 
   2  -5  -8    5.60    0.84 
  -2   5   8    6.80    0.90 
   1  -5  -8    3.41    0.79 
   1  -5  -8    5.50    0.63 
   1  -5  -8    3.38    0.63 
  -1   5   8    4.17    0.62 
  -1   5   8    4.66    0.86 
   0  -5  -8   83.32    5.47 
   0  -5  -8   74.15    5.36 
   0   5   8   89.60    5.46 
  -1  -5  -8   18.90    2.37 
   1   5   8   18.34    1.45 
  -2  -5  -8   12.57    1.40 
   2   5   8   11.87    1.05 
   2  -6  -8    1.15    0.20 
   1  -6  -8    0.07    0.29 
  -1   6   8   -0.02    0.28 
   0   6   8   16.14    1.23 
  -1  -8   9    4.35    0.96 
   0   8  -9    3.56    0.61 
   0  -8   9    4.59    0.85 
   1  -8   9    4.84    0.55 
   1  -8   9    3.90    0.64 
   2  -8   9   17.64    1.44 
   2   7  -9    1.51    0.58 
  -2  -7   9    0.60    0.37 
   1   7  -9   -0.52    0.39 
   1   7  -9   -0.22    0.51 
  -1  -7   9   -0.31    0.34 
   0   7  -9   50.68    3.04 
   0   7  -9   39.52    3.00 
   0  -7   9   38.69    3.05 
   0  -7   9   46.45    2.96 
  -1   7  -9    1.39    0.47 
  -1   7  -9    1.32    1.01 
   1  -7   9    0.86    0.52 
   1  -7   9    0.63    0.36 
   2  -7   9    9.80    0.91 
  -3   7  -9    0.70    0.81 
   3  -7   9    0.98    0.40 
   3   6  -9    2.62    0.79 
   2   6  -9    4.34    0.73 
   2   6  -9    3.53    0.54 
  -2  -6   9    4.01    0.67 
   1   6  -9    2.51    0.64 
  -1  -6   9    2.92    0.68 
   0   6  -9   48.84    3.51 
   0   6  -9   54.41    3.63 
   0  -6   9   51.37    3.77 
  -1   6  -9   -0.33    0.46 
   1  -6   9    0.13    0.33 
  -2   6  -9   26.40    1.99 
  -2   6  -9   26.06    3.12 
   2  -6   9   27.39    1.99 
   2  -6   9   30.33    4.83 
  -3   6  -9   18.99    2.09 
   3  -6   9   18.26    1.47 
  -4   6  -9    5.40    0.93 
   4  -6   9    4.37    0.86 
  -4  -5   9   -0.14    0.35 
   3   5  -9   12.53    1.18 
  -3  -5   9   14.40    1.30 
   2   5  -9   19.55    1.56 
  -2  -5   9   21.77    1.73 
   1   5  -9   74.31    4.87 
   1   5  -9   67.27    4.69 
  -1  -5   9   71.11    4.65 
  -1  -5   9   71.61    4.74 
  -1  -5   9   69.55    4.89 
   0   5  -9   22.71    1.77 
   0   5  -9   24.74    1.94 
   0  -5   9   23.58    1.79 
   0  -5   9   23.04    1.75 
  -1   5  -9   14.15    1.32 
  -1   5  -9   12.96    1.28 
   1  -5   9   18.33    3.59 
   1  -5   9   14.65    1.24 
   1  -5   9   14.20    1.26 
   1  -5   9   12.68    1.15 
  -2   5  -9   22.05    1.70 
  -2   5  -9   18.61    2.18 
   2  -5   9   20.87    1.66 
   2  -5   9   25.52    3.53 
   2  -5   9   20.15    1.57 
  -3   5  -9    8.52    1.45 
   3  -5   9    8.92    1.05 
   3  -5   9    9.12    2.76 
  -4   5  -9    0.50    0.67 
   4  -5   9    0.62    0.54 
  -4  -4   9   11.03    1.10 
  -3  -4   9    8.59    0.91 
  -3  -4   9    6.68    1.15 
   2   4  -9    1.99    0.46 
  -2  -4   9    2.43    0.67 
  -2  -4   9    2.93    0.52 
   1   4  -9    2.30    0.97 
   1   4  -9    3.62    0.56 
  -1  -4   9    6.06    0.98 
  -1  -4   9    4.65    0.72 
  -1  -4   9    3.75    0.80 
   0   4  -9   -0.31    0.63 
   0   4  -9    0.31    0.37 
   0  -4   9    0.20    0.32 
   0  -4   9    0.11    0.42 
   0  -4   9    0.37    0.40 
  -1   4  -9    0.08    0.44 
  -1   4  -9    0.25    0.59 
   1  -4   9    0.34    0.44 
   1  -4   9    0.94    0.37 
   1  -4   9    0.87    1.61 
   1  -4   9    0.96    0.51 
  -2   4  -9   84.32    6.04 
  -2   4  -9   87.31    7.88 
  -2   4  -9   81.75    6.04 
   2  -4   9   95.73    5.99 
   2  -4   9   93.31    6.07 
   2  -4   9  104.76    7.13 
  -3   4  -9   18.91    2.68 
   3  -4   9   19.43    1.56 
   3  -4   9   23.98    3.44 
  -4   4  -9   -0.84    0.73 
   4  -4   9    0.69    0.63 
  -5   4  -9   27.95    2.01 
  -4  -3   9    5.03    0.89 
  -4  -3   9    4.05    0.70 
   3   3  -9   19.20    1.64 
  -3  -3   9   21.68    1.86 
   2   3  -9   20.35    1.61 
  -2  -3   9   22.05    1.94 
  -2  -3   9   22.40    1.71 
  -2  -3   9   22.47    1.75 
   1   3  -9    0.07    1.10 
   1   3  -9    0.49    0.37 
  -1  -3   9    0.38    0.35 
  -1  -3   9    1.18    0.46 
  -1  -3   9    0.26    0.41 
  -1  -3   9    0.99    0.67 
  -1  -3   9    0.43    0.44 
   0   3  -9    1.74    0.42 
   0   3  -9    0.83    0.68 
   0  -3   9    1.84    0.48 
   0  -3   9    1.67    0.40 
   0  -3   9    1.62    0.43 
   0  -3   9    2.53    0.54 
  -1   3  -9    6.75    1.03 
  -1   3  -9    6.93    0.81 
   1  -3   9    6.64    0.88 
   1  -3   9    8.17    0.97 
   1  -3   9    6.61    0.74 
  -2   3  -9    4.16    1.65 
  -2   3  -9    3.10    0.74 
  -2   3  -9    4.69    0.92 
   2  -3   9    6.18    0.70 
   2  -3   9    5.11    0.80 
   2  -3   9    5.93    1.81 
  -3   3  -9    9.65    1.95 
   3  -3   9   10.56    2.75 
   3  -3   9   10.97    1.42 
   3  -3   9    9.67    0.95 
  -4   3  -9    0.12    0.73 
   4  -3   9   -0.18    0.41 
  -5   3  -9   41.17    2.85 
  -4  -2   9    2.56    0.55 
  -4  -2   9    2.35    0.78 
  -3  -2   9  101.59    6.29 
  -3  -2   9   85.17    6.36 
  -3  -2   9   97.05    6.26 
   2   2  -9    7.38    0.87 
  -2  -2   9    9.36    1.04 
  -2  -2   9    9.47    1.07 
  -2  -2   9    9.94    1.40 
   1   2  -9    0.44    0.35 
  -1  -2   9    0.47    0.46 
  -1  -2   9    1.37    0.48 
  -1  -2   9    0.92    0.43 
  -1  -2   9    1.31    0.38 
  -1  -2   9   -0.36    0.80 
   0   2  -9   42.39    3.14 
   0   2  -9   45.85    3.37 
   0  -2   9   45.93    3.18 
   0  -2   9   47.38    3.16 
   0  -2   9   47.95    3.22 
   0  -2   9   49.98    3.27 
  -1   2  -9    0.21    0.58 
  -1   2  -9   -1.18    1.33 
  -1   2  -9    0.14    0.39 
   1  -2   9   -0.25    0.37 
   1  -2   9   -0.18    0.54 
   1  -2   9    0.16    0.32 
   1  -2   9   -0.07    0.41 
  -2   2  -9    3.23    0.64 
  -2   2  -9    3.13    1.58 
  -2   2  -9    4.22    0.73 
  -2   2  -9    1.08    2.17 
   2  -2   9    2.74    0.59 
   2  -2   9    4.51    1.59 
   2  -2   9    3.18    0.49 
  -3   2  -9   13.68    1.92 
   3  -2   9   13.16    1.10 
   3  -2   9   14.46    1.43 
  -4   2  -9   47.32    3.70 
   4  -2   9   52.60    3.42 
   4  -2   9   53.84    3.59 
  -5   2  -9    1.54    0.42 
  -4  -1   9   17.87    1.41 
  -4  -1   9   16.12    1.42 
  -3  -1   9   10.04    1.03 
  -3  -1   9    9.06    1.03 
   2   1  -9    3.61    0.51 
   2   1  -9   -0.37    1.64 
  -2  -1   9    3.45    0.62 
  -2  -1   9    3.46    0.65 
   1   1  -9   12.21    1.04 
   1   1  -9   12.05    2.08 
  -1  -1   9   14.67    1.26 
  -1  -1   9   12.60    1.15 
  -1  -1   9   13.59    1.23 
  -1  -1   9   12.38    1.11 
   0   1  -9  112.03    7.93 
   0   1  -9  124.08    8.07 
   0   1  -9  122.09    8.51 
   0  -1   9  123.49    8.00 
   0  -1   9  128.90    8.05 
   0  -1   9  122.62    7.95 
   0  -1   9  122.29    7.98 
  -1   1  -9   59.14    5.13 
  -1   1  -9   65.79    4.39 
  -1   1  -9   58.39    4.28 
   1  -1   9   71.30    4.40 
   1  -1   9   67.14    4.37 
   1  -1   9   61.68    4.38 
   1  -1   9   65.58    4.28 
  -2   1  -9  125.20    7.90 
  -2   1  -9   98.41    7.24 
  -2   1  -9  102.01    7.22 
  -2   1  -9  107.38    8.26 
   2  -1   9  113.24    7.20 
   2  -1   9  116.60    7.30 
  -3   1  -9    8.41    1.39 
   3  -1   9    7.90    0.79 
   3  -1   9    6.75    0.98 
  -4   1  -9    6.01    1.18 
   4  -1   9    6.07    0.88 
   4  -1   9    5.07    0.62 
  -5   1  -9    3.61    0.68 
  -4   0   9   31.67    2.32 
  -4   0   9   33.16    2.34 
   3   0  -9   41.87    3.03 
  -3   0   9   44.32    3.15 
  -3   0   9   47.64    3.15 
   2   0  -9   16.81    2.91 
   2   0  -9   20.18    1.47 
  -2   0   9   21.68    1.78 
  -2   0   9   19.06    1.65 
   1   0  -9  177.56   11.77 
   1   0  -9  173.96   11.62 
  -1   0   9  168.83   11.62 
  -1   0   9  188.14   11.74 
  -1   0   9  189.35   11.77 
  -1   0   9  184.81   11.66 
   0   0  -9    1.45    0.59 
   0   0  -9    1.71    0.39 
   0   0  -9    0.33    1.30 
   0   0   9    1.51    0.46 
   0   0   9    0.85    0.58 
   0   0   9    0.84    0.41 
   0   0   9    0.67    0.43 
  -1   0  -9   13.28    1.28 
  -1   0  -9   12.10    2.58 
  -1   0  -9   16.21    1.46 
   1   0   9   16.94    1.41 
   1   0   9   18.42    1.45 
   1   0   9   17.02    1.28 
  -2   0  -9    5.37    2.67 
  -2   0  -9    0.22    0.49 
  -2   0  -9    0.64    0.78 
   2   0   9   -0.11    0.48 
   2   0   9    0.80    0.36 
   3   0   9   63.36    4.31 
  -4   0  -9   12.38    1.39 
   4   0   9   14.11    1.02 
   4   0   9   12.34    1.38 
  -5   1   9    2.64    0.52 
  -4   1   9    2.44    0.49 
  -4   1   9    2.92    0.57 
   3  -1  -9   79.77    5.55 
  -3   1   9   87.24    5.69 
  -3   1   9   88.42    5.71 
   2  -1  -9   12.03    1.01 
   2  -1  -9    7.55    2.50 
  -2   1   9   12.72    1.21 
  -2   1   9   13.36    1.24 
   1  -1  -9   15.48    1.61 
   1  -1  -9   16.77    2.71 
   1  -1  -9   16.95    1.30 
  -1   1   9   17.56    1.48 
  -1   1   9   16.97    1.45 
  -1   1   9   19.33    1.52 
  -1   1   9   16.84    1.40 
   0  -1  -9   11.96    1.12 
   0  -1  -9   17.00    1.35 
   0  -1  -9   15.35    2.67 
   0   1   9   12.94    1.20 
   0   1   9   14.95    1.34 
   0   1   9   14.30    1.24 
   0   1   9   14.99    1.49 
  -1  -1  -9    7.95    0.98 
  -1  -1  -9    6.75    0.90 
  -1  -1  -9    7.79    2.02 
   1   1   9    8.74    1.09 
   1   1   9    7.95    0.98 
   1   1   9    7.37    0.84 
  -2  -1  -9   24.07    2.12 
  -2  -1  -9   28.69    2.60 
   2   1   9   32.70    2.21 
   2   1   9   31.42    2.08 
   3   1   9    0.19    0.29 
   3   1   9    1.83    0.57 
  -4  -1  -9    1.65    0.59 
   4   1   9    1.33    0.27 
   4   1   9    1.78    0.55 
  -4   2   9    5.02    0.72 
  -4   2   9    6.77    0.85 
   3  -2  -9   83.08    5.94 
  -3   2   9   98.16    6.32 
   2  -2  -9  116.00    8.22 
   2  -2  -9  130.74    8.34 
  -2   2   9  131.59    8.38 
  -2   2   9  130.40    8.36 
   1  -2  -9   29.32    4.12 
   1  -2  -9   32.51    2.50 
   1  -2  -9   39.89    2.66 
  -1   2   9   38.93    2.69 
  -1   2   9   38.97    2.67 
  -1   2   9   36.70    2.57 
   0  -2  -9    5.30    0.72 
   0  -2  -9    6.91    2.13 
   0  -2  -9    5.86    0.88 
   0   2   9    4.29    0.91 
   0   2   9    6.82    1.00 
   0   2   9    4.43    0.85 
   0   2   9    5.65    0.78 
  -1  -2  -9    7.48    2.42 
  -1  -2  -9    1.98    0.50 
  -1  -2  -9    1.42    0.62 
   1   2   9    1.44    0.41 
   1   2   9    2.13    0.57 
  -2  -2  -9   16.77    1.90 
  -2  -2  -9   14.17    1.38 
   2   2   9   19.27    1.42 
   3   2   9    1.09    0.48 
   3   2   9    0.62    0.25 
  -4  -2  -9   -0.18    0.46 
   4   2   9    0.24    0.16 
  -4   3   9    0.05    0.27 
  -4   3   9    0.48    0.38 
   3  -3  -9    9.62    1.13 
   3  -3  -9    7.76    0.88 
  -3   3   9    7.75    0.93 
  -3   3   9    9.37    0.90 
   2  -3  -9    7.88    1.04 
   2  -3  -9    7.40    0.82 
  -2   3   9    9.76    1.07 
  -2   3   9   10.73    1.08 
   1  -3  -9    0.18    0.44 
   1  -3  -9   -0.50    0.33 
  -1   3   9    0.14    0.44 
  -1   3   9   -0.41    0.83 
   0  -3  -9   13.49    1.33 
   0  -3  -9   16.21    1.34 
   0   3   9   16.08    1.36 
   0   3   9   17.99    1.39 
   0   3   9   18.26    1.70 
  -1  -3  -9   10.30    1.04 
   1   3   9   11.80    1.10 
   1   3   9   10.51    0.99 
  -2  -3  -9    1.56    0.88 
   2   3   9    1.24    0.48 
   3   3   9    0.38    0.55 
   3   3   9    0.10    0.22 
  -4   4   9    0.16    0.25 
  -4   4   9   -0.37    0.26 
   3  -4  -9    0.09    0.33 
  -3   4   9   -0.37    0.36 
  -3   4   9    0.23    0.34 
   2  -4  -9    1.34    0.41 
  -2   4   9    1.59    0.48 
  -2   4   9    1.51    0.47 
   1  -4  -9    0.77    0.46 
   1  -4  -9    1.52    0.37 
  -1   4   9    0.87    0.69 
  -1   4   9    0.95    0.41 
   0  -4  -9    3.11    0.81 
  -1  -4  -9    1.37    0.50 
   1   4   9    1.83    0.44 
   2   4   9    8.32    0.84 
   2   4   9    6.76    0.61 
   3  -5  -9    1.53    0.29 
  -3   5   9    1.30    0.37 
   2  -5  -9    0.89    0.27 
  -2   5   9    1.22    0.56 
   1  -5  -9    5.89    0.57 
  -1   5   9    6.01    0.78 
   0  -5  -9    3.14    0.62 
   0   5   9    5.34    0.66 
   1   5   9    0.91    0.41 
   0  -8  10    0.52    0.38 
   1  -8  10    6.39    1.02 
   2   7 -10   -0.05    0.45 
  -2  -7  10    0.74    0.33 
  -1  -7  10    0.46    0.41 
   0   7 -10    4.19    0.60 
   0  -7  10    3.47    0.54 
   0  -7  10    5.57    0.81 
  -1   7 -10    3.15    0.47 
   1  -7  10    4.68    0.75 
   1  -7  10    2.90    0.50 
   2  -7  10    5.63    0.63 
   3  -7  10    0.70    0.32 
  -3  -6  10   -0.31    0.32 
   2   6 -10    7.74    0.97 
   2   6 -10    7.68    0.99 
  -2  -6  10    6.20    0.84 
   1   6 -10    0.34    0.42 
  -1  -6  10    0.30    0.43 
   0  -6  10    4.93    0.67 
   0  -6  10    5.82    0.96 
  -1   6 -10    7.69    0.86 
   1  -6  10    6.75    0.76 
  -2   6 -10    3.87    0.76 
   2  -6  10    4.07    0.61 
  -3   6 -10    3.33    1.28 
   3  -6  10    3.41    0.52 
  -3  -5  10    1.07    0.47 
   2   5 -10    1.21    0.69 
  -2  -5  10   -0.51    0.37 
  -2  -5  10   -0.46    0.43 
   1   5 -10   -0.59    0.38 
   1   5 -10   -0.17    0.60 
   0   5 -10  224.08   14.61 
   0   5 -10  218.25   14.54 
   0  -5  10  238.37   14.57 
   0  -5  10  221.56   14.55 
  -1   5 -10   29.97    2.37 
  -1   5 -10   35.82    2.39 
   1  -5  10   29.71    2.28 
   1  -5  10   34.52    2.32 
   2  -5  10    9.93    0.99 
   2  -5  10   11.32    2.88 
   2  -5  10    8.58    0.87 
  -3   5 -10    2.23    1.18 
   3  -5  10    2.11    0.47 
  -4   5 -10    0.65    0.59 
   4  -5  10   -0.74    0.41 
  -4  -4  10    0.21    0.47 
  -3  -4  10    3.40    0.67 
  -3  -4  10    2.16    0.59 
   2   4 -10    4.70    0.78 
  -2  -4  10    5.44    0.97 
  -2  -4  10    7.64    1.14 
   1   4 -10   -0.38    0.39 
   1   4 -10    1.49    0.79 
  -1  -4  10    0.20    0.38 
   0   4 -10   -0.37    0.65 
   0   4 -10    0.98    0.42 
   0  -4  10    0.83    0.40 
   0  -4  10    0.27    0.33 
   0  -4  10    0.81    0.43 
  -1   4 -10   23.95    2.09 
  -1   4 -10   26.32    2.00 
   1  -4  10   26.75    1.99 
   1  -4  10   28.73    2.02 
   1  -4  10   27.97    1.95 
  -2   4 -10    2.22    0.91 
  -2   4 -10    3.01    0.55 
   2  -4  10    3.47    0.62 
   2  -4  10    3.12    2.13 
   2  -4  10    3.61    0.61 
  -3   4 -10   46.49    3.76 
   3  -4  10   47.42    3.23 
   3  -4  10   50.21    3.32 
  -4   4 -10   48.40    3.78 
   4  -4  10   58.51    3.67 
  -4  -3  10   61.41    3.87 
  -4  -3  10   55.81    3.96 
  -3  -3  10    1.09    0.46 
  -3  -3  10    0.79    0.66 
   2   3 -10    0.35    0.44 
  -2  -3  10    0.11    0.39 
  -2  -3  10   -0.11    0.39 
  -2  -3  10    0.21    0.65 
   1   3 -10   36.27    2.53 
   1   3 -10   35.58    2.92 
  -1  -3  10   36.23    2.85 
  -1  -3  10   37.36    2.61 
  -1  -3  10   34.60    2.52 
  -1  -3  10   37.56    2.60 
   0   3 -10   13.06    1.45 
   0   3 -10   12.08    1.10 
   0  -3  10   12.66    1.20 
   0  -3  10   12.59    1.14 
   0  -3  10   13.39    1.11 
   0  -3  10   12.44    1.19 
  -1   3 -10   17.51    1.61 
  -1   3 -10   17.16    1.48 
  -1   3 -10   20.01    3.45 
   1  -3  10   18.40    1.40 
   1  -3  10   18.17    1.50 
   1  -3  10   20.14    1.55 
  -2   3 -10    1.15    0.51 
  -2   3 -10    1.33    0.80 
   2  -3  10    1.29    0.36 
   2  -3  10    0.96    0.48 
  -3   3 -10   16.35    2.11 
   3  -3  10   14.02    1.28 
   3  -3  10   13.00    1.10 
  -4   3 -10    4.46    0.89 
   4  -3  10    2.90    0.58 
  -4  -2  10    2.04    0.42 
  -3  -2  10    1.80    0.48 
  -3  -2  10    2.27    0.55 
  -3  -2  10    1.94    0.96 
   2   2 -10    0.27    0.65 
   2   2 -10    0.48    2.51 
  -2  -2  10   -0.19    0.38 
  -2  -2  10    1.20    0.77 
  -2  -2  10    0.52    0.42 
   1   2 -10   87.09    5.86 
   1   2 -10   77.57    6.47 
   1   2 -10   71.64    5.56 
  -1  -2  10   85.23    5.83 
  -1  -2  10   92.11    5.70 
  -1  -2  10   89.68    5.61 
  -1  -2  10   89.60    5.66 
   0   2 -10    0.11    1.74 
   0   2 -10    0.52    0.71 
   0   2 -10   -0.28    0.37 
   0  -2  10    0.72    0.49 
   0  -2  10    0.30    0.34 
   0  -2  10    0.67    0.56 
   0  -2  10    0.04    0.47 
  -1   2 -10   39.01    3.85 
  -1   2 -10   32.13    2.42 
  -1   2 -10   31.84    2.53 
   1  -2  10   34.57    2.46 
   1  -2  10   36.16    2.53 
   1  -2  10   34.91    2.40 
  -2   2 -10   15.39    1.43 
  -2   2 -10   16.77    2.98 
  -2   2 -10   17.04    1.63 
   2  -2  10   17.66    1.32 
   2  -2  10   17.70    1.43 
  -3   2 -10    9.03    1.47 
   3  -2  10    7.59    1.03 
   3  -2  10    8.49    0.80 
  -4   2 -10    0.59    0.64 
   4  -2  10    0.03    0.39 
   4  -2  10    0.74    0.57 
  -4  -1  10   -0.31    0.36 
  -4  -1  10   -0.24    0.39 
   3   1 -10    6.84    1.32 
  -3  -1  10    7.63    0.93 
  -3  -1  10    7.41    1.00 
   2   1 -10    2.90    0.52 
   2   1 -10    3.12    2.50 
  -2  -1  10    2.88    0.56 
  -2  -1  10    4.02    0.77 
   1   1 -10   55.35    5.13 
   1   1 -10   62.84    4.26 
   1   1 -10   54.07    3.97 
  -1  -1  10   63.39    4.11 
  -1  -1  10   65.43    4.10 
  -1  -1  10   57.55    3.99 
  -1  -1  10   58.66    3.99 
   0   1 -10    4.59    0.68 
   0   1 -10    3.82    1.95 
   0   1 -10    4.57    0.77 
   0  -1  10    3.47    0.66 
   0  -1  10    4.58    0.80 
   0  -1  10    4.52    0.75 
  -1   1 -10    0.21    0.55 
  -1   1 -10    0.71    0.45 
  -1   1 -10    3.30    2.13 
   1  -1  10    0.21    0.33 
   1  -1  10    0.88    0.43 
   1  -1  10    0.21    0.45 
  -2   1 -10   51.19    3.53 
  -2   1 -10   45.28    3.60 
   2  -1  10   55.54    3.59 
   2  -1  10   54.07    3.48 
  -3   1 -10   44.95    3.52 
   3  -1  10   43.17    3.08 
   3  -1  10   44.54    2.98 
  -4   1 -10   -0.55    0.62 
   4  -1  10    0.35    0.74 
   4  -1  10    0.05    0.27 
  -4   0  10    0.11    0.39 
  -4   0  10    0.55    0.36 
   3   0 -10    1.37    0.60 
  -3   0  10    0.45    0.44 
  -3   0  10    0.30    0.40 
   2   0 -10    5.40    3.23 
   2   0 -10    1.48    0.44 
  -2   0  10    1.68    0.46 
  -2   0  10    1.36    0.51 
   1   0 -10    3.85    0.62 
   1   0 -10    3.19    0.76 
   1   0 -10    7.08    2.24 
  -1   0  10    6.22    0.80 
  -1   0  10    4.26    0.59 
  -1   0  10    3.75    0.76 
  -1   0  10    4.50    0.71 
   0   0 -10   14.31    1.35 
   0   0 -10   15.17    3.06 
   0   0 -10   11.18    1.07 
   0   0  10   13.18    1.14 
   0   0  10   13.10    1.36 
   0   0  10   13.73    1.25 
   0   0  10   12.48    1.18 
  -1   0 -10    1.42    2.63 
  -1   0 -10    5.16    0.83 
  -1   0 -10    5.00    0.85 
   1   0  10    5.86    0.69 
   1   0  10    5.47    0.85 
   1   0  10    4.35    0.81 
  -2   0 -10   26.15    3.01 
  -2   0 -10   16.88    1.69 
   2   0  10   20.29    1.46 
   2   0  10   19.69    1.60 
  -3   0 -10    0.77    0.87 
   3   0  10    2.81    0.47 
  -4   0 -10    1.21    0.64 
   4   0  10    2.53    0.56 
   4   0  10    2.43    0.36 
  -4   1  10   32.59    2.36 
  -4   1  10   36.16    2.37 
   3  -1 -10    6.39    0.92 
  -3   1  10    8.75    0.90 
  -3   1  10    7.80    0.88 
   2  -1 -10   28.47    2.31 
   2  -1 -10   23.64    1.92 
  -2   1  10   28.01    2.09 
  -2   1  10   30.19    2.10 
   1  -1 -10   11.03    3.14 
   1  -1 -10    6.34    0.75 
  -1   1  10    7.83    0.95 
  -1   1  10    6.29    0.82 
  -1   1  10    6.07    0.99 
   0  -1 -10   38.47    3.08 
   0  -1 -10   45.80    3.18 
   0  -1 -10   45.00    4.81 
   0   1  10   44.76    3.12 
   0   1  10   48.22    3.11 
   0   1  10   48.05    3.24 
   0   1  10   47.86    3.20 
  -1  -1 -10   37.82    2.76 
   1   1  10   40.65    2.70 
   1   1  10   39.25    2.77 
  -2  -1 -10    0.65    0.45 
   2   1  10   -0.23    0.46 
   2   1  10    0.12    0.28 
  -3  -1 -10    0.81    0.83 
   3   1  10    0.11    0.39 
   3   1  10   -0.01    0.22 
  -4   2  10    0.79    0.35 
  -4   2  10    0.83    0.28 
  -3   2  10    6.36    0.83 
  -3   2  10    5.49    0.74 
   2  -2 -10    7.99    1.09 
   2  -2 -10    6.82    0.90 
  -2   2  10    9.61    1.01 
  -2   2  10    7.34    0.91 
   1  -2 -10   26.01    1.73 
  -1   2  10   20.70    2.05 
   0   2  10   41.52    2.88 
   0   2  10   38.92    2.76 
  -1  -2 -10   55.09    4.24 
   1   2  10   66.90    4.23 
   1   2  10   69.65    4.33 
   2   2  10   13.92    1.17 
   2   2  10   10.90    0.97 
  -3  -2 -10    2.98    0.79 
   3   2  10    3.93    0.41 
   3  -3 -10    2.08    0.53 
  -3   3  10    1.12    0.32 
   2  -3 -10    0.75    0.38 
   2  -3 -10    0.30    0.39 
  -2   3  10    1.37    0.42 
  -2   3  10    1.29    0.50 
   1  -3 -10    0.10    0.37 
   1  -3 -10   -0.36    0.44 
  -1   3  10   -0.47    0.44 
  -1   3  10    0.14    0.38 
  -1   3  10   -0.76    0.61 
   0  -3 -10    1.02    0.37 
   0  -3 -10    1.63    0.57 
   0   3  10    0.84    0.41 
  -1  -3 -10    4.88    0.72 
   1   3  10    5.95    0.79 
   1   3  10    6.50    0.69 
   2   3  10    5.12    0.60 
   2   3  10    4.07    0.68 
   3  -4 -10   -0.13    0.36 
   2  -4 -10    3.77    0.52 
  -2   4  10    4.92    0.98 
  -2   4  10    4.38    0.74 
   1  -4 -10    4.49    0.57 
   0  -4 -10    0.62    0.29 
   0   4  10   -0.04    0.25 
   1   4  10    4.01    0.61 
   1   7 -11   -0.45    0.35 
  -1  -7  11    0.12    0.32 
   0   7 -11    6.35    0.65 
   0  -7  11    6.95    0.88 
  -1   7 -11    1.73    0.40 
   1  -7  11    1.00    0.44 
   1  -7  11    1.16    0.30 
   2  -7  11    5.67    0.71 
   2  -7  11    4.36    0.51 
   2   6 -11    2.69    0.58 
  -2  -6  11    2.80    0.64 
   1   6 -11   84.39    5.26 
  -1  -6  11   75.51    5.30 
   0   6 -11    0.33    0.34 
   0  -6  11    0.01    0.42 
  -1   6 -11    0.91    0.39 
   1  -6  11    1.41    0.34 
   2  -6  11    0.70    0.27 
   3  -6  11    1.01    0.28 
  -3  -5  11   10.17    0.94 
   2   5 -11    0.65    0.95 
  -2  -5  11    0.09    0.35 
  -2  -5  11    0.43    0.46 
   1   5 -11   13.64    1.40 
   1   5 -11   16.71    1.32 
  -1  -5  11   16.04    1.44 
  -1  -5  11   14.94    1.26 
   0   5 -11   21.15    1.68 
   0   5 -11   21.42    1.69 
   0  -5  11   23.08    1.83 
   0  -5  11   20.44    1.55 
   0  -5  11   20.78    1.61 
  -1   5 -11    0.65    0.39 
  -1   5 -11   -0.67    0.65 
   1  -5  11   -0.32    0.30 
  -2   5 -11   45.54    3.01 
   2  -5  11   43.76    3.03 
  -3   5 -11   12.82    2.27 
  -3  -4  11    0.39    0.28 
  -3  -4  11   -0.19    0.65 
   2   4 -11    0.32    0.50 
   2   4 -11   -0.32    0.86 
  -2  -4  11    0.53    0.35 
  -2  -4  11    0.56    0.56 
   1   4 -11   16.45    1.75 
   1   4 -11   19.07    1.53 
  -1  -4  11   21.70    1.56 
  -1  -4  11   19.76    1.79 
   0   4 -11   20.69    1.64 
   0   4 -11   21.55    1.97 
   0  -4  11   21.02    1.58 
  -1   4 -11   14.66    1.28 
   1  -4  11   13.81    1.22 
   1  -4  11   13.05    1.14 
   1  -4  11   11.19    1.07 
  -2   4 -11    3.98    0.72 
   2  -4  11    4.60    0.73 
   2  -4  11    3.49    0.56 
  -3   4 -11    2.29    1.40 
   3  -4  11    1.34    0.38 
  -4   4 -11    1.47    0.90 
   4  -4  11    0.72    0.39 
  -3  -3  11   16.13    1.25 
   2   3 -11    9.49    1.05 
  -2  -3  11   11.13    1.01 
  -2  -3  11   10.88    1.00 
  -2  -3  11    7.60    1.35 
   1   3 -11   18.37    1.48 
   1   3 -11   16.81    1.90 
  -1  -3  11   21.41    1.60 
  -1  -3  11   18.89    2.32 
   0   3 -11   22.33    1.87 
   0   3 -11   26.01    2.04 
   0  -3  11   26.59    1.90 
   0  -3  11   26.40    1.87 
   0  -3  11   26.15    1.86 
  -1   3 -11    3.02    0.62 
  -1   3 -11    4.94    0.75 
   1  -3  11    4.95    0.72 
   1  -3  11    4.24    0.58 
   1  -3  11    2.60    0.66 
  -2   3 -11    1.49    0.49 
   2  -3  11    0.79    0.40 
   2  -3  11    1.15    0.35 
  -3   3 -11    5.94    1.40 
   3  -3  11    4.91    0.56 
   3  -3  11    4.78    0.79 
  -4   3 -11   35.13    2.77 
   4  -3  11   40.64    2.60 
  -4  -2  11    6.09    0.65 
  -3  -2  11   20.63    1.55 
  -3  -2  11   20.81    1.56 
   2   2 -11    0.71    0.61 
  -2  -2  11    0.73    0.40 
  -2  -2  11    0.82    0.37 
   1   2 -11   69.07    5.17 
  -1  -2  11   81.81    5.27 
  -1  -2  11   78.47    5.18 
  -1  -2  11   84.52    5.25 
   0   2 -11    4.58    0.77 
   0   2 -11    4.43    0.78 
   0  -2  11    5.73    0.75 
   0  -2  11    5.19    0.90 
   0  -2  11    5.14    0.75 
   0  -2  11    5.62    0.66 
  -1   2 -11    1.24    0.48 
  -1   2 -11    0.52    0.50 
   1  -2  11    1.75    0.40 
   1  -2  11    1.68    0.42 
   1  -2  11    1.40    0.98 
  -2   2 -11   33.30    2.70 
   2  -2  11   40.70    2.68 
   2  -2  11   43.94    2.79 
  -3   2 -11    1.20    1.06 
   3  -2  11    0.62    0.43 
  -4   2 -11    0.38    0.74 
   4  -2  11    2.04    0.48 
  -4  -1  11    2.67    0.42 
  -3  -1  11    7.12    0.83 
  -3  -1  11    6.39    0.78 
   2   1 -11    3.04    0.81 
  -2  -1  11    1.71    0.45 
  -2  -1  11    2.37    0.58 
   1   1 -11   -0.05    0.37 
  -1  -1  11   -0.33    0.42 
  -1  -1  11    1.18    0.51 
  -1  -1  11    0.63    0.36 
   0   1 -11   73.18    5.35 
   0  -1  11   80.32    5.34 
   0  -1  11   83.27    5.27 
   0  -1  11   79.86    5.31 
   0  -1  11   82.05    5.27 
  -1   1 -11    2.11    0.63 
  -1   1 -11    1.50    0.53 
   1  -1  11    1.36    0.43 
  -2   1 -11    3.78    0.77 
   2  -1  11    6.73    0.81 
   2  -1  11    5.65    0.65 
   3  -1  11   10.74    1.07 
   3  -1  11   12.01    0.92 
  -4   0  11    1.67    0.35 
  -4   0  11    1.35    0.32 
  -3   0  11   16.68    1.31 
  -3   0  11   15.74    1.31 
   2   0 -11    3.00    0.88 
  -2   0  11    2.11    0.49 
  -2   0  11    2.49    0.50 
   1   0 -11   11.93    1.15 
   1   0 -11   12.75    1.51 
  -1   0  11   15.38    1.26 
  -1   0  11   16.75    1.36 
   0   0 -11    4.57    0.79 
   0   0 -11    6.35    1.01 
   0   0  11    6.79    0.84 
   0   0  11    7.76    1.26 
  -1   0 -11   12.30    1.41 
  -1   0 -11   16.38    1.53 
   1   0  11   15.98    1.36 
   1   0  11   16.42    1.23 
  -2   0 -11    1.29    0.43 
   2   0  11    1.23    0.32 
   2   0  11    1.45    0.41 
  -3   0 -11   21.43    2.26 
   3   0  11   25.12    1.65 
   3   0  11   19.08    1.50 
  -4   1  11    1.36    0.35 
  -4   1  11    0.92    0.26 
  -3   1  11    0.56    0.33 
  -3   1  11    0.42    0.29 
   2  -1 -11   72.92    5.16 
  -2   1  11   78.51    5.12 
  -2   1  11   79.41    5.14 
   1  -1 -11    4.80    0.86 
  -1   1  11    3.90    0.75 
  -1   1  11    2.59    0.56 
   0  -1 -11    2.80    0.56 
   0   1  11    4.18    0.69 
   0   1  11    4.14    0.68 
   0   1  11    3.28    0.60 
  -1  -1 -11   -0.78    0.64 
  -1  -1 -11    0.11    0.37 
   1   1  11    0.95    0.36 
   2   1  11    0.99    0.30 
   2   1  11    0.84    0.42 
  -3  -1 -11    4.35    1.42 
   3   1  11    1.16    0.34 
   3  -2 -11    8.23    0.89 
  -3   2  11    7.12    0.71 
  -3   2  11    7.48    0.76 
   2  -2 -11    0.31    0.42 
   2  -2 -11   -0.27    0.38 
  -2   2  11    0.57    0.44 
  -2   2  11    0.02    0.32 
   1  -2 -11   -0.16    0.42 
   1  -2 -11    0.21    0.38 
  -1   2  11    0.06    0.39 
  -1   2  11   -0.21    0.56 
   0  -2 -11    0.41    0.36 
   0  -2 -11    0.44    0.54 
   0   2  11    0.65    0.36 
   0   2  11    0.50    0.49 
   0   2  11    0.26    0.79 
  -1  -2 -11   12.89    1.15 
   1   2  11   16.92    1.19 
   1   2  11   14.32    1.13 
   2   2  11    0.44    0.34 
   2   2  11    0.30    0.26 
  -3   3  11   -0.20    0.35 
  -3   3  11   -0.26    0.24 
  -2   3  11    0.53    0.38 
  -2   3  11    1.20    0.35 
   1  -3 -11    0.17    0.27 
  -1   3  11    0.67    0.48 
   0  -3 -11    5.17    0.61 
   0   3  11    6.28    0.70 
   1   3  11    1.28    0.41 
   1   6 -12    2.57    0.49 
  -1  -6  12    2.51    0.46 
   0   6 -12    2.04    0.38 
   0  -6  12    2.76    0.51 
   1  -6  12    0.48    0.48 
   2  -6  12   14.09    1.07 
   2  -6  12   12.28    0.97 
   2   5 -12   70.15    4.58 
  -2  -5  12   67.94    4.55 
   1   5 -12   82.51    5.27 
  -1  -5  12   80.06    5.22 
  -1  -5  12   77.19    5.31 
   0   5 -12    1.80    0.46 
   0   5 -12    2.34    0.61 
   0  -5  12    2.28    0.56 
  -1   5 -12    1.34    0.35 
   1  -5  12    1.17    0.33 
   1  -5  12    1.48    0.53 
   2  -5  12    3.77    0.52 
  -3  -4  12    4.09    0.62 
   2   4 -12    7.49    1.12 
  -2  -4  12    4.55    0.64 
  -2  -4  12    2.39    1.00 
   1   4 -12    8.91    1.16 
   1   4 -12    9.54    1.06 
  -1  -4  12    9.88    1.22 
  -1  -4  12   11.09    0.92 
   0   4 -12   13.53    1.18 
   0   4 -12   11.36    1.14 
   0  -4  12   11.50    1.29 
   0  -4  12   11.20    1.05 
  -1   4 -12    1.09    0.70 
  -1   4 -12    1.95    0.44 
   1  -4  12    2.34    0.42 
   1  -4  12    2.85    0.49 
  -2   4 -12    7.47    0.77 
   2  -4  12    7.62    0.75 
   3  -4  12    6.54    0.70 
  -3  -3  12    0.86    0.40 
   2   3 -12   14.87    1.32 
   2   3 -12    9.31    1.87 
  -2  -3  12   12.31    1.02 
   1   3 -12   15.44    1.50 
   1   3 -12   15.65    1.30 
  -1  -3  12   15.92    1.24 
  -1  -3  12   12.67    1.64 
   0   3 -12   49.64    3.57 
   0   3 -12   51.39    3.54 
   0  -3  12   52.89    3.72 
   0  -3  12   52.18    3.52 
   0  -3  12   54.02    3.44 
   0  -3  12   51.92    3.48 
  -1   3 -12    0.23    0.67 
  -1   3 -12   -0.29    0.38 
   1  -3  12    0.21    0.28 
   1  -3  12    0.32    0.37 
  -2   3 -12    7.69    0.81 
   2  -3  12    7.59    0.70 
   2  -3  12    7.50    0.77 
   3  -3  12    0.04    0.27 
   3  -3  12    0.50    0.42 
  -3  -2  12    0.27    0.33 
   2   2 -12   -0.09    1.42 
   2   2 -12    1.04    0.54 
  -2  -2  12    0.95    0.37 
  -2  -2  12    1.04    0.34 
   1   2 -12   12.44    1.44 
   1   2 -12   14.24    1.19 
  -1  -2  12   13.79    1.17 
  -1  -2  12   13.33    1.18 
   0   2 -12    1.87    0.69 
   0   2 -12    1.13    0.51 
   0  -2  12    0.61    0.34 
   0  -2  12    1.51    0.49 
  -1   2 -12   24.14    2.03 
  -1   2 -12   24.12    1.96 
   1  -2  12   28.13    1.89 
   1  -2  12   29.28    1.93 
   2  -2  12   42.86    2.88 
   2  -2  12   43.12    2.92 
   3  -2  12   19.46    1.30 
   3  -2  12   15.89    1.34 
  -3  -1  12    7.49    0.79 
  -3  -1  12    7.28    0.75 
   2   1 -12   15.22    1.49 
   2   1 -12   16.84    1.92 
  -2  -1  12   19.47    1.41 
  -2  -1  12   20.07    1.42 
   1   1 -12    5.44    0.98 
   1   1 -12    4.93    0.78 
  -1  -1  12    5.26    0.77 
  -1  -1  12    3.78    0.57 
  -1  -1  12    4.82    0.70 
   0   1 -12    1.18    0.46 
   0   1 -12    1.59    0.53 
   0  -1  12    1.83    0.42 
   0  -1  12    0.93    0.39 
   0  -1  12    1.08    0.59 
   0  -1  12    0.86    0.34 
  -1   1 -12   -0.37    0.62 
  -1   1 -12    0.23    0.38 
   1  -1  12   -0.07    0.29 
   1  -1  12    0.11    0.33 
   2  -1  12   13.65    1.06 
   2  -1  12   11.90    0.97 
   3  -1  12    5.81    0.64 
   3  -1  12    6.36    0.55 
  -3   0  12   28.67    1.79 
  -3   0  12   22.44    1.80 
   2   0 -12    5.74    0.95 
   2   0 -12    7.12    1.31 
  -2   0  12    7.32    0.74 
  -2   0  12    8.65    0.84 
   1   0 -12    4.81    0.79 
  -1   0  12    5.71    0.72 
  -1   0  12    5.94    1.10 
  -1   0  12    6.24    0.86 
   0   0 -12   -0.07    0.47 
   0   0 -12    0.23    0.42 
   0   0  12    0.34    0.36 
   0   0  12   -0.69    0.36 
   0   0  12    0.08    0.37 
  -1   0 -12    0.92    0.38 
  -1   0 -12   -0.38    1.01 
   1   0  12    0.29    0.37 
   1   0  12   -0.31    0.28 
   2   0  12   88.48    5.79 
   2   0  12   90.04    5.82 
  -3   1  12   15.06    1.09 
  -3   1  12   13.73    1.05 
   2  -1 -12    1.28    0.73 
  -2   1  12    1.54    0.44 
  -2   1  12    1.30    0.33 
   1  -1 -12   -0.27    0.39 
   1  -1 -12    0.30    0.38 
  -1   1  12    0.33    0.30 
  -1   1  12    0.63    0.53 
   0  -1 -12    0.49    0.35 
   0  -1 -12    1.09    0.57 
   0   1  12    0.06    0.56 
   0   1  12    0.71    0.48 
  -1  -1 -12   15.80    1.17 
   1   1  12   15.10    1.16 
   2   1  12    2.42    0.34 
   2  -2 -12   26.11    1.93 
  -2   2  12   30.84    1.93 
  -2   2  12   26.12    1.91 
   1  -2 -12    3.50    0.56 
  -1   2  12    2.59    0.43 
   0  -2 -12    3.86    0.52 
   1   2  12   25.43    1.70 
   1   5 -13   10.93    0.94 
   0   5 -13    1.06    0.31 
   0  -5  13    1.54    0.52 
  -1   5 -13    6.45    0.67 
   1  -5  13    7.51    0.88 
  -2  -4  13    8.49    0.73 
   1   4 -13    5.91    0.80 
  -1  -4  13    8.11    0.80 
   0   4 -13    1.31    0.33 
   0  -4  13    0.48    0.70 
  -1   4 -13    0.07    0.28 
   1  -4  13   -0.58    0.67 
   2  -4  13    0.67    0.27 
  -2  -3  13    1.90    0.40 
   1   3 -13    2.01    0.52 
  -1  -3  13    2.42    0.42 
   0   3 -13   -0.10    0.35 
   0  -3  13   -0.83    0.84 
  -1   3 -13    7.62    0.77 
   1  -3  13    9.26    0.73 
   2  -3  13    9.16    0.73 
   2   2 -13    0.26    0.81 
  -2  -2  13    0.98    0.35 
   1   2 -13   12.91    1.23 
  -1  -2  13   15.49    1.14 
   0   2 -13    0.63    0.54 
   0   2 -13   -0.20    0.35 
   0  -2  13   -0.24    0.27 
   0  -2  13   -0.99    0.66 
  -1   2 -13    6.12    0.75 
   1  -2  13    8.16    0.84 
   1  -2  13    7.45    0.67 
   2  -2  13    2.55    0.38 
   2  -2  13    3.37    0.44 
   2   1 -13    8.01    1.14 
   1   1 -13   10.82    1.01 
  -1  -1  13    9.50    1.03 
  -1  -1  13    9.96    0.85 
   0   1 -13   15.19    1.31 
   0  -1  13   19.25    1.29 
  -1   1 -13   59.95    3.88 
   1  -1  13   57.93    3.86 
   2  -1  13    0.20    0.25 
   2  -1  13    0.03    0.19 
   2   0 -13   10.06    1.38 
  -2   0  13   12.81    0.98 
  -2   0  13   11.23    0.91 
   1   0 -13    3.73    0.55 
  -1   0  13    2.71    0.46 
  -1   0  13    2.37    0.60 
   0   0 -13    0.64    0.32 
   0   0  13   -0.06    0.37 
  -1   0 -13    0.69    0.31 
   1   0  13    1.37    0.25 
   1  -1 -13    0.66    0.30 
   0  -1 -13    0.27    0.25 
   0   2 -14    0.44    0.27 
   0   0   0    0.00    0.00 
;
_shelx_hkl_checksum              31000
loop_
_space_group_symop_operation_xyz
'x, y, z'
'-x, -y, -z'
loop_
_atom_site_label
_atom_site_type_symbol
_atom_site_fract_x
_atom_site_fract_y
_atom_site_fract_z
_atom_site_U_iso_or_equiv
_atom_site_adp_type
_atom_site_occupancy
_atom_site_site_symmetry_order
_atom_site_calc_flag
_atom_site_refinement_flags_posn
_atom_site_refinement_flags_adp
N1 N -0.0067(2) 0.37917(17) 0.65554(11) 0.0126(3) Uani 1 1 d D .
H1N1 H -0.123(3) 0.425(3) 0.6190(18) 0.021(5) Uiso 1 1 d D .
H1N2 H 0.132(3) 0.391(3) 0.6140(17) 0.016(5) Uiso 1 1 d D .
C1 C 0.0342(3) 0.4840(2) 0.78681(14) 0.0169(3) Uani 1 1 d . .
H1A H -0.1259 0.4817 0.8265 0.020 Uiso 1 1 calc R U
H1B H 0.1029 0.6128 0.7905 0.020 Uiso 1 1 calc R U
C2 C 0.2125(3) 0.4014(2) 0.85530(14) 0.0163(3) Uani 1 1 d . .
H2A H 0.2296 0.4671 0.9430 0.020 Uiso 1 1 calc R U
H2B H 0.3776 0.4160 0.8211 0.020 Uiso 1 1 calc R U
C3 C 0.1208(3) 0.1996(2) 0.84456(13) 0.0133(3) Uani 1 1 d . .
H3 H -0.0436 0.1883 0.8818 0.016 Uiso 1 1 calc R U
O1 O 0.4957(2) 0.19588(15) 0.95855(10) 0.0193(3) Uani 1 1 d . .
O2 O 0.2065(2) -0.05356(15) 0.91641(10) 0.0158(3) Uani 1 1 d D .
H2O H 0.316(4) -0.097(3) 0.954(2) 0.035(6) Uiso 1 1 d D .
C4 C 0.0839(3) 0.0974(2) 0.70823(14) 0.0140(3) Uani 1 1 d . .
H4A H 0.2446 0.1057 0.6692 0.017 Uiso 1 1 calc R U
H4B H 0.0200 -0.0330 0.7013 0.017 Uiso 1 1 calc R U
C5 C -0.0981(3) 0.1806(2) 0.64282(14) 0.0148(3) Uani 1 1 d . .
H5A H -0.1182 0.1168 0.5548 0.018 Uiso 1 1 calc R U
H5B H -0.2617 0.1653 0.6785 0.018 Uiso 1 1 calc R U
C6 C 0.2939(3) 0.1146(2) 0.91229(13) 0.0139(3) Uani 1 1 d . .
B1 B 0.5206(3) 0.7199(2) 0.62081(16) 0.0144(4) Uani 1 1 d . .
F1 F 0.27236(17) 0.67401(13) 0.57637(8) 0.0188(2) Uani 1 1 d . .
F2 F 0.66918(18) 0.75571(13) 0.52720(9) 0.0249(3) Uani 1 1 d . .
F3 F 0.54692(18) 0.87184(13) 0.71845(9) 0.0226(2) Uani 1 1 d . .
F4 F 0.58753(19) 0.57206(14) 0.66023(9) 0.0255(3) Uani 1 1 d . .
loop_
_atom_site_aniso_label
_atom_site_aniso_U_11
_atom_site_aniso_U_22
_atom_site_aniso_U_33
_atom_site_aniso_U_23
_atom_site_aniso_U_13
_atom_site_aniso_U_12
N1 0.0158(7) 0.0132(6) 0.0107(6) 0.0048(5) 0.0005(5) 0.0050(5)
C1 0.0249(8) 0.0142(7) 0.0121(7) 0.0013(6) -0.0015(6) 0.0083(6)
C2 0.0221(8) 0.0139(7) 0.0132(7) 0.0027(6) -0.0033(6) 0.0055(6)
C3 0.0148(7) 0.0156(7) 0.0122(7) 0.0067(6) 0.0023(6) 0.0061(6)
O1 0.0210(6) 0.0176(6) 0.0205(6) 0.0076(5) -0.0060(5) 0.0030(4)
O2 0.0164(6) 0.0168(6) 0.0176(6) 0.0092(4) 0.0003(4) 0.0055(4)
C4 0.0172(7) 0.0114(7) 0.0142(7) 0.0039(6) -0.0026(6) 0.0042(6)
C5 0.0165(7) 0.0122(7) 0.0163(7) 0.0053(6) -0.0044(6) 0.0022(6)
C6 0.0177(8) 0.0159(7) 0.0105(7) 0.0050(6) 0.0031(6) 0.0069(6)
B1 0.0146(8) 0.0145(8) 0.0139(8) 0.0025(6) 0.0008(7) 0.0034(6)
F1 0.0153(5) 0.0233(5) 0.0189(5) 0.0067(4) -0.0019(4) 0.0038(4)
F2 0.0246(5) 0.0252(5) 0.0220(5) 0.0021(4) 0.0112(4) -0.0014(4)
F3 0.0229(5) 0.0192(5) 0.0208(5) -0.0047(4) 0.0057(4) 0.0019(4)
F4 0.0316(6) 0.0244(5) 0.0254(5) 0.0079(4) -0.0014(4) 0.0171(4)
loop_
_atom_type_symbol
_atom_type_description
_atom_type_scat_dispersion_real
_atom_type_scat_dispersion_imag
_atom_type_scat_source
C C 0.0181 0.0091 'International Tables Vol C Tables 4.2.6.8 and 6.1.1.4'
H H 0.0000 0.0000 'International Tables Vol C Tables 4.2.6.8 and 6.1.1.4'
B B 0.0090 0.0039 'International Tables Vol C Tables 4.2.6.8 and 6.1.1.4'
N N 0.0311 0.0180 'International Tables Vol C Tables 4.2.6.8 and 6.1.1.4'
O O 0.0492 0.0322 'International Tables Vol C Tables 4.2.6.8 and 6.1.1.4'
F F 0.0727 0.0534 'International Tables Vol C Tables 4.2.6.8 and 6.1.1.4'
loop_
_geom_angle_atom_site_label_1
_geom_angle_atom_site_label_2
_geom_angle_atom_site_label_3
_geom_angle
C5 N1 C1 112.63(12)
C5 N1 H1N1 107.8(13)
C1 N1 H1N1 108.3(13)
C5 N1 H1N2 109.1(12)
C1 N1 H1N2 111.7(12)
H1N1 N1 H1N2 107.1(18)
N1 C1 C2 110.29(12)
N1 C1 H1A 109.6
C2 C1 H1A 109.6
N1 C1 H1B 109.6
C2 C1 H1B 109.6
H1A C1 H1B 108.1
C1 C2 C3 111.08(13)
C1 C2 H2A 109.4
C3 C2 H2A 109.4
C1 C2 H2B 109.4
C3 C2 H2B 109.4
H2A C2 H2B 108.0
C6 C3 C2 112.11(13)
C6 C3 C4 110.62(12)
C2 C3 C4 109.79(12)
C6 C3 H3 108.1
C2 C3 H3 108.1
C4 C3 H3 108.1
C6 O2 H2O 109.5(16)
C5 C4 C3 109.78(12)
C5 C4 H4A 109.7
C3 C4 H4A 109.7
C5 C4 H4B 109.7
C3 C4 H4B 109.7
H4A C4 H4B 108.2
N1 C5 C4 110.19(12)
N1 C5 H5A 109.6
C4 C5 H5A 109.6
N1 C5 H5B 109.6
C4 C5 H5B 109.6
H5A C5 H5B 108.1
O1 C6 O2 123.82(14)
O1 C6 C3 122.68(14)
O2 C6 C3 113.50(13)
F3 B1 F2 110.06(13)
F3 B1 F4 109.67(13)
F2 B1 F4 109.81(13)
F3 B1 F1 109.61(13)
F2 B1 F1 109.55(13)
F4 B1 F1 108.10(13)
loop_
_geom_bond_atom_site_label_1
_geom_bond_atom_site_label_2
_geom_bond_distance
N1 C5 1.4969(19)
N1 C1 1.4975(19)
N1 H1N1 0.904(15)
N1 H1N2 0.902(15)
C1 C2 1.522(2)
C1 H1A 0.9900
C1 H1B 0.9900
C2 C3 1.524(2)
C2 H2A 0.9900
C2 H2B 0.9900
C3 C6 1.509(2)
C3 C4 1.540(2)
C3 H3 1.0000
O1 C6 1.224(2)
O2 C6 1.3135(19)
O2 H2O 0.872(16)
C4 C5 1.519(2)
C4 H4A 0.9900
C4 H4B 0.9900
C5 H5A 0.9900
C5 H5B 0.9900
B1 F3 1.3843(19)
B1 F2 1.393(2)
B1 F4 1.397(2)
B1 F1 1.4021(19)
loop_
_geom_hbond_atom_site_label_D
_geom_hbond_atom_site_label_H
_geom_hbond_atom_site_label_A
_geom_hbond_distance_DH
_geom_hbond_distance_HA
_geom_hbond_distance_DA
_geom_hbond_angle_DHA
_geom_hbond_site_symmetry_A
N1 H1N1 F1 0.904(15) 2.239(18) 2.8676(15) 126.2(16) 2_566
N1 H1N1 F4 0.904(15) 2.072(18) 2.8338(16) 141.2(17) 1_455
N1 H1N2 F1 0.902(15) 2.318(18) 2.8566(16) 118.2(15) .
N1 H1N2 F2 0.902(15) 2.134(17) 2.8984(16) 141.9(16) 2_666
C1 H1B O2 0.99 2.58 3.4679(19) 149.0 1_565
C2 H2B F4 0.99 2.58 3.380(2) 137.3 .
O2 H2O O1 0.872(16) 1.769(17) 2.6349(15) 172(2) 2_657
C4 H4B F3 0.99 2.61 3.1969(19) 118.3 1_445
C5 H5A F1 0.99 2.62 3.1110(17) 110.6 2_566
C5 H5B F3 0.99 2.47 3.1139(19) 122.1 1_445
loop_
_geom_torsion_atom_site_label_1
_geom_torsion_atom_site_label_2
_geom_torsion_atom_site_label_3
_geom_torsion_atom_site_label_4
_geom_torsion
C5 N1 C1 C2 56.22(18)
N1 C1 C2 C3 -55.56(18)
C1 C2 C3 C6 -179.72(12)
C1 C2 C3 C4 56.90(17)
C6 C3 C4 C5 177.91(13)
C2 C3 C4 C5 -57.84(17)
C1 N1 C5 C4 -57.86(17)
C3 C4 C5 N1 57.83(17)
C2 C3 C6 O1 -7.2(2)
C4 C3 C6 O1 115.71(16)
C2 C3 C6 O2 172.77(13)
C4 C3 C6 O2 -64.32(17)
