#------------------------------------------------------------------------------
#$Date: 2019-11-25 09:09:36 +0200 (Mon, 25 Nov 2019) $
#$Revision: 240581 $
#$URL: file:///home/coder/svn-repositories/cod/cif/4/12/99/4129973.cif $
#------------------------------------------------------------------------------
#
# This file is available in the Crystallography Open Database (COD),
# http://www.crystallography.net/
#
# All data on this site have been placed in the public domain by the
# contributors.
#
data_4129973
loop_
_publ_author_name
'Shi, Qinqin'
'Zhang, Siyuan'
'Zhang, Junxiang'
'Oswald, Victoria F.'
'Amassian, Aram'
'Marder, Seth R.'
'Blakey, Simon B.'
_publ_section_title
;
 KO(t)Bu-Initiated Aryl C-H Iodination: A Powerful Tool for the Synthesis
 of High Electron Affinity Compounds.
;
_journal_issue                   12
_journal_name_full               'Journal of the American Chemical Society'
_journal_page_first              3946
_journal_page_last               3949
_journal_paper_doi               10.1021/jacs.5b12259
_journal_volume                  138
_journal_year                    2016
_chemical_formula_moiety         'C6 H2 F I N2 S'
_chemical_formula_sum            'C6 H2 F I N2 S'
_chemical_formula_weight         280.06
_space_group_crystal_system      triclinic
_space_group_IT_number           2
_space_group_name_Hall           '-P 1'
_space_group_name_H-M_alt        'P -1'
_atom_sites_solution_hydrogens   geom
_audit_creation_date             2015-06-16
_audit_creation_method
;
Olex2 1.2-dev
(compiled 2015.06.08 svn.r3188 for OlexSys, GUI svn.r5047)
;
_cell_angle_alpha                70.391(2)
_cell_angle_beta                 67.906(2)
_cell_angle_gamma                65.029(2)
_cell_formula_units_Z            2
_cell_length_a                   7.1942(17)
_cell_length_b                   7.6321(18)
_cell_length_c                   8.348(2)
_cell_measurement_reflns_used    5885
_cell_measurement_temperature    100(2)
_cell_measurement_theta_max      30.721
_cell_measurement_theta_min      2.693
_cell_volume                     376.38(15)
_computing_cell_refinement       'SAINT v8.34A (Bruker, 2013)'
_computing_data_collection       'APEX2 v2014.11 (Bruker, 2014)'
_computing_data_reduction        'SAINT v8.34A (Bruker, 2013)'
_computing_molecular_graphics    'Olex2 (Dolomanov et al., 2009)'
_computing_publication_material  'Olex2 (Dolomanov et al., 2009)'
_computing_structure_refinement  'SHELXL-97 (Sheldrick, 2008)'
_computing_structure_solution    'Superflip (L. Palatinus & G. Chapuis, 2007)'
_diffrn_ambient_temperature      100(2)
_diffrn_detector_area_resol_mean 512
_diffrn_measured_fraction_theta_full 0.995
_diffrn_measured_fraction_theta_max 0.986
_diffrn_measurement_device_type  'Bruker APEX-II CCD'
_diffrn_measurement_method       '\f and \w scans'
_diffrn_radiation_monochromator  graphite
_diffrn_radiation_type           MoK\a
_diffrn_radiation_wavelength     0.71073
_diffrn_reflns_av_R_equivalents  0.0448
_diffrn_reflns_av_unetI/netI     0.0457
_diffrn_reflns_Laue_measured_fraction_full 0.995
_diffrn_reflns_Laue_measured_fraction_max 0.986
_diffrn_reflns_limit_h_max       10
_diffrn_reflns_limit_h_min       -10
_diffrn_reflns_limit_k_max       10
_diffrn_reflns_limit_k_min       -10
_diffrn_reflns_limit_l_max       11
_diffrn_reflns_limit_l_min       -11
_diffrn_reflns_number            6561
_diffrn_reflns_point_group_measured_fraction_full 0.995
_diffrn_reflns_point_group_measured_fraction_max 0.986
_diffrn_reflns_theta_full        25.242
_diffrn_reflns_theta_max         30.734
_diffrn_reflns_theta_min         3.012
_diffrn_source                   'sealed tube'
_diffrn_source_current           35
_diffrn_source_voltage           45
_diffrn_standards_number         0
_exptl_absorpt_coefficient_mu    4.476
_exptl_absorpt_correction_T_max  0.7504
_exptl_absorpt_correction_T_min  0.0898
_exptl_absorpt_correction_type   numerical
_exptl_absorpt_process_details
;
SADABS-2014/5 (Bruker,2014/5) was used for absorption correction.
wR2(int) was 0.1426 before and 0.0579 after correction.
The Ratio of minimum to maximum transmission is 0.1197.
The \l/2 correction factor is Not present.
;
_exptl_crystal_colour            colourless
_exptl_crystal_colour_primary    colourless
_exptl_crystal_density_diffrn    2.471
_exptl_crystal_description       plate
_exptl_crystal_F_000             260
_exptl_crystal_recrystallization_method
'The material was recrystallised from DCM by slow evaporation'
_exptl_crystal_size_max          0.449
_exptl_crystal_size_mid          0.18
_exptl_crystal_size_min          0.072
_refine_diff_density_max         2.350
_refine_diff_density_min         -1.033
_refine_diff_density_rms         0.194
_refine_ls_extinction_method     none
_refine_ls_goodness_of_fit_ref   1.060
_refine_ls_hydrogen_treatment    constr
_refine_ls_matrix_type           full
_refine_ls_number_parameters     100
_refine_ls_number_reflns         2314
_refine_ls_number_restraints     39
_refine_ls_restrained_S_all      1.053
_refine_ls_R_factor_all          0.0317
_refine_ls_R_factor_gt           0.0291
_refine_ls_shift/su_max          0.000
_refine_ls_shift/su_mean         0.000
_refine_ls_structure_factor_coef Fsqd
_refine_ls_weighting_details
'w=1/[\s^2^(Fo^2^)+(0.0393P)^2^] where P=(Fo^2^+2Fc^2^)/3'
_refine_ls_weighting_scheme      calc
_refine_ls_wR_factor_gt          0.0724
_refine_ls_wR_factor_ref         0.0742
_reflns_Friedel_coverage         0.000
_reflns_number_gt                2148
_reflns_number_total             2314
_reflns_threshold_expression     'I > 2\s(I)'
_cod_data_source_file            ja5b12259_si_002.cif
_cod_data_source_block           qs-ii-267-5
_cod_original_cell_volume        376.37(15)
_cod_database_code               4129973
_shelx_space_group_comment
;
The symmetry employed for this shelxl refinement is uniquely defined
by the following loop, which should always be used as a source of
symmetry information in preference to the above space-group names.
They are only intended as comments.
;
_shelx_estimated_absorpt_t_max   0.739
_shelx_estimated_absorpt_t_min   0.238
_olex2_refinement_description
;
1. Fixed Uiso
 At 1.2 times of:
  All C(H) groups
2. Rigid body (RIGU) restrains
 C2, N2, C3, C1
 with sigma for 1-2 distances of 0.002 and sigma for 1-3 distances of 0.002
 N2, S1
 with sigma for 1-2 distances of 0.002 and sigma for 1-3 distances of 0.002
 N2, C2, C1, N1, S1
 with sigma for 1-2 distances of 0.002 and sigma for 1-3 distances of 0.002
3.a Aromatic/amide H refined with riding coordinates:
 C4(H4), C3(H3)
;
_shelx_res_file
;
    qs-ii-267-5.res created by SHELXL-2014/7

TITL qs-ii-267-5_a.res in P-1
REM Old TITL QS-II-267-5 in P1 #1
REM SHELXT solution in P-1
REM R1 0.068, Rweak 0.011, Alpha 0.036, Orientation as input
REM Formula found by SHELXT: C1 F S I
CELL 0.71073 7.1942 7.6321 8.3478 70.391 67.906 65.029
ZERR 2 0.0017 0.0018 0.002 0.002 0.002 0.002
LATT 1
SFAC C H F I N S
UNIT 12 4 2 2 4 2
RIGU 0.002 0.002 C2 N2 C3 C1
RIGU 0.002 0.002 N2 S1
RIGU 0.002 0.002 N2 C2 C1 N1 S1

L.S. 4 0 0
PLAN  20
SIZE 0.072 0.18 0.449
TEMP -173
BOND $H
LIST 6
MORE -1
CONF
fmap 2 53
acta
OMIT 8 2 9
OMIT 2 -1 3
OMIT 0 1 2
OMIT 1 2 1
OMIT 2 0 4
OMIT 2 1 3
OMIT 3 3 3
OMIT 0 0 1
OMIT -6 5 1
REM <olex2.extras>
REM <HklSrc "%.\\sad.hkl">
REM </olex2.extras>

WGHT    0.039300
FVAR       0.48113
I1    4    0.430754    0.266106    0.226316    11.00000    0.01806    0.01605 =
         0.00888   -0.00345   -0.00377   -0.00744
S1    6    0.103838    0.280752    0.866846    11.00000    0.01536    0.04425 =
         0.01193   -0.01147    0.00094   -0.01185
F1    3    0.880107    0.225965    0.251141    11.00000    0.01772    0.04451 =
         0.01234   -0.00697    0.00277   -0.01469
N2    5    0.317487    0.260203    0.903562    11.00000    0.01824    0.02586 =
         0.01187   -0.00887   -0.00131   -0.00782
N1    5    0.188322    0.279232    0.657862    11.00000    0.01510    0.02866 =
         0.01405   -0.00738   -0.00139   -0.01005
C1    1    0.393736    0.261819    0.606923    11.00000    0.01287    0.01244 =
         0.01075   -0.00462   -0.00204   -0.00513
C4    1    0.815287    0.224443    0.549371    11.00000    0.01433    0.01864 =
         0.01770   -0.00396   -0.00603   -0.00857
AFIX  43
H4    2    0.959555    0.213387    0.524245    11.00000   -1.20000
AFIX   0
C2    1    0.470627    0.250814    0.747469    11.00000    0.01783    0.01472 =
         0.01139   -0.00591   -0.00292   -0.00736
C3    1    0.685319    0.229600    0.717056    11.00000    0.01735    0.01670 =
         0.01448   -0.00416   -0.00534   -0.00769
AFIX  43
H3    2    0.737162    0.219303    0.810216    11.00000   -1.20000
AFIX   0
C6    1    0.533271    0.253229    0.433302    11.00000    0.01485    0.01206 =
         0.01034   -0.00238   -0.00408   -0.00478
C5    1    0.738184    0.235334    0.412332    11.00000    0.01719    0.01723 =
         0.00959   -0.00434   -0.00011   -0.00944
HKLF 4

REM  qs-ii-267-5_a.res in P-1
REM R1 =  0.0291 for    2148 Fo > 4sig(Fo)  and  0.0317 for all    2314 data
REM    100 parameters refined using     39 restraints

END

WGHT      0.0391      0.0000

REM Highest difference peak  2.350,  deepest hole -1.033,  1-sigma level  0.194
Q1    1   0.2131  0.2742  0.8762  11.00000  0.05    2.35
Q2    1   0.5420  0.2884  0.2269  11.00000  0.05    1.98
Q3    1   0.3379  0.2369  0.2186  11.00000  0.05    1.94
Q4    1   0.4425  0.1997  0.3180  11.00000  0.05    1.55
Q5    1   0.4099  0.3424  0.1426  11.00000  0.05    1.53
Q6    1   0.7056  0.2044  0.3244  11.00000  0.05    1.15
Q7    1   0.4250  0.2576  0.6786  11.00000  0.05    0.87
Q8    1   0.5766  0.1972  0.1405  11.00000  0.05    0.73
Q9    1   0.7751  0.2373  0.4809  11.00000  0.05    0.73
Q10   1   0.7318  0.2739  0.5957  11.00000  0.05    0.72
Q11   1   0.2994  0.3754  0.2795  11.00000  0.05    0.71
Q12   1   0.6784  0.2207  0.8031  11.00000  0.05    0.55
Q13   1   0.1576  0.3191  0.7586  11.00000  0.05    0.49
Q14   1   0.6236  0.2595  0.4377  11.00000  0.05    0.48
Q15   1   0.5276  0.1193  0.2002  11.00000  0.05    0.48
Q16   1   0.2955  0.2211  0.9770  11.00000  0.05    0.47
Q17   1   0.4365  0.2355  0.7986  11.00000  0.05    0.45
Q18   1   0.4916  0.0640  0.6964  11.00000  0.05    0.42
Q19   1   0.9780  0.3173  0.2200  11.00000  0.05    0.42
Q20   1   0.1447  0.2618  0.5935  11.00000  0.05    0.41
;
_shelx_res_checksum              7655
_shelx_hkl_file
;
  -1   0   0 1748.12 95.1944   4
  -1   0   0 1850.49 95.6761   1
  -1   0   0 1942.35 95.0380   2
   1   0   0 2261.66 102.776   3
  -2   0   0 557.847 29.2893   1
  -2   0   0 553.859 27.9204   2
  -2   0   0 562.660 28.3630   4
   2   0   0 542.472 35.4062   3
  -3   0   0 382.870 21.2900   1
  -3   0   0 388.710 19.3403   2
  -3   0   0 363.458 19.8315   4
   3   0   0 326.280 26.4966   3
  -4   0   0 151.905 9.75451   4
  -4   0   0 170.719 9.28339   2
  -4   0   0 158.744 11.3843   1
   4   0   0 130.265 15.6462   3
  -5   0   0 23.0421 3.99735   1
  -5   0   0 22.0626 2.57378   2
  -5   0   0 25.9837 3.12658   4
   5   0   0 30.3549 8.08662   3
  -6   0   0 333.956 19.0030   2
  -6   0   0 348.047 20.1501   4
   6   0   0 363.634 30.3701   3
  -7   0   0 269.776 16.8897   4
   7   0   0 274.171 27.0012   3
  -8   0   0 120.841 9.78520   4
   8   0   0 134.340 19.1550   3
   9   0   0 102.295 17.9060   3
   8  -1   0 5.36230 6.15626   3
  -8   1   0 8.65274 2.87650   4
   7  -1   0 9.67804 6.21334   3
  -7   1   0 7.43180 2.18468   4
   6  -1   0 26.7661 8.80480   3
  -6   1   0 39.6495 4.41701   4
  -6   1   0 53.3269 4.47362   2
   5  -1   0 271.674 23.9033   3
  -5   1   0 254.664 14.9927   2
  -5   1   0 265.411 15.5546   4
   4  -1   0 522.581 38.6704   3
  -4   1   0 562.360 30.4323   4
  -4   1   0 599.548 31.5638   1
  -4   1   0 603.453 30.2776   2
   3  -1   0 1972.26 102.300   3
  -3   1   0 1796.31 89.4801   1
  -3   1   0 1755.75 88.6883   2
  -3   1   0 1648.13 88.6749   4
   2  -1   0 1258.62 61.7160   3
  -2   1   0 1110.32 56.7606   1
  -2   1   0 1058.40 56.5442   2
  -2   1   0 1118.55 56.4795   4
   1  -1   0 639.706 33.6667   3
  -1   1   0 621.246 32.4459   2
  -1   1   0 673.346 32.1313   4
   0  -1   0 42.2326 2.85160   3
   0  -1   0 42.7971 2.69308   1
   0   1   0 39.1147 2.87945   3
   0   1   0 44.2871 2.62634   2
  -1  -1   0 375.380 19.3297   1
  -1  -1   0 397.384 18.3524   4
   1   1   0 343.337 18.9377   3
   1   1   0 340.030 17.8805   2
  -2  -1   0 829.556 40.6995   2
  -2  -1   0 849.882 43.2561   1
  -2  -1   0 863.793 41.7081   4
   2   1   0 769.154 43.3294   3
  -3  -1   0 2058.29 94.9948   2
  -3  -1   0 2019.02 98.6092   1
  -3  -1   0 1909.59 96.1450   4
   3   1   0 1728.47 100.142   3
  -4  -1   0 886.223 48.2552   4
  -4  -1   0 977.072 47.1056   2
  -4  -1   0 958.778 51.2118   1
  -5  -1   0 409.895 23.1396   4
  -5  -1   0 445.765 22.5799   2
  -5  -1   0 414.415 26.0485   1
   5   1   0 378.399 34.3816   3
  -6  -1   0 164.353 13.9231   1
  -6  -1   0 165.951 11.3067   4
   6   1   0 199.153 22.8440   3
  -7  -1   0 0.45841 1.61522   4
   7   1   0 2.96651 5.48125   3
  -8  -1   0 3.45745 2.13670   4
   8   1   0 2.91166 6.46913   3
  -9  -1   0 89.3804 8.41383   4
   9   1   0 96.4742 17.9930   3
   8  -2   0 69.0051 14.0613   3
   7  -2   0 116.135 17.5922   3
  -7   2   0 159.278 10.6599   4
   6  -2   0 269.411 26.9084   3
  -6   2   0 333.241 18.2686   4
  -6   2   0 296.489 17.7960   2
   5  -2   0 50.2758 10.0962   3
  -5   2   0 49.2339 4.62341   4
  -5   2   0 43.8189 4.49758   2
   4  -2   0 215.986 23.4912   3
  -4   2   0 167.141 11.0545   2
  -4   2   0 185.471 11.1453   4
   3  -2   0 33.9936 6.35032   3
  -3   2   0 39.1707 3.61674   2
  -3   2   0 37.9264 3.17895   1
  -3   2   0 31.0576 3.11790   4
   2  -2   0 333.006 21.3674   3
  -2   2   0 319.343 18.7598   2
  -2   2   0 392.679 18.4010   4
   1  -2   0 460.714 26.2665   3
   1  -2   0 510.858 24.7712   1
  -1   2   0 448.852 25.0777   2
  -1   2   0 509.110 24.1892   4
   0  -2   0 9413.69 455.277   1
   0  -2   0 9133.46 456.017   3
   0   2   0 8198.42 450.646   2
   0   2   0 9999.99 456.826   3
  -1  -2   0 2812.42 133.511   4
  -1  -2   0 2681.79 135.231   1
   1   2   0 2855.12 135.131   3
   1   2   0 2557.36 133.717   2
  -2  -2   0 504.848 24.4710   4
  -2  -2   0 480.263 26.5097   1
   2   2   0 440.892 25.6832   3
   2   2   0 481.810 23.6633   2
  -3  -2   0 836.448 41.0921   4
  -3  -2   0 812.682 43.8962   1
   3   2   0 801.389 39.5219   2
   3   2   0 762.889 43.2095   3
  -4  -2   0 50.2557 6.52510   1
  -4  -2   0 53.0806 3.07779   2
  -4  -2   0 52.6936 4.61931   4
   4   2   0 54.3872 3.18187   2
   4   2   0 47.7785 6.78168   3
  -5  -2   0 8.35336 1.85121   4
  -5  -2   0 5.17171 2.89201   1
   5   2   0 4.79345 3.83401   3
  -6  -2   0 255.949 18.8595   1
  -6  -2   0 245.598 14.9230   4
   6   2   0 187.638 22.2611   3
  -7  -2   0 377.376 21.7871   4
  -7  -2   0 361.453 25.6896   1
   7   2   0 344.435 35.4183   3
  -8  -2   0 151.361 11.7825   4
   8   2   0 219.667 26.5969   3
  -9  -2   0 186.954 14.2248   4
   9   2   0 265.459 30.0919   3
   7  -3   0 7.03537 5.79761   3
  -7   3   0 15.2317 4.87773   2
   6  -3   0 -0.8912 4.81795   3
  -6   3   0 6.25340 2.24486   2
   5  -3   0 98.7018 16.7382   3
  -5   3   0 118.762 9.22616   4
  -5   3   0 121.036 8.73129   2
   4  -3   0 310.480 26.8045   3
  -4   3   0 278.680 16.2546   4
  -4   3   0 283.749 16.8672   2
   3  -3   0 1080.99 59.7885   3
  -3   3   0 996.042 54.0349   2
  -3   3   0 1087.54 53.3332   4
   2  -3   0 813.793 46.0816   3
  -2   3   0 779.554 43.2503   2
  -2   3   0 919.160 42.1703   4
   1  -3   0 480.518 27.9288   3
   1  -3   0 542.471 26.0555   1
  -1   3   0 474.880 26.4743   2
   0  -3   0 187.006 10.6571   1
   0  -3   0 175.842 11.2373   3
   0   3   0 171.220 10.3935   2
  -1  -3   0 59.7867 5.13313   1
  -1  -3   0 59.5152 3.18747   4
  -1  -3   0 55.7258 4.71927   3
   1   3   0 54.1401 4.01663   2
   1   3   0 57.0075 5.00995   3
  -2  -3   0 329.973 19.7442   1
  -2  -3   0 335.365 16.9932   4
   2   3   0 306.340 18.8777   3
   2   3   0 339.383 17.0317   2
  -3  -3   0 1256.25 59.9557   4
  -3  -3   0 1168.57 63.3071   1
   3   3   0 1229.53 58.8294   2
   3   3   0 1109.79 61.9854   3
  -4  -3   0 969.128 55.2396   1
  -4  -3   0 992.238 50.9881   4
   4   3   0 943.289 53.9742   3
   4   3   0 1063.45 49.0645   2
  -5  -3   0 494.328 26.6130   4
  -5  -3   0 470.734 31.0184   1
   5   3   0 482.953 31.1852   3
  -6  -3   0 289.883 18.1177   4
  -6  -3   0 312.865 23.1869   1
   6   3   0 313.116 25.1534   3
  -7  -3   0 11.1059 2.95842   4
  -7  -3   0 10.4082 4.33093   1
   7   3   0 3.58621 5.42650   3
  -8  -3   0 0.02815 1.19090   4
  -8  -3   0 7.75529 4.14847   1
   8   3   0 -1.4541 4.25711   3
  -9  -3   0 57.9256 6.60514   4
   9   3   0 47.1147 15.0934   3
   7  -4   0 51.8760 12.0736   3
  -7   4   0 88.5507 7.55423   2
   6  -4   0 158.029 21.6740   3
  -6   4   0 184.138 12.3115   2
   5  -4   0 82.3730 17.2070   3
  -5   4   0 65.7902 6.34527   2
   4  -4   0 126.638 15.3889   3
  -4   4   0 136.446 9.66185   2
   3  -4   0 4.69624 3.16441   3
  -3   4   0 6.58340 1.82708   2
   2  -4   0 118.259 10.8538   3
  -2   4   0 136.964 9.04369   2
   1  -4   0 110.793 9.36093   3
  -1   4   0 121.109 8.05752   2
   0  -4   0 3037.45 145.917   1
   0  -4   0 2865.60 147.022   3
   0   4   0 2898.97 145.650   2
  -1  -4   0 1950.86 100.396   1
  -1  -4   0 1977.62 100.283   3
   1   4   0 1958.45 99.0482   2
   1   4   0 2057.23 100.936   3
  -2  -4   0 394.014 23.5584   1
  -2  -4   0 401.891 20.0484   4
   2   4   0 379.654 22.9344   3
   2   4   0 395.987 20.9084   2
  -3  -4   0 760.114 44.1843   1
  -3  -4   0 829.282 40.1723   4
   3   4   0 827.686 39.9582   2
   3   4   0 741.186 42.8867   3
  -4  -4   0 0.00827 0.94791   4
  -4  -4   0 6.01835 2.99314   1
   4   4   0 -0.5272 1.32995   3
  -5  -4   0 1.34810 1.16389   4
  -5  -4   0 1.26099 2.55447   1
   5   4   0 0.68428 1.76905   3
  -6  -4   0 115.063 8.67391   4
  -6  -4   0 108.344 12.5319   1
   6   4   0 107.234 12.3570   3
  -7  -4   0 361.195 21.6840   4
  -7  -4   0 349.216 27.3249   1
   7   4   0 376.096 29.7447   3
  -8  -4   0 148.429 11.3810   4
  -8  -4   0 143.924 15.5923   1
   8   4   0 151.426 19.8205   3
  -9  -4   0 220.953 16.1703   4
   9   4   0 271.243 31.4819   3
   6  -5   0 1.91863 5.08503   3
  -6   5   0 1.80589 1.92448   2
   5  -5   0 23.3683 11.5587   3
  -5   5   0 31.1496 4.41884   2
   4  -5   0 97.3209 13.8408   3
  -4   5   0 102.737 8.21470   2
   3  -5   0 493.537 33.5967   3
  -3   5   0 519.085 28.5264   2
   2  -5   0 527.292 33.0303   3
  -2   5   0 547.768 29.7824   2
   1  -5   0 345.029 22.2794   3
  -1   5   0 346.799 20.0331   2
   0  -5   0 224.262 15.2718   3
   0  -5   0 217.398 13.6227   1
   0   5   0 220.170 13.5885   2
  -1  -5   0 -0.4024 0.84641   1
  -1  -5   0 -0.9716 1.09361   3
   1   5   0 -0.0504 1.13320   3
   1   5   0 0.50950 1.27371   2
  -2  -5   0 65.7154 6.44935   3
  -2  -5   0 73.2830 7.29926   1
   2   5   0 70.7148 5.60709   2
   2   5   0 68.7673 6.92318   3
  -3  -5   0 486.198 25.6990   4
  -3  -5   0 516.073 30.7932   1
   3   5   0 515.069 26.5205   2
   3   5   0 483.908 29.4359   3
  -4  -5   0 732.181 42.3807   1
  -4  -5   0 683.404 36.3385   4
   4   5   0 697.317 40.3268   3
  -5  -5   0 402.671 28.9845   1
  -5  -5   0 416.761 23.1861   4
   5   5   0 427.133 27.3217   3
  -6  -5   0 358.102 20.9479   4
  -6  -5   0 352.202 27.3874   1
   6   5   0 355.952 25.6718   3
  -7  -5   0 36.4808 8.05598   1
  -7  -5   0 40.1635 4.88102   4
   7   5   0 41.8173 7.93925   3
  -8  -5   0 8.27988 4.85209   1
  -8  -5   0 7.98705 2.73893   4
   8   5   0 2.51723 4.78296   3
  -9  -5   0 18.3389 4.04845   4
  -9  -5   0 15.8230 5.72249   1
   9   5   0 19.7154 9.93247   3
   5  -6   0 61.0118 15.8359   3
  -5   6   0 50.5208 6.01543   2
   4  -6   0 79.4320 12.6804   3
  -4   6   0 70.6531 6.89936   2
   3  -6   0 25.7490 6.71704   3
  -3   6   0 28.1069 4.25589   2
   2  -6   0 21.6509 5.25487   3
  -2   6   0 18.0023 3.43369   2
   1  -6   0 32.2875 5.33623   3
  -1   6   0 26.0874 3.95286   2
   0  -6   0 868.275 48.9707   3
   0   6   0 887.421 46.5544   2
  -1  -6   0 1084.27 59.7826   1
  -1  -6   0 1169.14 61.0393   3
   1   6   0 1143.72 58.7794   2
  -2  -6   0 296.024 19.9367   3
  -2  -6   0 295.522 20.4841   1
   2   6   0 338.206 21.1428   3
   2   6   0 327.781 18.5685   2
  -3  -6   0 555.278 32.2923   3
  -3  -6   0 549.568 34.1543   1
   3   6   0 561.144 33.3284   3
   3   6   0 565.748 30.0197   2
  -4  -6   0 57.1832 8.10614   1
  -4  -6   0 47.4054 4.17709   4
   4   6   0 58.4620 7.31285   3
  -5  -6   0 2.67103 1.40509   4
  -5  -6   0 4.13442 3.16921   1
   5   6   0 3.20700 2.73964   3
  -6  -6   0 21.2583 3.24995   4
  -6  -6   0 25.4776 6.71052   1
   6   6   0 26.8949 6.05682   3
  -7  -6   0 219.865 21.9490   1
  -7  -6   0 243.366 15.5430   4
   7   6   0 230.616 20.5999   3
  -8  -6   0 124.266 10.4141   4
   8   6   0 129.939 16.0910   3
  -9  -6   0 232.649 16.3964   4
   9   6   0 229.359 25.2914   3
   4  -7   0 26.6985 9.35881   3
  -4   7   0 30.0709 4.74838   2
   3  -7   0 167.333 18.1158   3
  -3   7   0 188.621 13.2446   2
   2  -7   0 291.802 23.6802   3
  -2   7   0 334.055 19.9631   2
   1  -7   0 224.808 18.0802   3
  -1   7   0 216.996 14.7704   2
   0  -7   0 184.328 15.0403   3
   0   7   0 161.745 12.2022   2
  -1  -7   0 19.6090 4.47560   3
  -1  -7   0 15.3165 3.36946   1
   1   7   0 19.7227 3.50972   2
  -2  -7   0 5.25649 2.99682   3
  -2  -7   0 6.05455 2.77993   1
   2   7   0 5.47234 2.57171   2
   2   7   0 5.49700 3.04087   3
  -3  -7   0 148.962 13.7422   1
  -3  -7   0 153.667 12.7429   3
   3   7   0 154.958 13.4606   3
   3   7   0 161.935 10.8037   2
  -4  -7   0 415.513 28.2523   1
  -4  -7   0 363.687 24.7814   3
   4   7   0 400.749 26.4408   3
  -5  -7   0 275.364 23.0985   1
   5   7   0 292.200 21.5430   3
  -6  -7   0 291.229 24.8357   1
   6   7   0 266.715 21.6385   3
  -7  -7   0 65.9282 6.79583   4
  -7  -7   0 77.6374 12.5224   1
   7   7   0 81.6488 11.3403   3
  -8  -7   0 19.0535 6.72411   1
  -8  -7   0 17.5901 3.80666   4
   8   7   0 20.1844 7.29480   3
   3  -8   0 29.0677 8.72120   3
  -3   8   0 29.5378 4.63712   2
   2  -8   0 -0.4076 3.11203   3
  -2   8   0 -1.9765 1.48066   2
   1  -8   0 4.06603 3.73984   3
  -1   8   0 7.07153 2.84415   2
   0  -8   0 268.109 20.8743   3
   0   8   0 251.591 17.2052   2
  -1  -8   0 607.975 37.6375   3
   1   8   0 595.249 34.2894   2
  -2  -8   0 220.481 17.6566   3
  -2  -8   0 218.092 17.5150   1
   2   8   0 237.913 15.6433   2
  -3  -8   0 307.204 21.6723   3
  -3  -8   0 278.838 22.0796   1
   3   8   0 323.292 22.6748   3
  -4  -8   0 98.7510 10.3234   3
  -4  -8   0 112.592 12.6694   1
   4   8   0 104.793 11.3138   3
  -5  -8   0 12.2789 3.63062   3
  -5  -8   0 12.2840 4.69365   1
   5   8   0 14.8076 5.01220   3
  -6  -8   0 0.31773 3.23649   1
   6   8   0 -0.4735 1.70616   3
  -7  -8   0 94.2514 14.2377   1
   7   8   0 94.8348 12.6546   3
  -8  -8   0 80.4568 14.2266   1
   8   8   0 85.9650 13.0365   3
  -1   9   0 109.163 10.1023   2
   0  -9   0 105.583 12.6106   3
   0   9   0 104.802 9.56021   2
  -1  -9   0 37.9185 7.32261   3
   1   9   0 38.3974 5.40547   2
  -2  -9   0 0.46511 1.94415   3
   2   9   0 -1.0477 1.90391   2
  -3  -9   0 21.9982 5.75415   3
   3   9   0 38.2252 7.24193   3
  -4  -9   0 152.306 15.8163   1
  -4  -9   0 150.415 14.4041   3
   4   9   0 155.568 15.1697   3
  -5  -9   0 166.727 17.3201   1
  -5  -9   0 143.123 14.0831   3
   5   9   0 140.266 14.8768   3
  -6  -9   0 158.523 18.5838   1
  -6  -9   0 178.291 16.0195   3
   6   9   0 181.688 17.5225   3
  -7  -9   0 79.2626 10.5321   3
  -7  -9   0 82.9853 13.3796   1
   7   9   0 77.4201 11.6966   3
  -2 -10   0 143.761 15.3028   3
  -3 -10   0 131.236 14.4110   3
  -4 -10   0 84.8903 11.1655   3
   4  10   0 90.6763 11.9654   3
  -5 -10   0 17.9948 5.76569   3
   5  10   0 16.1168 5.90604   3
   6   9  -1 3.40565 4.10451   3
  -6  -9   1 -0.2584 3.52740   1
  -6  -9   1 0.25442 2.99833   3
   5   9  -1 33.4108 7.26905   3
  -5  -9   1 30.8269 7.37332   1
  -5  -9   1 35.7397 6.93694   3
   4   9  -1 109.686 12.6321   3
  -4  -9   1 116.441 13.9895   1
  -4  -9   1 130.446 13.0185   3
  -3  -9   1 146.714 15.0573   1
  -3  -9   1 154.136 14.6487   3
   2   9  -1 185.374 14.7723   2
  -2  -9   1 188.119 16.7272   3
   1   9  -1 78.5910 8.42052   2
  -1  -9   1 84.2515 10.9332   3
   0   9  -1 10.8321 3.60963   2
   0  -9   1 11.8527 5.42226   3
  -1   9  -1 2.42025 2.09823   2
   1  -9   1 4.20240 3.38844   3
   7   8  -1 145.136 15.7252   3
  -7  -8   1 131.331 17.4000   1
   6   8  -1 67.0083 9.63924   3
  -6  -8   1 64.6909 8.66416   3
  -6  -8   1 50.4122 10.1900   1
   5   8  -1 165.297 15.5172   3
  -5  -8   1 161.993 17.2521   1
  -5  -8   1 173.998 14.9055   3
   4   8  -1 115.670 12.1499   3
  -4  -8   1 115.083 11.5302   3
  -4  -8   1 116.364 13.4557   1
   3   8  -1 30.4283 5.96599   3
  -3  -8   1 16.5982 5.10530   1
  -3  -8   1 29.4818 5.39649   3
   2   8  -1 0.27914 2.02547   2
  -2  -8   1 -0.4968 2.17261   3
  -2  -8   1 0.65716 1.88084   1
   1   8  -1 57.7899 6.81386   2
  -1  -8   1 69.9015 8.94081   3
   0   8  -1 61.9575 6.79088   2
   0  -8   1 54.3174 8.15916   3
  -1   8  -1 179.336 13.4506   2
   1  -8   1 187.619 17.3978   3
  -2   8  -1 112.038 9.95995   2
   2  -8   1 116.107 14.3479   3
   3  -8   1 20.2015 8.23607   3
  -8  -7   1 82.7644 8.25834   4
  -8  -7   1 86.4688 13.8649   1
   7   7  -1 74.5007 10.5293   3
  -7  -7   1 47.2667 10.4650   1
  -7  -7   1 37.6527 5.90222   4
   6   7  -1 1.76962 2.95030   3
  -6  -7   1 -0.7791 2.53535   1
   5   7  -1 13.3191 4.31447   3
  -5  -7   1 13.4747 4.59822   1
   4   7  -1 169.879 14.2028   3
  -4  -7   1 156.069 15.3421   1
  -4  -7   1 155.846 13.0235   3
   3   7  -1 245.675 18.1125   3
   3   7  -1 227.506 16.7415   2
  -3  -7   1 239.260 18.9483   1
  -3  -7   1 234.721 17.1172   3
   2   7  -1 412.017 24.6726   2
   2   7  -1 437.025 27.3929   3
  -2  -7   1 407.117 26.4527   3
  -2  -7   1 419.945 27.3937   1
   1   7  -1 276.734 17.7751   2
  -1  -7   1 305.701 20.4279   3
  -1  -7   1 263.786 19.0603   1
   0   7  -1 53.7502 5.92536   2
   0  -7   1 49.6136 7.28605   3
  -1   7  -1 25.7884 4.00917   2
   1  -7   1 32.6767 6.31817   3
  -2   7  -1 7.03402 2.28710   2
   2  -7   1 3.56780 3.70279   3
  -3   7  -1 30.3991 4.49933   2
   3  -7   1 42.4736 8.37650   3
  -4   7  -1 74.1852 7.40437   2
   4  -7   1 62.7894 12.9962   3
   8   6  -1 13.0809 6.99330   3
  -8  -6   1 6.43373 2.94859   4
  -8  -6   1 13.4020 5.63042   1
   7   6  -1 195.208 18.4476   3
  -7  -6   1 205.098 13.8173   4
  -7  -6   1 187.533 20.3888   1
   6   6  -1 85.5329 10.4149   3
  -6  -6   1 81.3760 11.5164   1
  -6  -6   1 66.7643 6.35257   4
   5   6  -1 320.704 22.6508   3
  -5  -6   1 325.494 25.2438   1
  -5  -6   1 310.529 18.1054   4
   4   6  -1 298.268 20.6641   3
  -4  -6   1 303.385 16.4495   4
  -4  -6   1 285.571 22.2695   1
   3   6  -1 95.1351 7.68765   2
   3   6  -1 103.615 9.84458   3
  -3  -6   1 115.617 11.2929   1
  -3  -6   1 102.738 9.25761   3
   2   6  -1 29.9033 4.67939   3
   2   6  -1 24.0827 3.62290   2
  -2  -6   1 25.9732 4.19143   3
  -2  -6   1 26.3349 4.85788   1
   1   6  -1 96.3822 7.90788   2
  -1  -6   1 95.0775 8.94621   1
  -1  -6   1 103.502 9.20240   3
   0   6  -1 55.5161 5.61714   2
   0  -6   1 55.6619 6.05441   1
   0  -6   1 61.6325 7.06326   3
  -1   6  -1 284.215 17.6172   2
   1  -6   1 286.771 20.5051   3
  -2   6  -1 359.173 20.9098   2
   2  -6   1 328.838 24.3932   3
  -3   6  -1 50.8260 5.70288   2
  -4   6  -1 80.8726 7.40537   2
  -5   6  -1 6.02803 2.70341   2
   5  -6   1 1.84436 7.25072   3
   8   5  -1 106.744 14.6636   3
  -8  -5   1 115.879 9.83093   4
  -8  -5   1 105.345 14.3666   1
   7   5  -1 178.621 17.0484   3
  -7  -5   1 168.668 12.1877   4
  -7  -5   1 148.525 17.1003   1
   6   5  -1 7.57229 3.96659   3
  -6  -5   1 15.2775 5.48860   1
  -6  -5   1 11.3508 2.78742   4
   5   5  -1 2.72787 2.50152   3
  -5  -5   1 2.27766 2.81553   1
  -5  -5   1 2.64478 1.39662   4
   4   5  -1 148.663 12.0579   3
  -4  -5   1 151.232 13.7779   1
  -4  -5   1 134.236 8.83538   4
   3   5  -1 338.979 21.0818   3
   3   5  -1 309.625 18.1641   2
  -3  -5   1 340.713 22.6730   1
  -3  -5   1 327.675 17.4598   4
   2   5  -1 664.389 36.8371   2
   2   5  -1 718.349 39.3993   3
  -2  -5   1 690.332 40.1041   1
  -2  -5   1 741.900 35.7383   4
  -2  -5   1 711.209 38.6667   3
   1   5  -1 701.137 38.3740   2
   1   5  -1 793.430 40.9681   3
  -1  -5   1 718.775 40.0393   3
  -1  -5   1 712.430 40.3702   1
   0   5  -1 132.304 9.08197   2
   0  -5   1 122.151 9.49839   1
   0  -5   1 127.267 10.3307   3
  -1   5  -1 116.421 8.56499   2
   1  -5   1 123.821 10.6152   3
   1  -5   1 110.809 8.61253   1
  -2   5  -1 6.73394 2.44942   2
   2  -5   1 1.92616 2.47963   3
  -3   5  -1 30.0745 3.99071   2
   3  -5   1 35.0015 7.08037   3
  -4   5  -1 74.2052 6.86742   2
   4  -5   1 77.7744 12.3048   3
  -5   5  -1 262.331 17.0209   2
   5  -5   1 290.103 32.0400   3
  -6   5  -1 160.522 11.1033   2
   6  -5   1 103.587 19.0007   3
   9   4  -1 -5.4585 7.22747   3
  -9  -4   1 1.73521 1.63710   4
   8   4  -1 1.61792 4.69215   3
  -8  -4   1 0.52886 1.75793   4
  -8  -4   1 0.32697 2.69057   1
   7   4  -1 246.773 22.1562   3
  -7  -4   1 224.634 15.4625   4
  -7  -4   1 231.090 21.0151   1
   6   4  -1 93.3887 11.1063   3
  -6  -4   1 98.7447 7.88575   4
  -6  -4   1 92.2582 11.8075   1
   5   4  -1 402.622 26.7113   3
  -5  -4   1 433.883 23.3151   4
  -5  -4   1 407.023 28.7808   1
   4   4  -1 610.652 35.7172   3
  -4  -4   1 619.272 37.7975   1
  -4  -4   1 637.638 32.6417   4
   3   4  -1 246.105 13.4325   2
   3   4  -1 237.113 16.0491   3
  -3  -4   1 255.363 17.7488   1
  -3  -4   1 245.390 13.4796   4
   2   4  -1 229.684 13.0776   2
   2   4  -1 239.493 15.1999   3
  -2  -4   1 230.493 14.4987   3
  -2  -4   1 242.496 12.4584   4
  -2  -4   1 233.460 16.0118   1
   1   4  -1 106.206 8.34447   3
   1   4  -1 98.2742 6.87906   2
  -1  -4   1 111.485 5.68492   4
  -1  -4   1 104.776 8.49177   1
  -1  -4   1 100.378 7.88117   3
   0   4  -1 40.4465 3.73337   2
   0  -4   1 40.4147 4.33061   1
   0  -4   1 34.0811 4.21994   3
  -1   4  -1 327.497 18.6449   2
   1  -4   1 334.137 18.9419   1
   1  -4   1 319.549 20.3732   3
  -2   4  -1 849.504 43.4994   2
   2  -4   1 822.462 46.6264   3
   2  -4   1 817.139 44.3819   1
  -3   4  -1 105.662 7.72709   2
   3  -4   1 93.3263 10.5722   3
  -4   4  -1 228.505 14.4300   2
  -5   4  -1 49.3357 5.28570   2
   5  -4   1 54.4665 14.5011   3
  -6   4  -1 7.79767 2.83795   2
   6  -4   1 8.49373 7.18077   3
  -7   4  -1 5.26838 2.53865   2
   7  -4   1 1.89236 5.48554   3
   9   3  -1 61.5994 15.5768   3
  -9  -3   1 36.8214 5.70947   4
   8   3  -1 94.3504 17.3711   3
  -8  -3   1 77.3651 8.00493   4
  -8  -3   1 97.0499 12.1322   1
   7   3  -1 259.579 25.4828   3
  -7  -3   1 254.556 16.9556   4
  -7  -3   1 278.638 22.2106   1
   6   3  -1 45.9336 8.05912   3
  -6  -3   1 43.6247 5.00370   4
  -6  -3   1 40.2457 7.06264   1
   5   3  -1 34.2077 6.09919   3
  -5  -3   1 46.9799 4.56866   4
  -5  -3   1 34.9362 6.41269   1
   4   3  -1 50.5819 6.32319   3
   4   3  -1 58.9449 3.67781   2
  -4  -3   1 58.3649 4.81959   4
  -4  -3   1 63.3930 7.67410   1
   3   3  -1 415.167 21.2599   2
   3   3  -1 404.697 24.0863   3
  -3  -3   1 440.834 22.0251   4
  -3  -3   1 406.423 25.4490   1
   2   3  -1 956.231 47.0884   2
   2   3  -1 948.611 49.2183   3
  -2  -3   1 910.635 50.2708   1
  -2  -3   1 954.159 47.0390   4
   1   3  -1 1626.13 82.1006   2
   1   3  -1 1700.05 83.7538   3
  -1  -3   1 1685.08 81.3582   4
  -1  -3   1 1653.69 84.3603   1
  -1  -3   1 1613.85 83.1530   3
   0   3  -1 255.234 14.6759   2
   0  -3   1 265.721 13.4580   4
   0  -3   1 252.775 15.6359   3
   0  -3   1 299.576 16.0494   1
  -1   3  -1 283.150 16.3524   2
  -1   3  -1 323.910 15.0377   4
   1  -3   1 300.795 16.8584   1
   1  -3   1 266.424 17.6686   3
  -2   3  -1 102.367 7.37190   2
  -2   3  -1 113.364 6.32297   4
   2  -3   1 103.673 9.33962   3
   2  -3   1 107.790 8.32196   1
  -3   3  -1 21.7833 2.97470   2
  -3   3  -1 24.5033 2.38563   4
   3  -3   1 24.8998 5.26606   3
  -4   3  -1 58.0200 5.32824   2
  -4   3  -1 63.6095 5.01142   4
   4  -3   1 86.9137 12.6141   3
  -5   3  -1 394.602 22.2793   2
   5  -3   1 382.178 35.9098   3
  -6   3  -1 320.803 18.0483   2
   6  -3   1 252.529 27.5455   3
  -7   3  -1 171.097 11.1318   2
   7  -3   1 118.044 18.2490   3
   9   2  -1 10.4207 9.55578   3
  -9  -2   1 3.86734 2.10293   4
   8   2  -1 18.2469 10.8140   3
  -8  -2   1 18.3058 3.84187   4
   7   2  -1 140.046 20.3950   3
  -7  -2   1 150.982 11.1043   4
  -7  -2   1 149.534 14.5820   1
   6   2  -1 85.1956 13.6668   3
  -6  -2   1 86.8539 7.36345   4
  -6  -2   1 92.7414 10.5139   1
   5   2  -1 346.891 26.4091   3
  -5  -2   1 372.696 25.0610   1
  -5  -2   1 372.481 20.9747   4
   4   2  -1 959.229 55.4262   3
   4   2  -1 1061.93 50.3988   2
  -4  -2   1 1004.49 55.6685   1
  -4  -2   1 1005.80 51.7777   4
   3   2  -1 433.067 21.2806   2
   3   2  -1 422.822 24.4005   3
  -3  -2   1 409.704 25.0582   1
  -3  -2   1 413.277 22.1513   4
   2   2  -1 827.595 43.1185   3
   2   2  -1 821.623 41.2057   2
  -2  -2   1 818.856 44.1996   1
  -2  -2   1 855.819 41.6611   4
   1   2  -1 44.3943 3.07157   2
   1   2  -1 54.7443 4.14944   3
  -1  -2   1 48.4032 2.95476   4
  -1  -2   1 50.0452 4.62323   1
   0   2  -1 3.79395 1.05044   2
   0  -2   1 5.69876 1.42663   1
   0  -2   1 5.19678 0.62472   4
   0  -2   1 4.41930 1.28127   3
  -1   2  -1 158.500 9.15007   2
  -1   2  -1 157.389 8.27014   4
   1  -2   1 167.015 9.77340   1
   1  -2   1 154.797 10.3052   3
  -2   2  -1 1760.37 90.7833   2
  -2   2  -1 1902.21 90.1199   4
   2  -2   1 1842.29 92.7683   1
   2  -2   1 1783.02 93.6682   3
  -3   2  -1 174.639 10.0764   4
  -3   2  -1 171.076 10.5462   2
   3  -2   1 182.598 15.6407   3
  -4   2  -1 388.872 21.1147   4
  -4   2  -1 372.936 21.4036   2
   4  -2   1 434.856 35.0850   3
  -5   2  -1 251.370 14.7138   4
  -5   2  -1 250.789 14.9296   2
  -6   2  -1 4.71461 2.02221   2
  -6   2  -1 1.99706 1.15097   4
   6  -2   1 3.48605 4.37720   3
  -7   2  -1 1.60896 1.80285   4
   7  -2   1 0.16421 2.49799   3
   8  -2   1 99.9747 16.3607   3
   8   1  -1 79.9058 15.7390   3
  -8  -1   1 59.9216 6.67361   4
   7   1  -1 374.003 34.3243   3
  -7  -1   1 326.447 20.6931   4
   6   1  -1 100.269 16.3384   3
  -6  -1   1 88.3622 7.34544   4
  -6  -1   1 83.2041 9.44652   1
   5   1  -1 84.4049 13.7590   3
  -5  -1   1 94.8901 6.34492   2
  -5  -1   1 107.550 10.0989   1
  -5  -1   1 93.8565 7.36709   4
   4   1  -1 1.77549 2.61224   3
  -4  -1   1 -0.1525 1.00655   4
  -4  -1   1 1.08272 1.63518   1
  -4  -1   1 5.83722 1.10161   2
   3   1  -1 326.533 22.2937   3
   3   1  -1 368.703 18.3828   2
  -3  -1   1 349.882 21.2803   1
  -3  -1   1 367.228 18.2337   2
  -3  -1   1 355.818 19.1105   4
   2   1  -1 964.606 46.0731   2
   2   1  -1 881.036 48.0964   3
  -2  -1   1 925.848 46.4926   4
  -2  -1   1 964.657 45.9767   2
  -2  -1   1 908.740 48.3279   1
   1   1  -1 2870.26 141.505   3
   1   1  -1 2861.93 140.711   2
  -1  -1   1 2933.26 140.871   4
  -1  -1   1 2830.91 142.385   1
   0   1  -1 533.512 26.7297   3
   0   1  -1 489.265 26.1807   2
   0  -1   1 550.950 26.0525   4
   0  -1   1 507.523 26.5704   3
   0  -1   1 548.938 27.3273   1
  -1   1  -1 422.670 21.6541   4
  -1   1  -1 427.312 22.0381   2
   1  -1   1 469.918 23.6159   3
   1  -1   1 423.076 21.9276   4
  -2   1  -1 600.992 28.9520   4
  -2   1  -1 560.009 29.0781   2
   2  -1   1 477.309 31.4096   1
   2  -1   1 656.939 33.8431   3
  -3   1  -1 -0.1909 0.66665   2
  -3   1  -1 -0.0570 0.65134   4
   3  -1   1 1.31003 3.93624   3
   3  -1   1 -0.6314 0.88973   1
  -4   1  -1 23.4637 3.22544   1
  -4   1  -1 22.4812 2.69802   4
  -4   1  -1 23.4770 2.53934   2
   4  -1   1 15.6682 5.92255   3
  -5   1  -1 441.311 23.4125   4
  -5   1  -1 434.762 23.0655   2
   5  -1   1 389.224 31.5165   3
  -6   1  -1 534.004 27.4109   2
  -6   1  -1 525.193 27.7719   4
   6  -1   1 436.983 36.3353   3
  -7   1  -1 286.625 16.7889   4
   7  -1   1 247.568 25.6451   3
  -8   1  -1 121.086 9.04932   4
   8  -1   1 87.9618 15.4492   3
   8   0  -1 53.4582 12.0416   3
  -8   0   1 37.4172 5.14479   4
   7   0  -1 65.3816 13.4043   3
  -7   0   1 59.2718 6.06357   4
   6   0  -1 79.7115 13.9030   3
  -6   0   1 74.7648 6.75456   4
   5   0  -1 218.241 21.6441   3
  -5   0   1 198.278 12.5142   4
  -5   0   1 188.377 11.5108   2
  -5   0   1 186.966 14.2571   1
   4   0  -1 988.816 63.4127   3
  -4   0   1 1032.98 52.9019   2
  -4   0   1 1064.20 53.7854   4
  -4   0   1 1089.86 56.0735   1
   3   0  -1 531.581 36.8673   3
  -3   0   1 571.255 30.0862   1
  -3   0   1 545.832 27.8060   2
  -3   0   1 515.965 28.2598   4
   2   0  -1 1227.11 75.4992   3
  -2   0   1 1325.68 68.4334   4
  -2   0   1 1437.44 69.7207   1
  -2   0   1 1501.10 68.2750   2
   1   0  -1 16.7940 3.35879   3
  -1   0   1 14.0157 1.26338   4
  -1   0   1 13.7772 1.71343   1
  -1   0   1 13.1803 1.16961   2
   0   0  -1 4.23508 0.51997   2
   0   0   1 4.71391 0.50425   4
   0   0   1 5.54531 0.88125   1
   0   0   1 5.38764 0.54916   2
  -1   0  -1 7.61263 0.71275   2
  -1   0  -1 9.90033 0.84825   4
   1   0   1 8.36227 2.17297   1
   1   0   1 8.65028 1.07429   4
   1   0   1 20.7602 6.21266   3
  -2   0  -1 2724.24 141.781   2
  -2   0  -1 2772.72 142.073   4
   2   0   1 3212.52 150.888   3
  -3   0  -1 294.680 16.6282   4
  -3   0  -1 321.339 16.2418   2
  -3   0  -1 313.586 18.0958   1
   3   0   1 296.917 23.1074   3
  -4   0  -1 406.012 22.0182   4
  -4   0  -1 416.385 23.8663   1
  -4   0  -1 429.070 21.4707   2
   4   0   1 364.772 28.9947   3
  -5   0  -1 665.746 35.0606   4
  -5   0  -1 676.245 37.2965   1
  -5   0  -1 662.338 34.2292   2
   5   0   1 650.868 44.2972   3
  -6   0  -1 0.98207 1.18120   2
  -6   0  -1 0.97309 1.64765   1
  -6   0  -1 4.82837 1.95252   4
   6   0   1 1.26310 3.04184   3
  -7   0  -1 10.9602 2.36353   4
   7   0   1 8.49229 5.38266   3
  -8   0  -1 74.8667 6.94184   4
   8   0   1 71.3252 13.9871   3
  -9   0  -1 154.837 11.5945   4
   9   0   1 154.913 21.3943   3
   8  -1  -1 29.2959 10.7634   3
  -8   1   1 33.3145 4.74290   4
   7  -1  -1 261.856 26.8940   3
  -7   1   1 248.973 16.2286   4
   6  -1  -1 111.168 15.9651   3
  -6   1   1 114.772 8.84207   4
  -6   1   1 116.259 8.20318   2
   5  -1  -1 133.044 16.3974   3
  -5   1   1 130.916 8.84680   2
  -5   1   1 137.236 9.46558   4
   4  -1  -1 33.0132 7.95466   3
  -4   1   1 33.5951 3.63248   4
  -4   1   1 28.4419 3.23508   2
  -4   1   1 34.2976 4.18838   1
   3  -1  -1 139.299 15.8993   3
  -3   1   1 161.731 9.94470   1
  -3   1   1 149.991 9.22954   2
  -3   1   1 149.066 9.22356   4
  -2   1   1 536.494 26.4642   2
  -2   1   1 476.602 26.0709   4
  -2   1   1 521.576 26.4721   1
   1  -1  -1 3061.47 142.211   3
  -1   1   1 2707.96 140.251   4
  -1   1   1 2916.49 140.618   2
  -1   1   1 2764.58 141.865   1
   0  -1  -1 869.128 43.3953   3
   0   1   1 956.704 43.1782   2
   0   1   1 795.950 44.3519   1
   0   1   1 870.377 43.4752   3
   0   1   1 868.681 42.9055   4
  -1  -1  -1 370.906 18.0930   4
   1   1   1 363.624 18.3484   4
   1   1   1 369.039 17.8555   2
   1   1   1 341.580 18.8558   3
  -2  -1  -1 1247.08 64.4426   2
  -2  -1  -1 1417.93 67.3345   1
  -2  -1  -1 1334.45 65.2665   4
   2   1   1 1267.21 67.3295   3
  -3  -1  -1 53.9105 3.05290   2
  -3  -1  -1 45.9899 3.85877   4
  -3  -1  -1 52.4005 5.31879   1
   3   1   1 35.6182 6.07540   3
  -4  -1  -1 1.62570 0.62980   2
  -4  -1  -1 0.17908 1.06273   1
  -4  -1  -1 -0.5479 0.59615   4
   4   1   1 -0.3077 1.50201   1
   4   1   1 1.23543 2.91541   3
  -5  -1  -1 315.735 20.3557   1
  -5  -1  -1 292.220 17.5244   4
  -5  -1  -1 322.040 16.5138   2
   5   1   1 295.695 29.3337   3
  -6  -1  -1 671.375 39.1885   1
  -6  -1  -1 661.808 35.9137   4
   6   1   1 689.833 49.6097   3
  -7  -1  -1 365.578 20.0926   4
  -7  -1  -1 271.801 24.8440   1
   7   1   1 405.647 33.4861   3
  -8  -1  -1 220.621 14.9615   4
   8   1   1 252.090 26.7234   3
  -9  -1  -1 39.0548 5.23232   4
   9   1   1 43.4020 12.3767   3
   8  -2  -1 26.7145 10.3046   3
   7  -2  -1 0.76552 5.01153   3
  -7   2   1 3.95661 1.75412   4
   6  -2  -1 49.6994 10.6715   3
  -6   2   1 57.8408 5.31644   2
  -6   2   1 46.5567 5.21186   4
   5  -2  -1 63.8833 11.7975   3
  -5   2   1 70.7278 6.15154   2
  -5   2   1 85.4860 6.61413   4
   4  -2  -1 756.990 53.3016   3
  -4   2   1 740.070 39.5522   2
  -4   2   1 774.340 39.6963   4
   3  -2  -1 578.236 36.2610   3
  -3   2   1 509.301 27.7059   4
  -3   2   1 518.005 28.1560   2
   2  -2  -1 1152.90 60.0429   3
  -2   2   1 1104.79 56.7855   2
  -2   2   1 1114.72 55.9931   4
   1  -2  -1 217.214 13.7289   3
  -1   2   1 230.259 11.8288   4
  -1   2   1 241.075 12.7942   2
   0  -2  -1 9.56683 1.16937   1
   0  -2  -1 9.46090 1.65173   3
   0   2   1 11.3055 1.46589   2
   0   2   1 10.1139 1.78155   3
   0   2   1 7.98717 0.80190   4
  -1  -2  -1 206.157 10.5617   4
  -1  -2  -1 212.157 12.2429   1
   1   2   1 190.739 10.7877   4
   1   2   1 217.776 10.7302   2
   1   2   1 206.399 11.9697   3
  -2  -2  -1 2071.43 101.048   4
  -2  -2  -1 2101.85 103.611   1
   2   2   1 2107.07 100.239   2
   2   2   1 1908.87 102.433   3
  -3  -2  -1 557.669 28.3715   4
  -3  -2  -1 545.047 31.0944   1
   3   2   1 528.795 30.6750   3
  -4  -2  -1 307.715 17.7633   4
  -4  -2  -1 322.716 20.8974   1
  -4  -2  -1 332.018 15.9102   2
   4   2   1 311.044 21.8617   3
  -5  -2  -1 1208.63 54.4290   2
  -5  -2  -1 1088.22 60.2008   1
  -5  -2  -1 1077.83 56.3036   4
   5   2   1 984.511 63.7181   3
  -6  -2  -1 27.3033 5.02733   1
  -6  -2  -1 24.6450 3.44549   4
   6   2   1 12.3791 6.86220   3
  -7  -2  -1 31.7529 5.94439   1
  -7  -2  -1 27.1616 3.90881   4
   7   2   1 37.3917 12.4709   3
  -8  -2  -1 21.2596 3.87506   4
   8   2   1 30.7745 10.6169   3
  -9  -2  -1 174.743 13.3672   4
   9   2   1 249.582 27.8665   3
   7  -3  -1 92.1491 15.3211   3
   6  -3  -1 89.4769 14.9897   3
  -6   3   1 119.192 8.86589   2
   5  -3  -1 100.554 17.0983   3
  -5   3   1 124.038 9.00673   2
  -5   3   1 121.185 8.76247   4
   4  -3  -1 108.175 15.2505   3
  -4   3   1 78.2691 6.79443   2
  -4   3   1 88.9236 6.63658   4
   3  -3  -1 21.8935 5.17298   3
  -3   3   1 27.7689 3.43159   2
  -3   3   1 28.2311 2.75888   4
   2  -3  -1 122.936 10.6558   3
  -2   3   1 131.668 8.70608   2
  -2   3   1 140.184 7.61612   4
   1  -3  -1 1096.91 61.3755   3
  -1   3   1 1289.81 58.6192   4
  -1   3   1 1168.52 60.0902   2
   0  -3  -1 885.278 46.5285   1
   0  -3  -1 841.806 47.6638   3
   0   3   1 1049.76 45.6411   4
   0   3   1 919.754 46.9196   2
  -1  -3  -1 282.355 16.3239   3
  -1  -3  -1 300.292 14.6106   4
  -1  -3  -1 279.581 16.4541   1
   1   3   1 281.840 16.7294   3
   1   3   1 295.401 15.3482   2
  -2  -3  -1 1391.73 66.4236   4
  -2  -3  -1 1339.65 69.0243   1
   2   3   1 1383.53 65.9014   2
   2   3   1 1223.47 68.1088   3
  -3  -3  -1 209.528 14.9312   1
  -3  -3  -1 213.357 12.0626   4
   3   3   1 200.314 13.7963   3
   3   3   1 215.809 10.4954   2
  -4  -3  -1 17.3743 3.97438   1
  -4  -3  -1 18.1992 2.36779   4
   4   3   1 16.4410 3.54336   3
  -5  -3  -1 112.883 11.3726   1
  -5  -3  -1 117.447 8.30817   4
   5   3   1 125.500 12.3128   3
  -6  -3  -1 653.524 35.4312   4
  -6  -3  -1 660.899 40.4357   1
   6   3   1 660.089 43.6430   3
  -7  -3  -1 431.579 28.5624   1
  -7  -3  -1 424.855 23.2904   4
   7   3   1 306.598 32.1823   3
  -8  -3  -1 283.815 22.9597   1
  -8  -3  -1 305.535 18.6894   4
   8   3   1 304.973 34.5935   3
  -9  -3  -1 63.3304 7.01165   4
   9   3   1 99.3848 19.8616   3
   6  -4  -1 2.33325 5.85007   3
  -6   4   1 14.2814 3.34093   2
   5  -4  -1 9.43123 8.15910   3
   4  -4  -1 341.757 29.4803   3
  -4   4   1 355.553 20.6817   2
   3  -4  -1 367.221 25.8646   3
  -3   4   1 361.709 20.9717   2
   2  -4  -1 591.329 35.4733   3
  -2   4   1 598.598 32.5239   2
  -2   4   1 622.254 30.6542   4
   1  -4  -1 353.638 22.7378   3
  -1   4   1 418.259 19.1738   4
  -1   4   1 354.164 21.0343   2
   0  -4  -1 24.7629 3.58913   3
   0  -4  -1 22.6078 2.43814   1
   0   4   1 22.7992 1.33589   4
   0   4   1 27.6374 2.98456   2
  -1  -4  -1 164.863 11.1316   3
  -1  -4  -1 168.334 10.9699   1
   1   4   1 169.617 11.6080   3
   1   4   1 166.286 10.0118   2
  -2  -4  -1 647.450 35.8038   1
  -2  -4  -1 688.902 32.8086   4
   2   4   1 657.497 32.9931   2
   2   4   1 590.878 35.2245   3
  -3  -4  -1 600.000 35.2325   1
  -3  -4  -1 660.391 31.7247   4
   3   4   1 569.970 33.9937   3
  -4  -4  -1 217.193 12.4351   4
  -4  -4  -1 213.969 16.4212   1
   4   4   1 189.180 14.6234   3
  -5  -4  -1 1067.92 61.3542   1
  -5  -4  -1 1070.34 55.6279   4
   5   4   1 1101.09 60.3319   3
  -6  -4  -1 114.916 12.7064   1
  -6  -4  -1 128.991 9.17054   4
   6   4   1 133.664 13.8008   3
  -7  -4  -1 51.2254 5.46302   4
  -7  -4  -1 60.6874 9.27764   1
   7   4   1 51.7761 9.78183   3
  -8  -4  -1 0.12318 1.57438   4
  -8  -4  -1 1.52647 2.30346   1
   8   4   1 -0.1302 5.28763   3
  -9  -4  -1 150.978 12.0428   4
  -9  -4  -1 165.529 16.8704   1
   9   4   1 163.704 25.9029   3
   6  -5  -1 26.6960 11.4774   3
   5  -5  -1 96.5694 19.6773   3
  -5   5   1 88.2543 7.81358   2
   4  -5  -1 96.7279 14.0828   3
  -4   5   1 90.9980 7.96494   2
   3  -5  -1 -0.6118 2.84101   3
  -3   5   1 2.96443 1.94803   2
   2  -5  -1 20.4417 4.40555   3
  -2   5   1 18.2222 3.30378   2
   1  -5  -1 426.170 25.7397   3
  -1   5   1 394.404 23.0968   2
   0  -5  -1 572.374 32.9854   3
   0   5   1 583.564 31.2183   2
  -1  -5  -1 219.794 14.2684   1
  -1  -5  -1 220.312 14.9675   3
   1   5   1 234.428 15.5612   3
   1   5   1 232.680 13.6502   2
  -2  -5  -1 792.366 43.0906   3
  -2  -5  -1 781.755 43.7280   1
   2   5   1 794.867 43.8400   3
   2   5   1 824.443 41.1652   2
  -3  -5  -1 303.024 16.3452   4
  -3  -5  -1 325.351 20.7914   1
   3   5   1 301.664 16.2233   2
   3   5   1 286.836 19.4756   3
  -4  -5  -1 51.7261 4.32992   4
  -4  -5  -1 47.0905 6.85949   1
   4   5   1 46.7926 6.03580   3
  -5  -5  -1 14.5705 4.29827   1
  -5  -5  -1 14.8298 2.66391   4
   5   5   1 16.7140 4.06398   3
  -6  -5  -1 397.388 29.3731   1
  -6  -5  -1 400.164 23.0434   4
   6   5   1 406.427 28.2387   3
  -7  -5  -1 387.653 29.6123   1
  -7  -5  -1 378.918 22.9086   4
   7   5   1 409.318 30.3179   3
  -8  -5  -1 314.286 25.8373   1
  -8  -5  -1 269.114 18.8742   4
   8   5   1 356.313 30.0672   3
  -9  -5  -1 103.226 8.96221   4
   9   5   1 83.0754 17.3739   3
   5  -6  -1 7.66596 8.81806   3
  -5   6   1 5.58500 2.59448   2
   4  -6  -1 96.9657 15.2137   3
  -4   6   1 124.878 9.61572   2
   3  -6  -1 197.536 19.1924   3
  -3   6   1 242.434 15.0414   2
   2  -6  -1 294.030 22.0625   3
  -2   6   1 296.699 18.2627   2
   1  -6  -1 328.415 22.6709   3
  -1   6   1 329.824 19.7916   2
   0  -6  -1 56.8152 7.02899   3
   0   6   1 53.2995 5.31315   2
  -1  -6  -1 127.243 10.5211   3
  -1  -6  -1 104.140 8.83030   1
   1   6   1 126.422 10.8278   3
   1   6   1 117.640 8.61627   2
  -2  -6  -1 88.2427 8.48481   1
  -2  -6  -1 95.3528 8.58759   3
   2   6   1 103.639 7.28570   2
   2   6   1 89.5444 8.90614   3
  -3  -6  -1 396.520 24.0190   3
  -3  -6  -1 407.997 25.7175   1
   3   6   1 369.765 20.9785   2
   3   6   1 389.449 24.8798   3
  -4  -6  -1 144.162 13.2301   1
  -4  -6  -1 126.780 8.42675   4
   4   6   1 145.443 12.3119   3
  -5  -6  -1 678.487 42.8719   1
  -5  -6  -1 666.096 35.8696   4
   5   6   1 688.706 40.8162   3
  -6  -6  -1 204.796 19.3971   1
  -6  -6  -1 188.062 12.9736   4
   6   6   1 212.053 17.8110   3
  -7  -6  -1 65.3524 6.65308   4
  -7  -6  -1 70.0379 11.3087   1
   7   6   1 74.5274 10.8897   3
  -8  -6  -1 19.2337 6.70261   1
  -8  -6  -1 16.8620 3.69326   4
   8   6   1 22.2301 7.78493   3
  -9  -6  -1 79.1456 7.82431   4
   9   6   1 85.3138 14.9141   3
   4  -7  -1 53.8806 12.1874   3
  -4   7   1 67.8670 7.02236   2
   3  -7  -1 9.13002 5.81043   3
  -3   7   1 7.59978 3.13252   2
   2  -7  -1 3.63123 3.26744   3
  -2   7   1 -0.4207 1.23395   2
   1  -7  -1 113.575 11.9784   3
  -1   7   1 113.328 9.29431   2
   0  -7  -1 289.119 20.7336   3
   0   7   1 275.352 17.7065   2
  -1  -7  -1 152.519 13.0778   3
   1   7   1 150.870 10.9516   2
  -2  -7  -1 408.307 26.2780   3
  -2  -7  -1 384.459 25.6541   1
   2   7   1 446.752 27.3930   3
   2   7   1 434.266 23.9840   2
  -3  -7  -1 278.114 20.6970   1
  -3  -7  -1 294.874 19.9313   3
   3   7   1 297.990 16.9044   2
   3   7   1 292.773 20.7355   3
  -4  -7  -1 72.4342 8.03877   3
  -4  -7  -1 70.0451 9.14835   1
   4   7   1 80.2290 9.19380   3
  -5  -7  -1 1.07235 2.21335   1
   5   7   1 1.44510 2.61713   3
  -6  -7  -1 163.709 17.6663   1
  -6  -7  -1 170.308 11.4070   4
   6   7   1 170.420 16.0717   3
  -7  -7  -1 240.502 15.9976   4
  -7  -7  -1 248.087 23.6279   1
   7   7   1 259.531 22.1625   3
  -8  -7  -1 203.208 22.2110   1
  -8  -7  -1 220.593 15.2744   4
   8   7   1 248.063 22.9163   3
  -9  -7  -1 102.908 9.54638   4
   9   7   1 109.302 16.8091   3
   3  -8  -1 102.086 14.5972   3
  -3   8   1 93.1451 8.99154   2
   2  -8  -1 132.300 15.2906   3
  -2   8   1 124.648 10.4841   2
   1  -8  -1 193.825 17.6456   3
  -1   8   1 190.815 13.9103   2
   0  -8  -1 77.3458 9.76338   3
   0   8   1 76.9213 7.66075   2
  -1  -8  -1 83.4375 9.69875   3
   1   8   1 81.5229 7.92041   2
  -2  -8  -1 5.53582 3.33787   3
   2   8   1 1.72756 2.62846   3
   2   8   1 5.81915 2.23422   2
  -3  -8  -1 178.340 14.5084   3
  -3  -8  -1 145.304 13.8928   1
   3   8   1 169.736 14.9185   3
  -4  -8  -1 82.5209 10.4079   1
  -4  -8  -1 71.2153 8.48973   3
   4   8   1 79.4848 9.55881   3
  -5  -8  -1 323.201 25.8100   1
  -5  -8  -1 314.263 22.6591   3
   5   8   1 344.402 24.6760   3
  -6  -8  -1 193.727 19.7090   1
   6   8   1 208.541 18.6160   3
  -7  -8  -1 55.0705 10.7450   1
   7   8   1 59.5103 10.0867   3
  -8  -8  -1 42.9044 10.2152   1
   8   8   1 49.6094 10.2673   3
   1  -9  -1 11.9400 5.49082   3
  -1   9   1 12.4670 3.84665   2
   0  -9  -1 100.345 12.4235   3
   0   9   1 83.1161 8.69584   2
  -1  -9  -1 67.8533 9.42137   3
   1   9   1 72.8268 7.53484   2
  -2  -9  -1 183.113 16.4118   3
   2   9   1 172.416 13.1840   2
  -3  -9  -1 197.738 17.0592   3
   3   9   1 199.900 17.6987   3
  -4  -9  -1 67.4649 9.84052   1
  -4  -9  -1 74.5690 9.43987   3
   4   9   1 73.0308 9.75214   3
  -5  -9  -1 16.6995 5.66910   1
  -5  -9  -1 12.6649 4.58460   3
   5   9   1 11.3424 4.23539   3
  -6  -9  -1 44.5739 7.47430   3
  -6  -9  -1 41.2788 9.07392   1
   6   9   1 41.8428 8.23773   3
  -7  -9  -1 115.768 15.6424   1
   7   9   1 100.904 13.2015   3
  -1 -10  -1 56.6273 9.40988   3
   1  10   1 55.4639 7.16527   2
  -2 -10  -1 2.02705 3.51850   3
  -3 -10  -1 35.4026 7.45839   3
  -4 -10  -1 26.7165 6.80178   3
   4  10   1 36.9702 7.18873   3
  -5 -10  -1 122.686 14.7741   1
  -5 -10  -1 113.012 12.8268   3
   5  10   1 115.240 13.8092   3
  -6 -10  -1 135.018 16.5590   1
  -6 -10  -1 138.250 14.5901   3
   6  10   1 153.089 16.3812   3
  -5  -9   2 196.599 20.7303   1
   4   9  -2 34.1858 7.20772   3
  -4  -9   2 35.1343 8.05045   1
  -3  -9   2 1.98662 2.96766   3
  -3  -9   2 4.55009 3.57120   1
  -2  -9   2 16.5590 5.42347   3
   1   9  -2 40.9966 6.23344   2
  -1  -9   2 56.9186 9.03245   3
   0   9  -2 80.8349 8.80533   2
   0  -9   2 92.7020 11.7068   3
  -6  -8   2 2.81912 4.50810   1
  -5  -8   2 118.966 14.7393   1
   4   8  -2 103.566 11.3643   3
  -4  -8   2 91.9175 12.3820   1
  -4  -8   2 97.0132 10.5295   3
   3   8  -2 297.119 22.1231   3
  -3  -8   2 294.267 23.3380   1
  -3  -8   2 296.881 21.5950   3
   2   8  -2 241.005 17.5283   2
  -2  -8   2 251.856 20.4116   1
  -2  -8   2 288.090 20.4465   3
   1   8  -2 123.613 10.4946   2
  -1  -8   2 121.752 12.4597   3
   0   8  -2 48.2682 5.94823   2
   0  -8   2 51.2167 8.22070   3
  -1   8  -2 3.00917 2.28001   2
   1  -8   2 0.56335 3.12469   3
  -2   8  -2 20.2871 4.27175   2
   2  -8   2 16.9322 5.72788   3
  -7  -7   2 63.5138 12.3261   1
  -6  -7   2 312.239 27.4234   1
   5   7  -2 501.752 32.7091   3
  -5  -7   2 503.601 36.2283   1
  -5  -7   2 511.884 31.5932   3
   4   7  -2 126.756 11.9811   3
  -4  -7   2 107.692 13.0910   1
  -4  -7   2 127.449 11.2411   3
   3   7  -2 31.7610 5.66836   3
  -3  -7   2 29.3766 5.20278   3
  -3  -7   2 21.7875 5.28486   1
   2   7  -2 7.09307 3.01831   2
  -2  -7   2 9.07449 3.80551   1
  -2  -7   2 18.8698 4.21407   3
   1   7  -2 63.6626 6.68989   2
  -1  -7   2 68.3323 8.31021   1
  -1  -7   2 78.8066 8.76472   3
   0   7  -2 153.440 11.7920   2
   0  -7   2 158.258 14.0117   3
  -1   7  -2 235.498 15.5796   2
   1  -7   2 216.159 18.3352   3
  -2   7  -2 146.182 11.2229   2
   2  -7   2 133.108 14.2559   3
  -3   7  -2 121.660 10.0945   2
   3  -7   2 110.306 14.5014   3
  -4   7  -2 9.53339 2.71166   2
   4  -7   2 5.64290 6.35360   3
  -8  -6   2 94.0872 14.8298   1
  -8  -6   2 92.2316 9.03200   4
  -7  -6   2 61.4172 6.38458   4
  -7  -6   2 61.0416 11.4582   1
   6   6  -2 7.47363 4.09640   3
  -6  -6   2 3.37883 1.77087   4
  -6  -6   2 6.40942 4.53461   1
   5   6  -2 137.947 13.1524   3
  -5  -6   2 151.576 9.98315   4
  -5  -6   2 161.732 16.3985   1
   4   6  -2 120.440 11.0265   3
  -4  -6   2 120.569 13.0354   1
  -4  -6   2 116.547 10.2713   3
   3   6  -2 403.416 24.2770   2
   3   6  -2 443.361 27.1878   3
  -3  -6   2 436.466 26.3682   3
  -3  -6   2 451.647 29.5212   1
   2   6  -2 559.887 33.7054   3
   2   6  -2 568.076 31.3454   2
  -2  -6   2 578.569 33.2608   3
  -2  -6   2 583.522 35.3122   1
   1   6  -2 283.503 17.3083   2
  -1  -6   2 280.933 19.6579   1
  -1  -6   2 284.972 19.1160   3
   0   6  -2 228.691 14.8148   2
   0  -6   2 220.400 16.0534   1
   0  -6   2 230.829 16.7459   3
  -1   6  -2 3.64972 1.92573   2
   1  -6   2 4.43514 3.01179   3
  -2   6  -2 9.32945 2.73536   2
   2  -6   2 8.84366 4.08737   3
  -3   6  -2 77.2441 7.33706   2
   3  -6   2 81.9855 11.0198   3
  -4   6  -2 194.527 13.6666   2
  -5   6  -2 69.4479 7.05228   2
  -8  -5   2 129.253 16.3554   1
  -8  -5   2 119.297 10.4932   4
  -7  -5   2 62.7552 11.1913   1
  -7  -5   2 63.3316 6.80018   4
   6   5  -2 313.451 23.3373   3
  -6  -5   2 327.464 26.8345   1
  -6  -5   2 334.789 19.6449   4
   5   5  -2 961.757 54.5822   3
  -5  -5   2 968.784 58.1556   1
  -5  -5   2 985.457 50.5128   4
   4   5  -2 279.181 18.9098   3
  -4  -5   2 276.225 15.6026   4
  -4  -5   2 265.850 20.9926   1
   3   5  -2 156.978 11.9014   3
   3   5  -2 143.934 9.44821   2
  -3  -5   2 153.622 11.1637   3
  -3  -5   2 138.546 8.74125   4
  -3  -5   2 153.914 13.5911   1
   2   5  -2 -0.1275 1.30250   3
   2   5  -2 -0.0688 0.93502   2
  -2  -5   2 0.75661 1.31511   1
  -2  -5   2 -0.2883 1.14612   3
  -2  -5   2 0.96278 0.56194   4
   1   5  -2 81.2671 6.33615   2
  -1  -5   2 73.0120 7.12617   3
  -1  -5   2 79.1533 8.06714   1
   0   5  -2 192.689 11.8960   2
   0  -5   2 178.489 13.2429   3
   0  -5   2 175.412 13.1432   1
  -1   5  -2 517.959 27.9810   2
   1  -5   2 480.188 28.9075   1
   1  -5   2 510.477 30.5010   3
  -2   5  -2 287.661 17.1937   2
   2  -5   2 268.198 20.0389   3
  -3   5  -2 310.488 19.0750   2
   3  -5   2 323.266 24.2451   3
  -4   5  -2 67.8279 6.54255   2
  -5   5  -2 -0.6084 1.61451   2
   5  -5   2 1.87273 5.58738   3
  -6   5  -2 -1.2946 1.58834   2
   6  -5   2 -1.7626 3.56758   3
  -8  -4   2 153.879 12.1215   4
  -8  -4   2 148.284 17.0221   1
   7   4  -2 116.899 14.3513   3
  -7  -4   2 109.637 9.44718   4
  -7  -4   2 107.539 13.9408   1
   6   4  -2 69.7174 9.27863   3
  -6  -4   2 67.7285 10.3829   1
  -6  -4   2 64.8890 6.28049   4
   5   4  -2 112.335 11.1609   3
  -5  -4   2 131.172 13.7705   1
  -5  -4   2 138.680 9.17181   4
   4   4  -2 114.279 9.91896   3
  -4  -4   2 115.268 11.6205   1
  -4  -4   2 111.018 7.62074   4
   3   4  -2 503.512 29.0268   3
   3   4  -2 502.444 26.3917   2
  -3  -4   2 522.908 31.5394   1
  -3  -4   2 496.320 26.3577   4
   2   4  -2 1056.05 55.1543   3
   2   4  -2 1015.63 52.9495   2
  -2  -4   2 1055.28 57.1593   1
  -2  -4   2 1063.85 54.5208   3
  -2  -4   2 1049.45 52.3581   4
   1   4  -2 517.993 29.1433   2
   1   4  -2 564.908 31.0971   3
  -1  -4   2 529.716 30.4552   3
  -1  -4   2 609.356 28.2453   4
  -1  -4   2 563.460 32.2080   1
   0   4  -2 690.834 36.3452   2
   0  -4   2 678.053 37.8647   3
   0  -4   2 728.153 38.5916   1
   0  -4   2 690.009 34.7249   4
  -1   4  -2 54.4583 4.77967   2
   1  -4   2 50.8783 5.96211   3
   1  -4   2 53.5474 5.54874   1
  -2   4  -2 0.37434 1.28020   2
   2  -4   2 0.61358 1.08676   1
   2  -4   2 1.08878 1.92114   3
  -3   4  -2 54.6513 5.15798   2
   3  -4   2 55.2206 8.25422   3
  -4   4  -2 418.070 23.9154   2
   4  -4   2 428.814 33.0964   3
  -5   4  -2 136.142 10.0493   2
   5  -4   2 153.191 22.9235   3
  -6   4  -2 157.004 11.1353   2
  -7   4  -2 71.0840 6.60024   2
   7  -4   2 56.2595 13.1313   3
  -8  -3   2 87.0380 8.57319   4
   7   3  -2 63.6388 11.3269   3
  -7  -3   2 72.8103 10.7304   1
  -7  -3   2 68.8323 7.16827   4
   6   3  -2 223.967 19.7283   3
  -6  -3   2 262.265 21.2244   1
  -6  -3   2 237.081 15.5686   4
   5   3  -2 1389.03 76.0073   3
  -5  -3   2 1429.70 71.9977   4
  -5  -3   2 1405.58 78.2182   1
   4   3  -2 474.065 29.2155   3
   4   3  -2 488.291 25.7709   2
  -4  -3   2 516.246 26.8307   4
  -4  -3   2 525.539 31.8394   1
   3   3  -2 337.444 17.9680   2
   3   3  -2 335.518 20.3473   3
  -3  -3   2 354.590 18.5110   4
  -3  -3   2 342.077 22.4509   1
   2   3  -2 53.2531 4.97125   3
   2   3  -2 57.0211 3.92668   2
  -2  -3   2 52.9879 6.20147   1
  -2  -3   2 56.4060 3.81923   4
   1   3  -2 59.4091 4.29399   2
   1   3  -2 59.4473 5.21783   3
  -1  -3   2 63.3661 3.86104   4
  -1  -3   2 63.9781 5.04925   3
  -1  -3   2 59.9391 6.06857   1
   0   3  -2 123.460 7.97286   2
   0  -3   2 126.710 8.99103   3
   0  -3   2 125.887 9.62683   1
   0  -3   2 152.466 7.41507   4
  -1   3  -2 727.448 38.5747   4
  -1   3  -2 796.363 40.0849   2
   1  -3   2 865.764 41.9699   1
   1  -3   2 827.095 42.2137   3
   1  -3   2 697.157 38.8520   4
  -2   3  -2 560.029 28.2435   4
  -2   3  -2 526.159 29.4197   2
   2  -3   2 589.397 31.6233   1
   2  -3   2 554.336 32.5789   3
  -3   3  -2 616.329 32.7637   2
  -3   3  -2 635.377 31.5858   4
   3  -3   2 667.405 38.6473   3
   3  -3   2 550.051 35.6032   1
  -4   3  -2 321.933 18.9950   2
   4  -3   2 349.767 28.9215   3
  -5   3  -2 0.93448 1.51704   2
   5  -3   2 2.02889 5.18514   3
  -6   3  -2 10.5777 2.50721   2
   6  -3   2 -0.1411 3.86603   3
  -7   3  -2 26.5173 3.86384   2
   7  -3   2 30.9397 9.63583   3
  -8  -2   2 216.050 15.3693   4
   7   2  -2 114.637 17.2189   3
  -7  -2   2 116.168 13.0928   1
  -7  -2   2 129.026 10.1407   4
   6   2  -2 162.509 18.3714   3
  -6  -2   2 194.658 17.0335   1
  -6  -2   2 194.313 12.9723   4
   5   2  -2 47.6729 7.78610   3
  -5  -2   2 48.6930 7.71092   1
  -5  -2   2 50.2833 5.15746   4
   4   2  -2 91.3919 5.77995   2
   4   2  -2 78.1626 8.33716   3
  -4  -2   2 93.2692 6.53640   4
  -4  -2   2 90.6108 9.41877   1
   3   2  -2 391.616 23.3978   3
   3   2  -2 432.848 21.1433   2
  -3  -2   2 403.274 21.6619   4
  -3  -2   2 400.278 25.0097   1
   2   2  -2 1638.68 82.7495   3
   2   2  -2 1705.79 81.3213   2
  -2  -2   2 1588.21 84.6163   1
  -2  -2   2 1641.43 81.5138   4
   1   2  -2 889.300 46.9145   2
   1   2  -2 961.636 47.8943   3
  -1  -2   2 960.120 47.5294   3
  -1  -2   2 962.283 46.8260   4
  -1  -2   2 930.672 49.6378   1
   0   2  -2 1640.07 88.0634   2
   0  -2   2 1764.05 88.9486   3
   0  -2   2 1945.87 87.8408   4
   0  -2   2 1779.08 90.2582   1
  -1   2  -2 308.533 16.9340   2
   1  -2   2 300.238 16.4080   4
   1  -2   2 324.999 18.5765   3
   1  -2   2 347.640 18.7961   1
  -2   2  -2 12.6642 1.31211   4
  -2   2  -2 9.36799 1.55961   2
   2  -2   2 14.4607 2.83143   1
   2  -2   2 12.7653 3.20560   3
  -3   2  -2 2.41836 1.06352   2
  -3   2  -2 2.72668 1.03329   4
   3  -2   2 4.81432 3.16109   3
   3  -2   2 3.30851 2.30088   1
  -4   2  -2 648.239 34.5452   4
  -4   2  -2 611.182 34.9017   2
   4  -2   2 822.355 51.4556   3
  -5   2  -2 243.721 13.3921   4
  -5   2  -2 226.323 13.5330   2
   5  -2   2 181.960 20.9731   3
  -6   2  -2 232.980 13.4317   4
  -6   2  -2 215.808 13.3768   2
   6  -2   2 185.749 21.1788   3
  -7   2  -2 200.872 12.6776   2
   7  -2   2 126.251 17.6976   3
   8  -2   2 15.7810 7.34887   3
   8   1  -2 20.0300 9.03658   3
  -8  -1   2 31.7388 4.75474   4
   7   1  -2 61.4404 13.6730   3
  -7  -1   2 68.0007 6.91863   4
   6   1  -2 93.7136 15.7183   3
  -6  -1   2 95.4120 8.14215   4
  -6  -1   2 105.174 11.1313   1
  -5  -1   2 1346.79 71.1587   2
  -5  -1   2 1516.54 72.8806   4
  -5  -1   2 1394.65 76.7184   1
   4   1  -2 881.375 40.8439   2
   4   1  -2 661.185 45.9475   3
  -4  -1   2 769.795 40.1894   2
  -4  -1   2 813.649 44.9150   1
  -4  -1   2 820.891 41.3341   4
   3   1  -2 584.351 28.1178   2
   3   1  -2 541.398 31.4303   3
  -3  -1   2 540.118 27.7646   2
  -3  -1   2 532.552 31.1296   1
  -3  -1   2 523.056 28.3671   4
   2   1  -2 344.054 17.0656   2
   2   1  -2 330.253 18.4182   3
  -2  -1   2 321.814 19.4627   1
  -2  -1   2 316.484 17.2292   4
  -2  -1   2 322.263 16.8731   2
   1   1  -2 20.9113 1.68178   2
   1   1  -2 20.1518 1.93285   3
  -1  -1   2 18.0857 1.65501   4
  -1  -1   2 20.5106 2.94112   1
   0   1  -2 27.7653 2.15329   2
   0  -1   2 29.2906 2.33146   3
   0  -1   2 30.8624 3.38884   1
   0  -1   2 30.8946 2.11806   4
  -1   1  -2 1080.99 58.6601   2
   1  -1   2 1190.44 60.2682   3
   1  -1   2 1289.31 60.9499   1
   1  -1   2 1181.65 58.7049   4
  -2   1  -2 910.041 49.4310   2
  -2   1  -2 911.812 49.1376   4
   2  -1   2 1122.68 54.8128   3
   2  -1   2 1100.96 53.6019   1
   2  -1   2 938.236 49.6721   4
  -3   1  -2 996.764 49.7953   4
  -3   1  -2 984.245 49.9062   2
  -4   1  -2 886.829 42.7920   4
  -4   1  -2 876.223 42.7334   2
   4  -1   2 707.158 50.2537   3
  -5   1  -2 25.4143 2.88779   2
  -5   1  -2 20.1361 3.49642   1
  -5   1  -2 23.9515 2.90843   4
   5  -1   2 17.3071 6.42874   3
  -6   1  -2 36.9237 3.83977   4
  -6   1  -2 37.6202 3.80791   2
   6  -1   2 25.3323 7.50618   3
  -7   1  -2 9.25385 2.08431   4
   7  -1   2 8.10736 5.24552   3
  -8   1  -2 89.7404 7.38779   4
   8  -1   2 76.0938 13.2898   3
   8   0  -2 255.424 27.5102   3
  -8   0   2 189.721 14.5822   4
   7   0  -2 157.122 20.7926   3
  -7   0   2 142.137 11.1543   4
   6   0  -2 276.910 27.2083   3
  -6   0   2 266.402 17.0662   4
   5   0  -2 1.71569 4.63294   3
  -5   0   2 2.86799 1.81093   4
  -5   0   2 1.39619 2.18523   1
  -5   0   2 5.22704 1.82952   2
   4   0  -2 34.7921 8.02683   3
  -4   0   2 56.8678 6.49563   1
  -4   0   2 57.8614 4.42402   2
  -4   0   2 55.9264 4.88919   4
   3   0  -2 150.987 16.7248   3
  -3   0   2 203.723 13.1199   1
  -3   0   2 180.383 11.0442   4
  -3   0   2 208.432 10.8969   2
  -2   0   2 1634.17 86.3924   4
  -2   0   2 1797.30 88.2943   1
  -2   0   2 1800.23 86.2892   2
   1   0  -2 1200.36 57.8534   2
   1   0  -2 1079.03 58.7749   3
  -1   0   2 1189.26 57.7166   2
  -1   0   2 1193.45 59.3658   1
  -1   0   2 1166.60 57.8034   4
   0   0  -2 2647.59 135.775   2
   0   0   2 2771.93 135.831   4
   0   0   2 2889.13 137.445   1
  -1   0  -2 1132.84 63.0666   2
   1   0   2 1317.20 67.9227   3
   1   0   2 1232.90 63.3958   4
   1   0   2 1457.00 66.2796   1
  -2   0  -2 57.6468 3.64633   4
  -2   0  -2 57.6400 3.51891   2
   2   0   2 56.8472 4.08848   4
   2   0   2 56.9655 6.95829   1
   2   0   2 68.3819 9.41934   3
  -3   0  -2 61.8701 4.36459   4
  -3   0  -2 68.3455 4.15598   2
   3   0   2 57.1475 8.41318   3
  -4   0  -2 761.086 36.7399   2
  -4   0  -2 733.278 37.2045   4
   4   0   2 645.117 44.3438   3
  -5   0  -2 341.786 18.7076   4
  -5   0  -2 337.784 17.9980   2
  -5   0  -2 327.606 20.8522   1
   5   0   2 312.541 25.8761   3
  -6   0  -2 219.715 16.1840   1
  -6   0  -2 236.418 13.4025   2
  -6   0  -2 254.145 14.4149   4
   6   0   2 218.919 21.6921   3
  -7   0  -2 380.594 21.7875   4
   7   0   2 375.370 31.6958   3
  -8   0  -2 36.2407 4.24817   4
   8   0   2 23.2051 8.43425   3
  -9   0  -2 85.3337 7.59637   4
   9   0   2 80.8334 14.5096   3
   8  -1  -2 1.75376 4.76631   3
  -8   1   2 2.11317 2.14501   4
   7  -1  -2 49.4738 12.4312   3
  -7   1   2 54.8041 6.08477   4
   6  -1  -2 22.0171 8.51291   3
  -6   1   2 21.1966 3.80837   4
  -6   1   2 24.8653 3.43271   2
   5  -1  -2 894.084 61.4229   3
  -5   1   2 1090.45 51.9791   4
  -5   1   2 954.523 50.8173   2
   4  -1  -2 838.487 55.3718   3
  -4   1   2 965.205 48.8024   1
  -4   1   2 899.819 46.2432   4
  -4   1   2 839.129 45.7687   2
   3  -1  -2 556.689 38.3334   3
  -3   1   2 575.386 30.1225   2
  -3   1   2 593.444 31.2480   1
  -3   1   2 568.752 30.0233   4
  -2   1   2 653.818 33.1721   2
  -2   1   2 674.802 33.9531   1
  -2   1   2 614.453 32.9528   4
   1  -1  -2 6.72245 1.94228   3
  -1   1   2 3.55408 0.83699   4
  -1   1   2 4.13129 1.14126   1
  -1   1   2 2.94195 0.97575   2
   0  -1  -2 9.30314 1.05117   3
   0   1   2 6.93865 0.91607   4
   0   1   2 8.45659 1.95568   1
   0   1   2 6.98923 0.93033   2
  -1  -1  -2 915.316 46.0833   2
   1   1   2 863.051 46.7343   3
   1   1   2 964.621 46.4943   4
   1   1   2 924.160 46.0517   2
   1   1   2 1012.06 51.0003   1
  -2  -1  -2 1211.91 59.4399   4
  -2  -1  -2 1171.64 58.9634   2
   2   1   2 1204.90 61.7573   3
   2   1   2 1213.11 59.9971   4
  -3  -1  -2 1123.98 55.2811   2
  -3  -1  -2 1153.15 56.1302   4
   3   1   2 1080.49 60.9255   3
  -4  -1  -2 1644.44 85.0563   4
  -4  -1  -2 1708.46 87.9208   1
  -4  -1  -2 1747.12 84.0927   2
  -5  -1  -2 113.249 9.99269   1
  -5  -1  -2 111.551 7.84957   4
   5   1   2 118.035 17.8363   3
  -6  -1  -2 77.2016 8.29486   1
  -6  -1  -2 73.0835 6.12748   4
   6   1   2 74.3197 13.2688   3
  -7  -1  -2 6.74868 2.30498   4
  -7  -1  -2 7.05904 3.07515   1
   7   1   2 3.30192 5.20790   3
  -8  -1  -2 106.673 8.49052   4
   8   1   2 112.401 16.4343   3
  -9  -1  -2 12.8359 3.24652   4
   9   1   2 24.7369 9.46151   3
   7  -2  -2 117.224 17.4895   3
  -7   2   2 121.972 9.70323   4
   6  -2  -2 201.814 23.2462   3
  -6   2   2 238.846 15.0790   4
  -6   2   2 224.840 14.1818   2
   5  -2  -2 21.5874 8.28052   3
  -5   2   2 25.1598 3.32501   2
  -5   2   2 28.1175 3.98960   4
   4  -2  -2 17.0769 6.73504   3
  -4   2   2 19.9047 2.97453   2
  -4   2   2 15.6170 2.55307   4
   3  -2  -2 43.3601 8.85939   3
  -3   2   2 37.3986 3.47678   4
  -3   2   2 37.7745 3.77055   2
   2  -2  -2 1033.57 55.2500   3
  -2   2   2 1040.25 51.5650   2
  -2   2   2 963.514 50.6766   4
   1  -2  -2 985.483 51.0145   3
  -1   2   2 1004.20 49.6590   2
  -1   2   2 963.474 48.9588   4
   0  -2  -2 2130.09 103.020   3
   0   2   2 1807.00 105.229   1
   0   2   2 2165.21 101.982   4
   0   2   2 2187.06 102.398   2
   1   2   2 1963.03 96.7966   2
   1   2   2 2025.48 97.0518   4
   1   2   2 1918.23 97.9617   3
  -2  -2  -2 166.881 8.44850   2
  -2  -2  -2 163.444 8.90904   4
   2   2   2 162.666 9.44256   4
   2   2   2 163.087 10.4940   3
   2   2   2 162.617 8.40522   2
  -3  -2  -2 283.237 14.5430   4
  -3  -2  -2 246.261 13.2740   2
  -3  -2  -2 282.963 17.4781   1
   3   2   2 267.454 17.0818   3
  -4  -2  -2 523.498 24.4718   2
  -4  -2  -2 487.392 29.2370   1
  -4  -2  -2 478.301 26.0575   4
   4   2   2 460.252 30.1150   3
  -5  -2  -2 410.650 26.3050   1
  -5  -2  -2 440.190 23.2468   4
   5   2   2 402.068 30.1474   3
  -6  -2  -2 178.855 14.5389   1
  -6  -2  -2 190.562 11.5619   4
   6   2   2 133.638 19.0588   3
  -7  -2  -2 550.087 35.2097   1
  -7  -2  -2 548.195 31.0486   4
   7   2   2 640.918 50.2266   3
  -8  -2  -2 73.5312 9.50678   1
  -8  -2  -2 78.5604 7.07686   4
   8   2   2 100.035 17.3511   3
  -9  -2  -2 136.078 10.7533   4
   9   2   2 154.430 21.5874   3
   7  -3  -2 8.20198 6.86590   3
   6  -3  -2 2.75704 3.80980   3
  -6   3   2 4.17338 2.15634   2
   5  -3  -2 427.683 38.3610   3
  -5   3   2 471.570 26.9861   2
  -5   3   2 525.099 27.4234   4
   4  -3  -2 995.822 63.2926   3
  -4   3   2 794.792 43.1992   4
  -4   3   2 772.151 43.6123   2
   3  -3  -2 504.573 32.4999   3
  -3   3   2 461.531 24.8559   4
  -3   3   2 450.325 25.8266   2
   2  -3  -2 664.663 37.8251   3
  -2   3   2 660.116 34.7867   2
  -2   3   2 652.547 33.5157   4
   1  -3  -2 73.2747 6.40148   3
  -1   3   2 71.7881 4.38444   4
  -1   3   2 65.2150 5.24175   2
   0  -3  -2 48.1505 3.82243   1
   0  -3  -2 51.1025 4.62863   3
   0   3   2 53.1289 3.25816   4
   0   3   2 51.3085 3.94355   2
  -1  -3  -2 297.958 16.9168   3
  -1  -3  -2 294.311 17.4498   1
   1   3   2 306.164 15.7840   2
   1   3   2 316.216 15.7023   4
   1   3   2 283.511 17.1928   3
  -2  -3  -2 1047.45 54.6910   1
  -2  -3  -2 1038.94 51.1982   4
   2   3   2 1001.81 51.7565   4
   2   3   2 955.591 53.1595   3
   2   3   2 1095.00 50.9517   2
  -3  -3  -2 855.959 46.0510   1
  -3  -3  -2 826.043 40.7890   2
  -3  -3  -2 831.145 42.0389   4
   3   3   2 844.626 40.7759   2
   3   3   2 787.468 44.3743   3
  -4  -3  -2 1908.31 92.3411   4
  -4  -3  -2 1851.43 96.5571   1
   4   3   2 1771.13 95.6731   3
  -5  -3  -2 336.847 18.5743   4
  -5  -3  -2 302.644 21.9163   1
   5   3   2 330.328 23.2670   3
  -6  -3  -2 119.717 11.8455   1
  -6  -3  -2 111.606 8.34845   4
   6   3   2 116.946 13.8853   3
  -7  -3  -2 58.4693 8.39961   1
  -7  -3  -2 63.1683 5.86497   4
   7   3   2 43.5316 11.4761   3
  -8  -3  -2 64.2250 6.33241   4
  -8  -3  -2 70.7340 9.66555   1
   8   3   2 80.7544 18.1482   3
  -9  -3  -2 15.0681 5.45177   1
  -9  -3  -2 21.4472 3.92407   4
   9   3   2 34.3552 13.2155   3
 -10  -3  -2 29.2036 4.83189   4
  10   3   2 54.2341 15.1974   3
   6  -4  -2 93.9961 17.1827   3
  -6   4   2 146.488 10.2965   2
   5  -4  -2 49.0623 12.4663   3
  -5   4   2 63.6888 6.29956   2
   4  -4  -2 -1.4505 4.58100   3
  -4   4   2 0.54152 1.86406   2
   3  -4  -2 -2.8857 2.30211   3
  -3   4   2 0.05878 0.82556   4
  -3   4   2 4.41596 1.64872   2
   2  -4  -2 343.954 22.9127   3
  -2   4   2 347.887 18.3609   4
  -2   4   2 353.714 20.1356   2
   1  -4  -2 535.209 32.1095   3
  -1   4   2 576.170 30.5051   2
  -1   4   2 587.539 28.7027   4
   0  -4  -2 958.967 54.3383   3
   0  -4  -2 1048.32 52.7013   1
   0   4   2 981.798 52.9683   2
   0   4   2 1164.70 51.8040   4
  -1  -4  -2 1553.97 73.9479   4
  -1  -4  -2 1494.21 76.3147   1
  -1  -4  -2 1489.90 76.6048   3
   1   4   2 1414.23 76.8692   3
   1   4   2 1593.62 74.3739   4
   1   4   2 1454.16 74.8728   2
  -2  -4  -2 299.413 14.8916   4
  -2  -4  -2 270.350 17.6877   1
   2   4   2 264.342 17.2678   3
   2   4   2 290.720 14.9303   2
  -3  -4  -2 370.568 18.8498   4
  -3  -4  -2 345.439 22.5055   1
   3   4   2 357.351 17.7847   2
   3   4   2 322.462 21.0646   3
  -4  -4  -2 95.4955 6.71464   4
  -4  -4  -2 90.7872 9.72743   1
   4   4   2 92.4160 8.91772   3
  -5  -4  -2 397.502 26.3866   1
  -5  -4  -2 369.677 21.2025   4
   5   4   2 366.602 25.1689   3
  -6  -4  -2 102.053 8.16030   4
  -6  -4  -2 112.534 12.1130   1
   6   4   2 122.706 12.9927   3
  -7  -4  -2 495.104 34.6292   1
  -7  -4  -2 533.252 29.4418   4
   7   4   2 558.712 38.9697   3
  -8  -4  -2 142.138 10.3421   4
  -8  -4  -2 125.574 14.0888   1
   8   4   2 120.648 18.9058   3
  -9  -4  -2 150.804 16.1126   1
  -9  -4  -2 145.496 11.4875   4
   9   4   2 179.755 27.6667   3
 -10  -4  -2 77.6576 8.01446   4
  10   4   2 99.9053 21.4457   3
   6  -5  -2 2.15013 5.86671   3
   5  -5  -2 159.313 25.3270   3
  -5   5   2 166.325 12.2661   2
  -4   5   2 471.621 27.3231   2
   3  -5  -2 311.204 24.5601   3
  -3   5   2 333.168 19.6830   2
   2  -5  -2 454.118 29.1012   3
  -2   5   2 444.229 25.4870   2
   1  -5  -2 124.007 10.6656   3
  -1   5   2 113.179 8.67843   2
   0  -5  -2 76.3292 7.33522   3
   0   5   2 61.2446 5.68584   2
  -1  -5  -2 34.9736 3.99267   1
  -1  -5  -2 40.0267 2.42166   4
  -1  -5  -2 35.8000 4.65880   3
   1   5   2 29.4562 4.54623   3
   1   5   2 39.7631 2.74915   4
   1   5   2 34.2215 3.57294   2
  -2  -5  -2 489.729 28.6034   3
  -2  -5  -2 524.991 25.9173   4
  -2  -5  -2 508.741 29.2904   1
   2   5   2 505.283 29.4641   3
   2   5   2 498.411 26.3297   2
  -3  -5  -2 435.043 22.3477   4
  -3  -5  -2 418.576 26.2430   1
   3   5   2 415.265 21.5562   2
   3   5   2 404.455 25.3575   3
  -4  -5  -2 1349.49 71.5473   1
  -4  -5  -2 1301.21 65.7685   4
   4   5   2 1241.05 69.2613   3
  -5  -5  -2 472.325 26.1094   4
  -5  -5  -2 497.873 32.2981   1
   5   5   2 457.514 30.0335   3
  -6  -5  -2 144.091 10.1574   4
  -6  -5  -2 146.206 14.8613   1
   6   5   2 146.326 14.3714   3
  -7  -5  -2 151.559 15.8879   1
  -7  -5  -2 146.238 10.8856   4
   7   5   2 167.104 17.2274   3
  -8  -5  -2 25.5545 4.02553   4
  -8  -5  -2 21.0405 6.38360   1
   8   5   2 16.8668 7.47140   3
  -9  -5  -2 16.5304 3.41561   4
  -9  -5  -2 8.36497 5.03603   1
   9   5   2 14.6544 9.61772   3
 -10  -5  -2 27.1017 4.46759   4
  10   5   2 39.9492 16.5195   3
   5  -6  -2 74.9149 20.1080   3
  -5   6   2 71.1400 7.55768   2
   4  -6  -2 4.36862 4.62971   3
  -4   6   2 5.20133 2.67379   2
   3  -6  -2 1.94737 3.04701   3
  -3   6   2 10.3033 2.98501   2
   2  -6  -2 79.9065 9.91634   3
  -2   6   2 73.5185 6.91080   2
   1  -6  -2 279.855 20.0624   3
  -1   6   2 276.541 17.3290   2
   0  -6  -2 405.993 25.3845   3
   0   6   2 383.974 22.7101   2
  -1  -6  -2 916.560 48.0133   3
  -1  -6  -2 782.423 45.3880   1
   1   6   2 896.858 48.2692   3
   1   6   2 859.603 45.0708   2
  -2  -6  -2 312.253 20.2061   3
  -2  -6  -2 312.830 20.2015   1
   2   6   2 327.441 17.7445   2
   2   6   2 308.429 20.7532   3
  -3  -6  -2 260.637 14.0205   4
  -3  -6  -2 249.503 18.0793   1
   3   6   2 256.052 17.8105   3
   3   6   2 239.508 13.8527   2
  -4  -6  -2 0.22367 1.76970   1
  -4  -6  -2 0.58134 0.92333   4
   4   6   2 0.86478 2.02256   3
  -5  -6  -2 189.897 12.3149   4
  -5  -6  -2 200.064 17.8585   1
   5   6   2 200.870 16.2897   3
  -6  -6  -2 63.8562 5.89738   4
  -6  -6  -2 59.6420 9.44129   1
   6   6   2 65.3353 9.13148   3
  -7  -6  -2 316.256 26.3785   1
  -7  -6  -2 327.487 19.4953   4
   7   6   2 313.494 25.3720   3
  -8  -6  -2 162.051 11.7991   4
  -8  -6  -2 145.853 16.8731   1
   8   6   2 181.711 19.4897   3
  -9  -6  -2 130.621 10.7579   4
  -9  -6  -2 133.562 16.2799   1
   9   6   2 126.098 18.3968   3
  -4   7   2 200.973 14.6825   2
   3  -7  -2 170.387 18.1942   3
  -3   7   2 185.543 13.3306   2
   2  -7  -2 239.154 20.2707   3
  -2   7   2 234.631 15.9813   2
   1  -7  -2 129.326 13.1491   3
  -1   7   2 135.071 10.3723   2
   0  -7  -2 85.4148 9.52180   3
   0   7   2 71.4769 6.94749   2
  -1  -7  -2 -1.1062 1.67909   3
   1   7   2 0.13031 1.43483   2
  -2  -7  -2 177.536 14.1536   3
  -2  -7  -2 166.037 13.2513   1
   2   7   2 185.868 11.6462   2
   2   7   2 187.901 14.8754   3
  -3  -7  -2 183.729 14.0634   3
  -3  -7  -2 173.644 14.5956   1
   3   7   2 189.799 15.0338   3
   3   7   2 174.552 10.9013   2
  -4  -7  -2 645.125 40.5380   1
   4   7   2 679.201 40.0055   3
  -5  -7  -2 496.584 33.9471   1
   5   7   2 493.156 32.2422   3
  -6  -7  -2 147.851 10.4686   4
  -6  -7  -2 161.094 16.9736   1
   6   7   2 149.832 14.9418   3
  -7  -7  -2 166.083 12.3791   4
  -7  -7  -2 206.814 20.4264   1
   7   7   2 189.032 18.2307   3
  -8  -7  -2 0.45605 1.74251   4
  -8  -7  -2 0.59822 2.49723   1
   8   7   2 3.11728 4.37175   3
  -9  -7  -2 9.45733 5.68230   1
  -9  -7  -2 10.5646 2.93532   4
   9   7   2 10.1678 6.91014   3
   3  -8  -2 -3.2897 3.80703   3
  -3   8   2 3.52717 2.63283   2
   2  -8  -2 3.58618 3.91048   3
  -2   8   2 5.05104 2.45561   2
   1  -8  -2 91.0357 11.3249   3
  -1   8   2 94.5338 8.74642   2
   0  -8  -2 160.613 15.0086   3
   0   8   2 143.665 11.5817   2
  -1  -8  -2 418.930 28.4358   3
   1   8   2 424.720 25.0405   2
  -2  -8  -2 268.723 20.4400   3
   2   8   2 279.551 21.0250   3
   2   8   2 293.634 17.5059   2
  -3  -8  -2 160.781 14.4223   1
  -3  -8  -2 181.411 14.7118   3
   3   8   2 175.537 15.2082   3
   3   8   2 178.498 11.3420   2
  -4  -8  -2 29.2499 6.00237   1
  -4  -8  -2 29.4601 5.55669   3
   4   8   2 29.5821 5.74342   3
  -5  -8  -2 52.8049 8.98451   1
   5   8   2 51.2754 8.13260   3
  -6  -8  -2 23.1947 6.75353   1
   6   8   2 27.5927 6.69460   3
  -7  -8  -2 129.392 16.4599   1
   7   8   2 144.118 15.7341   3
  -8  -8  -2 116.417 16.8116   1
   8   8   2 165.268 17.9471   3
  -9  -8  -2 77.1262 14.4666   1
  -9  -8  -2 90.3742 8.83003   4
   9   8   2 117.103 16.5701   3
   1  -9  -2 99.5422 13.1649   3
  -1   9   2 95.4093 9.29170   2
   0  -9  -2 69.4262 10.3619   3
   0   9   2 56.4335 7.03021   2
  -1  -9  -2 8.74655 4.46486   3
   1   9   2 6.39707 2.73423   2
  -2  -9  -2 42.6893 7.46606   3
   2   9   2 45.3689 5.75369   2
  -3  -9  -2 70.0364 9.04881   3
   3   9   2 79.4780 9.96185   3
  -4  -9  -2 263.511 20.1307   3
  -4  -9  -2 246.333 20.6549   1
   4   9   2 255.183 20.8356   3
  -5  -9  -2 296.890 22.4724   3
  -5  -9  -2 303.731 24.8683   1
   5   9   2 316.547 24.2179   3
  -6  -9  -2 101.529 11.7392   3
  -6  -9  -2 119.772 15.0230   1
   6   9   2 127.225 14.1625   3
  -7  -9  -2 151.335 18.5152   1
   7   9   2 155.193 16.7018   3
  -8  -9  -2 6.88117 5.75969   1
   8   9   2 18.4957 7.19555   3
  -1 -10  -2 162.421 17.0494   3
   1  10   2 159.457 13.2174   2
  -2 -10  -2 149.655 15.5128   3
   2  10   2 165.395 13.9987   2
  -3 -10  -2 108.112 12.7775   3
  -4 -10  -2 22.3531 5.89385   3
   4  10   2 31.4072 7.21652   3
  -5 -10  -2 0.80639 3.12152   3
  -5 -10  -2 2.82795 3.77371   1
   5  10   2 3.84232 3.84448   3
  -6 -10  -2 11.6123 5.66038   1
  -6 -10  -2 10.2076 4.14479   3
   6  10   2 10.4173 5.68421   3
  -7 -10  -2 40.2003 7.92426   3
   7  10   2 40.0719 9.10393   3
  -1  -9   3 38.3115 9.26786   3
  -5  -8   3 85.0807 13.0043   1
  -4  -8   3 31.3084 7.22899   1
  -3  -8   3 0.42326 2.31680   1
   2   8  -3 4.24075 2.70528   2
  -2  -8   3 3.22725 2.90906   1
   1   8  -3 70.7589 7.90506   2
  -1  -8   3 82.1203 10.1419   3
   0   8  -3 176.045 13.8178   2
   0  -8   3 197.410 17.3215   3
  -1   8  -3 190.998 14.5880   2
   1  -8   3 203.764 18.4661   3
  -2   8  -3 123.776 10.7751   2
   2  -8   3 115.715 14.4068   3
  -6  -7   3 6.02796 4.54417   1
  -5  -7   3 0.84431 3.11698   1
  -4  -7   3 112.018 13.5787   1
   3   7  -3 358.228 23.7953   3
  -3  -7   3 323.419 25.5337   1
   2   7  -3 105.050 9.45805   2
  -2  -7   3 119.818 12.7482   1
  -2  -7   3 134.051 11.6664   3
   1   7  -3 157.773 11.7438   2
  -1  -7   3 148.333 13.2652   3
  -1  -7   3 153.773 14.1520   1
   0   7  -3 26.6646 4.46841   2
   0  -7   3 25.7802 5.53144   3
  -1   7  -3 4.52835 2.43758   2
   1  -7   3 1.39605 2.90726   3
  -2   7  -3 37.8566 5.29288   2
   2  -7   3 31.0132 7.30490   3
  -3   7  -3 109.032 9.66422   2
  -7  -6   3 125.504 10.3968   4
  -7  -6   3 137.471 17.9438   1
  -6  -6   3 230.033 14.6354   4
  -6  -6   3 214.373 21.9436   1
  -5  -6   3 133.897 9.44317   4
  -5  -6   3 136.169 15.3196   1
  -4  -6   3 131.188 14.1691   1
   3   6  -3 8.55564 3.25661   3
   3   6  -3 8.82272 2.62807   2
  -3  -6   3 9.72954 4.09782   1
  -3  -6   3 6.72592 2.90733   3
   2   6  -3 3.65300 1.98483   2
  -2  -6   3 3.31353 2.34139   3
  -2  -6   3 3.96665 2.90908   1
   1   6  -3 82.4942 7.10127   2
  -1  -6   3 80.9073 9.23342   1
  -1  -6   3 77.8167 8.24895   3
   0   6  -3 359.469 21.2890   2
   0  -6   3 357.810 23.5702   3
   0  -6   3 349.919 23.6271   1
  -1   6  -3 384.784 22.7672   2
   1  -6   3 374.143 25.6623   3
  -2   6  -3 395.406 23.8126   2
  -3   6  -3 61.9544 6.55413   2
   3  -6   3 60.4969 9.72979   3
  -4   6  -3 10.1424 3.16130   2
   4  -6   3 8.79297 6.44099   3
  -5   6  -3 2.19177 2.18934   2
   5  -6   3 -2.2346 8.30939   3
  -7  -5   3 94.9472 8.57038   4
  -7  -5   3 92.4239 14.0256   1
  -6  -5   3 11.1052 4.83360   1
  -6  -5   3 12.7584 3.04523   4
  -5  -5   3 -1.2424 1.21590   1
  -5  -5   3 1.23241 1.15974   4
   4   5  -3 40.6989 5.68917   3
  -4  -5   3 41.1094 7.43995   1
  -4  -5   3 45.6066 4.20125   4
   3   5  -3 563.457 32.0563   2
   3   5  -3 606.805 34.6253   3
  -3  -5   3 620.957 38.0414   1
  -3  -5   3 613.599 33.9350   3
  -3  -5   3 618.961 31.5902   4
   2   5  -3 212.993 14.8894   3
   2   5  -3 213.979 13.0834   2
  -2  -5   3 212.605 14.4312   3
  -2  -5   3 222.305 17.1731   1
   1   5  -3 379.544 22.0303   2
  -1  -5   3 421.597 26.0467   1
  -1  -5   3 384.627 23.6761   3
   0   5  -3 155.073 10.4014   2
   0  -5   3 149.911 11.8879   3
   0  -5   3 151.235 12.5197   1
  -1   5  -3 0.18051 1.36474   2
   1  -5   3 1.14400 1.60954   1
   1  -5   3 5.95053 2.84966   3
  -2   5  -3 9.72919 2.47111   2
   2  -5   3 13.9876 4.37582   3
  -3   5  -3 189.692 12.7850   2
   3  -5   3 179.289 17.1246   3
  -4   5  -3 198.066 13.6121   2
   4  -5   3 218.788 22.6057   3
  -5   5  -3 211.941 14.6134   2
   5  -5   3 250.104 31.0796   3
  -6   5  -3 112.312 8.77076   2
   6  -5   3 65.5308 15.9428   3
  -8  -4   3 7.26344 3.41502   4
  -7  -4   3 127.202 10.6813   4
  -7  -4   3 134.692 15.8847   1
  -6  -4   3 320.700 26.9111   1
  -6  -4   3 343.711 20.2837   4
  -5  -4   3 211.032 18.9733   1
  -5  -4   3 209.288 13.3150   4
   4   4  -3 271.710 18.3163   3
  -4  -4   3 287.568 21.5798   1
  -4  -4   3 273.997 15.9803   4
   3   4  -3 53.2764 5.70434   3
   3   4  -3 55.0178 4.37754   2
  -3  -4   3 46.8435 6.97173   1
  -3  -4   3 51.1632 4.22645   4
   2   4  -3 38.8956 3.64870   2
   2   4  -3 44.3156 4.80331   3
  -2  -4   3 39.3530 3.27207   4
  -2  -4   3 36.6994 4.19304   3
  -2  -4   3 42.8462 6.21550   1
   1   4  -3 24.5388 2.81458   2
  -1  -4   3 19.0508 3.17965   3
  -1  -4   3 28.6061 4.72823   1
  -1  -4   3 26.1223 2.35485   4
   0   4  -3 548.026 29.4859   2
   0  -4   3 539.693 31.0580   3
   0  -4   3 547.776 28.2831   4
   0  -4   3 581.445 32.6769   1
  -1   4  -3 612.637 33.2287   2
   1  -4   3 642.626 35.8218   3
   1  -4   3 622.157 35.7050   1
  -2   4  -3 853.620 44.8272   2
   2  -4   3 861.373 48.6605   3
   2  -4   3 851.129 47.4563   1
  -3   4  -3 220.030 13.6456   2
   3  -4   3 203.600 18.0645   3
  -4   4  -3 36.7669 4.31010   2
   4  -4   3 41.9126 9.75118   3
  -5   4  -3 25.3699 3.75570   2
   5  -4   3 27.2615 10.3420   3
  -6   4  -3 36.2579 4.56643   2
   6  -4   3 32.4158 10.9055   3
   7  -4   3 25.5906 10.0030   3
  -8  -3   3 55.6143 6.92870   4
  -7  -3   3 192.566 18.9893   1
  -7  -3   3 200.288 14.2439   4
  -6  -3   3 3.69082 1.84541   4
  -6  -3   3 2.79775 3.54156   1
   5   3  -3 2.52336 2.27578   3
  -5  -3   3 5.44601 3.06771   1
  -5  -3   3 5.71380 2.10515   4
   4   3  -3 1.04387 1.55557   3
   4   3  -3 1.27153 1.02311   2
  -4  -3   3 0.42552 1.07930   4
  -4  -3   3 0.98423 2.07554   1
   3   3  -3 870.174 46.1361   3
   3   3  -3 872.560 44.1141   2
  -3  -3   3 827.319 49.0956   1
  -3  -3   3 898.546 44.4619   4
   2   3  -3 337.008 18.6129   2
   2   3  -3 339.660 19.8603   3
  -2  -3   3 365.126 22.9393   1
  -2  -3   3 356.288 18.6065   4
  -2  -3   3 347.329 19.4108   3
   1   3  -3 664.231 33.8634   3
   1   3  -3 596.642 32.4666   2
  -1  -3   3 639.214 33.3600   3
  -1  -3   3 623.367 32.0763   4
  -1  -3   3 633.427 36.1799   1
   0   3  -3 601.534 33.4554   2
   0  -3   3 627.208 34.7122   3
   0  -3   3 670.395 36.7364   1
   0  -3   3 700.201 33.0815   4
  -1   3  -3 2.16236 1.01853   2
   1  -3   3 2.28504 1.73203   3
   1  -3   3 3.22909 1.78969   1
   1  -3   3 3.70530 0.89208   4
  -2   3  -3 1.17281 0.91383   2
  -2   3  -3 0.78879 0.54112   4
   2  -3   3 1.25474 0.76065   4
   2  -3   3 0.63244 1.24549   1
   2  -3   3 1.51423 1.94966   3
  -3   3  -3 216.720 12.6938   2
  -3   3  -3 200.430 11.4608   4
   3  -3   3 237.520 18.3916   3
   3  -3   3 184.547 15.5650   1
  -4   3  -3 290.395 18.0465   2
   4  -3   3 360.913 29.4609   3
  -5   3  -3 352.531 19.5904   2
   5  -3   3 300.376 30.5561   3
  -6   3  -3 245.725 14.8525   2
   6  -3   3 213.568 23.6787   3
  -7   3  -3 32.7823 4.27524   2
   7  -3   3 26.0321 8.98083   3
  -8  -2   3 1.37849 2.05860   4
  -7  -2   3 75.0654 7.54741   4
  -6  -2   3 419.301 24.5960   4
  -6  -2   3 407.943 29.6064   1
   5   2  -3 247.410 18.8158   3
  -5  -2   3 252.833 20.2545   1
  -5  -2   3 247.684 15.4491   4
   4   2  -3 442.656 23.2425   2
   4   2  -3 418.672 26.0128   3
  -4  -2   3 459.932 23.9475   4
  -4  -2   3 412.092 28.0361   1
   3   2  -3 172.872 11.6527   3
   3   2  -3 177.636 10.1747   2
  -3  -2   3 166.981 13.7032   1
  -3  -2   3 184.215 10.5860   4
   2   2  -3 157.824 8.95993   2
   2   2  -3 151.288 9.65670   3
  -2  -2   3 150.292 11.9789   1
  -2  -2   3 155.982 9.04293   4
   1   2  -3 14.8110 1.95194   3
   1   2  -3 10.3028 1.44496   2
  -1  -2   3 12.2874 1.46491   4
  -1  -2   3 10.9522 2.55936   1
  -1  -2   3 12.6380 1.66247   3
   0   2  -3 621.666 34.6041   2
   0  -2   3 690.033 37.6412   1
   0  -2   3 705.205 35.4845   3
   0  -2   3 710.678 34.5168   4
  -1   2  -3 912.049 49.4529   2
   1  -2   3 984.787 49.2654   4
   1  -2   3 1039.63 52.4726   1
   1  -2   3 997.639 51.3599   3
  -2   2  -3 1583.48 78.7447   2
  -2   2  -3 1465.54 77.8354   4
   2  -2   3 1632.02 82.6450   3
   2  -2   3 1809.53 82.7993   1
   2  -2   3 1409.69 78.3144   4
  -3   2  -3 524.258 28.5776   2
  -3   2  -3 512.271 27.8135   4
   3  -2   3 659.785 37.4453   3
   3  -2   3 519.810 33.2031   1
  -4   2  -3 96.9113 6.53398   4
  -4   2  -3 100.136 6.97527   2
   4  -2   3 92.3923 14.5435   3
  -5   2  -3 124.131 8.45442   2
  -5   2  -3 135.067 8.26839   4
   5  -2   3 87.6677 13.6398   3
  -6   2  -3 16.7459 2.64158   4
  -6   2  -3 14.5844 2.75971   2
   6  -2   3 13.2103 6.59420   3
  -7   2  -3 50.7044 4.89222   2
   7  -2   3 28.4380 8.20718   3
   8  -2   3 47.2650 11.5396   3
  -8  -1   3 55.7850 6.51921   4
  -7  -1   3 258.418 17.3550   4
  -6  -1   3 13.4571 3.31380   4
   5   1  -3 7.60602 2.38295   2
   5   1  -3 3.43582 3.67447   3
  -5  -1   3 6.32268 3.41139   1
  -5  -1   3 4.97507 2.18989   4
  -5  -1   3 4.78938 1.60282   2
   4   1  -3 61.9875 7.88633   3
   4   1  -3 76.1512 5.51076   2
  -4  -1   3 69.9240 8.12354   1
  -4  -1   3 57.7185 5.33672   4
  -4  -1   3 63.8854 4.90640   2
   3   1  -3 863.085 41.6852   2
   3   1  -3 797.840 43.7656   3
  -3  -1   3 800.371 45.2686   1
  -3  -1   3 821.834 41.8463   4
  -3  -1   3 786.514 41.2318   2
   2   1  -3 506.175 27.0603   3
   2   1  -3 512.963 26.4219   2
  -2  -1   3 516.799 26.5669   4
  -2  -1   3 509.316 29.5543   1
   1   1  -3 633.756 34.3562   2
   1   1  -3 693.826 34.3053   3
  -1  -1   3 695.135 37.4174   1
  -1  -1   3 701.827 34.5581   4
   0   1  -3 1624.40 86.9697   2
   0  -1   3 1782.50 87.0474   4
   0  -1   3 1851.41 87.1517   3
   0  -1   3 1781.27 89.8160   1
  -1   1  -3 29.8490 2.54231   2
   1  -1   3 37.2430 4.38542   1
   1  -1   3 34.9494 2.70947   4
   1  -1   3 31.2733 3.62037   3
  -2   1  -3 40.6845 2.88652   4
  -2   1  -3 39.4692 3.14326   2
   2  -1   3 55.6879 7.18695   3
   2  -1   3 49.5554 5.68840   1
   2  -1   3 37.4248 3.16198   4
  -3   1  -3 139.494 8.34994   4
  -3   1  -3 152.229 8.67340   2
   3  -1   3 155.938 13.5399   1
   3  -1   3 142.702 15.3405   3
   3  -1   3 146.139 9.14140   4
  -4   1  -3 372.514 19.7768   2
  -4   1  -3 372.120 19.7301   4
   4  -1   3 346.262 27.0187   3
  -5   1  -3 402.284 20.8010   4
  -5   1  -3 382.433 20.5824   2
   5  -1   3 320.372 27.5338   3
  -6   1  -3 593.494 29.7467   4
  -6   1  -3 571.911 29.3871   2
   6  -1   3 455.713 37.4182   3
  -7   1  -3 82.4400 6.66674   4
   7  -1   3 77.8755 12.9382   3
  -8   1  -3 119.472 8.51291   4
   8  -1   3 81.3177 13.8436   3
  -7   0   3 24.7314 4.56129   4
   6   0  -3 346.666 30.8489   3
  -6   0   3 326.811 20.6618   4
   5   0  -3 248.499 24.4262   3
   5   0  -3 277.463 16.0705   2
  -5   0   3 240.044 15.1847   2
  -5   0   3 255.801 16.0611   4
   4   0  -3 358.296 31.7626   3
   4   0  -3 488.977 25.0470   2
  -4   0   3 454.150 24.5029   2
  -4   0   3 478.321 28.4303   1
  -4   0   3 471.121 25.0831   4
   3   0  -3 383.508 19.6774   2
  -3   0   3 344.863 19.4961   4
  -3   0   3 353.821 22.0605   1
  -3   0   3 349.422 19.2291   2
   2   0  -3 307.928 16.0652   2
   2   0  -3 279.753 18.0277   3
  -2   0   3 299.000 18.1984   1
  -2   0   3 298.275 15.7793   2
  -2   0   3 283.492 15.9051   4
   1   0  -3 213.301 11.9341   2
   1   0  -3 214.643 11.7793   3
  -1   0   3 226.129 12.0199   4
  -1   0   3 229.144 14.0602   1
  -1   0   3 216.303 11.8270   2
   0   0  -3 514.560 27.1251   2
   0   0   3 539.246 27.2391   4
   0   0   3 553.172 29.5419   1
  -1   0  -3 1180.59 60.6065   2
   1   0   3 1056.49 62.2222   3
   1   0   3 1357.09 64.2431   1
   1   0   3 1307.34 61.0327   4
  -2   0  -3 2452.19 131.574   2
   2   0   3 2453.26 132.087   4
   2   0   3 2979.16 140.607   3
   2   0   3 2873.54 137.572   1
  -3   0  -3 1050.05 54.2733   4
  -3   0  -3 1111.25 54.1249   2
   3   0   3 1139.09 63.1923   3
   3   0   3 1134.64 55.2243   4
   3   0   3 999.589 61.4620   1
  -4   0  -3 167.171 9.58742   4
  -4   0  -3 164.995 9.21741   2
   4   0   3 138.516 14.9317   3
  -5   0  -3 366.655 19.2374   4
  -5   0  -3 336.701 18.5367   2
   5   0   3 317.451 26.0035   3
  -6   0  -3 1.88517 1.82569   1
  -6   0  -3 0.15427 0.83452   4
  -6   0  -3 1.16312 1.02226   2
   6   0   3 1.22709 3.56145   3
   6   0   3 -1.0509 1.61225   1
  -7   0  -3 56.4330 5.21211   4
   7   0   3 37.9926 9.09854   3
  -8   0  -3 52.3394 5.16535   4
   8   0   3 47.0206 10.2141   3
  -9   0  -3 201.205 13.3953   4
   9   0   3 194.892 23.1166   3
  -7   1   3 209.747 14.8494   4
   6  -1  -3 74.5292 13.5814   3
  -6   1   3 71.0028 6.93330   4
  -6   1   3 59.2288 6.85265   2
   5  -1  -3 10.3584 6.32281   3
  -5   1   3 8.30072 2.22249   2
  -5   1   3 9.64667 2.66809   4
   4  -1  -3 181.846 18.9145   3
  -4   1   3 197.720 11.8453   4
  -4   1   3 168.619 11.3493   2
   3  -1  -3 398.704 29.2614   3
  -3   1   3 386.197 21.7345   4
  -3   1   3 417.053 23.7188   1
  -3   1   3 404.201 21.8426   2
   2  -1  -3 606.651 38.6156   3
  -2   1   3 627.310 31.6181   2
  -2   1   3 574.293 31.3915   4
  -2   1   3 633.343 33.2253   1
  -1   1   3 529.183 27.8068   1
  -1   1   3 491.615 26.0044   4
  -1   1   3 497.801 26.0623   2
   0  -1  -3 2793.35 127.420   3
   0  -1  -3 2468.03 127.603   2
   0   1   3 2433.70 127.539   4
   0   1   3 2786.98 130.328   1
   0   1   3 2477.22 127.491   2
  -1  -1  -3 184.125 10.1517   2
   1   1   3 187.833 10.1205   2
   1   1   3 195.743 10.5518   4
   1   1   3 211.765 14.2885   1
   1   1   3 183.885 10.4344   3
  -2  -1  -3 146.212 7.68447   2
   2   1   3 137.655 13.0894   1
   2   1   3 131.792 8.29251   4
   2   1   3 148.785 9.76913   3
  -3  -1  -3 31.1016 2.14235   2
  -3  -1  -3 31.9499 2.62030   4
   3   1   3 26.7565 3.03835   4
   3   1   3 30.3370 4.87419   3
   3   1   3 21.1330 5.88799   1
  -4  -1  -3 412.717 21.0517   4
  -4  -1  -3 409.997 20.1427   2
   4   1   3 331.566 28.0970   3
  -5  -1  -3 323.753 17.6296   2
  -5  -1  -3 329.305 18.6847   4
  -5  -1  -3 337.800 21.8121   1
   5   1   3 364.834 32.5884   3
  -6  -1  -3 842.050 45.7685   4
  -6  -1  -3 921.030 49.8822   1
  -6  -1  -3 850.241 44.4970   2
   6   1   3 912.844 58.8102   3
  -7  -1  -3 161.216 11.3050   4
  -7  -1  -3 180.063 14.6692   1
   7   1   3 175.566 20.0128   3
  -8  -1  -3 171.853 11.8607   4
   8   1   3 178.270 20.8740   3
  -9  -1  -3 49.6909 5.64437   4
   9   1   3 59.2671 12.1088   3
  -7   2   3 6.50792 2.88608   4
   6  -2  -3 161.325 20.6340   3
  -6   2   3 177.477 12.1048   2
  -6   2   3 192.320 13.0445   4
   5  -2  -3 166.108 20.1177   3
  -5   2   3 210.579 13.2826   4
  -5   2   3 186.886 12.5407   2
   4  -2  -3 319.641 28.4818   3
  -4   2   3 352.219 19.8188   4
  -4   2   3 352.449 20.0152   2
   3  -2  -3 530.251 38.4888   3
  -3   2   3 432.633 24.1885   2
  -3   2   3 407.117 23.5603   4
  -2   2   3 302.331 16.6826   4
  -2   2   3 314.431 17.2508   2
   1  -2  -3 504.143 26.7590   3
  -1   2   3 427.264 24.5556   4
  -1   2   3 427.988 24.8814   2
  -1   2   3 555.750 27.4723   1
   0  -2  -3 152.222 9.02175   3
   0   2   3 154.634 8.64844   2
   0   2   3 143.160 8.38226   4
   1   2   3 904.485 45.1712   3
   1   2   3 879.603 44.5223   4
   1   2   3 868.048 51.1197   1
   1   2   3 890.743 44.2569   2
  -2  -2  -3 2289.71 113.183   2
   2   2   3 2272.99 115.051   3
   2   2   3 2328.91 114.085   4
   2   2   3 2326.50 113.161   2
  -3  -2  -3 1729.03 85.9531   2
  -3  -2  -3 1714.62 86.7698   4
   3   2   3 1842.22 89.9804   3
   3   2   3 1716.65 87.6600   4
  -4  -2  -3 266.341 14.5111   4
  -4  -2  -3 247.516 13.1816   2
   4   2   3 270.487 18.7032   3
  -5  -2  -3 609.949 31.6346   4
  -5  -2  -3 602.273 35.4105   1
   5   2   3 564.506 38.6528   3
  -6  -2  -3 41.2272 4.39111   4
  -6  -2  -3 45.5730 6.66157   1
   6   2   3 26.1318 8.39777   3
  -7  -2  -3 33.5179 6.03609   1
  -7  -2  -3 37.7650 4.21265   4
   7   2   3 48.1682 12.2197   3
   7   2   3 19.9604 7.21905   1
  -8  -2  -3 25.8688 5.70683   1
  -8  -2  -3 24.7373 3.56952   4
   8   2   3 25.0321 9.71185   3
  -9  -2  -3 225.617 15.6141   4
   9   2   3 284.198 28.9196   3
   6  -3  -3 74.2470 14.4050   3
  -6   3   3 106.377 9.12716   4
  -6   3   3 98.4886 8.26299   2
   5  -3  -3 11.8188 7.76401   3
  -5   3   3 12.7453 2.70103   2
  -5   3   3 19.1517 3.49614   4
   4  -3  -3 209.934 24.5278   3
  -4   3   3 210.929 12.9213   4
  -4   3   3 191.155 13.0902   2
   3  -3  -3 78.8299 11.7123   3
  -3   3   3 74.4818 6.44779   2
  -3   3   3 78.8017 5.79947   4
   2  -3  -3 478.705 29.4023   3
  -2   3   3 484.334 26.0410   2
  -2   3   3 465.514 24.9158   4
   1  -3  -3 306.084 18.4321   3
  -1   3   3 304.667 16.8117   2
  -1   3   3 269.239 18.7686   1
  -1   3   3 317.765 16.0765   4
   0  -3  -3 1942.74 94.5235   3
   0   3   3 1888.70 92.8077   4
   0   3   3 1798.17 93.2370   2
  -1  -3  -3 476.939 24.8255   3
   1   3   3 474.729 23.8126   4
   1   3   3 440.531 23.6436   2
   1   3   3 445.210 25.0361   3
  -2  -3  -3 234.411 12.6987   4
   2   3   3 236.995 13.2724   4
   2   3   3 245.290 12.5424   2
   2   3   3 234.363 14.4742   3
  -3  -3  -3 21.2360 2.15467   4
  -3  -3  -3 15.6017 3.46847   1
  -3  -3  -3 20.7579 1.50047   2
   3   3   3 15.8961 2.58589   4
   3   3   3 20.0291 1.48525   2
   3   3   3 17.6325 3.29364   3
  -4  -3  -3 299.358 15.9050   4
  -4  -3  -3 288.185 19.7006   1
  -4  -3  -3 268.674 14.1961   2
   4   3   3 289.841 19.1894   3
  -5  -3  -3 197.540 15.9123   1
  -5  -3  -3 198.179 12.3582   4
   5   3   3 211.860 16.8230   3
  -6  -3  -3 942.435 48.9958   4
  -6  -3  -3 911.693 53.4962   1
   6   3   3 955.465 57.5086   3
  -7  -3  -3 330.573 23.3906   1
  -7  -3  -3 321.727 18.6977   4
   7   3   3 255.469 27.8357   3
  -8  -3  -3 193.377 17.0847   1
  -8  -3  -3 178.587 12.6389   4
   8   3   3 190.497 28.3747   3
  -9  -3  -3 160.064 15.7699   1
  -9  -3  -3 150.756 11.6580   4
   9   3   3 210.862 27.5827   3
 -10  -3  -3 14.3602 3.13936   4
  10   3   3 20.3777 11.1221   3
   6  -4  -3 50.0792 12.8110   3
  -6   4   3 62.9507 6.52554   2
   5  -4  -3 87.6933 16.8482   3
  -5   4   3 131.724 9.73481   2
  -4   4   3 205.521 13.6726   2
   3  -4  -3 401.828 28.7518   3
  -3   4   3 375.688 20.8023   4
  -3   4   3 366.374 22.0912   2
   2  -4  -3 277.149 19.4465   3
  -2   4   3 267.575 16.3772   2
  -2   4   3 263.618 14.8532   4
   1  -4  -3 406.384 24.2701   3
  -1   4   3 406.128 20.9417   4
  -1   4   3 383.445 22.2157   2
   0  -4  -3 1.65580 1.10771   1
   0  -4  -3 1.39693 1.16199   3
   0   4   3 0.55453 1.06303   1
   0   4   3 2.41907 1.17023   2
   0   4   3 1.17281 0.75622   4
  -1  -4  -3 334.266 20.2348   1
  -1  -4  -3 347.345 20.0828   3
   1   4   3 328.156 20.2602   3
   1   4   3 327.476 18.4564   2
   1   4   3 391.003 18.5143   4
  -2  -4  -3 1134.65 61.0402   1
  -2  -4  -3 1151.64 56.9193   4
   2   4   3 1171.10 57.0266   2
   2   4   3 1091.03 59.5543   3
   2   4   3 1161.42 57.6595   4
  -3  -4  -3 1692.24 86.8904   1
  -3  -4  -3 1631.06 81.5088   4
   3   4   3 1538.85 84.2832   3
   3   4   3 1635.28 82.5129   4
   3   4   3 1692.97 80.8025   2
  -4  -4  -3 378.720 25.3282   1
  -4  -4  -3 386.457 20.6649   4
   4   4   3 380.283 18.9834   2
   4   4   3 373.388 23.7524   3
  -5  -4  -3 648.288 39.5873   1
  -5  -4  -3 634.986 34.4186   4
   5   4   3 661.370 38.9725   3
  -6  -4  -3 212.367 13.1284   4
  -6  -4  -3 193.063 16.7847   1
   6   4   3 195.650 17.4954   3
  -7  -4  -3 11.0423 3.90740   1
  -7  -4  -3 10.6111 2.51039   4
   7   4   3 18.8352 6.67288   3
  -8  -4  -3 4.34912 2.03470   4
  -8  -4  -3 8.02512 4.32435   1
   8   4   3 5.04284 5.31933   3
  -9  -4  -3 191.059 13.3136   4
  -9  -4  -3 174.814 17.6906   1
   9   4   3 183.049 28.2414   3
 -10  -4  -3 130.675 10.5657   4
 -10  -4  -3 113.413 15.1436   1
  10   4   3 190.439 28.2015   3
   5  -5  -3 21.1186 11.8071   3
  -5   5   3 22.0798 4.02531   2
   4  -5  -3 165.541 21.5633   3
  -4   5   3 149.467 11.3639   2
   3  -5  -3 2.15588 3.19378   3
  -3   5   3 -0.0034 1.60464   2
   2  -5  -3 212.544 17.0832   3
  -2   5   3 211.274 14.0268   2
   1  -5  -3 160.186 12.9443   3
  -1   5   3 160.831 11.0224   2
   0  -5  -3 947.943 53.5060   3
   0   5   3 1058.87 50.2377   4
   0   5   3 980.281 51.5301   2
  -1  -5  -3 484.491 27.8632   1
  -1  -5  -3 492.709 28.8092   3
   1   5   3 476.266 28.9952   3
   1   5   3 506.490 26.8054   2
   1   5   3 558.186 26.3602   4
  -2  -5  -3 271.141 16.3724   3
  -2  -5  -3 252.594 13.5359   4
  -2  -5  -3 246.761 16.7101   1
   2   5   3 257.333 14.3350   4
   2   5   3 254.271 14.0002   2
   2   5   3 232.124 16.4093   3
  -3  -5  -3 119.844 7.44736   4
  -3  -5  -3 118.909 10.9193   1
   3   5   3 119.480 10.1634   3
   3   5   3 121.424 7.02166   2
  -4  -5  -3 88.1690 9.96740   1
  -4  -5  -3 95.9769 6.55547   4
   4   5   3 92.4446 5.17331   2
   4   5   3 87.5987 8.77971   3
  -5  -5  -3 88.1898 7.01605   4
  -5  -5  -3 96.8695 10.9554   1
   5   5   3 94.4767 10.0145   3
  -6  -5  -3 636.459 41.4001   1
  -6  -5  -3 641.827 35.2454   4
   6   5   3 681.705 41.1716   3
  -7  -5  -3 387.419 22.8855   4
  -7  -5  -3 370.560 28.3887   1
   7   5   3 424.679 30.4340   3
  -8  -5  -3 179.289 13.0292   4
  -8  -5  -3 185.147 18.2364   1
   8   5   3 216.302 22.0021   3
  -9  -5  -3 229.390 15.8824   4
  -9  -5  -3 250.022 22.0257   1
   9   5   3 223.187 27.7684   3
 -10  -5  -3 2.46180 4.05659   1
 -10  -5  -3 1.52231 1.69469   4
  10   5   3 8.61927 11.2570   3
  -4   6   3 86.2702 8.19305   2
   3  -6  -3 217.469 20.5599   3
  -3   6   3 219.512 15.0091   2
   2  -6  -3 195.860 17.1099   3
  -2   6   3 192.529 13.5368   2
   1  -6  -3 293.767 21.0477   3
  -1   6   3 294.407 18.2470   2
   0  -6  -3 38.6931 5.82332   3
   0   6   3 34.1608 4.11179   2
  -1  -6  -3 84.8680 8.58582   3
   1   6   3 91.4500 9.02982   3
   1   6   3 96.3209 6.96029   2
  -2  -6  -3 401.167 23.6069   3
  -2  -6  -3 356.250 22.9686   1
   2   6   3 384.225 20.5810   2
   2   6   3 364.512 23.7619   3
  -3  -6  -3 929.509 52.3324   1
   3   6   3 935.922 47.4336   2
   3   6   3 947.841 51.9768   3
  -4  -6  -3 389.432 26.6308   1
  -4  -6  -3 384.234 21.4548   4
   4   6   3 397.364 25.4275   3
  -5  -6  -3 494.509 33.0148   1
  -5  -6  -3 453.527 26.1248   4
   5   6   3 481.366 30.6957   3
  -6  -6  -3 316.017 25.4062   1
  -6  -6  -3 325.769 19.2059   4
   6   6   3 327.602 24.1992   3
  -7  -6  -3 2.13489 1.62471   4
  -7  -6  -3 -0.0169 2.00303   1
   7   6   3 -0.2381 2.80893   3
  -8  -6  -3 -1.4022 1.41602   4
  -8  -6  -3 0.79609 3.22476   1
   8   6   3 1.86289 3.16161   3
  -9  -6  -3 91.2648 8.56807   4
  -9  -6  -3 100.385 13.7762   1
   9   6   3 93.1853 16.1199   3
 -10  -6  -3 123.098 10.5810   4
 -10  -6  -3 125.475 15.7412   1
  10   6   3 113.952 20.7449   3
   3  -7  -3 20.1403 7.20287   3
  -3   7   3 21.8397 4.00069   2
   2  -7  -3 71.8423 10.3575   3
  -2   7   3 60.6045 6.92267   2
   1  -7  -3 78.2301 9.71889   3
  -1   7   3 61.2663 6.73484   2
   0  -7  -3 404.217 27.2122   3
   0   7   3 414.854 24.1918   2
  -1  -7  -3 371.324 25.1663   3
   1   7   3 399.101 22.4252   2
  -2  -7  -3 218.424 16.0069   3
  -2  -7  -3 189.064 14.6912   1
   2   7   3 224.326 16.5775   3
   2   7   3 209.615 12.8593   2
  -3  -7  -3 165.504 13.0753   3
  -3  -7  -3 149.774 13.1935   1
   3   7   3 168.781 13.8519   3
   3   7   3 153.826 9.76636   2
  -4  -7  -3 1.85652 2.03517   1
   4   7   3 6.11396 2.74985   3
  -5  -7  -3 22.1371 3.21912   4
  -5  -7  -3 28.2618 6.39700   1
   5   7   3 22.9793 5.36415   3
  -6  -7  -3 290.220 18.1893   4
  -6  -7  -3 318.592 25.9340   1
   6   7   3 313.554 23.6317   3
  -7  -7  -3 334.250 27.9255   1
  -7  -7  -3 300.632 19.6699   4
   7   7   3 360.048 26.9157   3
  -8  -7  -3 144.113 17.2951   1
  -8  -7  -3 135.789 10.9051   4
   8   7   3 166.727 17.8930   3
  -9  -7  -3 234.652 16.3503   4
  -9  -7  -3 234.970 23.6925   1
   9   7   3 258.240 26.1780   3
   2  -8  -3 112.785 14.2560   3
  -2   8   3 120.499 10.3086   2
   1  -8  -3 175.012 16.9792   3
  -1   8   3 177.926 13.4032   2
   0  -8  -3 76.3304 9.60464   3
   0   8   3 59.4636 6.59877   2
  -1  -8  -3 8.95615 4.08840   3
   1   8   3 10.2533 3.02881   2
  -2  -8  -3 121.017 11.7465   3
   2   8   3 118.939 11.8335   3
   2   8   3 104.459 8.47592   2
  -3  -8  -3 425.913 27.3689   3
  -3  -8  -3 403.405 27.1044   1
   3   8   3 409.100 23.0299   2
   3   8   3 432.820 28.3540   3
  -4  -8  -3 297.225 22.6012   1
  -4  -8  -3 296.815 21.1432   3
   4   8   3 312.537 22.6129   3
  -5  -8  -3 286.448 23.2042   1
   5   8   3 293.045 22.2713   3
  -6  -8  -3 314.060 26.4417   1
   6   8   3 315.822 24.4627   3
  -7  -8  -3 12.5500 5.38932   1
   7   8   3 24.4018 6.70232   3
  -8  -8  -3 0.02435 3.06943   1
  -8  -8  -3 1.74541 2.09303   4
   8   8   3 2.40905 4.33435   3
  -9  -8  -3 21.5147 4.27955   4
  -9  -8  -3 13.1670 7.17054   1
   9   8   3 28.3333 9.21965   3
   1  -9  -3 18.6728 6.47547   3
  -1   9   3 24.2265 4.93007   2
   0  -9  -3 133.463 14.5791   3
   0   9   3 118.580 10.7585   2
  -1  -9  -3 236.171 19.9572   3
   1   9   3 227.849 16.0818   2
  -2  -9  -3 145.513 14.3018   3
   2   9   3 136.847 10.5961   2
  -3  -9  -3 140.628 13.6362   3
   3   9   3 131.706 13.7074   3
  -4  -9  -3 3.79233 3.03602   1
  -4  -9  -3 6.92329 3.28859   3
   4   9   3 7.16739 3.51961   3
  -5  -9  -3 8.43936 3.93716   3
  -5  -9  -3 0.25763 2.46022   1
   5   9   3 3.39620 3.31580   3
  -6  -9  -3 103.369 13.7826   1
   6   9   3 96.3383 12.3478   3
  -7  -9  -3 201.457 22.0787   1
   7   9   3 224.336 20.8103   3
   8   9   3 105.111 14.8519   3
  -1 -10  -3 0.57768 3.43486   3
   1  10   3 0.86694 1.86265   2
  -2 -10  -3 21.9780 5.94825   3
   2  10   3 22.7225 4.52037   2
  -3 -10  -3 123.085 13.7366   3
  -4 -10  -3 150.704 15.1015   3
   4  10   3 178.117 16.7680   3
  -5 -10  -3 145.252 14.4330   3
   5  10   3 149.693 15.6416   3
  -6 -10  -3 193.511 19.8707   1
  -6 -10  -3 193.804 17.4954   3
   6  10   3 186.157 18.4764   3
  -7 -10  -3 36.1501 8.81943   1
  -7 -10  -3 38.5774 7.27432   3
   7  10   3 37.2456 8.82946   3
  -4  -8   4 115.535 15.2740   1
  -3  -8   4 117.800 14.4879   1
  -2  -8   4 138.742 15.2717   1
   1   8  -4 32.6440 5.14600   2
   0   8  -4 4.75046 3.09922   2
  -1   8  -4 0.48611 1.85249   2
  -5  -7   4 109.869 14.8534   1
  -4  -7   4 9.18217 4.40055   1
  -3  -7   4 2.62347 3.23999   1
   2   7  -4 46.4321 5.84053   2
  -2  -7   4 52.5657 8.61114   1
  -1  -7   4 258.903 20.9491   1
   0   7  -4 142.779 11.3534   2
   0  -7   4 143.513 14.0433   1
  -1   7  -4 218.880 15.0176   2
   1  -7   4 183.885 17.3539   3
  -2   7  -4 102.768 9.61026   2
  -3   7  -4 26.3888 4.90749   2
  -6  -6   4 -2.1422 2.35567   1
  -6  -6   4 -0.9041 1.74010   4
  -5  -6   4 60.6406 10.4035   1
  -4  -6   4 217.356 20.1318   1
  -3  -6   4 206.122 18.7244   1
   2   6  -4 310.555 19.3688   2
  -2  -6   4 337.546 24.7203   1
   1   6  -4 120.750 9.62813   2
  -1  -6   4 134.907 13.1644   1
   0   6  -4 26.6513 3.82280   2
   0  -6   4 23.8488 5.26332   1
   0  -6   4 22.5945 4.52768   3
  -1   6  -4 1.05519 1.83104   2
   1  -6   4 3.97398 3.24552   3
   1  -6   4 0.31835 1.88199   1
  -2   6  -4 33.6614 4.79470   2
   2  -6   4 35.8999 6.97438   3
  -3   6  -4 79.1269 7.85014   2
   3  -6   4 94.8173 13.3181   3
  -4   6  -4 121.955 10.1805   2
  -7  -5   4 134.190 11.3725   4
  -7  -5   4 159.520 19.0478   1
  -6  -5   4 123.327 9.87041   4
  -6  -5   4 130.098 16.5031   1
  -5  -5   4 298.753 18.2152   4
  -5  -5   4 305.493 25.5381   1
  -4  -5   4 49.8678 8.25839   1
  -4  -5   4 42.7019 4.53271   4
   3   5  -4 20.8732 3.17366   2
  -3  -5   4 22.0725 2.73669   4
  -3  -5   4 27.5794 5.98617   1
   2   5  -4 7.35966 1.86175   2
  -2  -5   4 10.9757 4.12701   1
   1   5  -4 473.303 26.0848   2
  -1  -5   4 439.781 27.4143   3
  -1  -5   4 497.504 30.8539   1
   0   5  -4 239.842 14.8131   2
   0  -5   4 232.358 16.5267   3
   0  -5   4 240.614 18.1666   1
  -1   5  -4 380.476 23.0285   2
   1  -5   4 407.745 26.1167   3
   1  -5   4 412.425 26.5145   1
  -2   5  -4 281.071 17.7143   2
   2  -5   4 310.599 22.2037   3
   2  -5   4 271.566 20.5596   1
  -3   5  -4 83.3399 7.44592   2
   3  -5   4 78.6044 11.4982   3
  -4   5  -4 102.575 8.72379   2
   4  -5   4 101.580 16.4906   3
  -5   5  -4 -1.2565 1.41252   2
   5  -5   4 4.73188 8.06429   3
  -7  -4   4 13.1808 6.41161   1
  -7  -4   4 10.3407 3.16276   4
  -6  -4   4 2.56305 2.09234   4
  -6  -4   4 1.38792 3.00002   1
  -5  -4   4 31.6416 6.99806   1
  -5  -4   4 32.4113 3.99409   4
  -4  -4   4 293.099 23.3417   1
  -4  -4   4 306.256 17.5841   4
   3   4  -4 264.250 15.7873   2
  -3  -4   4 288.428 15.8405   4
  -3  -4   4 265.418 20.9042   1
   2   4  -4 585.281 31.5239   2
  -2  -4   4 618.268 37.1129   1
  -2  -4   4 584.321 31.0137   4
   1   4  -4 389.729 21.2907   2
  -1  -4   4 362.274 22.1351   3
  -1  -4   4 411.259 25.9525   1
  -1  -4   4 375.053 20.4355   4
   0   4  -4 82.5327 6.71820   2
   0  -4   4 97.4719 6.16815   4
   0  -4   4 106.380 9.91524   1
   0  -4   4 84.6510 7.87576   3
  -1   4  -4 42.3524 4.33868   2
   1  -4   4 44.8895 6.27663   1
   1  -4   4 45.1768 6.01849   3
  -2   4  -4 17.8039 2.87488   2
   2  -4   4 17.0213 3.85398   1
   2  -4   4 17.1611 4.51610   3
  -3   4  -4 111.554 8.25504   2
   3  -4   4 101.149 11.0569   1
   3  -4   4 108.351 12.9370   3
  -4   4  -4 226.590 15.3299   2
   4  -4   4 285.172 27.1072   3
  -5   4  -4 116.911 8.83001   2
   5  -4   4 88.3414 17.3981   3
  -6   4  -4 64.8283 6.11264   2
   6  -4   4 36.9773 11.5640   3
  -7  -3   4 172.681 13.3502   4
  -6  -3   4 133.157 10.1856   4
  -6  -3   4 119.205 14.5367   1
  -5  -3   4 494.248 27.4773   4
  -5  -3   4 483.127 34.1969   1
   4   3  -4 149.935 9.61274   2
  -4  -3   4 155.876 9.89752   4
  -4  -3   4 128.796 13.7163   1
   3   3  -4 54.6519 4.64187   2
  -3  -3   4 57.0130 4.82940   4
  -3  -3   4 58.2310 7.93259   1
   2   3  -4 30.7000 3.58206   3
   2   3  -4 37.6780 3.41177   2
  -2  -3   4 31.7429 5.54936   1
  -2  -3   4 30.7930 3.05435   4
   1   3  -4 730.377 37.0673   2
  -1  -3   4 738.011 41.6113   1
  -1  -3   4 680.234 37.3974   3
  -1  -3   4 714.273 36.6097   4
   0   3  -4 334.337 18.9364   2
   0  -3   4 351.304 18.5428   4
   0  -3   4 336.255 20.0007   3
   0  -3   4 358.335 22.7325   1
  -1   3  -4 547.946 29.9034   2
   1  -3   4 540.176 29.2663   4
   1  -3   4 608.447 33.8200   1
   1  -3   4 570.131 32.1619   3
  -2   3  -4 595.638 33.3825   4
  -2   3  -4 686.924 34.9407   2
   2  -3   4 731.033 39.4279   3
   2  -3   4 723.387 39.1334   1
   2  -3   4 598.542 33.9701   4
  -3   3  -4 142.478 9.68885   2
   3  -3   4 138.823 13.1298   1
   3  -3   4 170.152 15.7408   3
  -4   3  -4 312.138 17.2617   2
   4  -3   4 233.879 21.6049   1
   4  -3   4 354.693 30.6215   3
  -5   3  -4 18.2785 3.02035   2
   5  -3   4 12.8468 7.84072   3
  -6   3  -4 16.9453 3.03857   2
   6  -3   4 14.9701 7.54802   3
  -7   3  -4 57.8090 5.65218   2
   7  -3   4 41.8794 10.1103   3
  -7  -2   4 23.2436 4.28912   4
  -6  -2   4 19.1901 3.85972   4
  -6  -2   4 12.9602 5.24806   1
  -5  -2   4 2.68855 2.83285   1
  -5  -2   4 1.51996 1.34097   4
   4   2  -4 330.732 18.3604   2
  -4  -2   4 304.629 23.2387   1
  -4  -2   4 329.738 18.6598   4
   3   2  -4 345.200 18.5729   2
  -3  -2   4 329.406 23.0828   1
  -3  -2   4 330.322 18.6875   4
   2   2  -4 820.347 41.6651   2
   2   2  -4 807.714 41.7824   3
  -2  -2   4 856.929 41.8289   4
  -2  -2   4 767.894 45.9229   1
   1   2  -4 791.327 42.5242   2
  -1  -2   4 859.819 42.5134   3
  -1  -2   4 855.863 46.9430   1
  -1  -2   4 838.090 42.5080   4
   0   2  -4 229.708 13.5228   2
   0  -2   4 256.267 17.0773   1
   0  -2   4 246.229 14.1651   3
   0  -2   4 244.242 13.4698   4
  -1   2  -4 176.279 10.7265   2
   1  -2   4 187.024 10.7140   4
   1  -2   4 196.815 13.9383   1
   1  -2   4 180.787 12.3372   3
  -2   2  -4 1.60866 0.93271   2
   2  -2   4 2.79818 1.78152   1
   2  -2   4 1.29175 0.94809   4
   2  -2   4 3.97124 2.63416   3
  -3   2  -4 83.2542 5.80133   2
  -3   2  -4 72.8566 5.01184   4
   3  -2   4 101.504 12.6674   3
   3  -2   4 76.9290 9.05427   1
   3  -2   4 70.3681 5.58977   4
  -4   2  -4 291.521 15.1441   2
  -4   2  -4 256.645 14.2294   4
   4  -2   4 212.694 20.0821   1
   4  -2   4 251.268 23.7774   3
  -5   2  -4 235.990 13.3987   4
  -5   2  -4 238.316 13.8394   2
   5  -2   4 185.607 20.4899   3
  -6   2  -4 95.7608 7.14732   2
   6  -2   4 75.9157 12.2774   3
  -7   2  -4 193.978 11.8600   2
   7  -2   4 140.236 18.6343   3
   8  -2   4 7.16122 6.20741   3
  -7  -1   4 164.780 12.8633   4
  -6  -1   4 110.690 9.49881   4
  -5  -1   4 470.118 27.7736   2
  -5  -1   4 552.051 34.6886   1
  -5  -1   4 516.860 28.8064   4
   4   1  -4 326.551 18.2042   2
  -4  -1   4 322.685 18.2725   4
  -4  -1   4 320.845 22.6799   1
  -4  -1   4 282.557 17.4080   2
   3   1  -4 95.2939 6.41846   2
  -3  -1   4 86.1650 9.15517   1
  -3  -1   4 80.2799 6.21120   4
   2   1  -4 260.920 14.5290   2
   2   1  -4 269.205 14.4510   3
  -2  -1   4 242.514 17.6790   1
  -2  -1   4 261.545 14.6439   4
   1   1  -4 690.772 37.7725   2
  -1  -1   4 753.261 36.9538   3
  -1  -1   4 758.158 37.9957   4
  -1  -1   4 772.011 41.7758   1
   0   1  -4 518.688 28.2808   2
   0  -1   4 583.447 28.3597   3
   0  -1   4 541.873 28.3591   4
   0  -1   4 551.409 31.7657   1
  -1   1  -4 516.923 28.4362   2
   1  -1   4 581.106 32.2723   1
   1  -1   4 566.141 28.7196   4
  -2   1  -4 1355.06 71.1734   2
   2  -1   4 1398.26 71.5033   4
   2  -1   4 1536.35 76.3558   1
  -3   1  -4 217.788 12.2209   4
  -3   1  -4 239.237 12.6327   2
   3  -1   4 177.971 17.4977   3
   3  -1   4 222.706 13.0175   4
   3  -1   4 249.137 18.3629   1
  -4   1  -4 588.964 28.6308   4
  -4   1  -4 609.592 28.8351   2
   4  -1   4 478.740 35.3195   3
   4  -1   4 482.588 36.0881   1
  -5   1  -4 136.257 8.70356   2
  -5   1  -4 145.027 8.87569   4
   5  -1   4 115.422 14.1092   3
  -6   1  -4 7.39937 1.91132   2
  -6   1  -4 6.18278 1.68989   4
   6  -1   4 2.76258 3.60311   1
   6  -1   4 6.97559 4.40767   3
  -7   1  -4 32.1866 3.74696   2
  -7   1  -4 33.1654 3.89058   4
   7  -1   4 25.7857 7.10087   3
  -8   1  -4 172.472 11.3752   4
   8  -1   4 150.515 18.7647   3
  -7   0   4 62.5682 7.27743   4
  -6   0   4 28.2642 4.35254   4
   5   0  -4 28.6272 4.09981   2
  -5   0   4 17.2306 2.83295   2
  -5   0   4 15.9179 3.05986   4
   4   0  -4 238.039 13.8714   2
  -4   0   4 196.714 12.8563   2
  -4   0   4 220.072 13.4916   4
  -4   0   4 209.138 16.7384   1
   3   0  -4 352.380 18.0289   2
   3   0  -4 271.380 19.7899   3
  -3   0   4 307.389 17.5746   4
  -3   0   4 314.423 17.3800   2
  -3   0   4 314.580 20.8469   1
   2   0  -4 689.159 38.8396   3
   2   0  -4 760.381 38.5393   2
  -2   0   4 750.130 41.6471   1
  -2   0   4 771.601 38.5698   4
  -2   0   4 767.803 38.3030   2
   1   0  -4 1205.33 61.6195   3
   1   0  -4 1247.06 62.9129   2
  -1   0   4 1254.39 62.7570   2
  -1   0   4 1262.13 62.9833   4
  -1   0   4 1311.75 66.2491   1
   0   0  -4 440.585 24.0533   2
   0   0   4 489.486 27.3719   1
   0   0   4 469.332 24.2626   4
  -1   0  -4 407.678 21.8881   2
   1   0   4 452.821 25.8549   1
   1   0   4 393.850 22.3747   3
   1   0   4 447.311 22.3349   4
  -2   0  -4 120.390 7.21503   2
   2   0   4 125.159 10.9615   3
   2   0   4 122.291 7.78373   4
   2   0   4 131.633 11.4839   1
  -3   0  -4 22.5384 2.22939   4
  -3   0  -4 23.4520 2.17607   2
   3   0   4 25.2394 6.25373   3
   3   0   4 22.9206 2.75325   4
   3   0   4 19.5356 5.14525   1
  -4   0  -4 275.295 14.6711   4
  -4   0  -4 267.199 14.3562   2
   4   0   4 274.809 15.7421   4
   4   0   4 236.717 22.1221   1
   4   0   4 255.199 21.7563   3
  -5   0  -4 343.086 18.7180   2
  -5   0  -4 354.214 19.2472   4
   5   0   4 346.242 26.9177   3
  -6   0  -4 131.405 8.44298   2
  -6   0  -4 141.778 9.16214   4
   6   0   4 114.686 14.2643   3
  -7   0  -4 328.491 18.9444   4
   7   0   4 313.711 27.5204   3
  -8   0  -4 61.0819 5.70174   4
   8   0   4 59.4691 11.1820   3
  -9   0  -4 -0.3200 1.48664   4
   9   0   4 -1.6686 4.56052   3
  -7   1   4 100.391 9.49868   4
  -6   1   4 82.7412 8.06267   4
   5  -1  -4 432.055 23.5315   2
  -5   1   4 355.830 22.3593   2
  -5   1   4 389.491 23.1345   4
   4  -1  -4 439.401 33.5078   3
  -4   1   4 471.671 25.5824   4
  -4   1   4 456.319 25.4635   2
   3  -1  -4 89.2333 11.6174   3
  -3   1   4 93.8830 7.02973   4
  -3   1   4 103.424 9.24750   1
  -3   1   4 104.655 7.23829   2
   2  -1  -4 484.917 26.4970   2
   2  -1  -4 468.262 31.5904   3
  -2   1   4 514.188 26.4602   4
  -2   1   4 503.536 26.3803   2
  -2   1   4 511.633 28.9197   1
   1  -1  -4 333.678 18.7150   2
  -1   1   4 363.507 21.1998   1
  -1   1   4 347.271 18.5887   2
  -1   1   4 341.667 18.6373   4
   0  -1  -4 679.436 35.4436   2
   0   1   4 682.971 35.4954   4
   0   1   4 699.567 35.3605   2
   0   1   4 723.642 38.7621   1
  -1  -1  -4 312.467 16.8277   2
   1   1   4 307.230 16.6164   3
   1   1   4 358.229 21.6092   1
   1   1   4 315.224 17.1788   4
  -2  -1  -4 1938.52 99.7317   2
   2   1   4 2161.13 107.841   1
   2   1   4 2070.20 100.622   4
   2   1   4 1935.71 101.432   3
  -3  -1  -4 380.680 18.9293   2
  -3  -1  -4 344.831 19.2217   4
   3   1   4 390.462 20.2201   4
   3   1   4 370.489 22.9387   3
   3   1   4 335.817 26.9827   1
  -4  -1  -4 832.238 42.7091   2
  -4  -1  -4 868.718 43.4701   4
   4   1   4 823.335 51.0253   3
   4   1   4 887.578 44.6884   4
  -5  -1  -4 456.958 23.6783   4
  -5  -1  -4 402.848 22.5522   2
   5   1   4 482.519 37.2274   3
  -6  -1  -4 0.29035 0.77383   4
  -6  -1  -4 0.81642 0.75887   2
  -6  -1  -4 1.10288 1.76044   1
   6   1   4 0.78790 3.87992   3
   6   1   4 2.52321 3.65503   1
  -7  -1  -4 7.92800 1.95419   4
  -7  -1  -4 12.4243 3.79336   1
   7   1   4 3.60758 4.98711   3
   7   1   4 0.65482 3.07468   1
  -8  -1  -4 197.666 13.4273   4
   8   1   4 228.161 23.2432   3
  -9  -1  -4 79.5786 6.93922   4
   9   1   4 69.4305 12.7683   3
  -6   2   4 32.2017 5.00497   4
  -6   2   4 28.3770 4.22980   2
  -5   2   4 61.6766 6.38545   4
  -5   2   4 56.3742 5.88091   2
   4  -2  -4 64.8852 11.5352   3
  -4   2   4 78.1897 6.82759   2
  -4   2   4 87.3330 6.74389   4
   3  -2  -4 200.156 20.4595   3
  -3   2   4 239.993 13.6191   4
  -3   2   4 223.670 13.7658   2
  -2   2   4 474.912 26.7726   2
  -2   2   4 479.461 26.5338   4
  -2   2   4 547.232 29.4600   1
   1  -2  -4 1647.79 75.0290   3
  -1   2   4 1317.60 71.8377   4
  -1   2   4 1477.93 75.3463   1
  -1   2   4 1314.92 72.0246   2
   0  -2  -4 743.873 37.4555   3
   0   2   4 674.764 37.0356   2
   0   2   4 657.882 36.9638   4
   0   2   4 850.150 42.5132   1
  -1  -2  -4 582.399 31.3302   2
   1   2   4 594.651 31.2496   2
   1   2   4 578.254 31.5285   4
   1   2   4 644.905 31.8117   3
   1   2   4 691.777 38.9888   1
  -2  -2  -4 383.429 20.3202   2
   2   2   4 415.019 21.8144   3
   2   2   4 391.943 20.3038   2
   2   2   4 403.947 21.2075   4
   2   2   4 374.621 28.7317   1
  -3  -2  -4 3.52774 0.72373   2
  -3  -2  -4 3.14208 0.85969   4
   3   2   4 3.37767 1.85384   3
   3   2   4 4.61548 1.36895   4
   3   2   4 3.68375 3.77281   1
  -4  -2  -4 176.537 10.1703   4
  -4  -2  -4 161.981 9.13811   2
   4   2   4 178.941 13.8971   3
   4   2   4 176.247 11.2198   4
  -5  -2  -4 463.176 24.8968   4
   5   2   4 460.550 31.6746   3
  -6  -2  -4 183.204 11.9635   4
  -6  -2  -4 203.289 15.9958   1
   6   2   4 173.576 20.5146   3
  -7  -2  -4 463.735 27.3246   4
  -7  -2  -4 487.166 31.9593   1
   7   2   4 561.406 45.5623   3
  -8  -2  -4 217.631 18.1096   1
  -8  -2  -4 207.969 13.9318   4
   8   2   4 218.039 25.0427   3
  -9  -2  -4 2.03942 1.31698   4
   9   2   4 1.44360 4.80063   3
  10   2   4 5.58752 7.10735   3
  -6   3   4 41.5757 5.39302   2
  -6   3   4 58.0384 6.54586   4
  -5   3   4 231.786 14.7545   4
  -5   3   4 189.634 13.7939   2
   4  -3  -4 397.616 34.8694   3
  -4   3   4 464.750 24.7792   4
  -4   3   4 424.009 24.9736   2
   3  -3  -4 166.484 20.1129   3
  -3   3   4 122.298 9.29095   2
  -3   3   4 118.642 8.52560   4
   2  -3  -4 564.671 33.3791   3
  -2   3   4 497.199 28.1341   2
  -2   3   4 497.776 27.3918   4
   1  -3  -4 23.6433 3.78244   3
  -1   3   4 30.4386 6.11367   1
  -1   3   4 23.2602 2.82950   2
  -1   3   4 24.0953 2.61084   4
   0  -3  -4 528.976 29.3299   3
   0   3   4 519.865 28.1206   4
   0   3   4 531.235 28.4633   2
   0   3   4 619.673 37.4805   1
  -1  -3  -4 122.681 7.91782   3
   1   3   4 108.771 7.19628   4
   1   3   4 120.703 7.20829   2
   1   3   4 117.652 8.08161   3
   1   3   4 118.978 14.0595   1
  -2  -3  -4 1547.54 79.2012   2
   2   3   4 1644.38 80.0762   4
   2   3   4 1639.26 79.2165   2
   2   3   4 1564.93 80.9996   3
  -3  -3  -4 520.660 26.8590   2
  -3  -3  -4 521.500 27.4763   4
   3   3   4 516.605 28.3692   4
   3   3   4 557.071 26.8975   2
   3   3   4 538.735 29.9032   3
  -4  -3  -4 882.993 45.1435   4
  -4  -3  -4 851.897 43.8694   2
   4   3   4 923.961 49.0351   3
   4   3   4 887.703 46.4389   4
  -5  -3  -4 947.632 53.6271   1
  -5  -3  -4 921.398 48.4272   4
   5   3   4 959.668 53.9324   3
  -6  -3  -4 10.4611 3.41057   1
  -6  -3  -4 11.7604 2.24143   4
   6   3   4 7.44364 5.18374   1
   6   3   4 12.9661 4.59694   3
  -7  -3  -4 0.19320 1.09287   4
  -7  -3  -4 1.77546 2.79559   1
   7   3   4 0.88299 2.69879   1
   7   3   4 4.91040 4.77362   3
  -8  -3  -4 169.178 16.0905   1
  -8  -3  -4 162.151 11.7746   4
   8   3   4 201.554 28.4624   3
  -9  -3  -4 101.128 12.3173   1
  -9  -3  -4 106.132 8.93518   4
   9   3   4 143.804 21.6538   3
 -10  -3  -4 46.5735 5.81124   4
  10   3   4 72.8363 15.7293   3
   5  -4  -4 54.3208 13.7734   3
  -5   4   4 64.4024 6.69896   2
   4  -4  -4 5.91334 7.26580   3
  -4   4   4 12.2186 2.98694   4
  -4   4   4 8.83693 2.82070   2
   3  -4  -4 133.044 15.9704   3
  -3   4   4 126.368 9.66632   2
  -3   4   4 126.488 8.73363   4
   2  -4  -4 211.165 17.0467   3
  -2   4   4 213.392 13.7919   2
  -2   4   4 223.236 12.7945   4
   1  -4  -4 860.027 46.9348   3
  -1   4   4 855.010 44.5939   2
  -1   4   4 845.500 43.5708   4
   0  -4  -4 600.667 33.8314   3
   0   4   4 636.611 31.7988   4
   0   4   4 605.973 32.3049   2
  -1  -4  -4 583.743 31.4127   3
   1   4   4 558.383 29.8930   2
   1   4   4 578.017 29.8996   4
   1   4   4 578.401 31.6622   3
   2   4   4 524.464 29.7315   3
   2   4   4 536.826 27.4775   2
   2   4   4 537.923 28.1761   4
  -3  -4  -4 52.0520 3.62518   2
  -3  -4  -4 56.3477 4.09728   4
  -3  -4  -4 56.8852 7.36848   1
   3   4   4 50.2837 4.67688   4
   3   4   4 58.2937 3.70871   2
   3   4   4 54.4952 5.85505   3
  -4  -4  -4 43.1585 2.86296   2
  -4  -4  -4 46.4663 3.91903   4
  -4  -4  -4 49.9192 7.00483   1
   4   4   4 44.2840 5.78861   3
   4   4   4 40.9725 4.66927   4
  -5  -4  -4 377.083 21.0875   4
  -5  -4  -4 380.780 26.2725   1
   5   4   4 380.356 25.3083   3
  -6  -4  -4 178.934 16.2198   1
  -6  -4  -4 189.175 12.1929   4
   6   4   4 190.800 16.7619   3
  -7  -4  -4 440.044 25.7793   4
  -7  -4  -4 430.854 30.7928   1
   7   4   4 497.442 34.7435   3
  -8  -4  -4 380.425 21.9833   4
  -8  -4  -4 376.970 27.6180   1
   8   4   4 317.957 32.2254   3
  -9  -4  -4 13.0330 3.24411   4
  -9  -4  -4 11.9000 5.07808   1
   9   4   4 17.8390 12.3111   3
 -10  -4  -4 18.9195 3.54920   4
 -10  -4  -4 20.2881 6.63483   1
  10   4   4 19.6242 10.6731   3
   5  -5  -4 49.9901 13.7420   3
  -5   5   4 92.1589 8.03202   2
   4  -5  -4 257.531 30.7951   3
  -4   5   4 284.342 18.0407   2
   3  -5  -4 106.289 14.1173   3
  -3   5   4 116.168 9.27126   2
   2  -5  -4 335.646 24.1267   3
  -2   5   4 346.982 20.6609   2
   1  -5  -4 26.3190 4.82686   3
  -1   5   4 18.6228 3.29509   2
  -1   5   4 21.3893 2.58168   4
   0  -5  -4 205.795 14.3656   3
   0   5   4 196.070 11.5442   4
   0   5   4 193.567 12.2690   2
  -1  -5  -4 38.0543 4.62607   1
  -1  -5  -4 36.8548 4.66683   3
   1   5   4 36.2745 4.78535   3
   1   5   4 42.1510 3.83176   2
   1   5   4 43.8399 3.72062   4
  -2  -5  -4 817.684 42.2908   3
  -2  -5  -4 719.786 43.4129   1
   2   5   4 814.824 40.4326   4
   2   5   4 783.776 39.7966   2
   2   5   4 754.906 42.6058   3
  -3  -5  -4 563.537 33.8971   1
  -3  -5  -4 517.979 27.8777   4
   3   5   4 561.020 29.2578   4
   3   5   4 529.500 27.5202   2
   3   5   4 517.307 31.0593   3
  -4  -5  -4 710.547 41.3444   1
  -4  -5  -4 682.290 33.9015   2
  -4  -5  -4 653.095 34.4276   4
   4   5   4 644.125 37.9918   3
   4   5   4 623.741 33.1293   2
  -5  -5  -4 1158.58 64.2905   1
  -5  -5  -4 1104.52 57.1766   4
   5   5   4 1078.52 61.5292   3
  -6  -5  -4 92.4556 11.1181   1
  -6  -5  -4 88.7994 7.16550   4
   6   5   4 71.6420 9.75490   3
  -7  -5  -4 13.4958 3.22212   4
  -7  -5  -4 19.0314 5.64290   1
   7   5   4 21.6448 5.81790   3
  -8  -5  -4 72.3159 7.20665   4
  -8  -5  -4 91.9105 11.9648   1
   8   5   4 76.5749 13.1593   3
  -9  -5  -4 103.493 9.10741   4
  -9  -5  -4 131.043 14.8421   1
   9   5   4 85.5434 16.4657   3
 -10  -5  -4 34.7529 5.17748   4
 -10  -5  -4 33.0301 7.71240   1
  10   5   4 21.8177 12.2938   3
   4  -6  -4 3.59976 6.01414   3
  -4   6   4 1.23894 2.27531   2
   3  -6  -4 45.7201 9.28338   3
  -3   6   4 53.2531 6.19369   2
   2  -6  -4 65.6436 9.53628   3
  -2   6   4 78.5621 7.39136   2
   1  -6  -4 397.190 26.5481   3
  -1   6   4 395.297 23.4790   2
   0  -6  -4 422.971 26.9778   3
   0   6   4 437.209 24.5667   2
  -1  -6  -4 434.052 26.3389   3
   1   6   4 417.539 23.5261   2
  -2  -6  -4 486.420 28.4850   3
  -2  -6  -4 454.051 28.3350   1
  -2  -6  -4 474.744 24.9324   4
   2   6   4 484.842 25.6220   2
   2   6   4 489.440 29.0869   3
   2   6   4 491.977 26.1085   4
  -3  -6  -4 114.429 7.15511   4
  -3  -6  -4 103.213 10.4981   1
   3   6   4 111.453 8.17183   4
   3   6   4 119.260 10.4137   3
   3   6   4 105.459 6.95643   2
  -4  -6  -4 2.43050 1.22695   4
  -4  -6  -4 2.27381 2.57791   1
   4   6   4 1.41180 0.78412   2
   4   6   4 -0.8286 2.33211   1
   4   6   4 0.62075 1.40169   3
  -5  -6  -4 182.299 17.2052   1
  -5  -6  -4 187.021 11.6550   4
   5   6   4 167.397 14.8406   3
  -6  -6  -4 139.735 10.0594   4
  -6  -6  -4 136.483 15.1175   1
   6   6   4 150.506 14.3214   3
  -7  -6  -4 290.673 18.1349   4
  -7  -6  -4 285.325 24.2917   1
   7   6   4 303.487 24.1410   3
  -8  -6  -4 439.285 25.9666   4
  -8  -6  -4 433.710 33.0153   1
   8   6   4 455.983 34.6446   3
  -9  -6  -4 41.3195 5.35699   4
  -9  -6  -4 41.0448 8.65476   1
   9   6   4 38.0157 10.6117   3
 -10  -6  -4 25.9862 7.93944   1
 -10  -6  -4 25.6314 4.74752   4
  10   6   4 28.5477 13.1084   3
   3  -7  -4 60.8615 11.9565   3
  -3   7   4 85.7556 8.03286   2
   2  -7  -4 190.968 17.9967   3
  -2   7   4 173.210 13.2235   2
   1  -7  -4 69.2579 9.47247   3
  -1   7   4 67.6880 6.89553   2
   0  -7  -4 37.4340 6.59992   3
   0   7   4 39.2606 5.11010   2
  -1  -7  -4 11.6282 3.91284   3
   1   7   4 15.4005 2.87284   2
  -2  -7  -4 280.701 19.3251   3
   2   7   4 266.630 16.0910   2
   2   7   4 281.594 19.7531   3
  -3  -7  -4 385.311 23.8415   3
  -3  -7  -4 351.289 24.1514   1
   3   7   4 383.392 24.7250   3
   3   7   4 352.829 19.9649   2
  -4  -7  -4 374.476 26.3393   1
   4   7   4 382.157 25.4328   3
  -5  -7  -4 861.011 52.7544   1
   5   7   4 853.018 50.1913   3
  -6  -7  -4 155.042 11.2393   4
  -6  -7  -4 158.773 17.1760   1
   6   7   4 178.126 16.0050   3
  -7  -7  -4 34.3007 7.71406   1
  -7  -7  -4 34.1121 4.61048   4
   7   7   4 39.4607 8.09629   3
  -8  -7  -4 14.7157 3.09120   4
  -8  -7  -4 8.37938 5.26792   1
   8   7   4 16.4232 6.27198   3
  -9  -7  -4 87.6111 13.5327   1
  -9  -7  -4 83.2461 8.23553   4
   9   7   4 104.988 15.7587   3
   2  -8  -4 28.8315 6.97294   3
  -2   8   4 22.8378 4.29331   2
   1  -8  -4 140.864 14.7675   3
  -1   8   4 142.450 11.5390   2
   0  -8  -4 244.242 20.0195   3
   0   8   4 245.304 16.7046   2
  -1  -8  -4 240.324 18.8582   3
   1   8   4 234.476 15.5547   2
  -2  -8  -4 360.931 24.9913   3
   2   8   4 349.513 21.0629   2
   2   8   4 387.798 25.8566   3
  -3  -8  -4 142.249 12.4787   3
   3   8   4 128.610 8.95526   2
   3   8   4 130.596 12.6655   3
  -4  -8  -4 7.46463 3.74125   1
  -4  -8  -4 11.1175 3.83513   3
   4   8   4 7.80390 3.91990   3
  -5  -8  -4 45.8578 8.20375   1
   5   8   4 45.9166 7.32442   3
  -6  -8  -4 88.5262 12.6570   1
   6   8   4 69.8727 10.1456   3
  -7  -8  -4 165.359 18.4260   1
  -7  -8  -4 133.712 10.9230   4
   7   8   4 137.627 15.5519   3
  -8  -8  -4 320.615 29.2838   1
  -8  -8  -4 321.827 20.5136   4
   8   8   4 355.479 28.8649   3
  -9  -8  -4 59.8653 6.93506   4
  -9  -8  -4 59.3396 11.8788   1
   9   8   4 85.3411 14.0085   3
   1  -9  -4 61.8650 10.2334   3
  -1   9   4 70.3245 7.92537   2
   0  -9  -4 0.70439 2.66790   3
   0   9   4 0.54278 2.09201   2
  -1  -9  -4 7.86679 3.94387   3
   1   9   4 0.59986 1.92248   2
  -2  -9  -4 61.0217 8.59490   3
   2   9   4 60.9494 6.25670   2
  -3  -9  -4 178.148 15.8712   3
   3   9   4 177.565 16.3037   3
  -4  -9  -4 194.172 16.2680   3
   4   9   4 186.676 16.8936   3
  -5  -9  -4 461.201 33.4215   1
  -5  -9  -4 491.017 31.6898   3
   5   9   4 490.364 33.2467   3
  -6  -9  -4 184.583 19.0444   1
   6   9   4 181.193 17.5985   3
  -7  -9  -4 52.0610 11.0547   1
   7   9   4 56.3406 9.50742   3
  -8  -9  -4 2.03444 3.58653   1
   8   9   4 -1.6019 3.61080   3
  -1 -10  -4 121.405 14.6028   3
   1  10   4 142.971 11.8103   2
  -2 -10  -4 189.974 17.7465   3
   2  10   4 181.724 13.3521   2
  -3 -10  -4 105.808 12.6219   3
  -4 -10  -4 22.9103 5.43699   3
   4  10   4 23.2742 5.80403   3
  -5 -10  -4 3.53368 3.36652   3
   5  10   4 2.48983 3.66316   3
  -6 -10  -4 22.1481 7.09352   1
  -6 -10  -4 24.2566 5.68461   3
   6  10   4 15.7210 6.10408   3
  -7 -10  -4 51.0864 10.8923   1
  -7 -10  -4 52.4712 8.79556   3
   7  10   4 58.3633 10.5110   3
  -4  -7   5 115.915 15.2309   1
  -3  -7   5 273.683 24.2917   1
   2   7  -5 92.3608 8.78508   2
  -2  -7   5 103.732 12.7938   1
   1   7  -5 32.7795 5.10566   2
  -1  -7   5 38.7060 7.63392   1
   0   7  -5 8.04903 2.75423   2
   0  -7   5 4.58443 3.49223   1
  -1   7  -5 37.2181 5.56113   2
  -2   7  -5 45.1824 6.41015   2
  -5  -6   5 63.5857 11.0453   1
  -4  -6   5 12.1526 5.71359   1
  -3  -6   5 9.12938 4.00548   1
   2   6  -5 93.3730 8.23173   2
  -2  -6   5 99.0592 12.1010   1
   1   6  -5 120.505 9.61757   2
  -1  -6   5 122.684 13.4157   1
   0   6  -5 319.746 20.2492   2
   0  -6   5 330.713 24.6326   1
  -1   6  -5 252.786 17.3728   2
   1  -6   5 280.621 21.6490   1
  -2   6  -5 87.6261 8.15848   2
  -3   6  -5 56.6580 6.68378   2
  -4   6  -5 -1.0913 1.24310   2
   4  -6   5 -1.6368 6.86462   3
  -6  -5   5 2.88330 4.13270   1
  -6  -5   5 -0.7883 0.96161   4
  -5  -5   5 92.8547 7.83198   4
  -5  -5   5 85.9480 12.9052   1
  -4  -5   5 117.440 8.92127   4
  -4  -5   5 129.859 14.6859   1
   3   5  -5 510.031 28.7640   2
  -3  -5   5 516.909 35.5701   1
   2   5  -5 221.541 14.5197   2
  -2  -5   5 240.586 19.8700   1
   1   5  -5 101.388 7.96278   2
  -1  -5   5 96.8982 11.3405   1
   0   5  -5 83.4806 7.20368   2
   0  -5   5 92.1415 10.5870   1
  -1   5  -5 27.2063 4.01267   2
   1  -5   5 27.4325 5.74090   1
  -2   5  -5 57.9939 5.81347   2
   2  -5   5 45.4167 7.41825   1
   2  -5   5 57.3088 8.84148   3
  -3   5  -5 183.895 13.3815   2
   3  -5   5 208.143 20.8728   3
  -4   5  -5 200.990 14.1984   2
  -5   5  -5 63.3444 6.70396   2
   5  -5   5 52.2354 14.6018   3
  -6  -4   5 161.868 12.5471   4
  -6  -4   5 181.122 19.6724   1
  -5  -4   5 162.601 17.3442   1
  -5  -4   5 146.119 11.0752   4
  -4  -4   5 53.1715 5.17180   4
  -4  -4   5 48.6261 8.74297   1
   3   4  -5 6.42319 2.15915   2
  -3  -4   5 4.87571 3.67936   1
  -3  -4   5 5.28672 1.99293   4
   2   4  -5 103.853 7.75687   2
  -2  -4   5 105.303 11.7032   1
  -2  -4   5 103.262 7.34530   4
   1   4  -5 125.105 8.84194   2
  -1  -4   5 134.402 12.9647   1
  -1  -4   5 119.117 8.13668   4
   0   4  -5 496.468 26.7933   2
   0  -4   5 458.091 26.8828   4
   0  -4   5 499.930 31.5870   1
  -1   4  -5 611.448 33.6464   2
   1  -4   5 644.995 38.4640   1
   1  -4   5 613.574 37.0275   3
  -2   4  -5 217.561 13.6638   2
   2  -4   5 212.817 17.3894   1
   2  -4   5 205.523 17.4673   3
  -3   4  -5 193.434 12.7423   2
   3  -4   5 180.951 16.6794   1
   3  -4   5 190.245 19.4609   3
  -4   4  -5 4.66538 2.03003   2
   4  -4   5 8.73933 7.48447   3
  -5   4  -5 49.4525 5.44405   2
   5  -4   5 33.4584 11.3892   3
  -6   4  -5 72.4448 6.81339   2
   6  -4   5 51.6237 12.7896   3
  -6  -3   5 14.4960 3.78831   4
  -6  -3   5 21.6765 7.23085   1
  -5  -3   5 88.7113 12.4264   1
  -5  -3   5 97.8558 8.02128   4
  -4  -3   5 106.876 8.01622   4
  -4  -3   5 90.7167 11.7076   1
   3   3  -5 717.306 37.7102   2
  -3  -3   5 686.108 43.7275   1
  -3  -3   5 733.675 37.8464   4
   2   3  -5 472.401 26.2635   2
  -2  -3   5 496.501 26.1697   4
  -2  -3   5 487.393 31.8456   1
   1   3  -5 175.047 10.7465   2
  -1  -3   5 167.415 14.6345   1
  -1  -3   5 163.916 10.2803   4
   0   3  -5 371.523 20.6988   2
   0  -3   5 393.502 25.4772   1
   0  -3   5 353.847 20.1948   4
  -1   3  -5 9.76216 2.10167   2
   1  -3   5 10.7629 1.90733   4
   1  -3   5 9.02180 3.46294   3
   1  -3   5 8.72382 3.37914   1
  -2   3  -5 44.4774 4.12394   2
  -2   3  -5 34.7938 3.12278   4
   2  -3   5 35.6695 3.53855   4
   2  -3   5 43.1793 6.45044   1
   2  -3   5 45.6236 7.03217   3
  -3   3  -5 199.706 12.8707   2
   3  -3   5 252.004 22.0889   3
   3  -3   5 193.650 17.1672   1
  -4   3  -5 448.424 23.0482   2
   4  -3   5 355.406 28.7211   1
   4  -3   5 380.026 34.4292   3
  -5   3  -5 130.900 9.12652   2
   5  -3   5 102.198 15.2430   3
  -6   3  -5 186.404 12.0932   2
   6  -3   5 147.665 19.2940   3
  -7   3  -5 17.2965 3.38564   2
   7  -3   5 12.4113 7.80822   3
  -7  -2   5 56.4678 6.97531   4
  -6  -2   5 189.464 13.7426   4
  -5  -2   5 266.705 22.9007   1
  -5  -2   5 257.269 16.6545   4
   4   2  -5 112.360 8.33512   2
  -4  -2   5 107.553 12.3479   1
  -4  -2   5 106.697 8.29754   4
   3   2  -5 64.3179 5.44185   2
  -3  -2   5 60.0219 8.30433   1
  -3  -2   5 60.7030 5.44225   4
   2   2  -5 67.2486 5.24895   2
  -2  -2   5 57.9208 7.92601   1
  -2  -2   5 62.4793 5.17721   4
   1   2  -5 114.980 7.52837   2
  -1  -2   5 111.344 7.46943   4
  -1  -2   5 111.031 10.8510   1
   0   2  -5 462.462 25.4832   2
   0  -2   5 474.760 25.4147   4
   0  -2   5 501.852 30.2852   1
  -1   2  -5 1114.62 57.5377   2
   1  -2   5 1204.41 62.6957   1
   1  -2   5 1083.44 57.4149   4
  -2   2  -5 409.682 23.1555   2
   2  -2   5 403.196 23.0961   4
   2  -2   5 448.841 28.1265   1
   2  -2   5 470.306 30.0270   3
  -3   2  -5 431.461 22.2780   2
  -3   2  -5 382.693 21.2880   4
   3  -2   5 449.198 32.8530   3
   3  -2   5 426.530 28.1768   1
   3  -2   5 357.078 21.9916   4
  -4   2  -5 65.9761 4.85156   4
  -4   2  -5 70.6834 5.54098   2
   4  -2   5 67.3745 10.0594   1
   4  -2   5 50.5262 9.68801   3
  -5   2  -5 35.5276 3.79045   2
  -5   2  -5 30.0414 3.33509   4
   5  -2   5 38.4697 8.62531   3
   5  -2   5 19.4525 6.33945   1
  -6   2  -5 89.6584 7.06790   2
   6  -2   5 75.9009 12.5083   3
  -7   2  -5 106.125 7.94531   2
   7  -2   5 82.6308 13.4558   3
   8  -2   5 59.1449 11.6956   3
  -7  -1   5 37.8913 5.59746   4
  -6  -1   5 95.8006 8.98928   4
  -5  -1   5 51.6012 5.57698   4
  -5  -1   5 47.1871 8.73828   1
   4   1  -5 62.9736 5.72847   2
  -4  -1   5 48.2686 5.12893   4
  -4  -1   5 58.1076 8.52797   1
   3   1  -5 741.331 36.8341   2
  -3  -1   5 664.612 41.4205   1
  -3  -1   5 669.770 36.6572   4
   2   1  -5 807.476 42.1311   2
  -2  -1   5 824.257 47.0373   1
  -2  -1   5 813.837 42.3051   4
   1   1  -5 209.776 12.6227   2
  -1  -1   5 222.110 12.8017   4
  -1  -1   5 229.225 16.6627   1
   0   1  -5 904.215 46.3347   2
   0  -1   5 894.599 46.3805   4
   0  -1   5 930.967 50.9608   1
  -1   1  -5 14.1305 1.96444   2
   1  -1   5 13.6674 3.64767   1
   1  -1   5 14.0888 3.69529   3
   1  -1   5 9.58390 1.88246   4
  -2   1  -5 31.9922 2.88937   2
   2  -1   5 23.9764 2.83732   4
   2  -1   5 30.8819 5.40076   1
   2  -1   5 22.6477 5.28054   3
  -3   1  -5 118.120 7.35983   2
  -3   1  -5 112.170 7.05144   4
   3  -1   5 102.158 11.5367   3
   3  -1   5 110.190 7.71642   4
   3  -1   5 114.978 12.0473   1
  -4   1  -5 696.997 33.9721   2
  -4   1  -5 704.144 33.7594   4
   4  -1   5 569.930 40.2428   3
   4  -1   5 623.782 34.6086   4
   4  -1   5 629.026 42.5164   1
  -5   1  -5 179.336 10.5729   4
  -5   1  -5 188.324 10.7884   2
   5  -1   5 150.497 16.2940   3
   5  -1   5 148.139 17.8519   1
  -6   1  -5 306.662 17.6110   2
  -6   1  -5 335.011 17.9556   4
   6  -1   5 266.350 24.5703   3
  -7   1  -5 105.536 7.64525   2
  -7   1  -5 108.720 7.81340   4
   7  -1   5 74.5126 12.6022   3
   8  -1   5 -0.5829 3.51011   3
  -6   0   5 143.989 11.6603   4
   5   0  -5 375.079 21.3713   2
  -5   0   5 313.558 20.2765   4
  -5   0   5 319.372 19.9892   2
   4   0  -5 161.791 10.8412   2
  -4   0   5 133.985 9.88710   2
  -4   0   5 153.335 14.3920   1
  -4   0   5 145.620 10.3911   4
   3   0  -5 183.355 11.1849   2
  -3   0   5 155.051 10.3997   2
  -3   0   5 167.865 10.9398   4
  -3   0   5 163.219 14.0654   1
   2   0  -5 8.58222 2.01813   2
  -2   0   5 8.36377 3.13208   1
  -2   0   5 6.32916 1.89665   4
  -2   0   5 10.1382 1.98238   2
   1   0  -5 72.1525 5.50427   2
  -1   0   5 80.3708 8.15979   1
  -1   0   5 77.3413 5.64873   4
   0   0  -5 250.827 14.7230   2
   0   0   5 278.022 15.0941   4
   0   0   5 278.658 18.6775   1
  -1   0  -5 1442.70 74.8562   2
   1   0   5 1441.09 74.2963   3
   1   0   5 1574.28 80.1208   1
   1   0   5 1555.95 75.3486   4
  -2   0  -5 659.831 34.1588   2
   2   0   5 698.557 34.9186   4
   2   0   5 720.103 40.4683   1
   2   0   5 600.888 36.3772   3
  -3   0  -5 713.372 35.7813   2
  -3   0  -5 670.205 35.7571   4
   3   0   5 697.042 36.5978   4
   3   0   5 725.573 42.9718   3
   3   0   5 691.945 43.5253   1
  -4   0  -5 299.498 16.6383   4
  -4   0  -5 305.453 16.4560   2
   4   0   5 266.374 24.3482   1
   4   0   5 338.200 26.1781   3
   4   0   5 309.148 17.8034   4
  -5   0  -5 10.5445 1.63906   2
  -5   0  -5 12.5438 2.10538   4
   5   0   5 8.23637 4.81423   3
   5   0   5 10.4276 5.72368   1
  -6   0  -5 69.2120 5.66896   4
  -6   0  -5 68.7240 5.19224   2
   6   0   5 54.1872 10.0330   3
  -7   0  -5 128.641 9.42204   4
  -7   0  -5 142.418 12.9332   1
   7   0   5 126.293 15.5708   3
  -8   0  -5 76.6299 6.61326   4
   8   0   5 76.9467 12.7471   3
  -9   0  -5 151.209 10.6643   4
   9   0   5 130.398 17.7114   3
   5  -1  -5 16.8062 3.73493   2
  -5   1   5 7.17567 2.65526   2
  -5   1   5 12.9660 3.32240   4
   4  -1  -5 32.7066 4.45474   2
  -4   1   5 26.6489 3.68466   4
  -4   1   5 29.4014 3.97636   2
   3  -1  -5 419.077 23.4324   2
  -3   1   5 409.057 22.9459   2
  -3   1   5 416.213 26.8128   1
  -3   1   5 402.979 23.0599   4
   2  -1  -5 1002.73 51.0922   2
  -2   1   5 1014.53 54.6091   1
  -2   1   5 970.171 50.8712   4
  -2   1   5 968.511 50.6871   2
   1  -1  -5 240.042 13.9317   2
  -1   1   5 248.381 13.9402   4
  -1   1   5 242.866 16.9334   1
  -1   1   5 233.494 13.7024   2
   0  -1  -5 1205.97 62.4951   2
   0   1   5 1280.00 66.9272   1
   0   1   5 1245.75 62.6853   4
   0   1   5 1241.73 62.4069   2
  -1  -1  -5 183.031 11.0586   2
   1   1   5 189.000 11.4592   4
   1   1   5 201.691 10.3091   3
   1   1   5 218.587 15.8965   1
  -2  -1  -5 13.2056 1.70149   2
   2   1   5 12.8438 4.27386   1
   2   1   5 14.0484 2.20671   3
   2   1   5 14.8769 2.24412   4
  -3  -1  -5 25.7540 2.32200   2
   3   1   5 21.5842 2.81683   4
   3   1   5 25.2743 6.44183   1
   3   1   5 24.6695 4.01830   3
  -4  -1  -5 825.196 42.6363   4
  -4  -1  -5 818.215 42.0590   2
   4   1   5 868.502 43.9918   4
   4   1   5 870.556 49.2157   3
   4   1   5 785.116 53.8190   1
  -5  -1  -5 248.946 14.4357   2
  -5  -1  -5 265.826 15.2840   4
   5   1   5 327.030 26.2948   3
  -6  -1  -5 436.024 23.5041   4
  -6  -1  -5 382.056 22.2539   2
   6   1   5 495.644 36.6679   3
  -7  -1  -5 305.075 22.0863   1
  -7  -1  -5 279.417 17.5711   4
   7   1   5 308.133 27.1182   3
  -8  -1  -5 0.59930 1.58357   4
  -8  -1  -5 0.55794 2.21963   1
   8   1   5 3.65996 4.18620   3
   8   1   5 1.06668 3.82192   1
  -9  -1  -5 17.6673 3.30983   4
   9   1   5 14.5393 6.27907   3
   5  -2  -5 304.824 18.8481   2
  -5   2   5 292.872 18.7701   4
  -5   2   5 271.479 17.9353   2
  -4   2   5 153.407 11.0679   2
  -4   2   5 153.650 10.8973   4
  -3   2   5 241.622 14.4792   4
  -3   2   5 224.403 14.4122   2
   2  -2  -5 11.4829 2.32067   2
  -2   2   5 11.4735 2.44368   2
  -2   2   5 8.13566 3.25760   1
  -2   2   5 14.7840 2.50872   4
   1  -2  -5 37.4282 6.12053   3
   1  -2  -5 27.2890 3.25758   2
  -1   2   5 29.6691 3.24909   4
  -1   2   5 30.5923 3.26290   2
  -1   2   5 35.1418 5.39271   1
   0  -2  -5 91.5200 6.03394   3
   0  -2  -5 74.8076 5.65733   2
   0   2   5 72.8080 5.51289   2
   0   2   5 80.0868 5.71423   4
   0   2   5 81.7611 9.07532   1
  -1  -2  -5 1296.40 69.3593   2
  -1  -2  -5 1565.08 69.2936   3
   1   2   5 1420.05 69.2974   3
   1   2   5 1308.84 69.2864   2
   1   2   5 1415.46 76.8924   1
   1   2   5 1312.65 69.6840   4
  -2  -2  -5 844.348 43.6813   2
   2   2   5 868.179 44.5494   3
   2   2   5 886.411 53.6026   1
   2   2   5 871.789 44.5446   4
  -3  -2  -5 766.447 39.5872   2
   3   2   5 806.701 41.0308   4
   3   2   5 732.783 51.0290   1
   3   2   5 828.003 42.4708   3
  -4  -2  -5 670.187 34.4083   4
  -4  -2  -5 634.161 33.5125   2
   4   2   5 704.593 38.6722   3
   4   2   5 652.119 35.5748   4
  -5  -2  -5 2.00286 0.72054   2
  -5  -2  -5 1.83674 1.04723   4
   5   2   5 5.48273 4.66859   1
   5   2   5 1.97922 2.96763   3
  -6  -2  -5 31.6915 3.69399   4
   6   2   5 42.4921 9.46007   3
   6   2   5 25.8773 8.17610   1
  -7  -2  -5 137.170 13.4606   1
  -7  -2  -5 122.156 9.37975   4
   7   2   5 160.815 22.3448   3
  -8  -2  -5 92.4516 7.79011   4
  -8  -2  -5 84.7973 10.7660   1
   8   2   5 102.609 15.9234   3
  -9  -2  -5 181.566 12.9368   4
   9   2   5 199.304 22.9893   3
  -5   3   5 4.02812 2.33762   4
  -5   3   5 1.65234 2.13959   2
  -4   3   5 7.87722 2.82797   4
  -4   3   5 11.2482 3.04516   2
  -3   3   5 145.479 10.2879   4
  -3   3   5 158.274 11.0019   2
  -2   3   5 819.587 44.3624   2
  -2   3   5 868.503 44.0075   4
   1  -3  -5 271.643 18.0288   3
  -1   3   5 323.483 23.5503   1
  -1   3   5 251.927 15.4384   4
  -1   3   5 260.865 15.8121   2
   0  -3  -5 1215.45 60.7329   3
   0   3   5 1124.89 59.6875   2
   0   3   5 1341.69 70.4550   1
   0   3   5 1061.66 59.4471   4
  -1  -3  -5 499.100 27.4219   2
  -1  -3  -5 554.590 28.0231   3
   1   3   5 531.183 37.7624   1
   1   3   5 494.964 27.5405   4
   1   3   5 534.166 27.4712   2
   1   3   5 530.006 28.0635   3
  -2  -3  -5 0.86713 0.75016   2
   2   3   5 1.43287 1.21740   3
   2   3   5 1.75701 3.32122   1
   2   3   5 -0.0688 0.67337   4
   2   3   5 0.25281 0.62883   2
  -3  -3  -5 2.74797 0.81104   2
   3   3   5 1.69673 1.34013   4
   3   3   5 1.46458 1.41411   3
   3   3   5 0.42963 2.78113   1
  -4  -3  -5 628.341 33.6952   2
  -4  -3  -5 677.031 34.7733   4
   4   3   5 696.438 36.2026   4
   4   3   5 688.010 38.1950   3
  -5  -3  -5 346.952 19.5844   4
   5   3   5 340.330 21.0348   4
   5   3   5 370.461 24.4023   3
  -6  -3  -5 449.399 24.8450   4
  -6  -3  -5 446.818 30.1259   1
   6   3   5 448.027 31.4651   3
  -7  -3  -5 571.410 35.9400   1
  -7  -3  -5 528.504 29.9474   4
   7   3   5 513.301 40.3273   3
  -8  -3  -5 14.8656 5.05457   1
  -8  -3  -5 17.5447 3.37090   4
   8   3   5 26.9292 11.7897   3
   8   3   5 5.25210 5.66993   1
  -9  -3  -5 36.0110 7.75241   1
  -9  -3  -5 38.7891 5.04118   4
   9   3   5 47.2921 13.3406   3
 -10  -3  -5 3.63909 2.29293   4
  10   3   5 4.01392 6.37535   3
  -5   4   5 159.867 12.1626   2
  -4   4   5 148.949 10.7775   4
  -4   4   5 134.490 10.8146   2
   3  -4  -5 326.666 37.4604   3
  -3   4   5 203.403 13.7783   4
  -3   4   5 223.024 14.9696   2
   2  -4  -5 65.9834 9.15930   3
  -2   4   5 56.6711 5.60312   2
  -2   4   5 51.2195 4.89933   4
   1  -4  -5 3.71095 2.44447   3
  -1   4   5 3.67657 1.93883   2
  -1   4   5 8.68507 1.86395   4
   0  -4  -5 4.63184 2.02148   3
   0   4   5 2.95527 3.83032   1
   0   4   5 5.46941 1.40879   4
   0   4   5 6.97494 1.62017   2
  -1  -4  -5 729.447 38.4115   3
   1   4   5 607.104 48.8807   1
   1   4   5 762.752 37.2689   2
   1   4   5 728.546 38.5511   3
   1   4   5 723.175 37.2229   4
   2   4   5 804.810 41.9265   4
   2   4   5 786.295 43.0608   3
   2   4   5 834.864 41.2771   2
  -3  -4  -5 633.092 33.3836   2
  -3  -4  -5 643.914 33.8128   4
   3   4   5 657.419 33.3608   2
   3   4   5 665.666 36.2815   3
   3   4   5 681.464 34.9442   4
  -4  -4  -5 822.740 43.8150   2
  -4  -4  -5 889.432 44.9817   4
   4   4   5 905.458 46.5594   4
   4   4   5 899.653 48.3905   3
  -5  -4  -5 54.9353 4.59838   4
  -5  -4  -5 47.3661 3.21343   2
  -5  -4  -5 49.6811 7.58011   1
   5   4   5 57.6007 7.25386   3
  -6  -4  -5 10.2533 3.72034   1
  -6  -4  -5 9.37420 2.34186   4
   6   4   5 10.9679 4.35540   3
   6   4   5 6.22448 5.65677   1
  -7  -4  -5 73.0985 10.2643   1
  -7  -4  -5 83.6617 7.12373   4
   7   4   5 72.6151 11.3606   3
  -8  -4  -5 89.8295 11.4783   1
  -8  -4  -5 76.3817 7.17799   4
   8   4   5 65.0809 12.6337   3
  -9  -4  -5 138.708 15.3569   1
  -9  -4  -5 128.594 10.5387   4
   9   4   5 153.460 25.4394   3
 -10  -4  -5 239.846 17.4522   4
 -10  -4  -5 268.543 23.6037   1
  10   4   5 381.652 38.0854   3
  -4   5   5 4.00531 2.23209   2
   3  -5  -5 29.7390 9.51847   3
  -3   5   5 27.8371 4.58021   2
   2  -5  -5 442.378 30.8291   3
  -2   5   5 470.493 26.7581   2
   1  -5  -5 215.926 16.7836   3
  -1   5   5 235.088 13.6200   4
  -1   5   5 234.428 14.6983   2
   0  -5  -5 614.716 35.8078   3
   0   5   5 641.034 33.1816   4
   0   5   5 633.554 33.8446   2
  -1  -5  -5 658.361 36.2920   3
   1   5   5 633.526 34.2653   2
   1   5   5 661.535 34.2530   4
  -2  -5  -5 25.3664 3.58640   3
   2   5   5 13.3869 6.66794   1
   2   5   5 25.0859 3.81593   3
   2   5   5 25.6348 2.80922   2
   2   5   5 20.2444 2.92999   4
  -3  -5  -5 30.8007 6.07090   1
  -3  -5  -5 27.6816 2.82068   4
   3   5   5 13.8293 7.93420   1
   3   5   5 31.4130 2.80729   2
   3   5   5 31.2230 4.44484   3
   3   5   5 29.8625 3.71587   4
  -4  -5  -5 290.414 15.7732   4
  -4  -5  -5 306.448 22.3504   1
  -4  -5  -5 247.626 14.5425   2
   4   5   5 273.404 14.6080   2
   4   5   5 271.964 18.6483   3
   4   5   5 275.624 17.1525   4
  -5  -5  -5 324.590 24.4177   1
  -5  -5  -5 318.286 18.1021   4
   5   5   5 302.096 21.7483   3
  -6  -5  -5 304.926 24.3571   1
  -6  -5  -5 322.191 18.6969   4
   6   5   5 317.945 23.3857   3
  -7  -5  -5 662.827 43.5035   1
  -7  -5  -5 674.098 36.9940   4
   7   5   5 690.245 44.0064   3
  -8  -5  -5 52.7696 6.04247   4
  -8  -5  -5 52.9519 9.43465   1
   8   5   5 63.1528 11.2699   3
  -9  -5  -5 65.7686 10.7931   1
  -9  -5  -5 61.9534 6.68837   4
   9   5   5 56.8258 13.0882   3
 -10  -5  -5 3.23382 2.27522   4
 -10  -5  -5 2.24029 2.70088   1
  10   5   5 2.45023 6.51037   3
  -4   6   5 86.8882 8.46524   2
   3  -6  -5 166.338 19.2633   3
  -3   6   5 135.066 11.4707   2
   2  -6  -5 98.1891 11.9518   3
  -2   6   5 89.9473 8.30075   2
   1  -6  -5 2.02075 2.60809   3
  -1   6   5 3.25381 2.24902   2
   0  -6  -5 6.03018 3.04635   3
   0   6   5 5.08513 2.24407   2
  -1  -6  -5 245.245 17.0689   3
   1   6   5 241.201 14.6348   2
  -2  -6  -5 528.952 31.2512   3
   2   6   5 538.196 28.7092   2
   2   6   5 559.108 29.3485   4
   2   6   5 528.293 31.6539   3
  -3  -6  -5 460.418 25.9646   3
  -3  -6  -5 424.477 28.6224   1
  -3  -6  -5 416.355 22.8619   4
   3   6   5 445.422 24.5117   4
   3   6   5 398.625 26.1129   3
   3   6   5 422.306 22.7485   2
  -4  -6  -5 785.196 40.9965   4
  -4  -6  -5 810.089 49.0329   1
   4   6   5 855.468 43.0877   4
   4   6   5 788.321 45.1027   3
   4   6   5 733.494 39.9512   2
  -5  -6  -5 149.192 15.5424   1
  -5  -6  -5 138.688 9.60956   4
   5   6   5 146.138 13.0762   3
  -6  -6  -5 2.78335 3.23726   1
  -6  -6  -5 1.89271 1.43748   4
   6   6   5 2.22303 4.73451   1
   6   6   5 0.05697 2.49769   3
  -7  -6  -5 23.6106 6.88206   1
  -7  -6  -5 20.7553 3.77598   4
   7   6   5 22.7516 6.48696   3
   7   6   5 15.1851 7.88607   1
  -8  -6  -5 41.2290 5.37205   4
  -8  -6  -5 42.9914 8.78032   1
   8   6   5 47.8373 9.63782   3
  -9  -6  -5 88.1960 8.51322   4
  -9  -6  -5 91.8573 13.2257   1
   9   6   5 106.633 16.0491   3
 -10  -6  -5 261.013 24.1396   1
 -10  -6  -5 255.257 16.9133   4
  10   6   5 193.658 27.3662   3
   3  -7  -5 1.59447 5.36631   3
  -3   7   5 8.49328 3.27710   2
   2  -7  -5 156.357 16.4077   3
  -2   7   5 162.722 12.6148   2
   1  -7  -5 170.575 15.9424   3
  -1   7   5 183.269 13.1703   2
   0  -7  -5 330.397 22.7789   3
   0   7   5 294.730 19.1556   2
  -1  -7  -5 574.915 34.1947   3
   1   7   5 536.634 30.4548   2
  -2  -7  -5 77.7537 8.48756   3
   2   7   5 77.9969 8.66155   3
   2   7   5 83.4579 6.43546   2
  -3  -7  -5 36.1704 6.05199   1
  -3  -7  -5 44.7378 6.08864   3
   3   7   5 46.7473 6.54936   3
   3   7   5 49.3876 4.19953   2
  -4  -7  -5 49.7680 4.58914   4
  -4  -7  -5 49.9939 7.84426   1
   4   7   5 55.2758 7.41428   3
  -5  -7  -5 184.769 11.9549   4
  -5  -7  -5 180.569 18.1215   1
   5   7   5 186.944 15.9299   3
  -6  -7  -5 165.039 11.5852   4
  -6  -7  -5 171.843 17.8988   1
   6   7   5 164.376 15.5614   3
  -7  -7  -5 578.858 40.6036   1
  -7  -7  -5 538.445 31.9200   4
   7   7   5 589.728 38.8400   3
  -8  -7  -5 100.892 8.89976   4
  -8  -7  -5 99.8227 13.9838   1
   8   7   5 102.222 13.8542   3
  -9  -7  -5 71.4716 11.7666   1
  -9  -7  -5 65.3963 7.23851   4
   9   7   5 64.4429 11.7990   3
   2  -8  -5 59.0197 11.0875   3
  -2   8   5 62.3483 7.11666   2
   1  -8  -5 12.6628 4.66727   3
  -1   8   5 13.2976 3.73286   2
   0  -8  -5 9.13503 4.68295   3
   0   8   5 13.4415 3.64166   2
  -1  -8  -5 49.2867 7.35471   3
   1   8   5 43.7697 5.28197   2
  -2  -8  -5 274.025 19.7654   3
   2   8   5 239.707 15.5261   2
  -3  -8  -5 222.349 17.1231   3
   3   8   5 213.270 17.4858   3
   3   8   5 225.457 13.4150   2
  -4  -8  -5 464.582 31.5237   1
  -4  -8  -5 471.765 29.8359   3
   4   8   5 481.724 31.0832   3
  -5  -8  -5 176.776 17.4257   1
   5   8   5 188.644 16.4523   3
  -6  -8  -5 8.41844 5.23458   1
   6   8   5 10.3469 4.04625   3
  -7  -8  -5 1.51236 3.89691   1
  -7  -8  -5 4.26166 2.04419   4
   7   8   5 1.50116 2.98525   3
  -8  -8  -5 15.0830 3.58033   4
  -8  -8  -5 10.2449 6.04705   1
   8   8   5 21.5123 6.33978   3
  -9  -8  -5 43.3239 9.59781   1
  -9  -8  -5 31.7543 5.16282   4
   9   8   5 56.4281 11.3470   3
   1  -9  -5 72.6390 11.2271   3
   0  -9  -5 125.827 14.4021   3
   0   9   5 135.555 11.3613   2
  -1  -9  -5 296.465 23.2078   3
   1   9   5 289.201 18.9195   2
  -2  -9  -5 98.8687 11.4087   3
   2   9   5 97.5874 8.06245   2
  -3  -9  -5 37.7734 6.99002   3
   3   9   5 38.2538 5.01760   2
   3   9   5 34.4768 6.50875   3
  -4  -9  -5 2.65862 3.03304   3
   4   9   5 1.23513 2.95841   3
  -5  -9  -5 61.7137 8.45723   3
  -5  -9  -5 60.1732 9.28548   1
   5   9   5 64.3172 9.51093   3
  -6  -9  -5 69.5676 11.3906   1
   6   9   5 82.1056 11.1212   3
  -7  -9  -5 297.565 28.2229   1
   7   9   5 318.834 26.0281   3
  -8  -9  -5 136.493 18.5196   1
   8   9   5 138.672 16.9276   3
  -1 -10  -5 2.67708 4.35291   3
   1  10   5 0.49615 2.39777   2
  -2 -10  -5 86.7981 11.4844   3
   2  10   5 79.3983 7.58628   2
  -3 -10  -5 102.463 12.3449   3
  -4 -10  -5 223.423 19.1291   3
   4  10   5 234.394 20.0930   3
  -5 -10  -5 134.536 14.2808   3
   5  10   5 168.804 16.5058   3
  -6 -10  -5 14.1971 5.26651   3
  -6 -10  -5 12.7087 5.97277   1
   6  10   5 14.0562 5.83397   3
  -7 -10  -5 -1.0766 3.19126   1
   7  10   5 -0.3392 2.40277   3
   1   7  -6 188.872 13.9705   2
  -1  -7   6 164.803 17.9007   1
   0   7  -6 122.711 10.6336   2
   0  -7   6 119.924 14.3844   1
  -4  -6   6 148.045 17.7081   1
  -3  -6   6 185.288 19.3087   1
   2   6  -6 100.891 9.17966   2
  -2  -6   6 115.576 14.0472   1
   1   6  -6 118.035 9.81566   2
  -1  -6   6 111.792 13.6411   1
   0   6  -6 20.7606 3.86571   2
   0  -6   6 11.3640 4.88309   1
  -1   6  -6 1.24354 2.15088   2
   1  -6   6 1.97905 2.80129   1
  -2   6  -6 85.0603 8.45872   2
  -3   6  -6 131.520 11.0443   2
  -5  -5   6 53.2138 5.89904   4
  -5  -5   6 54.2838 11.0145   1
  -4  -5   6 26.8024 3.93805   4
  -4  -5   6 23.5713 6.47789   1
  -3  -5   6 1.40155 2.56147   1
   2   5  -6 12.3568 3.08575   2
  -2  -5   6 6.70538 4.15728   1
   1   5  -6 268.473 17.7206   2
  -1  -5   6 310.529 24.0536   1
   0   5  -6 278.162 17.2749   2
   0  -5   6 266.222 22.1569   1
  -1   5  -6 146.630 10.9201   2
   1  -5   6 150.162 15.1679   1
  -2   5  -6 241.597 15.8853   2
   2  -5   6 227.611 20.1959   1
  -3   5  -6 19.1748 3.72813   2
  -4   5  -6 -0.3463 1.00593   2
  -5  -4   6 69.8479 12.0108   1
  -5  -4   6 73.9678 7.31103   4
  -4  -4   6 201.508 13.2553   4
  -4  -4   6 189.188 19.3066   1
   3   4  -6 369.579 21.1794   2
  -3  -4   6 341.526 27.2215   1
  -3  -4   6 342.275 20.5002   4
   2   4  -6 202.650 12.9101   2
  -2  -4   6 175.161 17.2909   1
  -2  -4   6 197.838 12.3380   4
   1   4  -6 324.110 18.9858   2
  -1  -4   6 320.433 24.4471   1
  -1  -4   6 309.371 18.2135   4
   0   4  -6 98.6459 7.58910   2
   0  -4   6 87.0217 10.9254   1
  -1   4  -6 1.52677 1.63657   2
   1  -4   6 3.06128 2.41295   1
  -2   4  -6 97.7834 7.82030   2
   2  -4   6 84.6915 10.6329   1
  -3   4  -6 265.434 16.3901   2
   3  -4   6 245.183 21.4263   1
  -4   4  -6 139.005 10.6008   2
   4  -4   6 142.614 29.3954   3
  -5   4  -6 180.101 12.2705   2
   5  -4   6 132.103 18.9407   3
   6  -4   6 37.4458 11.2052   3
  -6  -3   6 72.6546 7.89543   4
  -5  -3   6 75.0435 12.0841   1
  -5  -3   6 71.7593 7.32682   4
  -4  -3   6 110.857 8.80770   4
  -4  -3   6 104.402 13.3677   1
   3   3  -6 2.42516 1.76413   2
  -3  -3   6 1.57981 2.51571   1
  -3  -3   6 -0.2566 1.20071   4
   2   3  -6 0.74993 1.33971   2
  -2  -3   6 1.79143 1.45413   4
  -2  -3   6 2.85828 2.45586   1
   1   3  -6 314.930 18.4819   2
  -1  -3   6 307.802 18.1541   4
  -1  -3   6 334.589 24.2351   1
   0   3  -6 518.081 28.0580   2
   0  -3   6 533.841 33.9429   1
   0  -3   6 487.364 27.5266   4
  -1   3  -6 234.019 14.1176   2
   1  -3   6 208.697 13.5286   4
   1  -3   6 243.320 18.9694   1
  -2   3  -6 558.571 30.1175   2
   2  -3   6 505.505 29.4002   4
   2  -3   6 593.150 36.2827   1
  -3   3  -6 84.8902 6.87048   2
   3  -3   6 82.1210 10.8030   1
  -4   3  -6 5.74205 2.23839   2
   4  -3   6 8.74739 5.85395   3
   4  -3   6 7.11128 4.55161   1
  -5   3  -6 4.52026 2.03883   2
   5  -3   6 -1.7823 3.87329   3
  -6   3  -6 95.1457 7.69901   2
   6  -3   6 59.9734 12.3066   3
  -6  -2   6 31.6369 4.95789   4
  -5  -2   6 58.0100 10.5787   1
  -5  -2   6 74.8947 7.19962   4
   4   2  -6 186.596 12.2219   2
  -4  -2   6 153.812 16.4066   1
  -4  -2   6 155.142 11.5059   4
   3   2  -6 532.146 29.3128   2
  -3  -2   6 535.597 29.3230   4
  -3  -2   6 520.030 35.3499   1
   2   2  -6 293.131 17.1202   2
  -2  -2   6 287.684 17.0519   4
  -2  -2   6 292.553 22.4484   1
   1   2  -6 606.873 32.2351   2
  -1  -2   6 625.622 32.2880   4
  -1  -2   6 578.300 37.6998   1
   0   2  -6 287.213 16.2475   2
   0  -2   6 270.485 16.0611   4
   0  -2   6 280.203 21.0561   1
  -1   2  -6 30.0383 3.30536   2
   1  -2   6 35.3119 3.60149   4
   1  -2   6 27.6781 5.71382   1
  -2   2  -6 33.1782 3.58332   2
   2  -2   6 28.0949 3.53859   4
   2  -2   6 31.9677 6.22734   1
  -3   2  -6 448.524 23.1562   2
  -3   2  -6 412.204 22.1601   4
   3  -2   6 413.357 29.3591   1
   3  -2   6 379.195 22.8457   4
  -4   2  -6 189.548 11.3988   2
  -4   2  -6 182.077 10.5682   4
   4  -2   6 176.805 11.5750   4
   4  -2   6 133.436 15.6547   3
   4  -2   6 169.478 17.5256   1
  -5   2  -6 276.429 15.0448   2
   5  -2   6 199.156 21.6980   1
   5  -2   6 217.537 21.1299   3
  -6   2  -6 211.122 12.3881   2
   6  -2   6 138.251 17.3515   3
  -7   2  -6 28.7790 4.00889   2
   7  -2   6 22.2488 7.09600   3
  -5  -1   6 86.3434 7.98990   4
   4   1  -6 252.825 15.4923   2
  -4  -1   6 226.493 15.0139   4
  -4  -1   6 216.176 20.0299   1
   3   1  -6 22.1739 3.34546   2
  -3  -1   6 18.6890 5.46822   1
  -3  -1   6 18.8855 3.30444   4
   2   1  -6 28.0660 3.27388   2
  -2  -1   6 23.8874 5.62048   1
  -2  -1   6 30.0642 3.46217   4
   1   1  -6 184.339 11.7147   2
  -1  -1   6 194.323 11.9827   4
  -1  -1   6 200.134 16.3153   1
   0   1  -6 777.715 41.0697   2
   0  -1   6 795.416 41.2550   4
   0  -1   6 808.245 46.7156   1
  -1   1  -6 250.853 14.9901   2
   1  -1   6 281.846 20.2591   1
   1  -1   6 263.688 15.3462   4
  -2   1  -6 989.128 51.7174   2
   2  -1   6 1035.56 58.3751   1
   2  -1   6 1019.21 52.2477   4
  -3   1  -6 290.050 15.4415   2
  -3   1  -6 258.315 14.9288   4
   3  -1   6 259.847 15.7382   4
   3  -1   6 244.028 21.1541   3
   3  -1   6 271.858 21.6660   1
  -4   1  -6 30.0384 3.24097   2
  -4   1  -6 27.1669 2.95507   4
   4  -1   6 19.6438 5.82770   3
   4  -1   6 21.0607 6.29951   1
   4  -1   6 29.9308 3.65249   4
  -5   1  -6 15.6752 2.54247   2
  -5   1  -6 18.5236 2.55152   4
   5  -1   6 14.7924 5.60089   3
   5  -1   6 19.2365 6.74704   1
  -6   1  -6 93.0422 7.12465   4
  -6   1  -6 101.751 7.28177   2
   6  -1   6 81.0838 12.2110   3
  -7   1  -6 81.6458 6.59184   2
  -7   1  -6 74.4067 6.50325   4
   7  -1   6 65.8898 11.6523   3
   8  -1   6 135.555 17.6517   3
  -6   0   6 6.05076 3.38913   4
  -5   0   6 48.6350 5.78298   4
  -5   0   6 49.0633 6.49328   2
   4   0  -6 96.9505 7.98220   2
  -4   0   6 81.7982 7.27177   2
  -4   0   6 86.2601 7.76418   4
   3   0  -6 583.276 31.0660   2
  -3   0   6 560.217 30.8810   4
  -3   0   6 538.596 35.7816   1
   2   0  -6 344.769 19.6902   2
  -2   0   6 336.424 24.0699   1
  -2   0   6 349.135 19.7529   4
   1   0  -6 807.439 42.4037   2
  -1   0   6 831.480 42.6763   4
  -1   0   6 812.408 47.4334   1
   0   0  -6 592.562 31.6651   2
   0   0   6 603.102 32.0071   4
   0   0   6 620.029 36.9810   1
  -1   0  -6 109.651 7.19426   2
   1   0   6 113.045 11.2404   1
   1   0   6 104.979 7.41371   4
  -2   0  -6 1.21433 0.78628   2
   2   0   6 2.22727 1.26169   4
   2   0   6 1.75980 1.94549   1
  -3   0  -6 481.568 24.3972   2
   3   0   6 453.701 31.9768   1
   3   0   6 418.974 28.2749   3
   3   0   6 472.516 25.3244   4
  -4   0  -6 274.883 15.1769   4
  -4   0  -6 272.675 15.0281   2
   4   0   6 291.962 23.1460   3
   4   0   6 255.793 16.1362   4
   4   0   6 234.418 22.7483   1
  -5   0  -6 350.854 19.4302   2
  -5   0  -6 358.995 19.7469   4
   5   0   6 381.661 21.3857   4
   5   0   6 402.123 29.8076   3
   5   0   6 286.041 28.7225   1
  -6   0  -6 429.653 22.7884   4
  -6   0  -6 389.739 22.1596   2
   6   0   6 401.406 31.1201   3
  -7   0  -6 68.6950 5.99700   4
   7   0   6 56.8960 10.1724   3
  -8   0  -6 46.5989 5.04449   4
   8   0   6 34.3200 9.27481   3
   9   0   6 0.80839 4.12977   3
  -6   1   6 126.195 11.4771   4
   5  -1  -6 78.8102 7.79395   2
  -5   1   6 64.8170 7.14165   4
  -5   1   6 60.0389 6.66527   2
   4  -1  -6 291.637 17.4602   2
  -4   1   6 255.810 16.7271   4
  -4   1   6 242.290 16.2928   2
   3  -1  -6 61.6964 6.05118   2
  -3   1   6 64.9594 10.7199   1
  -3   1   6 57.9278 5.92707   4
  -3   1   6 72.5573 6.09567   2
   2  -1  -6 82.9647 6.49155   2
  -2   1   6 76.9756 6.12417   2
  -2   1   6 75.7212 6.35548   4
  -2   1   6 74.6779 9.03844   1
   1  -1  -6 42.6682 4.10714   2
  -1   1   6 41.6807 3.95003   2
  -1   1   6 39.1427 6.04594   1
  -1   1   6 37.9922 4.04625   4
   0  -1  -6 859.394 45.1075   2
   0   1   6 893.224 45.4375   4
   0   1   6 882.318 50.3841   1
  -1  -1  -6 225.111 13.2912   2
   1   1   6 236.938 13.8391   4
   1   1   6 245.195 18.6258   1
  -2  -1  -6 1254.07 60.5075   2
   2   1   6 1183.04 68.2619   1
   2   1   6 1159.79 61.1663   4
  -3  -1  -6 630.099 31.9771   2
   3   1   6 610.061 34.4231   3
   3   1   6 649.389 33.2481   4
   3   1   6 579.705 40.8854   1
  -4  -1  -6 62.1923 4.80667   4
  -4  -1  -6 56.4748 4.31464   2
   4   1   6 62.5526 7.85581   3
   4   1   6 43.8686 9.44761   1
   4   1   6 63.4807 5.74679   4
  -5  -1  -6 112.540 7.81392   4
  -5  -1  -6 112.409 7.20550   2
   5   1   6 130.503 14.5890   3
   5   1   6 91.1803 14.7180   1
   5   1   6 126.679 9.30956   4
  -6  -1  -6 57.1557 5.05068   4
  -6  -1  -6 55.5457 4.26423   2
   6   1   6 30.8148 9.62270   1
   6   1   6 59.2048 12.1671   3
  -7  -1  -6 79.1943 6.75730   4
   7   1   6 93.8308 14.2137   3
  -8  -1  -6 181.445 12.7720   4
  -8  -1  -6 218.146 17.9319   1
   8   1   6 171.916 20.2104   3
  -9  -1  -6 237.797 15.4136   4
   9   1   6 230.742 24.1919   3
   5  -2  -6 29.8787 5.09185   2
  -5   2   6 30.9838 5.20355   4
  -5   2   6 25.4577 4.43633   2
   4  -2  -6 40.1323 5.29107   2
  -4   2   6 32.7287 4.70687   4
  -4   2   6 26.4450 4.35832   2
   3  -2  -6 408.330 24.7592   2
  -3   2   6 456.871 24.7044   2
  -3   2   6 413.067 24.3521   4
   2  -2  -6 305.445 18.8326   2
  -2   2   6 301.127 23.9056   1
  -2   2   6 329.115 18.7826   4
  -2   2   6 343.497 18.8571   2
   1  -2  -6 795.928 40.9718   2
  -1   2   6 783.823 46.0409   1
  -1   2   6 740.471 40.5280   2
  -1   2   6 790.676 40.8564   4
   0  -2  -6 901.932 47.9397   2
   0   2   6 956.247 54.2230   1
   0   2   6 921.650 47.8458   2
   0   2   6 955.344 48.1956   4
  -1  -2  -6 213.442 12.6170   2
   1   2   6 227.575 12.6468   2
   1   2   6 216.425 18.5511   1
   1   2   6 216.952 13.0285   4
  -2  -2  -6 78.5220 5.31780   2
   2   2   6 78.4537 5.47607   3
   2   2   6 72.0651 5.79072   4
   2   2   6 70.7372 10.4265   1
  -3  -2  -6 306.637 16.3825   2
   3   2   6 308.391 17.6086   4
   3   2   6 285.316 26.0490   1
   3   2   6 303.434 18.1712   3
  -4  -2  -6 305.920 16.6899   2
  -4  -2  -6 309.051 17.3424   4
   4   2   6 320.357 18.5557   4
   4   2   6 340.041 20.8812   3
   4   2   6 270.437 27.4905   1
  -5  -2  -6 338.673 18.4449   4
  -5  -2  -6 313.286 17.3108   2
   5   2   6 356.630 23.8812   3
   5   2   6 364.411 20.2667   4
   5   2   6 241.874 28.2646   1
  -6  -2  -6 744.366 40.5492   4
   6   2   6 806.489 50.6141   3
  -7  -2  -6 158.612 11.1771   4
   7   2   6 188.001 22.5672   3
  -8  -2  -6 116.804 12.9113   1
  -8  -2  -6 101.316 8.63358   4
   8   2   6 134.282 18.9617   3
  -9  -2  -6 7.91111 4.43869   1
  -9  -2  -6 11.2107 3.04791   4
   9   2   6 2.16592 4.61635   1
   9   2   6 7.59598 6.17133   3
   5  -3  -6 48.5247 6.48544   2
  -5   3   6 58.1893 7.05112   4
  -5   3   6 55.2179 6.32511   2
   4  -3  -6 230.779 16.3586   2
  -4   3   6 255.541 16.2280   4
  -4   3   6 235.999 15.9947   2
   3  -3  -6 130.519 10.2280   2
  -3   3   6 134.082 10.0926   2
  -3   3   6 121.051 9.34973   4
   2  -3  -6 108.652 8.52388   2
  -2   3   6 115.018 8.29894   4
  -2   3   6 100.472 8.24033   2
   1  -3  -6 9.26693 2.28839   2
  -1   3   6 4.15319 1.89162   4
  -1   3   6 4.56017 3.74283   1
  -1   3   6 9.78759 2.27559   2
   0  -3  -6 590.925 32.3369   2
   0   3   6 603.705 32.2210   2
   0   3   6 665.194 42.0738   1
   0   3   6 583.834 32.1878   4
  -1  -3  -6 234.731 13.1903   3
  -1  -3  -6 214.081 13.0195   2
   1   3   6 235.372 21.8424   1
   1   3   6 203.261 13.0858   4
   1   3   6 229.083 13.0375   2
  -2  -3  -6 885.768 45.0502   2
   2   3   6 827.091 57.3241   1
   2   3   6 866.558 45.7258   3
   2   3   6 927.976 45.9522   4
   2   3   6 900.478 45.0128   2
  -3  -3  -6 958.737 48.1295   2
   3   3   6 822.196 61.7447   1
   3   3   6 1006.79 50.2658   3
   3   3   6 988.544 49.6144   4
  -4  -3  -6 107.833 6.84229   2
  -4  -3  -6 117.745 7.63167   4
   4   3   6 119.264 8.65491   4
   4   3   6 114.691 9.80907   3
  -5  -3  -6 261.676 15.0753   4
  -5  -3  -6 245.726 13.7618   2
   5   3   6 249.993 16.4852   4
   5   3   6 272.347 19.2551   3
  -6  -3  -6 5.84049 1.95157   4
   6   3   6 1.45490 3.83504   1
   6   3   6 8.61248 4.19807   3
  -7  -3  -6 64.7233 9.28742   1
  -7  -3  -6 54.4122 5.58139   4
   7   3   6 63.7574 10.8981   3
  -8  -3  -6 165.909 11.9609   4
  -8  -3  -6 167.893 16.5242   1
   8   3   6 172.358 23.4448   3
  -9  -3  -6 365.643 28.5969   1
  -9  -3  -6 369.823 23.0937   4
   9   3   6 455.018 39.8398   3
 -10  -3  -6 64.0261 6.99187   4
  10   3   6 83.1125 15.7247   3
  -4   4   6 9.06448 3.27722   2
  -4   4   6 10.9275 3.23798   4
  -3   4   6 227.489 14.9202   4
  -3   4   6 236.954 15.7094   2
  -2   4   6 245.703 15.3799   4
  -2   4   6 254.297 16.1145   2
  -1   4   6 520.741 29.2933   2
  -1   4   6 542.634 29.0109   4
   0  -4  -6 945.180 50.9575   3
   0   4   6 975.901 49.3906   4
   0   4   6 940.488 49.4521   2
  -1  -4  -6 298.940 17.4091   2
  -1  -4  -6 319.151 18.3881   3
   1   4   6 285.117 29.9469   1
   1   4   6 317.287 17.6490   4
   1   4   6 305.570 17.4327   2
  -2  -4  -6 195.909 12.1777   3
  -2  -4  -6 193.903 11.3976   2
   2   4   6 186.664 11.8666   4
   2   4   6 138.156 21.1867   1
   2   4   6 203.311 11.3880   2
   2   4   6 193.936 12.5226   3
  -3  -4  -6 83.7685 5.72671   2
   3   4   6 91.7560 6.94775   4
   3   4   6 83.7939 7.41424   3
   3   4   6 96.5817 5.90468   2
   3   4   6 62.2528 14.1961   1
  -4  -4  -6 273.304 15.4016   4
  -4  -4  -6 244.868 14.4089   2
   4   4   6 273.155 16.6949   4
   4   4   6 291.805 18.2879   3
  -5  -4  -6 221.675 12.7248   2
  -5  -4  -6 246.102 14.2793   4
   5   4   6 260.622 18.2008   3
   5   4   6 228.936 15.6930   4
  -6  -4  -6 895.141 52.7317   1
  -6  -4  -6 838.731 45.4493   4
   6   4   6 867.900 51.2212   3
  -7  -4  -6 289.165 17.9717   4
  -7  -4  -6 292.477 23.6647   1
   7   4   6 305.119 24.6671   3
  -8  -4  -6 189.740 18.0958   1
  -8  -4  -6 172.167 12.8170   4
   8   4   6 190.011 21.4468   3
  -9  -4  -6 58.6561 9.92793   1
  -9  -4  -6 67.9521 6.95813   4
   9   4   6 53.5504 13.9944   3
 -10  -4  -6 1.23754 1.60130   4
 -10  -4  -6 0.10078 2.64747   1
  10   4   6 -1.7376 4.29980   3
  -4   5   6 129.430 10.9010   2
  -3   5   6 139.529 11.2253   2
  -2   5   6 100.076 8.05717   4
  -2   5   6 108.871 9.07578   2
  -1   5   6 50.7574 4.87562   4
  -1   5   6 54.3039 5.64945   2
   0  -5  -6 237.398 16.6214   3
   0   5   6 240.562 14.4441   4
   0   5   6 236.390 14.7708   2
  -1  -5  -6 166.667 12.2545   3
   1   5   6 167.749 10.9335   4
   1   5   6 180.492 11.0937   2
  -2  -5  -6 459.153 26.2398   3
   2   5   6 475.969 24.7326   2
   2   5   6 432.509 26.3733   3
   2   5   6 461.599 25.2689   4
  -3  -5  -6 963.566 50.2692   2
   3   5   6 1019.49 51.7756   4
   3   5   6 1014.36 50.2613   2
   3   5   6 962.907 53.0124   3
  -4  -5  -6 192.983 11.3975   4
  -4  -5  -6 162.493 10.3381   2
   4   5   6 198.147 14.1980   3
   4   5   6 179.628 10.4584   2
   4   5   6 207.413 13.0844   4
  -5  -5  -6 333.822 19.3660   4
  -5  -5  -6 362.621 26.6574   1
   5   5   6 342.871 23.2000   3
   5   5   6 324.511 21.0477   4
  -6  -5  -6 12.6569 5.12193   1
  -6  -5  -6 16.7877 2.71170   4
   6   5   6 3.81145 5.65945   1
   6   5   6 14.5578 4.90155   3
  -7  -5  -6 29.1283 6.53092   1
  -7  -5  -6 26.1434 3.69750   4
   7   5   6 26.3826 6.81638   3
   7   5   6 10.7499 8.38776   1
  -8  -5  -6 91.0214 12.2783   1
  -8  -5  -6 85.7226 7.99786   4
   8   5   6 83.6051 12.4331   3
  -9  -5  -6 375.803 23.0915   4
  -9  -5  -6 373.134 29.6522   1
   9   5   6 366.274 34.2997   3
 -10  -5  -6 101.403 9.14078   4
 -10  -5  -6 105.678 14.2271   1
  10   5   6 99.6727 21.0613   3
  -3   6   6 70.8472 7.54795   2
  -2   6   6 148.925 11.8760   2
   1  -6  -6 265.769 21.0475   3
  -1   6   6 292.862 18.0782   2
   0  -6  -6 673.731 38.5550   3
   0   6   6 622.736 35.3542   2
  -1  -6  -6 317.708 21.1134   3
   1   6   6 320.076 18.8613   4
   1   6   6 335.976 18.9766   2
  -2  -6  -6 245.702 16.5354   3
  -2  -6  -6 214.587 17.9776   1
   2   6   6 245.931 14.4151   2
   2   6   6 253.556 16.9696   3
   2   6   6 251.281 15.1016   4
  -3  -6  -6 2.80972 2.65591   1
  -3  -6  -6 4.14231 2.30060   3
  -3  -6  -6 2.08949 1.19621   4
   3   6   6 -0.6114 2.77589   1
   3   6   6 4.25426 1.51510   2
   3   6   6 2.15446 1.71989   4
   3   6   6 1.94435 2.07647   3
  -4  -6  -6 157.049 9.82849   4
  -4  -6  -6 174.083 16.8669   1
  -4  -6  -6 126.190 8.82866   2
   4   6   6 186.461 12.0194   4
   4   6   6 143.792 12.3989   3
   4   6   6 149.351 8.98781   2
  -5  -6  -6 146.893 15.8750   1
  -5  -6  -6 140.022 9.45964   4
   5   6   6 145.271 11.1880   4
   5   6   6 122.536 12.0197   3
  -6  -6  -6 670.395 37.0599   4
  -6  -6  -6 731.728 46.2706   1
   6   6   6 665.828 42.1901   3
  -7  -6  -6 370.771 29.7869   1
  -7  -6  -6 386.628 22.8712   4
   7   6   6 396.436 28.8302   3
  -8  -6  -6 207.355 14.8925   4
  -8  -6  -6 211.689 20.8723   1
   8   6   6 237.245 21.8732   3
  -9  -6  -6 114.702 10.1118   4
  -9  -6  -6 112.761 14.9478   1
   9   6   6 123.422 17.1243   3
 -10  -6  -6 -1.2405 2.99985   1
 -10  -6  -6 1.75621 2.12188   4
  10   6   6 -1.6000 3.58699   3
  -2   7   6 90.3827 8.99047   2
   1  -7  -6 79.1094 10.7063   3
  -1   7   6 93.9186 8.48802   2
   0  -7  -6 41.8599 6.50137   3
   0   7   6 34.0609 4.66647   2
  -1  -7  -6 96.1118 10.0470   3
   1   7   6 104.202 8.19563   2
  -2  -7  -6 177.429 13.8129   3
   2   7   6 165.568 13.7381   3
   2   7   6 172.486 11.2612   2
  -3  -7  -6 604.046 40.2350   1
  -3  -7  -6 668.935 38.5084   3
  -3  -7  -6 704.726 35.9787   4
   3   7   6 684.038 39.3388   3
   3   7   6 677.271 35.1474   2
  -4  -7  -6 246.034 21.2966   1
  -4  -7  -6 266.384 17.7948   3
  -4  -7  -6 239.226 14.6464   4
   4   7   6 236.087 18.1459   3
   4   7   6 231.089 14.1036   2
   4   7   6 271.606 17.0252   4
  -5  -7  -6 273.887 16.6209   4
  -5  -7  -6 285.217 24.6657   1
   5   7   6 275.374 20.6297   3
  -6  -7  -6 96.3250 13.0233   1
  -6  -7  -6 79.4017 6.94204   4
   6   7   6 73.0097 10.0753   3
  -7  -7  -6 3.05918 3.89201   1
  -7  -7  -6 0.78440 1.74113   4
   7   7   6 3.77864 3.65392   3
   7   7   6 1.81206 4.60141   1
  -8  -7  -6 28.2882 4.71110   4
  -8  -7  -6 27.9340 8.02889   1
   8   7   6 36.6315 8.46521   3
  -9  -7  -6 284.021 26.3389   1
  -9  -7  -6 272.097 18.7134   4
   9   7   6 297.896 27.1210   3
   1  -8  -6 117.183 13.8756   3
  -1   8   6 116.396 10.5585   2
   0  -8  -6 349.827 26.4142   3
   0   8   6 392.417 23.2670   2
  -1  -8  -6 247.405 19.8929   3
   1   8   6 280.025 17.1065   2
  -2  -8  -6 211.760 17.0282   3
   2   8   6 216.801 13.7960   2
  -3  -8  -6 16.2852 4.20563   3
   3   8   6 10.4475 3.82706   3
   3   8   6 16.8106 2.81052   2
  -4  -8  -6 38.3007 7.11101   1
  -4  -8  -6 37.2624 5.95218   3
   4   8   6 44.8242 7.03354   3
  -5  -8  -6 45.1209 8.49156   1
   5   8   6 44.6693 7.42007   3
  -6  -8  -6 278.948 21.1902   4
  -6  -8  -6 378.955 30.3856   1
   6   8   6 356.463 25.9667   3
  -7  -8  -6 350.094 21.6555   4
  -7  -8  -6 354.705 30.6160   1
   7   8   6 345.010 27.3192   3
  -8  -8  -6 187.872 21.1670   1
  -8  -8  -6 179.489 13.6648   4
   8   8   6 210.472 20.4377   3
  -9  -8  -6 125.805 11.1632   4
  -9  -8  -6 144.901 18.4580   1
   9   8   6 161.155 18.9944   3
   0  -9  -6 0.59287 2.15746   3
   0   9   6 -2.2215 2.10900   2
  -1  -9  -6 34.9930 7.34464   3
   1   9   6 37.6923 5.31183   2
  -2  -9  -6 59.3063 8.62982   3
   2   9   6 54.2051 5.89814   2
  -3  -9  -6 327.340 23.3554   3
   3   9   6 331.914 23.8759   3
   3   9   6 299.439 18.7291   2
  -4  -9  -6 223.207 17.9647   3
   4   9   6 228.657 18.8929   3
  -5  -9  -6 180.824 15.5428   3
  -5  -9  -6 179.437 17.7329   1
   5   9   6 175.616 16.3707   3
  -6  -9  -6 112.104 15.0788   1
   6   9   6 119.376 13.5161   3
  -7  -9  -6 0.98018 3.04574   1
   7   9   6 7.87729 4.20778   3
  -8  -9  -6 10.9626 6.50760   1
   8   9   6 5.37745 5.15109   3
  -2 -10  -6 127.183 14.2558   3
   2  10   6 146.229 10.9079   2
  -3 -10  -6 32.0428 7.17280   3
  -4 -10  -6 7.37907 4.27644   3
   4  10   6 8.78877 4.61389   3
  -5 -10  -6 6.65393 4.26754   3
   5  10   6 15.6610 5.08151   3
  -6 -10  -6 152.973 14.7822   3
   6  10   6 141.675 15.5440   3
   7  10   6 245.090 22.7903   3
   1   6  -7 143.156 12.0596   2
  -1  -6   7 167.046 18.0135   1
   0   6  -7 74.4800 7.44979   2
   0  -6   7 60.5828 10.2603   1
  -3  -5   7 137.023 16.6231   1
   2   5  -7 161.673 11.8554   2
  -2  -5   7 135.990 16.0360   1
   1   5  -7 27.8400 4.49349   2
  -1  -5   7 25.1478 7.03395   1
   0   5  -7 0.63075 1.89366   2
   0  -5   7 1.45098 2.24089   1
  -1   5  -7 130.128 10.3359   2
   1  -5   7 117.497 14.0845   1
  -2   5  -7 130.463 10.3582   2
   2  -5   7 112.698 14.1664   1
  -3   5  -7 77.2919 7.71256   2
  -4  -4   7 -0.2160 1.65541   4
  -4  -4   7 2.86969 3.89603   1
   3   4  -7 1.16759 1.96327   2
  -3  -4   7 2.51828 3.57439   1
  -3  -4   7 3.06629 1.67288   4
   2   4  -7 90.3232 7.62921   2
  -2  -4   7 74.7886 11.3984   1
  -2  -4   7 81.6096 6.96414   4
  -1  -4   7 301.452 24.9182   1
   0   4  -7 121.746 9.25632   2
   0  -4   7 107.277 13.1858   1
  -1   4  -7 256.829 16.3620   2
   1  -4   7 251.461 21.8936   1
  -2   4  -7 105.704 8.87994   2
   2  -4   7 117.272 13.8056   1
  -3   4  -7 15.4793 3.05411   2
   3  -4   7 12.6220 5.50626   1
  -4   4  -7 0.39802 1.19902   2
  -5   4  -7 58.7492 6.33377   2
  -5  -3   7 69.5826 12.6707   1
  -5  -3   7 83.0163 7.94633   4
  -4  -3   7 200.806 20.7038   1
  -4  -3   7 213.594 14.4886   4
   3   3  -7 226.552 14.4295   2
  -3  -3   7 191.048 13.6512   4
  -3  -3   7 201.350 19.8507   1
  -2  -3   7 304.805 18.4039   4
  -2  -3   7 307.118 25.1152   1
   1   3  -7 86.5547 7.23131   2
  -1  -3   7 86.2310 11.3925   1
  -1  -3   7 81.1676 6.87936   4
   0   3  -7 9.25658 2.35962   2
   0  -3   7 10.7014 4.42657   1
   0  -3   7 6.09003 1.75123   4
  -1   3  -7 118.368 8.79206   2
   1  -3   7 132.519 14.0372   1
   1  -3   7 106.203 8.36136   4
  -2   3  -7 213.577 13.8066   2
   2  -3   7 213.689 19.3841   1
  -3   3  -7 94.0452 7.76923   2
   3  -3   7 91.7509 12.2679   1
  -4   3  -7 346.701 19.9596   2
   4  -3   7 307.938 27.2618   1
  -5   3  -7 183.993 12.8452   2
  -6   3  -7 69.4016 6.85605   2
  -5  -2   7 224.524 16.2530   4
  -5  -2   7 246.746 24.0859   1
  -4  -2   7 16.6753 3.78161   4
  -4  -2   7 20.5373 6.78431   1
   3   2  -7 5.79114 2.53998   2
  -3  -2   7 2.79663 1.58849   4
  -3  -2   7 3.02214 3.37857   1
   2   2  -7 35.5257 4.34224   2
  -2  -2   7 33.4907 4.24564   4
  -2  -2   7 34.6058 7.03889   1
   1   2  -7 423.102 24.7674   2
  -1  -2   7 468.550 31.7731   1
  -1  -2   7 443.672 24.9099   4
   0   2  -7 153.769 10.2248   2
   0  -2   7 138.284 9.97337   4
   0  -2   7 158.342 15.2555   1
  -1   2  -7 420.377 22.8835   2
   1  -2   7 373.014 22.6517   4
   1  -2   7 424.132 29.4434   1
  -2   2  -7 300.367 17.2869   2
   2  -2   7 288.130 17.3546   4
   2  -2   7 283.711 23.0707   1
  -3   2  -7 56.5203 4.66966   4
  -3   2  -7 55.1077 5.16622   2
   3  -2   7 52.9719 9.06563   1
   3  -2   7 47.4396 5.02459   4
  -4   2  -7 18.6470 2.62589   4
  -4   2  -7 15.8009 2.98102   2
   4  -2   7 9.11928 2.80413   4
   4  -2   7 18.0728 5.80665   1
  -5   2  -7 71.4275 6.06516   2
   5  -2   7 45.2173 10.3294   1
  -6   2  -7 63.3985 5.94504   2
   6  -2   7 52.2969 10.6950   3
  -7   2  -7 106.378 8.50488   2
   7  -2   7 89.3194 14.2808   3
  -5  -1   7 42.5192 5.94408   4
   4   1  -7 278.693 17.4394   2
  -4  -1   7 238.020 22.8457   1
   3   1  -7 220.905 14.4660   2
  -3  -1   7 223.129 19.9455   1
  -3  -1   7 213.009 14.3123   4
   2   1  -7 507.697 26.8685   2
  -2  -1   7 432.846 32.1063   1
  -2  -1   7 483.400 26.8432   4
   1   1  -7 204.602 12.9605   2
  -1  -1   7 204.049 18.0350   1
  -1  -1   7 207.943 13.1558   4
   0   1  -7 71.2959 5.82443   2
   0  -1   7 64.9889 9.05639   1
   0  -1   7 71.7784 5.98357   4
  -1   1  -7 41.2764 4.20399   2
   1  -1   7 44.2710 7.54575   1
   1  -1   7 49.7863 4.60362   4
  -2   1  -7 291.071 16.9496   2
   2  -1   7 294.381 17.4576   4
   2  -1   7 298.458 23.3255   1
  -3   1  -7 77.2540 6.08230   2
   3  -1   7 73.6315 10.6231   1
   3  -1   7 78.5380 6.61274   4
  -4   1  -7 516.527 26.6563   2
  -4   1  -7 485.179 26.2164   4
   4  -1   7 482.057 27.4824   4
   4  -1   7 447.645 35.2040   1
  -5   1  -7 405.723 21.4304   4
  -5   1  -7 400.980 21.6485   2
   5  -1   7 332.227 28.1108   3
   5  -1   7 368.799 22.6414   4
  -6   1  -7 132.685 9.21334   2
  -6   1  -7 146.851 9.35063   4
   6  -1   7 90.5718 15.9926   1
   6  -1   7 127.980 15.3553   3
  -7   1  -7 150.062 10.2215   2
   7  -1   7 129.911 16.2349   3
   8  -1   7 1.63371 4.89483   3
  -5   0   7 283.172 19.1281   4
   4   0  -7 85.4275 7.94011   2
  -4   0   7 69.1770 7.23167   4
   3   0  -7 12.5583 2.66815   2
  -3   0   7 8.19217 2.68004   4
  -3   0   7 9.40942 4.64964   1
   2   0  -7 1.51123 1.26272   2
  -2   0   7 2.09894 1.66471   4
  -2   0   7 3.02709 2.86581   1
   1   0  -7 445.266 25.2379   2
  -1   0   7 459.794 31.1420   1
  -1   0   7 470.528 25.7267   4
   0   0  -7 154.968 10.6107   2
   0   0   7 186.557 11.3766   4
   0   0   7 177.228 15.8923   1
  -1   0  -7 430.507 23.1806   2
   1   0   7 449.251 29.8568   1
   1   0   7 392.527 23.3720   4
  -2   0  -7 574.576 30.9758   2
   2   0   7 589.153 38.5454   1
   2   0   7 597.861 31.7839   4
  -3   0  -7 129.208 8.20364   2
   3   0   7 118.325 8.86214   4
   3   0   7 113.395 13.6335   1
  -4   0  -7 134.807 8.37697   2
  -4   0  -7 123.096 8.23025   4
   4   0   7 123.706 9.24491   4
   4   0   7 97.9535 14.2195   1
  -5   0  -7 38.2306 3.96322   4
  -5   0  -7 39.5436 3.84074   2
   5   0   7 39.9282 8.97121   3
   5   0   7 29.3044 8.67711   1
   5   0   7 35.3811 4.83900   4
  -6   0  -7 75.8891 6.06951   4
  -6   0  -7 65.4085 5.36953   2
   6   0   7 49.1839 11.3185   1
   6   0   7 69.3542 11.6020   3
  -7   0  -7 95.7780 7.54467   4
  -7   0  -7 86.2343 7.04674   2
   7   0   7 100.850 14.1219   3
  -8   0  -7 218.212 14.1423   4
   8   0   7 198.506 21.5756   3
  -5   1   7 7.88930 3.21205   4
  -5   1   7 8.01438 3.41887   2
   4  -1  -7 201.713 13.8459   2
  -4   1   7 168.964 12.7129   2
   3  -1  -7 190.643 13.1499   2
  -3   1   7 181.424 12.6253   2
  -3   1   7 192.266 13.0583   4
   2  -1  -7 481.362 28.4234   2
  -2   1   7 553.796 28.9860   4
  -2   1   7 515.090 34.4283   1
  -2   1   7 502.664 28.2368   2
   1  -1  -7 349.604 19.9348   2
  -1   1   7 351.081 20.1940   4
  -1   1   7 333.607 24.9286   1
   0  -1  -7 152.185 9.77470   2
   0   1   7 148.266 10.0748   4
   0   1   7 144.298 14.6963   1
  -1  -1  -7 2.17483 0.99555   2
   1   1   7 -0.2690 0.75013   4
   1   1   7 0.86874 2.04500   1
  -2  -1  -7 288.139 16.4512   2
   2   1   7 289.341 23.5737   1
   2   1   7 301.842 17.3153   4
  -3  -1  -7 50.7532 4.29414   2
   3   1   7 58.1896 9.92271   1
   3   1   7 49.5260 5.03222   4
  -4  -1  -7 473.484 25.6073   4
  -4  -1  -7 506.611 25.3679   2
   4   1   7 506.268 26.9723   4
   4   1   7 389.761 34.7519   1
  -5  -1  -7 678.129 35.9536   4
  -5  -1  -7 662.075 35.3034   2
   5   1   7 686.382 37.6644   4
   5   1   7 698.709 43.0798   3
  -6  -1  -7 220.332 13.5586   4
  -6  -1  -7 207.567 12.7502   2
   6   1   7 238.834 22.7509   3
  -7  -1  -7 342.671 21.2419   4
   7   1   7 416.877 33.4722   3
  -8  -1  -7 9.88052 2.78458   4
   8   1   7 4.02379 4.99358   1
   8   1   7 7.80484 5.86453   3
  -9  -1  -7 9.29274 3.04052   4
   9   1   7 7.14952 6.16488   3
   5  -2  -7 274.454 17.8381   2
  -5   2   7 217.242 16.2891   2
   4  -2  -7 174.828 13.1734   2
  -4   2   7 158.029 12.2654   2
  -4   2   7 167.078 12.5930   4
   3  -2  -7 15.2431 3.52176   2
  -3   2   7 17.9399 3.54213   2
  -3   2   7 13.5639 3.23292   4
   2  -2  -7 18.2288 3.12104   2
  -2   2   7 18.4125 3.18766   4
  -2   2   7 25.1113 3.44901   2
   1  -2  -7 293.558 17.9997   2
  -1   2   7 312.914 17.9996   2
  -1   2   7 307.263 23.8063   1
  -1   2   7 309.967 18.3121   4
   0  -2  -7 164.978 10.7484   2
   0   2   7 177.142 16.2037   1
   0   2   7 159.670 10.9358   4
   0   2   7 168.283 10.6758   2
  -1  -2  -7 301.995 17.0377   2
   1   2   7 309.197 24.1495   1
   1   2   7 286.936 17.3421   4
  -2  -2  -7 787.782 40.9140   2
   2   2   7 781.844 50.8103   1
   2   2   7 811.457 41.8928   4
  -3  -2  -7 200.970 11.5240   2
   3   2   7 202.833 20.8035   1
   3   2   7 185.521 12.4380   4
  -4  -2  -7 304.032 16.1742   2
  -4  -2  -7 291.944 16.6783   4
   4   2   7 222.636 25.4630   1
   4   2   7 320.089 18.0622   4
   4   2   7 300.525 19.3351   3
  -5  -2  -7 2.32318 1.36459   4
  -5  -2  -7 0.99711 0.91283   2
   5   2   7 -0.3127 1.43860   3
   5   2   7 1.34230 2.95327   1
   5   2   7 0.51940 1.63386   4
  -6  -2  -7 81.1687 6.56503   4
  -6  -2  -7 73.3237 5.45112   2
   6   2   7 83.9995 8.03320   4
   6   2   7 83.4836 11.4855   3
  -7  -2  -7 63.0952 6.05664   4
   7   2   7 74.6210 13.4044   3
  -8  -2  -7 277.203 17.7718   4
  -8  -2  -7 290.679 23.0899   1
  -9  -2  -7 102.551 9.24718   4
  -9  -2  -7 120.062 13.7960   1
   9   2   7 126.789 18.0584   3
   4  -3  -7 91.5593 9.04084   2
  -4   3   7 101.354 9.19032   4
  -4   3   7 94.9204 8.91998   2
   3  -3  -7 155.755 11.9110   2
  -3   3   7 145.653 11.0982   4
  -3   3   7 150.658 11.4201   2
   2  -3  -7 355.741 22.2028   2
  -2   3   7 388.999 22.1850   4
  -2   3   7 374.804 22.0400   2
   1  -3  -7 419.193 24.0297   2
  -1   3   7 417.851 23.7762   2
  -1   3   7 416.227 23.8202   4
   0  -3  -7 191.253 12.8026   2
   0   3   7 210.459 12.8726   2
   0   3   7 208.657 13.1167   4
   0   3   7 219.141 20.9566   1
  -1  -3  -7 42.7060 4.02610   2
   1   3   7 35.3725 3.74515   2
   1   3   7 43.5591 9.29407   1
   1   3   7 45.9089 4.45174   4
  -2  -3  -7 179.221 10.5519   2
   2   3   7 166.999 11.0917   4
   2   3   7 166.296 19.4068   1
   2   3   7 166.789 10.3868   2
  -3  -3  -7 30.2894 2.92985   2
   3   3   7 29.8309 8.69652   1
   3   3   7 26.9005 3.47664   4
  -4  -3  -7 293.316 16.0371   2
  -4  -3  -7 294.931 16.7067   4
   4   3   7 224.216 27.3424   1
   4   3   7 317.441 18.0261   4
   4   3   7 304.047 18.9515   3
  -5  -3  -7 834.949 44.5732   4
  -5  -3  -7 805.589 43.4380   2
   5   3   7 882.754 46.5269   4
   5   3   7 917.145 49.2084   3
  -6  -3  -7 281.100 17.5036   4
   6   3   7 318.308 23.2315   3
   6   3   7 301.581 19.5406   4
  -7  -3  -7 490.420 28.4832   4
   7   3   7 539.560 37.5225   3
  -8  -3  -7 75.7378 6.80974   4
  -8  -3  -7 68.7191 10.2454   1
   8   3   7 56.5412 13.2318   3
  -9  -3  -7 3.11154 2.46212   4
  -9  -3  -7 2.09487 3.10670   1
   9   3   7 2.29917 7.10503   3
   9   3   7 3.62019 5.80793   1
   4  -4  -7 191.869 14.7726   2
  -4   4   7 201.341 14.4770   2
   3  -4  -7 37.6229 5.40753   2
  -3   4   7 28.3686 4.91558   2
  -3   4   7 32.3404 4.74019   4
   2  -4  -7 58.7574 6.49264   2
  -2   4   7 62.2961 5.99763   4
  -2   4   7 59.1828 6.32486   2
   1  -4  -7 103.081 8.54682   2
  -1   4   7 116.392 8.57588   4
  -1   4   7 100.833 8.36483   2
   0  -4  -7 136.288 9.71343   2
   0   4   7 133.794 9.53771   4
   0   4   7 132.679 9.48565   2
  -1  -4  -7 151.056 10.1977   2
   1   4   7 153.379 21.5633   1
   1   4   7 149.617 10.2392   4
   1   4   7 158.040 10.1408   2
  -2  -4  -7 777.594 39.4253   2
   2   4   7 795.011 39.4006   2
   2   4   7 683.726 55.4624   1
   2   4   7 733.724 39.9729   4
  -3  -4  -7 253.243 14.0560   2
   3   4   7 234.265 15.3361   3
   3   4   7 268.846 14.1579   2
   3   4   7 199.554 26.3669   1
   3   4   7 244.376 15.1862   4
  -4  -4  -7 411.708 21.6842   4
  -4  -4  -7 367.939 20.7139   2
   4   4   7 402.483 22.8875   4
   4   4   7 384.606 23.7150   3
  -5  -4  -7 28.1162 2.67401   2
  -5  -4  -7 29.0267 3.52741   4
   5   4   7 37.7193 5.85307   3
   5   4   7 17.7303 10.2810   1
   5   4   7 27.2089 4.50784   4
  -6  -4  -7 54.8104 5.21788   4
   6   4   7 45.3172 6.12781   4
   6   4   7 52.4531 7.90337   3
  -7  -4  -7 25.5364 6.04623   1
  -7  -4  -7 19.0964 3.20938   4
   7   4   7 17.1456 8.83162   1
   7   4   7 26.0152 6.96018   3
  -8  -4  -7 286.431 18.8755   4
  -8  -4  -7 305.214 25.0648   1
   8   4   7 333.367 28.1273   3
  -9  -4  -7 142.567 11.6943   4
  -9  -4  -7 165.779 17.3547   1
   9   4   7 158.657 22.8505   3
  -3   5   7 76.2345 8.05634   2
  -2   5   7 197.125 13.2996   4
  -2   5   7 189.678 13.9460   2
  -1   5   7 354.370 21.1870   4
  -1   5   7 370.454 21.9132   2
   0   5   7 220.331 14.0057   2
   0   5   7 209.914 13.6487   4
  -1  -5  -7 105.516 7.96841   2
   1   5   7 111.221 8.18594   4
   1   5   7 104.381 7.85751   2
  -2  -5  -7 61.7573 7.55337   3
  -2  -5  -7 52.5927 4.86473   2
   2   5   7 53.3347 4.82874   2
   2   5   7 52.2191 5.08239   4
   2   5   7 34.0013 12.9892   1
  -3  -5  -7 11.7283 2.13900   2
  -3  -5  -7 18.1721 3.05376   3
   3   5   7 11.3775 2.89475   3
   3   5   7 13.9340 9.89500   1
   3   5   7 15.5577 3.12100   4
   3   5   7 16.2318 2.32725   2
  -4  -5  -7 124.761 8.11718   4
  -4  -5  -7 117.897 7.35798   2
   4   5   7 71.4559 18.0500   1
   4   5   7 111.678 9.85804   3
   4   5   7 112.670 7.28561   2
   4   5   7 116.773 9.12661   4
  -5  -5  -7 781.557 41.3746   4
   5   5   7 761.031 43.2754   4
   5   5   7 813.451 45.4301   3
  -6  -5  -7 330.056 20.1636   4
  -6  -5  -7 362.002 27.6707   1
   6   5   7 345.879 24.7217   3
   6   5   7 360.292 22.6288   4
  -7  -5  -7 553.366 38.0933   1
  -7  -5  -7 514.948 30.1069   4
   7   5   7 550.570 36.5520   3
  -8  -5  -7 198.100 14.2335   4
  -8  -5  -7 210.255 20.3091   1
   8   5   7 225.247 21.3556   3
  -9  -5  -7 1.11022 2.10917   4
  -9  -5  -7 -1.0644 2.68177   1
   9   5   7 -0.8602 4.58423   3
   9   5   7 -2.6403 3.99399   1
 -10  -5  -7 0.03715 1.71395   4
  10   5   7 3.32561 6.61995   1
  10   5   7 0.73146 7.61223   3
  -2   6   7 71.2961 7.73953   2
  -1   6   7 19.2304 3.85149   2
   0   6   7 68.8848 6.63684   2
   1   6   7 53.7578 5.34195   4
   1   6   7 47.5135 5.11901   2
  -2  -6  -7 492.067 29.3045   3
   2   6   7 546.211 27.6333   2
   2   6   7 476.486 29.3073   3
   2   6   7 484.855 27.8900   4
  -3  -6  -7 287.748 16.4907   2
  -3  -6  -7 281.534 18.3154   3
   3   6   7 301.813 16.4397   2
   3   6   7 262.513 18.5333   3
   3   6   7 290.586 17.7267   4
  -4  -6  -7 346.569 20.1308   4
  -4  -6  -7 331.758 19.4655   2
  -4  -6  -7 450.143 31.2356   1
   4   6   7 346.004 19.4834   2
   4   6   7 377.480 22.1782   4
   4   6   7 347.127 23.0663   3
  -5  -6  -7 121.136 9.03842   4
  -5  -6  -7 148.247 16.4804   1
   5   6   7 130.551 11.0007   4
   5   6   7 126.946 11.9466   3
  -6  -6  -7 16.7796 3.06764   4
  -6  -6  -7 19.6062 5.90557   1
   6   6   7 2.83442 6.46822   1
   6   6   7 14.9245 5.03908   3
  -7  -6  -7 5.83357 4.02115   1
  -7  -6  -7 3.69265 1.81339   4
   7   6   7 3.53858 3.70091   3
   7   6   7 1.13140 5.67903   1
  -8  -6  -7 198.473 20.1770   1
  -8  -6  -7 190.695 13.8759   4
   8   6   7 197.243 19.5943   3
  -9  -6  -7 169.895 18.4914   1
  -9  -6  -7 157.828 12.4311   4
   9   6   7 157.463 19.2372   3
  -2   7   7 77.9975 8.51716   2
  -1   7   7 207.396 15.0451   2
   0   7   7 172.353 12.5573   2
  -1  -7  -7 163.626 16.7302   3
   1   7   7 110.233 9.24865   2
  -2  -7  -7 2.74301 2.31473   3
   2   7   7 6.01157 1.79704   2
  -3  -7  -7 5.67269 2.69887   3
  -3  -7  -7 2.23581 2.86099   1
  -3  -7  -7 5.54257 1.88048   4
   3   7   7 6.04130 1.69432   2
   3   7   7 4.02177 2.59031   4
   3   7   7 4.61744 2.79361   3
  -4  -7  -7 22.5248 2.90936   4
  -4  -7  -7 15.5082 2.39030   2
  -4  -7  -7 15.7093 3.72855   3
   4   7   7 15.9712 10.5475   1
   4   7   7 17.5406 4.32911   3
   4   7   7 13.8997 3.45586   4
   4   7   7 20.8976 2.64654   2
  -5  -7  -7 450.291 26.7679   4
  -5  -7  -7 503.539 37.7077   1
   5   7   7 484.121 31.2441   3
   5   7   7 517.217 29.7166   4
  -6  -7  -7 300.398 19.0144   4
  -6  -7  -7 340.710 28.7292   1
   6   7   7 312.894 23.6824   3
  -7  -7  -7 394.594 24.5425   4
  -7  -7  -7 424.081 33.8434   1
   7   7   7 438.891 30.8813   3
  -8  -7  -7 290.607 26.5492   1
  -8  -7  -7 267.720 18.4733   4
   8   7   7 296.967 24.9635   3
  -9  -7  -7 14.9825 6.00926   1
  -9  -7  -7 6.54589 3.21702   4
   9   7   7 8.30651 6.31946   3
  -1   8   7 2.67906 3.01833   2
   0   8   7 18.9374 4.19296   2
  -1  -8  -7 11.6227 4.52386   3
   1   8   7 13.8468 3.25878   2
  -2  -8  -7 223.374 17.1680   3
   2   8   7 205.371 13.8335   2
  -3  -8  -7 207.543 16.7044   3
   3   8   7 225.126 13.9513   2
   3   8   7 237.058 17.7253   3
  -4  -8  -7 177.941 21.7133   1
  -4  -8  -7 238.841 17.2529   3
   4   8   7 244.881 18.0985   3
  -5  -8  -7 174.948 14.4410   3
  -5  -8  -7 147.074 17.9160   1
   5   8   7 175.449 15.3822   3
  -6  -8  -7 1.57242 3.33520   1
  -6  -8  -7 1.33533 1.33193   4
   6   8   7 -1.6318 7.11084   1
   6   8   7 -0.8683 1.55548   3
  -7  -8  -7 -2.8762 2.85892   1
  -7  -8  -7 -0.4111 0.97111   4
   7   8   7 -3.5135 4.65288   1
   7   8   7 -0.7379 1.92828   3
  -8  -8  -7 78.1019 7.86926   4
  -8  -8  -7 79.9457 13.8134   1
   8   8   7 85.8828 12.5931   3
  -9  -8  -7 137.181 18.0231   1
  -9  -8  -7 123.938 11.0986   4
   9   8   7 148.836 17.6863   3
  -1  -9  -7 66.4084 10.4190   3
   1   9   7 76.8928 7.62047   2
  -2  -9  -7 2.78508 2.96224   3
   2   9   7 7.10789 2.69000   2
  -3  -9  -7 -0.1760 2.47811   3
   3   9   7 1.00129 1.55058   2
  -4  -9  -7 1.56656 2.55523   3
   4   9   7 -0.7512 2.19510   3
  -5  -9  -7 189.947 16.1158   3
   5   9   7 190.980 17.1256   3
  -6  -9  -7 236.162 18.8708   3
  -6  -9  -7 211.467 22.8433   1
   6   9   7 229.656 19.9749   3
  -7  -9  -7 245.919 26.3400   1
   7   9   7 259.102 22.5964   3
   8   9   7 272.485 24.6338   3
  -3 -10  -7 121.386 13.2427   3
  -4 -10  -7 120.311 13.2220   3
   4  10   7 129.979 13.8451   3
  -5 -10  -7 122.937 13.5073   3
   5  10   7 148.848 15.1789   3
  -6 -10  -7 8.74461 4.66957   3
   6  10   7 6.85656 4.46823   3
  -7 -10  -7 3.93095 3.93217   3
   7  10   7 2.84453 4.43597   3
  -1  -5   8 95.3961 13.9638   1
   0   5  -8 193.753 14.1517   2
   0  -5   8 187.994 19.8489   1
  -1   5  -8 169.191 12.5565   2
   1  -5   8 148.893 17.6517   1
  -3  -4   8 246.396 17.2126   4
  -3  -4   8 284.727 25.9100   1
   2   4  -8 64.6742 7.11868   2
  -2  -4   8 73.4584 11.6390   1
   1   4  -8 42.2042 5.35555   2
  -1  -4   8 31.4413 7.88995   1
   0   4  -8 3.75684 2.51478   2
   0  -4   8 4.35922 3.85912   1
  -1   4  -8 64.1143 6.91267   2
   1  -4   8 80.4680 11.7221   1
  -2   4  -8 82.9614 7.67448   2
   2  -4   8 72.1676 11.8253   1
  -3   4  -8 296.462 17.7346   2
   3  -4   8 223.065 23.1712   1
  -4   4  -8 192.667 14.0133   2
   3   3  -8 2.52115 2.50068   2
  -3  -3   8 3.29283 3.11035   1
  -3  -3   8 1.53863 2.16967   4
   2   3  -8 123.145 9.89807   2
  -2  -3   8 126.701 15.2453   1
  -2  -3   8 116.852 9.48891   4
   1   3  -8 126.084 9.44145   2
  -1  -3   8 113.004 14.2829   1
  -1  -3   8 96.8527 8.53470   4
   0   3  -8 371.525 21.3300   2
   0  -3   8 353.772 20.8553   4
   0  -3   8 327.175 27.6874   1
  -1   3  -8 345.718 20.6975   2
   1  -3   8 342.689 27.8236   1
  -2   3  -8 189.867 13.0558   2
   2  -3   8 190.882 19.4125   1
  -3   3  -8 35.5808 4.41837   2
   3  -3   8 27.1851 7.09082   1
  -4   3  -8 2.17798 1.63726   2
   4  -3   8 2.78291 3.90982   1
  -5   3  -8 11.4065 2.85384   2
  -4  -2   8 74.9093 7.85378   4
  -4  -2   8 95.7134 13.9174   1
   3   2  -8 436.303 24.5373   2
  -3  -2   8 366.823 30.9464   1
  -3  -2   8 380.160 23.7458   4
   2   2  -8 175.985 12.1989   2
  -2  -2   8 154.262 11.7915   4
  -2  -2   8 171.610 17.9537   1
   1   2  -8 85.3047 7.29033   2
  -1  -2   8 77.1210 7.04089   4
  -1  -2   8 81.9550 11.7288   1
   0   2  -8 61.6802 5.68982   2
   0  -2   8 43.5396 8.78861   1
   0  -2   8 50.7632 5.38062   4
  -1   2  -8 74.5044 6.28631   2
   1  -2   8 64.9350 10.1125   1
   1  -2   8 60.2630 5.98416   4
  -2   2  -8 62.8865 5.93403   2
   2  -2   8 73.6400 10.7860   1
   2  -2   8 57.6929 5.90851   4
  -3   2  -8 384.388 21.9077   2
  -3   2  -8 387.624 21.1591   4
   3  -2   8 365.804 29.8302   1
   3  -2   8 354.632 21.9342   4
  -4   2  -8 448.452 24.2822   2
   4  -2   8 416.763 26.5877   4
   4  -2   8 378.517 32.6792   1
  -5   2  -8 150.298 10.3827   2
   5  -2   8 117.709 17.1746   1
  -6   2  -8 110.306 8.57599   2
   6  -2   8 63.5439 19.3118   1
  -4  -1   8 86.3500 8.35054   4
  -4  -1   8 69.5907 13.4019   1
   3   1  -8 15.2476 3.59576   2
  -3  -1   8 12.9557 6.12093   1
  -3  -1   8 10.1531 3.28988   4
   2   1  -8 112.193 8.89131   2
  -2  -1   8 99.6086 13.3466   1
  -2  -1   8 110.882 8.98622   4
   1   1  -8 98.9848 8.06278   2
  -1  -1   8 107.495 8.45541   4
  -1  -1   8 100.750 12.8501   1
   0   1  -8 376.661 22.3923   2
   0  -1   8 412.803 30.0432   1
   0  -1   8 395.083 22.8381   4
  -1   1  -8 616.645 32.2409   2
   1  -1   8 573.410 32.3998   4
   1  -1   8 585.379 39.9025   1
  -2   1  -8 384.873 21.8767   2
   2  -1   8 400.120 30.1019   1
   2  -1   8 372.622 22.2967   4
  -3   1  -8 159.372 10.2507   2
   3  -1   8 130.232 10.4046   4
   3  -1   8 155.389 17.0443   1
  -4   1  -8 0.98624 1.38424   2
  -4   1  -8 0.38908 1.11565   4
   4  -1   8 1.40182 1.87339   4
   4  -1   8 -0.5674 2.81528   1
  -5   1  -8 5.44935 1.93961   4
  -5   1  -8 2.39501 1.75704   2
   5  -1   8 2.99267 3.91179   1
   5  -1   8 1.17014 2.14562   4
  -6   1  -8 98.1368 7.98831   2
  -6   1  -8 109.258 8.15218   4
  -7   1  -8 127.367 9.55637   2
   4   0  -8 62.2547 6.93753   2
  -4   0   8 58.2164 6.68807   4
   3   0  -8 399.823 24.2371   2
  -3   0   8 382.589 24.2059   4
  -3   0   8 430.967 32.4687   1
   2   0  -8 288.000 18.2671   2
  -2   0   8 298.990 24.8375   1
  -2   0   8 310.271 18.8314   4
   1   0  -8 114.379 8.37721   2
  -1   0   8 86.2960 11.7446   1
  -1   0   8 114.372 8.69223   4
   0   0  -8 201.596 13.2571   2
   0   0   8 230.470 13.9930   4
   0   0   8 205.704 19.0545   1
  -1   0  -8 27.2334 3.50730   2
   1   0   8 29.4759 6.63816   1
   1   0   8 37.3647 4.25032   4
  -2   0  -8 38.2501 3.88370   2
   2   0   8 33.9884 7.60921   1
   2   0   8 30.0603 3.91928   4
  -3   0  -8 353.514 19.4556   2
   3   0   8 329.416 20.2194   4
   3   0   8 338.087 28.0380   1
  -4   0  -8 761.719 37.8075   2
  -4   0  -8 732.308 37.7544   4
   4   0   8 711.266 38.9325   4
   4   0   8 625.326 47.8439   1
  -5   0  -8 257.674 14.2738   2
  -5   0  -8 236.358 14.2223   4
   5   0   8 240.368 15.8265   4
   5   0   8 169.951 21.8791   1
  -6   0  -8 279.164 17.1659   2
  -6   0  -8 309.486 17.7191   4
  -7   0  -8 4.53244 2.11397   4
  -7   0  -8 4.82263 2.18014   2
   7   0   8 4.75540 5.35803   1
  -8   0  -8 4.43412 2.45480   4
  -4   1   8 105.544 9.57100   4
   3  -1  -8 84.3105 7.88466   2
  -3   1   8 68.0106 7.14898   4
   2  -1  -8 79.0046 7.09154   2
  -2   1   8 66.4443 10.7216   1
  -2   1   8 73.4646 6.99133   4
   1  -1  -8 81.1137 6.62319   2
  -1   1   8 71.4557 10.4748   1
  -1   1   8 60.0742 6.21027   4
   0  -1  -8 318.714 18.5253   2
   0   1   8 314.784 18.9745   4
   0   1   8 315.720 25.0538   1
  -1  -1  -8 761.499 39.9099   2
   1   1   8 763.053 48.3910   1
   1   1   8 751.493 40.5192   4
  -2  -1  -8 583.418 30.6776   2
   2   1   8 588.754 31.5776   4
   2   1   8 541.240 39.2236   1
  -3  -1  -8 358.583 19.6442   2
   3   1   8 317.594 28.2944   1
   3   1   8 368.843 20.8664   4
  -4  -1  -8 13.0025 2.53869   4
  -4  -1  -8 17.4941 2.41481   2
   4   1   8 9.37852 3.00264   4
   4   1   8 16.0586 6.57434   1
  -5  -1  -8 2.52627 1.29016   2
  -5  -1  -8 1.31641 1.24392   4
   5   1   8 -0.0648 1.64167   4
   5   1   8 0.74045 2.33163   1
  -6  -1  -8 65.9382 5.23817   2
  -6  -1  -8 60.1370 5.56717   4
   6   1   8 66.2104 7.17004   4
   6   1   8 32.4526 10.6209   1
  -7  -1  -8 211.480 14.2755   4
   7   1   8 248.136 27.6111   3
  -8  -1  -8 67.5004 6.64433   4
   8   1   8 76.3790 12.9009   3
   4  -2  -8 40.6037 5.98428   2
  -4   2   8 32.6974 5.19159   2
   3  -2  -8 285.684 18.8494   2
  -3   2   8 291.568 18.5164   2
  -3   2   8 286.264 18.8230   4
   2  -2  -8 381.733 23.1729   2
  -2   2   8 401.878 23.0631   2
  -2   2   8 385.047 23.3516   4
   1  -2  -8 124.320 9.52022   2
  -1   2   8 144.673 10.1750   4
  -1   2   8 120.183 9.23833   2
  -1   2   8 129.924 15.1532   1
   0  -2  -8 343.249 20.8297   2
   0   2   8 382.832 21.5439   4
   0   2   8 367.350 28.4646   1
  -1  -2  -8 1.42874 1.29858   2
   1   2   8 1.97406 3.13377   1
   1   2   8 0.57329 1.31735   4
  -2  -2  -8 10.0102 2.09743   2
   2   2   8 9.11308 2.41047   4
   2   2   8 17.0522 5.56536   1
  -3  -2  -8 192.568 11.2507   2
   3   2   8 175.140 12.1401   4
   3   2   8 167.224 19.6313   1
  -4  -2  -8 923.515 43.1948   2
   4   2   8 688.461 55.4185   1
   4   2   8 849.442 44.7693   4
  -5  -2  -8 305.742 16.9242   4
  -5  -2  -8 286.710 16.0279   2
   5   2   8 300.842 18.5243   4
   5   2   8 213.243 26.6272   1
  -6  -2  -8 441.665 24.0304   2
  -6  -2  -8 440.345 25.0803   4
   6   2   8 455.686 27.1797   4
  -7  -2  -8 44.2849 4.89216   4
   7   2   8 56.5398 10.8145   3
   7   2   8 18.7660 9.51449   1
  -8  -2  -8 2.77626 2.06093   4
   8   2   8 4.69870 6.76589   3
   8   2   8 -0.4673 3.85841   1
  -9  -2  -8 7.81577 4.46713   1
  -9  -2  -8 6.06814 2.84682   4
   9   2   8 3.14723 4.76388   3
   3  -3  -8 131.042 11.0194   2
  -3   3   8 134.997 10.8231   2
  -3   3   8 114.868 10.3830   4
   2  -3  -8 12.1493 2.96352   2
  -2   3   8 11.1279 3.25513   4
  -2   3   8 13.1111 2.92734   2
   1  -3  -8 35.6987 4.68634   2
  -1   3   8 46.2125 5.01078   2
  -1   3   8 41.2723 5.03545   4
   0  -3  -8 171.689 11.5306   2
   0   3   8 162.915 11.2784   2
   0   3   8 171.467 11.8340   4
   0   3   8 172.629 19.4762   1
  -1  -3  -8 762.512 39.8713   2
   1   3   8 716.999 50.8375   1
   1   3   8 768.337 39.8231   2
   1   3   8 753.461 40.3796   4
  -2  -3  -8 679.469 34.3313   2
   2   3   8 584.152 45.6543   1
   2   3   8 656.460 35.1807   4
  -3  -3  -8 527.496 26.8742   2
   3   3   8 448.150 39.3296   1
   3   3   8 506.279 28.1161   4
  -4  -3  -8 74.4514 5.48635   2
   4   3   8 72.6844 6.80811   4
   4   3   8 62.4807 13.0827   1
  -5  -3  -8 18.2228 2.40640   2
  -5  -3  -8 20.5285 3.00033   4
   5   3   8 22.9000 4.08584   4
   5   3   8 11.6986 6.60678   1
  -6  -3  -8 12.8322 2.06519   2
  -6  -3  -8 14.4290 2.58445   4
   6   3   8 6.48038 5.82815   1
   6   3   8 9.53067 4.54681   3
   6   3   8 12.4171 3.27320   4
  -7  -3  -8 233.822 15.2757   4
   7   3   8 249.422 21.8890   3
  -8  -3  -8 61.2601 6.34706   4
   8   3   8 76.9032 13.5921   3
  -9  -3  -8 198.049 13.8518   4
  -9  -3  -8 159.421 17.7274   1
   9   3   8 239.579 27.2712   3
   3  -4  -8 136.546 11.9496   2
  -3   4   8 142.736 11.7721   2
  -3   4   8 147.382 11.7548   4
   2  -4  -8 388.487 23.8887   2
  -2   4   8 372.661 23.3500   2
  -2   4   8 393.025 23.4265   4
   1  -4  -8 134.369 10.6070   2
  -1   4   8 139.848 10.5500   4
  -1   4   8 140.671 10.4850   2
   0  -4  -8 374.367 22.8430   2
   0   4   8 413.905 22.9834   2
   0   4   8 390.917 23.0654   4
  -1  -4  -8 37.5552 4.32091   2
   1   4   8 41.3713 4.34558   2
   1   4   8 33.9697 4.35916   4
   1   4   8 23.1060 9.88163   1
  -2  -4  -8 3.41664 1.70019   2
   2   4   8 1.37329 1.47157   2
   2   4   8 -0.4506 2.87833   1
   2   4   8 1.30022 1.59703   4
  -3  -4  -8 50.3789 4.42214   2
   3   4   8 52.0575 5.28784   4
   3   4   8 34.5322 10.6847   1
  -4  -4  -8 760.968 40.0796   2
   4   4   8 799.499 42.2330   4
  -5  -4  -8 315.470 17.9522   2
  -5  -4  -8 338.181 19.1251   4
   5   4   8 337.636 20.8032   4
  -6  -4  -8 519.215 28.8695   4
   6   4   8 558.844 33.9572   3
   6   4   8 476.514 30.6378   4
  -7  -4  -8 163.344 11.7336   4
   7   4   8 179.204 17.0395   3
  -8  -4  -8 0.76087 2.50098   1
  -8  -4  -8 4.67101 2.30346   4
   8   4   8 0.68244 3.89168   3
   8   4   8 -0.0709 5.95210   1
  -9  -4  -8 17.3887 3.96534   4
  -9  -4  -8 25.0326 7.00540   1
   9   4   8 37.5536 10.9859   3
   9   4   8 5.48387 8.59202   1
   2  -5  -8 5.42314 3.09780   2
  -2   5   8 3.33277 2.21734   4
  -2   5   8 0.52707 2.17839   2
   1  -5  -8 16.2880 3.54460   2
  -1   5   8 17.4418 3.60941   4
  -1   5   8 12.4889 3.25137   2
   0  -5  -8 57.3293 6.04068   2
   0   5   8 61.4813 5.98064   2
   0   5   8 60.9595 6.18259   4
  -1  -5  -8 513.199 29.8483   2
   1   5   8 539.021 30.1774   4
   1   5   8 563.265 29.9581   2
  -2  -5  -8 638.810 34.4616   2
   2   5   8 656.382 34.4123   2
   2   5   8 624.174 35.0211   4
  -3  -5  -8 580.206 30.7631   2
   3   5   8 448.292 49.5430   1
   3   5   8 627.742 30.9004   2
   3   5   8 584.626 32.1214   4
  -4  -5  -8 165.086 9.90303   2
  -4  -5  -8 164.711 10.4821   4
   4   5   8 103.915 21.9438   1
   4   5   8 162.861 11.6264   4
  -5  -5  -8 36.6660 3.38114   2
  -5  -5  -8 41.6997 4.23084   4
   5   5   8 43.6105 6.16232   3
   5   5   8 22.1824 11.4966   1
   5   5   8 35.8557 5.04786   4
  -6  -5  -8 2.94190 1.59257   4
   6   5   8 6.33314 8.61772   1
   6   5   8 1.60560 2.65517   3
   6   5   8 -0.9223 1.35609   4
  -7  -5  -8 151.424 11.5183   4
  -7  -5  -8 165.681 17.5766   1
   7   5   8 191.906 17.1585   3
  -8  -5  -8 76.0650 7.39620   4
  -8  -5  -8 73.1300 11.5611   1
   8   5   8 79.3027 11.8729   3
  -9  -5  -8 165.207 12.7818   4
  -9  -5  -8 152.998 17.8910   1
   9   5   8 190.931 21.3367   3
   2  -6  -8 235.583 17.4597   2
  -2   6   8 243.600 17.2020   2
   1  -6  -8 128.440 10.9236   2
  -1   6   8 134.181 10.9016   2
   0  -6  -8 274.720 18.1198   2
   0   6   8 317.787 18.4530   2
   0   6   8 263.628 17.7144   4
  -1  -6  -8 96.9745 8.10160   2
   1   6   8 102.271 8.42605   4
   1   6   8 98.1930 7.97122   2
  -2  -6  -8 5.91835 2.19216   2
   2   6   8 6.07282 2.12022   2
   2   6   8 3.81070 1.91233   4
  -3  -6  -8 2.09511 1.63322   2
   3   6   8 -0.8006 7.09395   1
   3   6   8 0.61309 1.24136   4
   3   6   8 5.20191 1.88941   2
  -4  -6  -8 459.689 26.6091   2
  -4  -6  -8 471.293 27.1650   4
   4   6   8 531.096 26.8846   2
   4   6   8 543.438 29.2827   4
  -5  -6  -8 314.693 18.9895   4
   5   6   8 317.019 22.0214   3
   5   6   8 354.112 21.4778   4
  -6  -6  -8 419.972 25.2208   4
  -6  -6  -8 467.275 34.9522   1
   6   6   8 455.642 29.9701   3
   6   6   8 445.963 27.8101   4
  -7  -6  -8 315.103 27.0273   1
  -7  -6  -8 269.689 18.4570   4
   7   6   8 327.298 24.4432   3
  -8  -6  -8 2.21584 1.97159   4
  -8  -6  -8 4.96442 4.25748   1
   8   6   8 4.37585 4.05977   3
   8   6   8 -2.0434 5.43343   1
  -9  -6  -8 34.5341 5.31407   4
  -9  -6  -8 37.5924 8.58993   1
   9   6   8 38.6326 8.88082   3
   9   6   8 15.9339 10.9492   1
  -1   7   8 3.85673 2.86021   2
   0   7   8 10.9264 3.37977   2
   1   7   8 250.618 16.1688   2
  -2  -7  -8 418.831 24.8544   2
   2   7   8 447.706 24.8782   2
  -3  -7  -8 460.482 27.0268   2
   3   7   8 504.157 28.5899   4
   3   7   8 503.217 27.0483   2
  -4  -7  -8 218.794 14.0651   4
  -4  -7  -8 246.570 23.9794   1
  -4  -7  -8 209.085 13.5914   2
   4   7   8 242.288 19.3510   3
   4   7   8 256.049 16.5038   4
   4   7   8 219.029 13.5602   2
  -5  -7  -8 69.1537 6.46089   4
  -5  -7  -8 88.9727 14.0056   1
   5   7   8 78.9446 8.51399   4
   5   7   8 76.2766 8.98087   3
  -6  -7  -8 21.5399 3.66268   4
  -6  -7  -8 39.9406 9.02793   1
   6   7   8 23.7595 5.89723   3
   6   7   8 11.6689 10.0748   1
   6   7   8 38.0955 6.16382   4
  -7  -7  -8 52.5784 5.99020   4
  -7  -7  -8 64.6616 11.9144   1
   7   7   8 63.8552 9.68201   3
   7   7   8 32.5361 15.5259   1
  -8  -7  -8 66.6774 11.6907   1
  -8  -7  -8 63.1276 6.86246   4
   8   7   8 56.2224 9.64457   3
   8   7   8 31.3309 13.2362   1
  -9  -7  -8 148.171 17.8744   1
  -9  -7  -8 119.923 11.0284   4
   9   7   8 128.181 16.7076   3
   0   8   8 170.129 13.1771   2
   1   8   8 109.401 9.32796   2
   2   8   8 17.2007 3.29922   2
  -3  -8  -8 5.68115 2.19493   2
   3   8   8 7.40344 2.28309   2
   4   8   8 202.057 16.3187   3
  -5  -8  -8 237.710 18.5750   3
  -5  -8  -8 289.528 27.2773   1
  -5  -8  -8 303.778 21.2740   4
   5   8   8 249.863 19.6386   3
  -6  -8  -8 291.288 28.3658   1
  -6  -8  -8 250.820 17.1507   4
   6   8   8 288.778 22.0396   3
  -7  -8  -8 279.326 18.9662   4
  -7  -8  -8 316.798 29.6537   1
   7   8   8 317.413 24.7532   3
  -8  -8  -8 21.6325 7.80917   1
  -8  -8  -8 18.6193 4.09425   4
   8   8   8 19.7266 6.90649   3
   8   8   8 8.62249 10.7635   1
   2   9   8 235.186 15.6620   2
   3   9   8 307.866 18.7618   2
  -4  -9  -8 204.612 16.5560   3
   4   9   8 187.482 16.4644   3
  -5  -9  -8 73.2423 9.08927   3
   5   9   8 83.8286 10.0977   3
  -6  -9  -8 42.6632 10.2708   1
  -6  -9  -8 47.2783 7.56340   3
   6   9   8 51.3480 8.75782   3
  -7  -9  -8 8.55987 6.50909   1
   7   9   8 10.4390 5.34792   3
  -8  -9  -8 43.2451 11.5393   1
   8   9   8 20.8865 7.58819   3
  -4 -10  -8 40.8730 7.54866   3
   4  10   8 44.2119 7.87887   3
  -5 -10  -8 121.928 12.8252   3
   5  10   8 126.882 13.8504   3
  -6 -10  -8 141.403 14.4079   3
   6  10   8 133.766 14.9480   3
  -1   4  -9 130.980 10.8184   2
   1  -4   9 127.099 16.7506   1
  -2  -3   9 81.3228 13.4415   1
  -2  -3   9 77.9269 7.75073   4
   1   3  -9 32.1072 4.93617   2
  -1  -3   9 28.0159 8.16444   1
  -1  -3   9 38.5454 4.89271   4
   0   3  -9 23.7206 4.05282   2
   0  -3   9 23.2630 3.90586   4
   0  -3   9 13.4096 5.61923   1
  -1   3  -9 45.0334 5.34935   2
   1  -3   9 46.9572 9.81496   1
  -2   3  -9 176.170 12.7790   2
   2  -3   9 179.040 20.0927   1
   3  -3   9 194.171 21.4482   1
  -4   3  -9 140.770 10.8274   2
   4  -3   9 120.770 17.0782   1
   2   2  -9 9.34349 3.19535   2
  -2  -2   9 6.73247 2.88033   4
  -2  -2   9 5.63061 4.68412   1
   1   2  -9 253.457 16.1664   2
  -1  -2   9 248.940 23.6419   1
  -1  -2   9 214.574 15.5634   4
   0   2  -9 322.523 18.8254   2
   0  -2   9 275.691 18.3493   4
   0  -2   9 289.631 26.2044   1
  -1   2  -9 194.113 12.8272   2
   1  -2   9 164.624 12.4620   4
   1  -2   9 188.768 19.8521   1
  -2   2  -9 276.439 17.2738   2
   2  -2   9 269.719 17.4086   4
   2  -2   9 274.649 25.3150   1
  -3   2  -9 7.37744 2.58676   2
   3  -2   9 5.96137 2.74504   4
   3  -2   9 10.0316 5.62317   1
  -4   2  -9 -1.1212 1.59354   2
   4  -2   9 1.40015 2.54612   1
  -5   2  -9 46.1847 5.19989   2
   5  -2   9 25.4705 9.06958   1
   3   1  -9 80.9941 8.09582   2
  -3  -1   9 80.3813 13.0932   1
  -3  -1   9 75.4089 7.84357   4
   2   1  -9 116.645 9.57527   2
  -2  -1   9 101.459 9.32628   4
  -2  -1   9 108.896 14.9660   1
   1   1  -9 144.800 10.4395   2
  -1  -1   9 131.630 10.4102   4
  -1  -1   9 119.992 15.6507   1
   0   1  -9 6.31148 2.58604   2
   0  -1   9 10.3456 2.60213   4
   0  -1   9 5.06893 4.21462   1
  -1   1  -9 34.6663 4.26543   2
   1  -1   9 35.0917 8.12793   1
   1  -1   9 30.2822 4.37359   4
  -2   1  -9 177.375 11.8506   2
   2  -1   9 179.812 19.4381   1
   2  -1   9 161.267 12.0350   4
  -3   1  -9 347.216 19.9981   2
   3  -1   9 314.261 28.7618   1
   3  -1   9 341.960 20.7125   4
  -4   1  -9 218.220 13.4866   2
  -4   1  -9 206.602 12.9610   4
   4  -1   9 201.886 14.1402   4
   4  -1   9 170.583 21.0460   1
  -5   1  -9 225.856 13.6063   4
  -5   1  -9 208.796 13.6633   2
   5  -1   9 212.447 15.0913   4
   5  -1   9 164.597 21.6611   1
  -6   1  -9 53.5190 5.54220   2
   6  -1   9 35.5357 10.6027   1
  -3   0   9 62.7268 7.17450   4
   2   0  -9 -0.7250 1.65301   2
  -2   0   9 1.84359 2.89011   1
  -2   0   9 1.02605 1.38673   4
   1   0  -9 199.373 13.4365   2
  -1   0   9 184.827 19.4637   1
  -1   0   9 201.873 13.8805   4
   0   0  -9 402.318 23.4756   2
   0   0   9 417.604 32.0303   1
   0   0   9 399.671 23.9478   4
  -1   0  -9 230.117 14.3333   2
   1   0   9 217.814 21.5669   1
   1   0   9 227.167 14.8637   4
  -2   0  -9 510.691 28.3977   2
   2   0   9 525.440 29.2636   4
   2   0   9 505.214 38.0821   1
  -3   0  -9 60.3135 5.36447   2
   3   0   9 52.4254 5.81787   4
   3   0   9 41.8086 9.63855   1
  -4   0  -9 5.12075 2.05218   4
  -4   0  -9 4.95359 2.00231   2
   4   0   9 4.05861 2.50840   4
   4   0   9 1.81799 3.53693   1
  -5   0  -9 21.3671 3.27570   2
  -5   0  -9 21.3129 3.30227   4
   5   0   9 18.7649 3.81605   4
   5   0   9 14.7940 7.43077   1
  -6   0  -9 164.741 11.3365   4
  -6   0  -9 152.858 10.9583   2
   6   0   9 172.915 13.2718   4
  -7   0  -9 90.3677 7.56447   4
  -7   0  -9 83.5783 6.97489   2
   7   0   9 50.1253 13.4894   1
   3  -1  -9 91.1835 8.70109   2
  -3   1   9 88.2256 8.81898   4
   2  -1  -9 114.380 9.67607   2
  -2   1   9 122.645 10.0504   4
   1  -1  -9 268.048 16.6765   2
  -1   1   9 279.691 17.3520   4
  -1   1   9 233.604 22.9820   1
   0  -1  -9 4.47338 1.87646   2
   0   1   9 2.52587 2.03043   4
   0   1   9 2.29827 3.32545   1
  -1  -1  -9 14.0159 2.45783   2
   1   1   9 15.8272 3.19659   4
   1   1   9 7.28978 4.42959   1
  -2  -1  -9 100.704 7.41682   2
   2   1   9 101.023 8.17781   4
   2   1   9 75.7913 12.3232   1
  -3  -1  -9 418.287 22.3989   2
   3   1   9 414.867 23.5732   4
   3   1   9 340.366 31.5425   1
  -4  -1  -9 279.665 15.5404   2
   4   1   9 203.573 24.0290   1
   4   1   9 268.953 16.8406   4
  -5  -1  -9 353.690 20.7229   4
  -5  -1  -9 361.287 20.3180   2
   5   1   9 348.500 22.2977   4
  -6  -1  -9 144.114 9.92215   2
  -6  -1  -9 149.947 10.5364   4
   6   1   9 145.680 12.0475   4
  -7  -1  -9 56.7511 5.98920   4
  -8  -1  -9 2.94958 2.18472   4
   8   1   9 -2.6993 4.22433   1
   3  -2  -9 26.0449 4.92113   2
  -3   2   9 26.3330 5.07985   4
   2  -2  -9 3.74875 2.51229   2
  -2   2   9 1.07552 1.59874   4
   1  -2  -9 89.9782 7.63852   2
  -1   2   9 69.5465 7.17643   4
  -1   2   9 74.1275 12.6844   1
   0  -2  -9 483.983 27.6580   2
   0   2   9 515.853 28.5927   4
   0   2   9 471.695 36.6618   1
  -1  -2  -9 211.223 13.6284   2
   1   2   9 246.306 14.8542   4
   1   2   9 191.293 20.8649   1
  -2  -2  -9 641.782 33.5039   2
   2   2   9 621.068 34.4669   4
   2   2   9 596.977 44.4209   1
  -3  -2  -9 177.964 11.0050   2
   3   2   9 157.194 11.7182   4
  -4  -2  -9 28.3858 3.28140   2
   4   2   9 19.8631 3.88647   4
   4   2   9 21.0945 7.61316   1
  -5  -2  -9 0.68514 1.19665   2
  -5  -2  -9 1.98906 1.51982   4
   5   2   9 3.87335 4.03213   1
   5   2   9 0.59719 1.91740   4
  -6  -2  -9 167.599 11.2798   4
  -6  -2  -9 170.693 10.5569   2
   6   2   9 171.555 13.0808   4
   6   2   9 115.064 19.7982   1
  -7  -2  -9 87.5036 7.12280   4
   7   2   9 46.0704 13.7788   1
   8   2   9 118.745 21.5621   1
   2  -3  -9 96.5108 8.80677   2
  -2   3   9 87.3763 8.26663   2
   1  -3  -9 316.952 19.5032   2
  -1   3   9 299.118 19.6128   4
  -1   3   9 307.826 19.2264   2
   0  -3  -9 30.0060 4.33736   2
   0   3   9 26.6653 8.89284   1
   0   3   9 35.0636 4.40063   2
   0   3   9 37.5485 4.97013   4
  -1  -3  -9 1.08030 1.24035   2
   1   3   9 2.10448 1.53271   4
   1   3   9 1.59123 3.77188   1
  -2  -3  -9 26.0972 3.49943   2
   2   3   9 22.8041 3.58299   4
   2   3   9 25.7942 8.04924   1
  -3  -3  -9 344.581 18.4418   2
   3   3   9 262.952 28.8376   1
   3   3   9 327.966 19.6189   4
  -4  -3  -9 271.895 14.4458   2
   4   3   9 190.354 24.9340   1
   4   3   9 225.781 15.5055   4
  -5  -3  -9 393.060 21.4679   2
  -5  -3  -9 390.165 22.2629   4
   5   3   9 378.315 23.7001   4
  -6  -3  -9 257.251 14.8063   2
  -6  -3  -9 254.071 15.8624   4
   6   3   9 241.002 17.5931   4
  -7  -3  -9 98.9420 8.01633   4
   7   3   9 77.5474 9.06204   4
  -8  -3  -9 42.9966 5.25316   4
   8   3   9 7.66631 7.48486   1
   2  -4  -9 -0.5427 2.19589   2
  -2   4   9 0.69592 2.09283   4
  -2   4   9 2.20878 2.24407   2
   1  -4  -9 16.1816 3.70399   2
  -1   4   9 18.3734 3.86423   4
  -1   4   9 13.2409 3.49790   2
   0  -4  -9 407.204 24.1117   2
   0   4   9 430.995 24.7022   4
   0   4   9 389.009 23.8045   2
  -1  -4  -9 215.448 13.4343   2
   1   4   9 177.763 24.5513   1
   1   4   9 181.905 13.4869   4
   1   4   9 214.058 13.3413   2
  -2  -4  -9 588.888 30.2111   2
   2   4   9 539.798 30.8895   4
   2   4   9 488.593 45.0581   1
  -3  -4  -9 302.417 17.1015   2
   3   4   9 249.107 29.8072   1
   3   4   9 304.803 18.4427   4
  -4  -4  -9 47.7132 4.16896   2
   4   4   9 41.8623 5.03808   4
   4   4   9 29.9739 10.3704   1
  -5  -4  -9 26.0842 2.98587   2
  -5  -4  -9 25.6643 3.53371   4
   5   4   9 11.5956 8.40600   1
   5   4   9 25.0847 4.38898   4
  -6  -4  -9 123.712 9.14671   4
   6   4   9 111.579 10.5500   4
  -7  -4  -9 80.2148 7.13104   4
   7   4   9 68.5430 8.33300   4
  -8  -4  -9 341.352 21.1357   4
  -9  -4  -9 321.989 21.0039   4
  -9  -4  -9 298.537 26.6858   1
   9   4   9 388.259 32.7929   3
   1  -5  -9 270.138 17.6988   2
  -1   5   9 238.160 16.9149   4
  -1   5   9 254.416 17.1480   2
   0  -5  -9 103.502 8.60732   2
   0   5   9 90.6905 8.10646   2
   0   5   9 90.6005 8.43150   4
  -1  -5  -9 3.35231 1.70436   2
   1   5   9 4.08566 1.76716   2
   1   5   9 3.73068 2.15252   4
  -2  -5  -9 1.02852 1.30015   2
   2   5   9 3.64855 7.71500   1
   2   5   9 2.57062 1.37333   2
   2   5   9 1.45617 1.90908   4
  -3  -5  -9 200.101 12.5666   2
   3   5   9 213.432 12.7260   2
   3   5   9 195.437 13.6082   4
   3   5   9 156.705 26.8671   1
  -4  -5  -9 197.644 12.2654   2
   4   5   9 204.762 14.0948   4
  -5  -5  -9 300.984 16.5461   2
  -5  -5  -9 315.043 17.7097   4
   5   5   9 218.918 32.3038   1
   5   5   9 285.551 19.0784   4
  -6  -5  -9 338.536 19.7102   4
   6   5   9 309.157 21.4611   4
  -7  -5  -9 142.005 10.4896   4
   7   5   9 130.617 12.2115   4
  -8  -5  -9 115.412 9.41266   4
  -8  -5  -9 118.543 14.9600   1
   8   5   9 91.9698 15.4124   3
  -9  -5  -9 8.49562 5.48321   1
  -9  -5  -9 3.10378 2.74119   4
   9   5   9 6.38028 6.31609   3
   9   5   9 2.81744 6.90526   1
   1  -6  -9 3.90610 2.67597   2
  -1   6   9 1.36212 2.42283   2
   0  -6  -9 199.877 14.3700   2
   0   6   9 204.082 14.1277   2
   0   6   9 195.744 14.1490   4
  -1  -6  -9 158.363 11.8320   2
   1   6   9 184.487 12.1290   2
   1   6   9 143.507 11.7157   4
  -2  -6  -9 391.809 22.9125   2
   2   6   9 397.380 22.7938   2
   2   6   9 381.331 23.4781   4
  -3  -6  -9 351.983 20.5703   2
   3   6   9 360.203 20.5577   2
   3   6   9 353.122 21.8778   4
  -4  -6  -9 82.5068 6.78771   4
  -4  -6  -9 83.3692 6.41633   2
   4   6   9 35.6611 17.8642   1
   4   6   9 90.8483 6.60848   2
   4   6   9 75.3355 7.63191   4
  -5  -6  -9 48.3037 5.12314   2
  -5  -6  -9 60.5854 5.62144   4
   5   6   9 34.5916 15.4985   1
   5   6   9 66.5996 7.27200   4
  -6  -6  -9 36.2159 4.53498   4
   6   6   9 16.5049 11.8715   1
   6   6   9 40.2178 6.17736   4
  -7  -6  -9 49.6749 5.26794   4
  -7  -6  -9 48.0517 9.81919   1
   7   6   9 13.9140 12.1411   1
  -8  -6  -9 203.658 15.1451   4
  -8  -6  -9 225.373 22.5297   1
   8   6   9 254.261 21.7734   3
  -9  -6  -9 378.440 32.2252   1
  -9  -6  -9 352.706 24.0519   4
   9   6   9 457.026 33.5224   3
   0  -7  -9 122.121 10.8651   2
   0   7   9 129.104 10.6294   2
  -1  -7  -9 13.2244 3.19356   2
   1   7   9 14.9124 3.02785   2
  -2  -7  -9 4.38935 2.39204   2
   2   7   9 5.63280 2.57844   2
  -3  -7  -9 61.3247 5.80472   2
   3   7   9 58.7235 6.56277   4
   3   7   9 65.8760 5.85419   2
  -4  -7  -9 197.750 22.0976   1
  -4  -7  -9 139.944 9.99474   4
  -4  -7  -9 129.417 9.47862   2
   4   7   9 138.746 9.56796   2
   4   7   9 88.0157 25.9957   1
   4   7   9 156.932 11.9233   4
  -5  -7  -9 208.602 14.2977   4
  -5  -7  -9 260.455 25.7924   1
   5   7   9 227.881 16.6655   4
  -6  -7  -9 289.774 18.9124   4
  -6  -7  -9 345.595 30.0917   1
   6   7   9 312.960 21.7746   4
  -7  -7  -9 158.064 11.8461   4
  -7  -7  -9 171.844 20.0355   1
  -8  -7  -9 161.449 12.4045   4
  -8  -7  -9 164.326 19.7933   1
   8   7   9 163.392 17.4235   3
  -1  -8  -9 110.562 9.92753   2
  -2  -8  -9 206.469 14.3881   2
   2   8   9 201.219 13.8795   2
  -3  -8  -9 283.526 18.3271   2
   3   8   9 310.429 18.3002   2
  -4  -8  -9 90.6145 7.37943   2
  -5  -8  -9 112.469 8.74037   4
  -5  -8  -9 129.225 18.5302   1
   5   8   9 51.6096 21.5204   1
  -6  -8  -9 0.86324 4.30536   1
  -6  -8  -9 1.35273 1.29973   4
   6   8   9 4.77128 10.9503   1
   6   8   9 5.73375 3.09152   4
  -7  -8  -9 27.4803 9.44003   1
  -7  -8  -9 16.4643 3.85510   4
   7   8   9 20.4546 14.7170   1
   7   8   9 23.7405 6.61116   3
  -8  -8  -9 140.850 18.6951   1
  -8  -8  -9 109.880 9.87927   4
   8   8   9 120.390 14.6666   3
   8   8   9 57.9322 20.3287   1
  -3  -9  -9 10.7489 3.21921   2
   3   9   9 10.8370 3.06956   2
  -6  -9  -9 233.413 26.4878   1
  -6  -9  -9 236.380 22.6659   3
  -7  -9  -9 171.402 22.7166   1
   7   9   9 142.977 15.7061   3
   0   2 -10 5.93477 2.93933   2
   0  -2  10 6.84358 2.81583   4
   0  -2  10 -0.6645 3.82203   1
  -1   2 -10 69.5112 6.89397   2
   1  -2  10 66.3271 12.2144   1
   1  -2  10 66.5479 7.02613   4
  -2   2 -10 122.756 9.91362   2
   2  -2  10 117.436 10.0063   4
   2  -2  10 125.549 17.0522   1
  -3   2 -10 69.3970 6.82792   2
   3  -2  10 55.7679 11.8999   1
   1   1 -10 301.744 18.8043   2
  -1  -1  10 278.453 27.0797   1
  -1  -1  10 269.383 18.5938   4
   0   1 -10 256.421 16.0261   2
   0  -1  10 211.433 15.7320   4
   0  -1  10 241.579 24.1870   1
   1  -1  10 390.916 32.2686   1
   1  -1  10 321.174 21.4582   4
  -2   1 -10 60.0212 5.99678   2
   2  -1  10 48.9335 10.8392   1
   2  -1  10 48.9742 5.88239   4
  -3   1 -10 4.38883 2.26625   2
   3  -1  10 0.60144 2.65578   1
   3  -1  10 1.44827 2.21683   4
  -4   1 -10 0.57273 1.15290   2
  -4   1 -10 -0.1156 1.26365   4
   4  -1  10 2.37706 3.88922   1
   4  -1  10 2.08187 2.07206   4
  -5   1 -10 47.1986 5.33976   2
   5  -1  10 19.6158 9.30778   1
   5  -1  10 43.9195 5.97584   4
   1   0 -10 2.50520 1.74608   2
  -1   0  10 0.12693 1.87909   4
  -1   0  10 1.31744 3.36946   1
   0   0 -10 26.1174 4.10330   2
   0   0  10 24.9201 7.42990   1
   0   0  10 17.8360 3.97718   4
  -1   0 -10 27.0120 4.06593   2
   1   0  10 26.7156 4.36872   4
   1   0  10 25.4563 8.38092   1
  -2   0 -10 184.143 12.2521   2
   2   0  10 168.049 12.5412   4
   2   0  10 172.080 20.4121   1
  -3   0 -10 68.6364 5.91524   2
   3   0  10 54.8163 6.14552   4
   3   0  10 44.4556 10.9043   1
  -4   0 -10 399.673 21.4098   2
  -4   0 -10 349.859 20.9206   4
   4   0  10 348.701 22.1387   4
   4   0  10 311.127 31.6860   1
  -5   0 -10 149.795 10.1979   4
  -5   0 -10 148.030 10.1578   2
   5   0  10 124.196 11.1993   4
   5   0  10 91.6823 16.7209   1
  -6   0 -10 22.7361 3.80482   4
  -6   0 -10 20.3919 3.49935   2
   6   0  10 8.20038 7.52032   1
   6   0  10 23.1697 4.99296   4
  -2   1  10 41.0957 5.94169   4
   1  -1 -10 319.822 19.7257   2
  -1   1  10 304.734 20.2211   4
  -1   1  10 300.755 28.6597   1
   0  -1 -10 244.830 15.3842   2
   0   1  10 224.990 23.5142   1
   0   1  10 216.200 15.5705   4
  -1  -1 -10 492.647 27.7564   2
   1   1  10 516.569 28.7691   4
   1   1  10 450.383 37.3837   1
  -2  -1 -10 157.887 11.0560   2
   2   1  10 149.431 18.8372   1
   2   1  10 172.941 12.2436   4
  -3  -1 -10 16.8747 3.03347   2
   3   1  10 18.2432 3.48013   4
   3   1  10 20.4528 7.10059   1
  -4  -1 -10 11.1693 2.56501   2
   4   1  10 13.7710 7.02916   1
   4   1  10 8.93771 2.75267   4
  -5  -1 -10 34.1809 4.24196   4
  -5  -1 -10 40.7326 4.27447   2
   5   1  10 32.2034 4.93486   4
   5   1  10 19.1173 8.64967   1
  -6  -1 -10 73.1899 6.31213   2
  -6  -1 -10 72.8090 6.60042   4
   6   1  10 64.2942 7.59085   4
   6   1  10 44.3871 12.6974   1
  -7  -1 -10 204.792 14.1116   4
   1  -2 -10 18.7253 3.79182   2
  -1   2  10 18.3163 4.19921   4
   0  -2 -10 33.3554 4.50520   2
   0   2  10 31.1648 9.30451   1
   0   2  10 30.4073 4.53661   4
  -1  -2 -10 5.41315 2.40271   2
   1   2  10 1.04151 2.98002   1
   1   2  10 -0.8608 1.53382   4
  -2  -2 -10 166.439 11.0767   2
   2   2  10 131.564 18.5567   1
   2   2  10 168.624 12.1196   4
  -3  -2 -10 48.8997 4.67930   2
   3   2  10 41.0684 5.30988   4
   3   2  10 31.1615 9.70670   1
  -4  -2 -10 413.840 21.8315   2
   4   2  10 397.826 23.3342   4
   4   2  10 296.942 32.4606   1
  -5  -2 -10 270.667 16.1778   2
  -5  -2 -10 280.949 16.8069   4
   5   2  10 250.728 17.8428   4
  -6  -2 -10 61.1497 5.32407   2
  -6  -2 -10 50.2608 5.35704   4
   6   2  10 42.1744 12.4993   1
   6   2  10 42.5028 6.20815   4
  -7  -2 -10 30.1323 4.15406   4
   7   2  10 21.7294 4.76239   4
   7   2  10 16.7617 9.54365   1
   1  -3 -10 283.199 18.2708   2
  -1   3  10 264.512 18.4871   4
   0  -3 -10 208.144 14.1507   2
   0   3  10 199.876 14.5928   4
  -1  -3 -10 522.474 28.2069   2
   1   3  10 432.773 39.5767   1
   1   3  10 509.036 29.1262   4
  -2  -3 -10 296.417 17.1173   2
   2   3  10 236.836 27.2815   1
   2   3  10 285.079 18.1444   4
  -3  -3 -10 36.2537 4.11983   2
   3   3  10 24.7080 8.70926   1
   3   3  10 38.0155 4.82322   4
  -4  -3 -10 55.8408 5.00027   2
   4   3  10 32.9725 10.1679   1
   4   3  10 44.3873 5.76699   4
  -5  -3 -10 11.8100 2.45560   2
  -5  -3 -10 11.5836 2.68132   4
   5   3  10 7.88541 6.57295   1
   5   3  10 11.5124 3.52817   4
  -6  -3 -10 46.5628 5.18408   4
  -6  -3 -10 48.4448 4.60210   2
   6   3  10 44.6516 6.37868   4
   6   3  10 28.9264 11.5844   1
  -7  -3 -10 197.012 13.5012   4
   7   3  10 184.421 15.2560   4
  -8  -3 -10 229.853 15.7234   4
   1  -4 -10 49.5451 6.37143   2
  -1   4  10 55.3166 6.54109   2
  -1   4  10 51.5470 6.77086   4
   0  -4 -10 34.7099 4.74490   2
   0   4  10 38.4101 5.62244   4
   0   4  10 37.6858 4.83609   2
  -1  -4 -10 36.1944 4.69683   2
   1   4  10 24.7247 4.30180   4
  -2  -4 -10 98.4609 7.69647   2
   2   4  10 97.7272 8.50057   4
   2   4  10 67.2697 15.6197   1
  -3  -4 -10 23.4542 3.27046   2
   3   4  10 25.5523 4.17984   4
   3   4  10 7.61293 6.98568   1
  -4  -4 -10 273.038 15.5064   2
   4   4  10 192.549 27.5748   1
   4   4  10 274.001 17.3450   4
  -5  -4 -10 399.281 21.4339   2
  -5  -4 -10 371.821 22.0469   4
   5   4  10 356.459 23.3749   4
  -6  -4 -10 83.7322 7.27827   4
   6   4  10 76.1525 8.51455   4
  -7  -4 -10 76.7680 7.17194   4
   7   4  10 78.1530 8.79085   4
  -8  -4 -10 2.24373 2.19281   4
   8   4  10 -0.3842 5.95334   1
   0  -5 -10 149.413 11.6553   2
   0   5  10 146.090 11.4718   2
   0   5  10 145.146 11.8675   4
  -1  -5 -10 373.817 22.7433   2
   1   5  10 366.054 23.2799   4
   1   5  10 388.437 22.8201   2
  -2  -5 -10 348.393 21.0203   2
   2   5  10 327.260 21.7298   4
   2   5  10 378.005 21.3153   2
  -3  -5 -10 66.2717 5.70265   2
   3   5  10 49.4758 5.89475   4
   3   5  10 29.1202 13.6116   1
  -4  -5 -10 84.3060 6.63624   2
   4   5  10 58.3742 17.3824   1
   4   5  10 95.4231 8.52252   4
  -5  -5 -10 3.26991 1.30782   2
  -5  -5 -10 1.93233 1.40204   4
   5   5  10 -0.4695 1.97144   4
   5   5  10 0.66333 3.73835   1
  -6  -5 -10 28.2281 3.89655   4
   6   5  10 17.4684 4.58003   4
   6   5  10 14.9033 10.2978   1
  -7  -5 -10 132.051 10.0162   4
   7   5  10 117.422 11.4859   4
  -8  -5 -10 251.849 16.5722   4
  -8  -5 -10 232.665 22.9764   1
   0  -6 -10 34.9627 5.38477   2
   0   6  10 34.8343 5.43316   2
   0   6  10 35.0916 5.15052   4
  -1  -6 -10 71.1594 7.14210   2
   1   6  10 54.0478 6.78383   4
   1   6  10 70.1337 7.02246   2
  -2  -6 -10 33.1180 4.30822   2
   2   6  10 19.9719 4.09099   4
   2   6  10 32.9504 4.26978   2
  -3  -6 -10 17.9045 2.94255   2
   3   6  10 14.1069 3.31019   4
   3   6  10 16.8940 2.98026   2
  -4  -6 -10 135.117 9.21273   2
   4   6  10 135.465 10.7814   4
   4   6  10 82.1326 23.0399   1
  -5  -6 -10 385.086 22.0874   4
  -5  -6 -10 370.224 20.8961   2
   5   6  10 362.956 23.6863   4
   6   6  10 83.7445 8.77003   4
   6   6  10 57.4728 19.0409   1
  -7  -6 -10 129.423 16.2526   1
  -7  -6 -10 105.347 9.22762   4
   7   6  10 119.518 11.7668   4
  -8  -6 -10 5.40447 2.54055   4
  -8  -6 -10 4.45456 4.72540   1
   8   6  10 1.72366 6.71079   1
  -1  -7 -10 198.663 14.6382   2
   1   7  10 204.613 14.5256   2
  -2  -7 -10 315.462 19.7921   2
   2   7  10 315.231 19.5853   2
   3   7  10 88.9733 7.59553   2
   3   7  10 85.8645 8.63814   4
  -4  -7 -10 104.221 7.95703   2
  -4  -7 -10 96.0112 8.14609   4
   4   7  10 104.150 9.72233   4
   4   7  10 107.282 8.01690   2
  -5  -7 -10 18.5402 3.44546   4
   5   7  10 3.42449 9.94792   1
   5   7  10 20.8092 4.87366   4
  -6  -7 -10 5.70639 2.16455   4
  -6  -7 -10 10.2224 6.58935   1
   6   7  10 10.1968 3.52766   4
   6   7  10 -0.3491 8.71984   1
  -7  -7 -10 58.6626 6.51391   4
  -7  -7 -10 69.6476 12.3537   1
   7   7  10 68.4291 8.88409   4
  -8  -7 -10 208.158 14.9545   4
  -3  -8 -10 5.41417 2.58918   2
   3   8  10 7.39944 2.72920   2
  -4  -8 -10 45.2079 4.84990   2
  -5  -8 -10 274.490 16.8906   4
   5   8  10 227.568 22.0622   4
  -6  -8 -10 147.450 21.6892   1
  -6  -8 -10 117.380 9.81035   4
   6   8  10 75.6325 26.2615   1
   6   8  10 151.532 13.3108   4
  -7  -8 -10 124.083 18.0224   1
  -7  -8 -10 119.280 9.68670   4
   7   8  10 54.5396 23.0914   1
  -1   0 -11 87.2025 7.89061   2
   1   0  11 81.7654 14.2751   1
   1   0  11 78.0413 8.06169   4
  -2   0 -11 131.178 10.0165   2
   2   0  11 103.570 17.2310   1
   2   0  11 126.973 10.4217   4
  -3   0 -11 19.6288 3.60600   2
   3   0  11 18.2544 8.53841   1
   3   0  11 17.4985 4.21174   4
  -4   0 -11 49.1507 5.35615   2
  -4   0 -11 33.8953 4.41688   4
   4   0  11 36.0341 5.64819   4
   4   0  11 31.5461 9.81791   1
   0   1  11 16.6018 7.32288   1
   0   1  11 11.3590 3.64871   4
  -1  -1 -11 69.4235 6.89750   2
   1   1  11 71.3459 13.7479   1
   1   1  11 62.9634 7.33893   4
  -2  -1 -11 54.7385 5.86310   2
   2   1  11 50.6094 12.0341   1
   2   1  11 58.6672 6.53691   4
  -3  -1 -11 452.945 24.5934   2
   3   1  11 383.835 36.8074   1
   3   1  11 397.068 25.2731   4
  -4  -1 -11 400.404 22.8671   2
   4   1  11 371.471 23.9945   4
  -5  -1 -11 67.6766 6.56618   4
  -5  -1 -11 75.6978 6.59675   2
   5   1  11 55.1229 7.32336   4
   5   1  11 42.1546 12.5976   1
   0  -2 -11 288.393 18.5437   2
   0   2  11 279.350 19.3834   4
  -1  -2 -11 119.158 9.78989   2
   1   2  11 111.434 17.3900   1
   1   2  11 141.118 11.2073   4
  -2  -2 -11 157.262 11.3285   2
   2   2  11 141.941 20.3992   1
   2   2  11 171.610 12.7177   4
  -3  -2 -11 101.854 7.95046   2
   3   2  11 70.4929 14.9275   1
   3   2  11 95.2660 8.86162   4
  -4  -2 -11 23.4031 3.43843   2
   4   2  11 14.6521 8.54448   1
   4   2  11 21.9081 4.43219   4
  -5  -2 -11 35.8217 4.31187   2
  -5  -2 -11 36.9546 4.78017   4
   5   2  11 25.6593 10.3830   1
   5   2  11 31.4683 5.41213   4
  -6  -2 -11 335.700 19.4050   2
  -6  -2 -11 319.893 19.9079   4
   6   2  11 299.608 21.6820   4
   0  -3 -11 78.2542 7.44214   2
   0   3  11 62.9995 7.86345   4
  -1  -3 -11 35.6372 4.80993   2
   1   3  11 42.6702 5.80326   4
   1   3  11 30.1719 10.5204   1
  -2  -3 -11 26.8646 3.81579   2
   2   3  11 20.8849 9.36755   1
   2   3  11 25.8769 4.56020   4
  -3  -3 -11 333.573 19.1962   2
   3   3  11 346.535 20.8108   4
   3   3  11 245.829 30.2359   1
  -4  -3 -11 512.451 26.1638   2
   4   3  11 473.282 27.8109   4
   4   3  11 353.155 38.7274   1
  -5  -3 -11 103.492 7.79413   2
  -5  -3 -11 110.802 8.51845   4
   5   3  11 98.9488 9.41120   4
   5   3  11 61.0056 14.8770   1
  -6  -3 -11 160.552 10.8270   2
  -6  -3 -11 162.299 11.6500   4
   6   3  11 149.307 13.0238   4
  -1  -4 -11 159.235 11.8903   2
   1   4  11 158.334 12.7118   4
  -2  -4 -11 157.070 11.1347   2
   2   4  11 107.830 20.5489   1
   2   4  11 172.256 12.6519   4
  -3  -4 -11 196.264 12.9880   2
   3   4  11 190.437 14.2452   4
  -4  -4 -11 3.01148 1.60750   2
   4   4  11 3.12062 2.33648   4
   4   4  11 4.91246 6.36059   1
  -5  -4 -11 17.0123 2.76836   2
  -5  -4 -11 8.10555 2.33909   4
   5   4  11 6.25351 2.81836   4
   5   4  11 18.2502 9.29851   1
  -6  -4 -11 232.902 15.0278   4
   6   4  11 206.808 16.4644   4
  -7  -4 -11 406.022 24.1845   4
   7   4  11 390.217 26.3414   4
  -1  -5 -11 8.49883 2.94259   2
   1   5  11 3.33631 2.21153   4
  -2  -5 -11 10.9187 2.97412   2
   2   5  11 11.2073 3.49073   4
  -3  -5 -11 188.406 12.6244   2
   3   5  11 177.750 13.7109   4
  -4  -5 -11 517.005 27.8546   2
   4   5  11 471.444 29.5072   4
  -5  -5 -11 130.534 9.88816   4
  -5  -5 -11 121.310 8.93705   2
   5   5  11 128.616 11.2043   4
  -6  -5 -11 186.790 12.8272   4
   6   5  11 167.873 14.3807   4
  -7  -5 -11 67.0299 6.45781   4
   7   5  11 25.4160 13.7989   1
   7   5  11 48.5442 7.17322   4
  -2  -6 -11 121.029 10.1687   2
   2   6  11 141.781 11.5986   4
   2   6  11 130.442 10.4150   2
  -3  -6 -11 232.047 15.1102   2
   3   6  11 223.883 16.2435   4
  -4  -6 -11 8.29673 2.47126   2
   4   6  11 -1.4061 5.02775   1
   4   6  11 5.09703 2.68748   4
  -5  -6 -11 0.28293 1.22426   4
  -5  -6 -11 0.47867 1.30054   2
   5   6  11 1.04120 1.57619   4
   5   6  11 1.46317 4.74541   1
  -6  -6 -11 103.133 8.85312   4
   6   6  11 110.107 11.0234   4
  -7  -6 -11 371.794 22.2546   4
   7   6  11 339.805 24.4512   4
  -4  -7 -11 377.700 22.6986   4
  -4  -7 -11 382.254 22.3023   2
   4   7  11 374.879 24.2550   4
  -5  -7 -11 141.596 10.6900   4
   5   7  11 143.660 12.3404   4
  -6  -7 -11 152.347 11.7300   4
  -6  -7 -11 197.169 21.9071   1
   6   7  11 148.639 13.6173   4
   0   0   0    0.00    0.00   0

 _exptl_absorpt_process_details 'SADABS 2014/5'
 _exptl_absorpt_correction_type   numerical
 _exptl_absorpt_correction_T_max  0.7504
 _exptl_absorpt_correction_T_min  0.0898
 _exptl_special_details
)
 The following wavelength and cell were deduced by SADABS from the
 direction cosines etc. They are given here for emergency use only:
 CELL 0.71067    7.217    7.662    8.369   70.433   67.847   65.143
)
;
_shelx_hkl_checksum              39054
_shelx_shelxl_version_number     2014/7
_olex2_diffrn_ambient_temperature_device 'Oxford Cryosystems'
_olex2_exptl_crystal_mounting_method
'The crystal was mounted on a loop with paratone oil'
_olex2_submission_original_sample_id QS-11-267-5
_olex2_submission_special_instructions 'No special instructions were received'
loop_
_space_group_symop_operation_xyz
'x, y, z'
'-x, -y, -z'
loop_
_atom_site_label
_atom_site_type_symbol
_atom_site_fract_x
_atom_site_fract_y
_atom_site_fract_z
_atom_site_U_iso_or_equiv
_atom_site_adp_type
_atom_site_occupancy
_atom_site_site_symmetry_order
_atom_site_calc_flag
_atom_site_refinement_flags_posn
_atom_site_refinement_flags_adp
I1 I 0.43075(3) 0.26611(3) 0.22632(2) 0.01347(8) Uani 1 1 d . .
S1 S 0.10384(14) 0.28075(15) 0.86685(10) 0.02315(19) Uani 1 1 d . U
F1 F 0.8801(3) 0.2260(3) 0.2511(2) 0.0253(4) Uani 1 1 d . .
N2 N 0.3175(5) 0.2602(4) 0.9036(3) 0.0181(5) Uani 1 1 d . U
N1 N 0.1883(4) 0.2792(4) 0.6579(3) 0.0183(5) Uani 1 1 d . U
C1 C 0.3937(5) 0.2618(4) 0.6069(4) 0.0115(5) Uani 1 1 d . U
C4 C 0.8153(5) 0.2244(5) 0.5494(4) 0.0152(6) Uani 1 1 d . .
H4 H 0.9596 0.2134 0.5242 0.018 Uiso 1 1 calc R .
C2 C 0.4706(5) 0.2508(4) 0.7475(4) 0.0134(5) Uani 1 1 d . U
C3 C 0.6853(5) 0.2296(4) 0.7171(4) 0.0149(5) Uani 1 1 d . U
H3 H 0.7372 0.2193 0.8102 0.018 Uiso 1 1 calc R .
C6 C 0.5333(5) 0.2532(4) 0.4333(4) 0.0121(5) Uani 1 1 d . .
C5 C 0.7382(5) 0.2353(4) 0.4123(4) 0.0141(5) Uani 1 1 d . .
loop_
_atom_site_aniso_label
_atom_site_aniso_U_11
_atom_site_aniso_U_22
_atom_site_aniso_U_33
_atom_site_aniso_U_23
_atom_site_aniso_U_13
_atom_site_aniso_U_12
I1 0.01806(12) 0.01605(12) 0.00888(10) -0.00345(7) -0.00377(7) -0.00744(8)
S1 0.0154(4) 0.0442(5) 0.0119(3) -0.0115(3) 0.0009(3) -0.0118(4)
F1 0.0177(10) 0.0445(13) 0.0123(8) -0.0070(8) 0.0028(7) -0.0147(10)
N2 0.0182(12) 0.0259(14) 0.0119(10) -0.0089(9) -0.0013(9) -0.0078(11)
N1 0.0151(12) 0.0287(15) 0.0141(11) -0.0074(10) -0.0014(9) -0.0100(11)
C1 0.0129(12) 0.0124(12) 0.0107(10) -0.0046(9) -0.0020(9) -0.0051(10)
C4 0.0143(14) 0.0186(14) 0.0177(13) -0.0040(11) -0.0060(11) -0.0086(12)
C2 0.0178(12) 0.0147(13) 0.0114(11) -0.0059(9) -0.0029(9) -0.0074(10)
C3 0.0173(13) 0.0167(14) 0.0145(12) -0.0042(11) -0.0053(10) -0.0077(11)
C6 0.0148(14) 0.0121(12) 0.0103(11) -0.0024(9) -0.0041(10) -0.0048(11)
C5 0.0172(14) 0.0172(14) 0.0096(11) -0.0043(10) -0.0001(10) -0.0094(12)
loop_
_atom_type_symbol
_atom_type_description
_atom_type_scat_dispersion_real
_atom_type_scat_dispersion_imag
_atom_type_scat_source
C C 0.0033 0.0016 'International Tables Vol C Tables 4.2.6.8 and 6.1.1.4'
H H 0.0000 0.0000 'International Tables Vol C Tables 4.2.6.8 and 6.1.1.4'
F F 0.0171 0.0103 'International Tables Vol C Tables 4.2.6.8 and 6.1.1.4'
I I -0.4742 1.8119 'International Tables Vol C Tables 4.2.6.8 and 6.1.1.4'
N N 0.0061 0.0033 'International Tables Vol C Tables 4.2.6.8 and 6.1.1.4'
S S 0.1246 0.1234 'International Tables Vol C Tables 4.2.6.8 and 6.1.1.4'
loop_
_geom_angle_atom_site_label_1
_geom_angle_atom_site_label_2
_geom_angle_atom_site_label_3
_geom_angle
N2 S1 N1 100.91(14)
C2 N2 S1 106.5(2)
C1 N1 S1 106.5(2)
N1 C1 C2 113.6(2)
N1 C1 C6 126.1(3)
C6 C1 C2 120.3(3)
C3 C4 H4 119.6
C3 C4 C5 120.8(3)
C5 C4 H4 119.6
N2 C2 C1 112.5(3)
N2 C2 C3 126.4(3)
C3 C2 C1 121.1(2)
C4 C3 C2 117.6(3)
C4 C3 H3 121.2
C2 C3 H3 121.2
C1 C6 I1 121.8(2)
C5 C6 I1 122.5(2)
C5 C6 C1 115.7(3)
F1 C5 C4 116.4(3)
F1 C5 C6 119.1(3)
C6 C5 C4 124.5(3)
loop_
_geom_bond_atom_site_label_1
_geom_bond_atom_site_label_2
_geom_bond_distance
I1 C6 2.079(3)
S1 N2 1.612(3)
S1 N1 1.620(3)
F1 C5 1.352(3)
N2 C2 1.354(4)
N1 C1 1.335(4)
C1 C2 1.440(4)
C1 C6 1.424(4)
C4 H4 0.9500
C4 C3 1.363(4)
C4 C5 1.413(4)
C2 C3 1.413(5)
C3 H3 0.9500
C6 C5 1.369(4)
loop_
_geom_torsion_atom_site_label_1
_geom_torsion_atom_site_label_2
_geom_torsion_atom_site_label_3
_geom_torsion_atom_site_label_4
_geom_torsion
I1 C6 C5 F1 0.1(4)
I1 C6 C5 C4 -179.5(2)
S1 N2 C2 C1 0.0(3)
S1 N2 C2 C3 -179.1(3)
S1 N1 C1 C2 -0.1(3)
S1 N1 C1 C6 179.7(2)
N2 S1 N1 C1 0.1(3)
N2 C2 C3 C4 -179.6(3)
N1 S1 N2 C2 0.0(3)
N1 C1 C2 N2 0.1(4)
N1 C1 C2 C3 179.2(3)
N1 C1 C6 I1 -0.3(4)
N1 C1 C6 C5 179.9(3)
C1 C2 C3 C4 1.4(5)
C1 C6 C5 F1 179.9(3)
C1 C6 C5 C4 0.3(5)
C2 C1 C6 I1 179.5(2)
C2 C1 C6 C5 -0.3(4)
C3 C4 C5 F1 -179.0(3)
C3 C4 C5 C6 0.6(5)
C6 C1 C2 N2 -179.7(3)
C6 C1 C2 C3 -0.6(4)
C5 C4 C3 C2 -1.5(5)
