#------------------------------------------------------------------------------
#$Date: 2019-11-25 08:11:49 +0200 (Mon, 25 Nov 2019) $
#$Revision: 240463 $
#$URL: file:///home/coder/svn-repositories/cod/cif/4/12/98/4129810.cif $
#------------------------------------------------------------------------------
#
# This file is available in the Crystallography Open Database (COD),
# http://www.crystallography.net/
#
# All data on this site have been placed in the public domain by the
# contributors.
#
data_4129810
loop_
_publ_author_name
'Guo, Yunlong'
'Shoyama, Kazutaka'
'Sato, Wataru'
'Matsuo, Yutaka'
'Inoue, Kento'
'Harano, Koji'
'Liu, Chao'
'Tanaka, Hideyuki'
'Nakamura, Eiichi'
_publ_section_title
;
 Chemical Pathways Connecting Lead(II) Iodide and Perovskite via Polymeric
 Plumbate(II) Fiber.
;
_journal_issue                   50
_journal_name_full               'Journal of the American Chemical Society'
_journal_page_first              15907
_journal_page_last               15914
_journal_paper_doi               10.1021/jacs.5b10599
_journal_volume                  137
_journal_year                    2015
_chemical_formula_moiety         'C2 H6 I2 O Pb S'
_chemical_formula_sum            'C2 H6 I2 O Pb S'
_chemical_formula_weight         539.12
_chemical_name_common            INT-2
_space_group_crystal_system      orthorhombic
_space_group_IT_number           62
_space_group_name_Hall           '-P 2ac 2n'
_space_group_name_H-M_alt        'P n m a'
_atom_sites_solution_hydrogens   geom
_atom_sites_solution_primary     direct
_atom_sites_solution_secondary   difmap
_audit_creation_method           SHELXL-2014/7
_cell_angle_alpha                90
_cell_angle_beta                 90
_cell_angle_gamma                90
_cell_formula_units_Z            4
_cell_length_a                   17.7962(11)
_cell_length_b                   4.5112(3)
_cell_length_c                   11.1382(6)
_cell_measurement_reflns_used    905
_cell_measurement_temperature    123(2)
_cell_measurement_theta_max      68.195
_cell_measurement_theta_min      7.957
_cell_volume                     894.20(9)
_computing_cell_refinement       'Rapid Auto (Rigaku)'
_computing_data_collection       'Rapid Auto (Rigaku)'
_computing_data_reduction        'Rapid Auto (Rigaku)'
_computing_molecular_graphics    Mercury
_computing_publication_material  Mercury
_computing_structure_refinement  'SHELXL-2014/7 (Sheldrick, 2014)'
_computing_structure_solution    'SHELXT-2014/5 (Sheldrick, 2014)'
_diffrn_ambient_temperature      123(2)
_diffrn_measured_fraction_theta_full 0.969
_diffrn_measured_fraction_theta_max 0.968
_diffrn_measurement_device_type  'Rigaku Rapid II'
_diffrn_measurement_method       'rotation method'
_diffrn_radiation_type           CuK\a
_diffrn_radiation_wavelength     1.54187
_diffrn_reflns_av_R_equivalents  0.0809
_diffrn_reflns_av_unetI/netI     0.0736
_diffrn_reflns_Laue_measured_fraction_full 0.969
_diffrn_reflns_Laue_measured_fraction_max 0.968
_diffrn_reflns_limit_h_max       21
_diffrn_reflns_limit_h_min       -18
_diffrn_reflns_limit_k_max       3
_diffrn_reflns_limit_k_min       -5
_diffrn_reflns_limit_l_max       12
_diffrn_reflns_limit_l_min       -13
_diffrn_reflns_number            5527
_diffrn_reflns_point_group_measured_fraction_full 0.969
_diffrn_reflns_point_group_measured_fraction_max 0.968
_diffrn_reflns_theta_full        67.687
_diffrn_reflns_theta_max         68.195
_diffrn_reflns_theta_min         7.957
_diffrn_source                   'fine-focus sealed tube'
_exptl_absorpt_coefficient_mu    92.444
_exptl_absorpt_correction_T_max  1.0
_exptl_absorpt_correction_T_min  0.3599
_exptl_absorpt_correction_type   multi-scan
_exptl_absorpt_process_details
'Empirical Absorption Correction March 2001 T Higashi'
_exptl_crystal_colour            'pale yellow'
_exptl_crystal_density_diffrn    4.005
_exptl_crystal_density_method    'not measured'
_exptl_crystal_description       needle
_exptl_crystal_F_000             920
_exptl_crystal_size_max          0.400
_exptl_crystal_size_mid          0.010
_exptl_crystal_size_min          0.010
_refine_diff_density_max         3.446
_refine_diff_density_min         -3.499
_refine_diff_density_rms         0.598
_refine_ls_extinction_coef       0.00011(7)
_refine_ls_extinction_expression Fc^*^=kFc[1+0.001xFc^2^\l^3^/sin(2\q)]^-1/4^
_refine_ls_extinction_method     'SHELXL-2014/7 (Sheldrick 2014)'
_refine_ls_goodness_of_fit_ref   1.202
_refine_ls_hydrogen_treatment    constr
_refine_ls_matrix_type           full
_refine_ls_number_parameters     46
_refine_ls_number_reflns         905
_refine_ls_number_restraints     0
_refine_ls_restrained_S_all      1.202
_refine_ls_R_factor_all          0.0833
_refine_ls_R_factor_gt           0.0758
_refine_ls_shift/su_max          0.000
_refine_ls_shift/su_mean         0.000
_refine_ls_structure_factor_coef Fsqd
_refine_ls_weighting_details
'w=1/[\s^2^(Fo^2^)+(0.0001P)^2^+124.0021P] where P=(Fo^2^+2Fc^2^)/3'
_refine_ls_weighting_scheme      calc
_refine_ls_wR_factor_gt          0.1716
_refine_ls_wR_factor_ref         0.1769
_reflns_Friedel_coverage         0.000
_reflns_number_gt                814
_reflns_number_total             905
_reflns_threshold_expression     'I > 2\s(I)'
_cod_data_source_file            ja5b10599_si_003.cif
_cod_data_source_block           Pb2I4DMSO2
_cod_database_code               4129810
_shelx_shelxl_version_number     2014/7
_shelx_space_group_comment
;
The symmetry employed for this shelxl refinement is uniquely defined
by the following loop, which should always be used as a source of
symmetry information in preference to the above space-group names.
They are only intended as comments.
;
_shelx_estimated_absorpt_t_min   0.012
_shelx_estimated_absorpt_t_max   0.458
_shelx_res_file
;

    ydkr_a.res created by SHELXL-2014/7

TITL ydkr_a.res in Pnma
REM  Yadorkari-X generated
CELL 1.54187 17.7962 4.5112 11.1382 90.0000 90.0000 90.0000
ZERR 4.0 0.0011 0.0003 0.0006 0.0000 0.0000 0.0000
LATT 1
SYMM 1/2-X, -Y, 1/2+Z
SYMM 1/2+X, 1/2-Y, 1/2-Z
SYMM -X, 1/2+Y, -Z
REM  SPGR Pnma orthorhombic
SFAC Pb I S O C H
UNIT 4 8 4 4 8 24
SIZE 0.40 0.01 0.01
TEMP -150.0
L.S. 10
FMAP 2
PLAN -20
ACTA
CONF
LIST 4
BOND $H
MERG 2
OMIT    7    3    5
OMIT    3    1   13
OMIT    4    5    2
OMIT   15    3    4
OMIT   17    2    4
OMIT   11    4    5
OMIT    6    4    6
OMIT   15    3    3
OMIT   15    3    2
OMIT    0    1   13

WGHT    0.000100  124.002098
EXTI    0.000108
FVAR       0.17203
PB1   1    0.458958    0.750000    0.683628    10.50000    0.02956    0.02938 =
         0.03057    0.00000   -0.00103    0.00000
I1    2    0.608147    0.750000    0.508647    10.50000    0.02828    0.03604 =
         0.02622    0.00000   -0.00129    0.00000
I2    2    0.534007    0.250000    0.840947    10.50000    0.02998    0.03101 =
         0.03029    0.00000   -0.00503    0.00000
S1    3    0.328283    0.250000    0.809803    10.50000    0.02980    0.03838 =
         0.02714    0.00000   -0.00176    0.00000
PART 1
O1    4    0.342328    0.596626    0.791397    10.50000    0.03706    0.02286 =
         0.06298    0.00183    0.00792   -0.00941
PART 0
C1    5    0.312119    0.250000    0.970250    10.50000    0.06593    0.05018 =
        10.02000   10.00000    0.00384   10.00000
AFIX  33
H1    6    0.302247    0.452919    0.997417    10.50000   -1.50000
H1A   6    0.268698    0.124475    0.988789    10.50000   -1.50000
H1B   6    0.356660    0.172606    1.011412    10.50000   -1.50000
AFIX   0
C2    5    0.233667    0.250000    0.753192    10.50000    0.03186    0.08923 =
         0.05359    0.00000   -0.01727    0.00000
AFIX  33
H2    6    0.213272    0.451615    0.756583    10.50000   -1.50000
H2A   6    0.233601    0.180416    0.669843    10.50000   -1.50000
H2B   6    0.202558    0.117969    0.802296    10.50000   -1.50000

AFIX   0
HKLF 4 1 1 0 0 0 1 0 0 0 1

REM  ydkr_a.res in Pnma
REM R1 =  0.0758 for     814 Fo > 4sig(Fo)  and  0.0833 for all     905 data
REM     46 parameters refined using      0 restraints

END

WGHT      0.0000    124.1138

REM Highest difference peak  3.446,  deepest hole -3.499,  1-sigma level  0.598
Q1    1   0.4188  0.7500  0.6935  10.50000  0.05    3.45
Q2    1   0.3458  0.2500  0.5675  10.50000  0.05    2.87
Q3    1   0.4134  0.7500  0.6025  10.50000  0.05    2.86
Q4    1   0.5766  0.2500  0.8197  10.50000  0.05    2.70
Q5    1   0.5387  0.2500  0.6699  10.50000  0.05    2.50
Q6    1   0.6709  0.7500  0.5093  10.50000  0.05    2.45
Q7    1   0.4501  0.2500  0.6653  10.50000  0.05    2.39
Q8    1   0.4180  0.2500  0.4623  10.50000  0.05    2.30
Q9    1   0.4918  0.2500  0.4938  10.50000  0.05    2.25
Q10   1   0.4016  0.7500  0.5017  10.50000  0.05    2.23
Q11   1   0.4942  0.7500  0.7472  10.50000  0.05    2.17
Q12   1   0.3799  0.2500  0.8046  10.50000  0.05    2.07
Q13   1   0.3922  0.7500  0.9837  10.50000  0.05    2.04
Q14   1   0.4556  0.7500  0.5182  10.50000  0.05    1.91
Q15   1   0.4540  0.9576  0.7798  11.00000  0.05    1.90
Q16   1   0.3530  0.7500  0.7073  10.50000  0.05    1.90
Q17   1   0.4996  0.2500  0.7585  10.50000  0.05    1.84
Q18   1   0.5047  0.7500  0.6053  10.50000  0.05    1.83
Q19   1   0.4543  0.7500  0.9978  10.50000  0.05    1.69
Q20   1   0.4292  0.2500  0.5568  10.50000  0.05    1.68
;
_shelx_res_checksum              20469
_shelx_hkl_file
;
   3   0   0   -1.50    4.13
   3   0   0    3.38    3.28
  -3   0   0   10.38    5.31
   3   0   0    2.35    3.24
  -3   0   0    4.87    5.35
  -4   0   0  188.31   15.72
   4   0   0  189.40   15.84
   4   0   0  219.30   12.27
  -4   0   0  220.56   23.26
   4   0   0  215.28   11.90
  -4   0   0  217.58   23.05
  -5   0   0   -1.51    5.52
   5   0   0    0.24    3.25
   5   0   0   -4.26    3.59
  -5   0   0   -6.10    6.08
   5   0   0   -2.82    3.64
  -5   0   0   -3.26    5.80
  -6   0   0   13.29    3.95
   6   0   0    9.09    5.91
   6   0   0   16.17    3.90
  -6   0   0   19.96    6.25
   6   0   0   19.69    3.95
  -6   0   0   13.28    6.25
  -7   0   0    3.66    5.68
   7   0   0   -2.86    5.39
   7   0   0   -4.98    3.32
  -7   0   0    7.46    4.88
   7   0   0    0.70    3.37
  -7   0   0   -0.78    4.90
  -8   0   0   83.20    6.69
   8   0   0   68.77    6.12
   8   0   0   89.09    6.27
  -8   0   0   86.04    8.79
   8   0   0   79.16    6.54
  -8   0   0  106.38    9.16
  -9   0   0   -0.07    3.66
   9   0   0   -3.23    5.82
   9   0   0    3.71    3.69
  -9   0   0   -2.20    4.79
   9   0   0    8.07    3.84
  -9   0   0    3.90    4.62
 -10   0   0  590.69   46.14
  10   0   0  509.21   43.28
  10   0   0  458.68   32.68
 -10   0   0  305.95   50.81
  10   0   0  548.68   32.89
 -10   0   0  310.79   52.61
 -11   0   0   -1.66    7.04
  11   0   0   -2.00    4.02
  12   0   0 1744.87  249.75
  13   0   0    6.83    8.07
  14   0   0 2823.26  466.38
  15   0   0    4.75    5.01
  16   0   0  694.08   67.53
  17   0   0    4.39    6.10
  18   0   0   14.36    6.04
  19   0   0    8.96    5.72
  20   0   0   24.30    6.24
  21   0   0    4.30    6.86
  -3   0   1   38.16    5.80
   3   0  -1   41.33    6.08
  -3   0  -1   31.86    3.13
   3   0   1   43.17    5.22
   3   0  -1   36.42    1.50
   3   0   1   23.89    7.43
  -3   0   1   42.26    3.30
  -3   0  -1   39.64    5.65
   3   0  -1   37.13    1.52
   3   0   1   28.58    7.59
  -3   0   1   33.47    3.02
  -3   0  -1   34.06    5.43
  -4   0   1   47.26    4.02
   4   0  -1   51.96    7.47
  -4   0  -1   46.13    4.25
   4   0   1   44.97    6.67
   4   0  -1   44.24    2.35
   4   0   1   47.46    5.16
  -4   0   1   57.96    7.16
  -4   0  -1   42.83    6.57
   4   0  -1   46.71    2.36
   4   0   1   40.31    8.55
  -4   0   1   63.51    6.96
  -4   0  -1   27.16   10.45
  -5   0   1 1277.91  132.39
   5   0  -1 1371.18  109.08
  -5   0  -1 1339.06  136.05
   5   0   1 1225.01  122.11
   5   0  -1 1273.79   79.97
   5   0   1 1340.93  107.75
  -5   0  -1 1173.35  114.46
  -5   0   1 1307.76  100.37
   5   0  -1 1276.26   79.55
   5   0   1 1342.93  108.89
  -5   0   1 1284.81   99.23
  -5   0  -1 1151.88  113.28
  -6   0   1  255.73   22.17
  -6   0  -1  294.07   23.12
   6   0  -1  272.97   23.09
   6   0   1  239.79   20.67
   6   0  -1  254.39    9.55
   6   0   1  285.26   14.59
  -6   0  -1  320.98   27.55
  -6   0   1  255.43   12.83
   6   0  -1  255.48    9.75
   6   0   1  272.45   14.12
  -6   0   1  263.11   12.88
  -6   0  -1  280.11   24.85
  -7   0   1   11.85    6.26
  -7   0  -1   26.17    4.07
   7   0  -1   19.71    6.76
   7   0   1   33.53    6.13
   7   0  -1   18.83    2.56
   7   0   1   14.61    3.42
  -7   0  -1   30.14    7.26
  -7   0   1   19.88    3.60
   7   0  -1   23.54    2.61
   7   0   1   16.28    3.57
  -7   0  -1   27.32    7.27
  -7   0   1   20.93    3.64
  -8   0   1  404.81   24.26
  -8   0  -1  430.15   26.13
   8   0  -1  401.26   37.52
   8   0   1  379.10   36.05
   8   0  -1  398.50   15.30
   8   0   1  387.85   22.46
  -8   0  -1  512.56   29.82
  -8   0   1  483.67   23.60
   8   0  -1  412.94   19.34
   8   0   1  428.79   24.54
  -8   0  -1  521.51   30.13
  -8   0   1  509.62   24.17
  -9   0   1  390.53   33.39
  -9   0  -1  430.79   25.94
   9   0  -1  368.05   35.49
   9   0   1  354.13   23.22
   9   0  -1  385.00   15.09
   9   0   1  424.70   31.40
  -9   0  -1  480.13   28.37
  -9   0   1  395.76   21.10
   9   0  -1  404.67   19.36
   9   0   1  339.54   20.61
  -9   0  -1  498.05   28.14
 -10   0   1   52.84    8.65
 -10   0  -1   45.62    8.36
  10   0  -1   38.07    8.18
  10   0   1   38.54    7.96
  10   0   1   29.52    6.59
  10   0   1   30.82    6.70
 -11   0   1   -1.57    4.51
 -11   0  -1    1.00    6.84
  11   0  -1    5.59    4.08
  11   0   1    6.83    4.13
  11   0   1    3.59    5.65
 -11   0  -1    7.81    4.76
  11   0   1    1.30    5.64
 -11   0  -1    3.03    4.87
  12   0  -1   36.79    5.29
  12   0   1   37.89    8.35
  12   0   1   24.51    7.29
 -12   0  -1   26.03   11.41
  12   0   1   23.54    7.33
 -12   0  -1   17.01   11.76
  13   0  -1  234.05   16.59
  13   0   1  247.55   17.41
  14   0  -1   82.13    9.16
  14   0   1   96.73    9.72
  15   0  -1   84.83   14.19
  15   0   1   67.00   14.63
  16   0  -1  190.85   26.10
  16   0   1  219.13   28.57
  17   0  -1   91.18   17.26
  17   0   1   76.76    9.80
  18   0  -1   96.38   18.91
  18   0   1  103.38   11.03
  19   0  -1  236.19   20.00
  19   0   1  250.62   20.82
  20   0  -1   17.68    5.71
  20   0   1   20.95    8.85
  21   0  -1   17.91    7.85
  21   0   1   11.44    7.35
   0   0  -2  617.21   27.56
   0   0   2  616.35   36.42
   0   0   2  467.18   51.59
   0   0  -2  568.26   35.77
   0   0   2  481.21   51.67
   0   0  -2  626.75   39.46
  -1   0  -2   14.91    2.53
   1   0   2    7.75    4.60
   1   0  -2   18.14    4.62
  -1   0   2    8.83    2.23
   1   0   2   16.12    8.51
  -1   0   2    8.87    3.51
  -1   0  -2   15.36    3.61
   1   0  -2   16.80    2.52
   1   0   2   19.70    8.76
  -1   0   2   12.74    3.43
  -1   0  -2   10.52    3.68
   1   0  -2   14.41    2.55
  -2   0  -2  748.45   52.43
   2   0   2  663.90   34.94
   2   0  -2  726.88   37.74
  -2   0   2  728.41   38.55
   2   0   2  641.32   84.76
  -2   0   2  709.03   42.57
  -2   0  -2  677.35   77.03
   2   0  -2  770.45   29.17
   2   0   2  651.75   87.76
  -2   0   2  708.60   42.43
  -2   0  -2  680.83   77.01
   3   0  -2 1426.39  106.47
  -3   0  -2 1383.78  128.65
   3   0   2 1378.67  127.25
   3   0  -2 1415.04  130.93
   3   0   2 1458.75  154.50
  -3   0   2 1444.36   92.50
  -3   0  -2 1277.37  133.35
   3   0   2 1315.07  138.63
  -3   0  -2 1282.81  134.80
   4   0  -2 2334.92  295.35
  -4   0  -2 2281.94  291.82
   4   0   2 2260.53  283.66
   4   0  -2 2510.88  273.15
   4   0   2 2087.53  268.89
  -4   0  -2 2240.13  378.73
   4   0   2 2084.71  272.68
  -4   0  -2 2260.06  383.56
   5   0  -2 3909.30  626.70
  -5   0  -2 3374.33  598.84
   5   0   2 3729.16  658.40
   5   0  -2 3670.73  646.88
   5   0   2 3569.98  627.18
  -5   0  -2 3142.45  674.10
   5   0   2 3517.07  614.49
  -5   0  -2 3200.01  683.98
   6   0  -2  522.25   33.29
  -6   0  -2  532.48   32.30
   6   0   2  555.13   33.94
   6   0  -2  540.88   31.96
   6   0   2  575.13   38.17
  -6   0  -2  579.74   40.01
   6   0   2  587.32   38.37
  -6   0  -2  584.81   40.37
   7   0  -2 2257.62  285.84
  -7   0  -2 2163.61  317.88
   7   0   2 2289.58  337.17
   7   0   2 2571.14  327.55
  -7   0  -2 2310.52  363.66
   7   0   2 2451.59  315.80
  -7   0  -2 2156.13  292.64
  -8   0  -2  887.16   67.11
   8   0  -2  810.45   89.36
   8   0   2  842.25   89.00
   8   0   2  921.94   71.43
  -8   0  -2 1011.48  102.21
   8   0   2  898.25   70.79
  -8   0  -2 1033.74  104.02
  -9   0  -2 1512.84  159.35
   9   0  -2 1455.13  196.21
   9   0   2 1549.68  167.72
   9   0   2 1682.81  177.70
  -9   0  -2 1731.27  187.86
   9   0   2 1656.82  175.05
  -9   0  -2 1750.11  188.71
 -10   0  -2 1948.14  227.83
  10   0  -2 1728.85  253.07
  10   0   2 1975.56  241.19
  10   0  -2 1956.60  229.74
  10   0   2 1965.55  237.19
 -10   0  -2 1949.10  242.15
  10   0   2 1973.03  238.98
 -10   0  -2 1986.95  247.94
 -11   0  -2  490.50   31.16
  11   0  -2  338.87   37.03
  11   0   2  420.36   43.79
  11   0  -2  477.16   30.34
  11   0   2  376.80   28.00
 -11   0  -2  419.72   32.64
  11   0   2  402.97   29.24
 -11   0  -2  382.37   30.93
  12   0  -2  177.71   19.65
  12   0   2  223.22   22.47
  12   0   2  214.70   22.04
 -12   0  -2  160.82   12.85
  12   0   2  194.41   22.78
  13   0  -2    1.48    7.86
  13   0   2    8.56    5.34
 -13   0  -2    3.00    3.75
 -13   0  -2    3.26    3.82
  14   0  -2   43.40   12.12
  14   0   2   68.07   12.36
  15   0  -2   84.28   15.66
  15   0   2   82.55   14.87
  16   0  -2  172.58   24.66
  16   0   2  166.18   15.18
  17   0  -2  220.73   30.78
  17   0   2  246.26   21.00
  18   0  -2  184.79   25.35
  18   0   2  149.32   22.55
  19   0  -2  518.30   44.58
  19   0   2  477.90   59.55
  20   0  -2   12.33    5.13
  20   0   2    8.82    5.08
  21   0  -2  285.54   28.19
  21   0   2  278.79   26.52
   0   0  -3   13.18    3.59
   0   0   3   24.20    5.80
   0   0   3   11.27    5.12
   0   0  -3    6.34    3.11
   0   0   3   23.86    5.26
   0   0  -3    6.51    3.08
  -1   0  -3  210.64   17.36
   1   0  -3  201.92   10.30
   1   0   3  212.15   17.06
  -1   0   3  180.11   14.06
  -1   0   3  224.59   19.70
   1   0   3  235.93   31.14
  -1   0  -3  203.11   19.56
   1   0  -3  209.24    7.53
   1   0   3  232.56   32.46
  -1   0   3  228.03   20.65
  -1   0  -3  198.64   19.66
   1   0  -3  219.47    7.91
  -2   0  -3  284.57   20.22
   2   0   3  265.51   19.92
   2   0  -3  287.85   21.78
  -2   0   3  280.96   21.14
   2   0   3  296.29   24.27
  -2   0   3  284.97   18.56
  -2   0  -3  253.70   17.21
   2   0   3  274.93   22.13
  -2   0   3  292.91   19.14
  -2   0  -3  261.61   17.65
   3   0  -3  681.70   35.93
  -3   0  -3  663.10   47.39
   3   0   3  671.73   35.64
   3   0  -3  655.19   36.02
  -3   0   3  644.65   24.63
  -3   0   3  599.68   26.88
   3   0   3  811.96   90.90
  -3   0  -3  680.86   67.08
  -3   0   3  641.61   24.71
   3   0   3  716.93   81.73
  -3   0  -3  688.08   67.92
   4   0  -3  183.11   14.96
  -4   0  -3  195.87    9.61
   4   0   3  174.46   14.00
   4   0  -3  206.46   17.01
   4   0   3  193.10   13.89
  -4   0  -3  197.66   20.98
   4   0   3  185.08   14.17
  -4   0  -3  187.20   21.38
   5   0  -3  409.35   34.52
  -5   0  -3  431.94   23.38
   5   0   3  461.33   23.99
   5   0  -3  385.27   30.74
   5   0   3  483.51   33.21
  -5   0  -3  451.06   30.72
   5   0   3  463.71   32.21
  -5   0  -3  464.89   30.81
   6   0  -3   91.42    6.76
  -6   0  -3   80.15    5.77
   6   0   3   86.16    9.60
   6   0  -3   80.02    5.99
   6   0   3   81.54    8.06
  -6   0  -3   99.41    7.80
   6   0   3   96.91    8.11
  -6   0  -3   92.18    8.19
   7   0  -3  214.12   20.55
  -7   0  -3  244.79   19.80
   7   0   3  245.39   13.75
   7   0  -3  240.00   21.11
   7   0   3  263.99   25.33
  -7   0  -3  252.39   25.08
   7   0   3  245.48   24.73
  -7   0  -3  229.60   23.30
   8   0  -3  221.96   14.02
  -8   0  -3  219.78   13.02
   8   0   3  210.07   19.69
   8   0  -3  220.73   13.51
   8   0   3  230.18   22.44
  -8   0  -3  227.03   15.06
   8   0   3  225.34   24.40
  -8   0  -3  236.32   14.99
   9   0  -3  828.62   64.73
  -9   0  -3  827.50   84.55
   9   0   3  819.44   83.12
   9   0  -3  844.49   63.27
   9   0   3  896.13   92.55
  -9   0  -3  807.92   86.38
   9   0   3  860.90   93.68
  -9   0  -3  842.94   88.38
 -10   0  -3   41.62    7.76
  10   0  -3   27.86    5.24
  10   0   3   37.06    8.04
  10   0  -3   35.78    5.35
  10   0   3    7.41    8.56
 -10   0  -3   26.42    7.79
  10   0   3   18.65    8.44
 -10   0  -3   19.11    7.73
  11   0  -3  483.18   51.11
  11   0   3  493.03   51.76
  11   0   3  527.35   53.35
 -11   0  -3  455.22   38.56
  11   0   3  537.94   54.88
 -11   0  -3  489.46   40.36
  12   0  -3   29.43    9.08
  12   0   3   30.94    5.58
 -12   0  -3   17.38    4.36
 -12   0  -3   12.93    4.45
  13   0  -3    5.50    8.33
  13   0   3    4.78    5.47
 -13   0  -3    5.33    4.16
 -13   0  -3    4.48    4.27
  14   0  -3    8.77    8.96
  14   0   3    4.54    9.79
 -14   0  -3    1.39    3.95
 -14   0  -3    2.39    4.13
  15   0  -3  111.03   19.44
  15   0   3  126.53   12.56
  16   0  -3   72.94   15.09
  16   0   3   61.93    8.79
  17   0  -3   12.04   10.43
  17   0   3   23.14    9.68
  18   0  -3   40.09    7.19
  18   0   3   51.47   11.76
  19   0  -3   10.92    5.95
  19   0   3    9.87    8.29
  20   0  -3   20.42    7.96
  20   0   3    7.02    7.56
   0   0  -4  154.59   14.10
   0   0   4  147.00   12.87
   0   0   4  180.93   20.44
   0   0  -4  185.20   13.47
   0   0   4  159.17   18.58
   0   0  -4  181.48   14.00
  -1   0  -4  113.09    7.21
   1   0  -4  129.72    7.83
   1   0   4  127.29    7.16
  -1   0   4  160.73   14.98
   1   0   4  150.86   19.71
  -1   0  -4  123.22    7.81
   1   0  -4  149.08    6.20
   1   0   4  125.37   17.79
  -1   0   4  133.19   13.44
  -1   0  -4  125.32    7.71
   1   0  -4  154.66    6.34
  -2   0  -4  375.33   28.05
   2   0  -4  368.52   20.07
   2   0   4  365.94   18.83
  -2   0   4  381.07   30.17
   2   0   4  376.10   39.19
  -2   0   4  368.03   17.44
  -2   0  -4  406.22   34.59
   2   0  -4  465.69   20.48
   2   0   4  388.71   40.95
  -2   0   4  361.55   17.21
  -2   0  -4  396.38   35.22
   2   0  -4  464.05   21.06
  -3   0  -4 2240.12  229.80
   3   0   4 2014.78  209.14
   3   0  -4 1941.64  206.98
  -3   0   4 1951.13  193.64
   3   0   4 1994.21  248.08
  -3   0  -4 2027.80  235.37
  -3   0   4 1856.23  185.95
   3   0   4 2004.03  250.11
  -3   0  -4 2002.98  233.62
   4   0  -4 1319.85  133.70
  -4   0  -4 1282.05  100.60
   4   0   4 1245.09  122.29
   4   0  -4 1212.02  126.51
   4   0   4 1322.80  169.67
  -4   0  -4 1244.62  114.56
   4   0   4 1267.73  164.77
  -4   0  -4 1247.82  115.74
   5   0  -4 3510.54  575.92
  -5   0  -4 3534.24  566.72
   5   0   4 3323.12  588.91
   5   0  -4 3266.21  598.60
   5   0   4 3556.28  742.93
  -5   0  -4 3285.81  582.10
   5   0   4 3505.90  726.52
  -5   0  -4 3230.50  572.27
   6   0  -4  292.92   17.47
  -6   0  -4  298.84   16.11
   6   0   4  315.60   24.62
   6   0  -4  289.13   24.95
   6   0   4  340.51   23.07
  -6   0  -4  295.07   19.90
   6   0   4  332.28   23.14
  -6   0  -4  299.22   19.54
   7   0  -4 1648.93  213.61
  -7   0  -4 1619.35  196.04
   7   0   4 1661.12  205.76
   7   0  -4 1606.37  170.62
   7   0   4 1764.21  201.03
  -7   0  -4 1678.47  230.68
   7   0   4 1673.92  234.70
  -7   0  -4 1671.91  228.64
   8   0  -4  284.68   26.27
  -8   0  -4  284.67   17.00
   8   0   4  274.29   17.38
   8   0  -4  294.19   26.51
   8   0   4  262.88   28.73
  -8   0  -4  282.72   18.75
   8   0   4  251.92   28.91
  -8   0  -4  263.93   18.78
   9   0  -4 1298.98  124.58
  -9   0  -4 1260.02  146.56
   9   0   4 1273.43  121.56
   9   0  -4 1192.89  135.20
   9   0   4 1270.40  165.37
  -9   0  -4 1233.94  157.69
   9   0   4 1265.36  167.24
  -9   0  -4 1243.14  158.20
 -10   0  -4  643.45   59.81
  10   0  -4  564.51   43.40
  10   0   4  549.02   43.25
  10   0   4  621.21   67.58
 -10   0  -4  538.21   46.87
  10   0   4  573.99   66.70
 -10   0  -4  557.88   48.71
  11   0  -4  662.01   70.10
  11   0   4  674.24   52.21
 -11   0  -4  536.20   61.94
 -11   0  -4  540.72   64.08
  12   0  -4   38.55   11.28
  12   0   4   51.85    7.05
 -12   0  -4   24.74    9.05
 -12   0  -4   29.46    9.17
  13   0  -4   12.91    9.21
  13   0   4   10.60    9.40
 -13   0  -4    8.66    8.17
 -13   0  -4    7.78    8.20
  14   0  -4   20.42    5.97
  14   0   4   27.42   10.86
 -14   0  -4    8.42    4.42
 -14   0  -4    8.13    4.74
  15   0  -4  251.57   19.93
  15   0   4  258.44   19.90
 -15   0  -4  144.76   24.43
 -15   0  -4  142.37   25.61
  16   0  -4   58.92    8.53
  16   0   4   63.98   13.21
 -16   0  -4   46.38   13.19
 -16   0  -4   44.43   13.76
  17   0  -4  444.59   39.21
  17   0   4  427.55   52.31
  18   0  -4  276.68   32.90
  18   0   4  264.97   21.15
  19   0  -4  620.09   69.12
  19   0   4  539.60   43.18
  20   0  -4   52.74    6.45
  20   0   4   46.05    8.76
   0   0  -5    2.16    5.24
   0   0   5    7.62    5.34
   0   0   5    6.58    5.64
   0   0  -5   -8.73    4.85
   0   0   5    2.56    5.48
   0   0  -5    9.86    4.91
  -1   0  -5 1654.96  183.57
   1   0  -5 1617.87  186.11
   1   0   5 1434.38  133.78
  -1   0   5 1508.92  169.34
   1   0   5 1725.29  219.39
  -1   0   5 1351.15  166.26
  -1   0  -5 1640.82  181.85
   1   0  -5 1653.73  159.65
  -1   0   5 1670.40  161.59
   1   0   5 1657.10  213.57
  -1   0  -5 1642.31  182.93
   1   0  -5 1736.63  165.63
  -2   0  -5   44.15    6.44
   2   0  -5   41.83    4.56
   2   0   5   43.15    4.01
  -2   0   5   49.60    6.93
  -2   0   5   30.51    5.19
   2   0   5   24.49    5.84
  -2   0  -5   44.84    4.89
   2   0  -5   37.64    4.70
  -2   0   5   24.23    5.14
   2   0   5   39.16    5.72
  -2   0  -5   43.95    5.18
   2   0  -5   40.24    4.77
  -3   0  -5  335.49   22.06
   3   0  -5  275.45   22.38
   3   0   5  286.00   20.59
  -3   0   5  281.65   15.44
   3   0   5  310.80   22.44
  -3   0  -5  305.31   25.67
   3   0  -5  272.25    9.03
  -3   0   5  259.34   14.31
   3   0   5  315.48   21.81
  -3   0  -5  296.46   26.02
   3   0  -5  270.72   11.45
   4   0  -5   -2.40    3.46
  -4   0  -5   -2.20    4.80
   4   0   5    0.94    3.08
  -4   0   5    1.59    1.23
  -4   0   5    1.41    1.32
   4   0   5   -7.08    7.93
  -4   0  -5    1.22    3.80
   4   0   5   -7.36    7.63
  -4   0  -5    0.78    3.80
   5   0  -5  396.74   34.06
  -5   0  -5  421.31   30.66
   5   0   5  410.53   22.16
   5   0  -5  341.77   21.02
   5   0   5  392.23   29.95
  -5   0  -5  392.43   25.47
   5   0   5  403.30   30.08
  -5   0  -5  378.02   26.03
   6   0  -5   57.75    9.05
  -6   0  -5   52.88    5.15
   6   0   5   64.20    5.29
   6   0  -5   60.28    6.23
   6   0   5   61.95   11.62
  -6   0  -5   53.79    6.11
   6   0   5   43.69   10.98
  -6   0  -5   52.58    6.20
   7   0  -5   74.26   11.22
  -7   0  -5   72.48    8.92
   7   0   5   74.93    9.98
   7   0  -5   64.41    9.49
   7   0   5   68.08    8.28
  -7   0  -5   63.53   10.84
   7   0   5   57.99    7.93
  -7   0  -5   76.61   12.08
   8   0  -5   85.23    7.90
  -8   0  -5   87.66    7.44
   8   0   5   91.94    8.01
   8   0  -5   88.39    7.60
   8   0   5   88.69    9.22
  -8   0  -5   83.72    8.81
   8   0   5   86.34    9.45
  -8   0  -5   79.74    8.91
   9   0  -5   88.61   13.13
  -9   0  -5   81.15   11.59
   9   0   5   75.89   12.56
  -9   0  -5   77.98    8.87
  -9   0  -5   76.40   14.36
  10   0  -5   34.87    8.94
  10   0   5    5.73    8.39
 -10   0  -5    3.91    4.79
 -10   0  -5   10.27    4.77
  11   0  -5  244.47   18.05
  11   0   5  227.47   18.44
 -11   0  -5  179.60   24.52
 -11   0  -5  165.85   24.95
  12   0  -5   24.28    6.32
  12   0   5   25.51   10.25
 -12   0  -5   14.95    6.15
 -12   0  -5    4.43    6.35
  13   0  -5  850.75   70.36
  13   0   5  916.65  100.53
 -13   0  -5  577.97   58.90
 -13   0  -5  594.23   62.24
  14   0  -5   42.34    7.11
  14   0   5   29.72   13.21
 -14   0  -5   14.28   10.36
 -14   0  -5   18.80   10.56
  15   0  -5  231.83   27.57
  15   0   5  227.91   18.66
 -15   0  -5  131.81   26.08
 -15   0  -5  162.49   27.17
  16   0  -5  101.01   14.61
  16   0   5   79.23   14.19
 -16   0  -5   58.01    9.12
 -16   0  -5   58.74    9.42
  17   0  -5    7.63    5.59
  17   0   5    7.78    8.08
 -17   0  -5   -0.27    4.63
 -17   0  -5   -3.05    5.09
  18   0  -5    0.60    5.20
  18   0   5    9.78    4.64
  19   0  -5  150.92   19.34
  19   0   5  144.44   14.98
   0   0  -6 5642.77 1418.79
   0   0   6 5034.78 1197.14
   0   0   6 5220.92 1320.87
   0   0  -6 5846.37 1377.50
   0   0   6 4929.17 1259.30
   0   0  -6 5192.12 1423.79
  -1   0  -6   76.91    8.86
   1   0  -6   81.98    5.62
   1   0   6   74.57    8.36
  -1   0   6   69.42    8.86
  -1   0   6   44.71    7.62
   1   0   6   61.44    6.42
  -1   0  -6   71.96    5.93
   1   0  -6   67.92    7.42
  -1   0   6   42.43    7.25
   1   0   6   50.37    6.24
  -1   0  -6   75.63    6.27
   1   0  -6   59.00    7.64
  -2   0  -6 2157.69  236.53
   2   0  -6 2268.44  296.81
   2   0   6 2080.02  229.43
  -2   0   6 2241.29  255.28
  -2   0   6 1604.89  250.13
   2   0   6 2309.29  290.71
  -2   0  -6 2257.98  298.89
   2   0  -6 2114.83  240.30
  -2   0   6 1837.51  235.72
   2   0   6 2309.49  291.61
  -2   0  -6 2259.30  301.73
   2   0  -6 1309.53  264.45
  -3   0  -6   32.18    4.26
   3   0  -6   33.66    4.63
   3   0   6   42.43    6.77
   3   0   6   27.22    5.72
  -3   0  -6   30.08    4.28
   3   0   6   28.66    5.64
  -3   0  -6   18.99    4.51
   4   0  -6   37.69    5.06
  -4   0  -6   49.55    6.64
   4   0  -6   38.37    4.84
   4   0   6   42.28    6.88
   4   0   6   35.90   10.52
  -4   0  -6   29.72    7.84
   4   0   6   26.83   10.51
  -4   0  -6   32.12    7.81
   5   0  -6  431.30   40.37
  -5   0  -6  461.87   35.37
   5   0   6  450.82   35.90
   5   0  -6  385.07   26.28
   5   0   6  463.44   35.92
  -5   0  -6  452.86   45.53
   5   0   6  442.44   35.75
  -5   0  -6  445.72   46.26
   6   0  -6   -1.09    4.19
  -6   0  -6    7.79    3.67
   6   0   6   19.27    6.50
   6   0  -6   11.54    6.49
   6   0   6    8.50    9.23
  -6   0  -6   13.23    6.50
   6   0   6   -8.37    8.90
  -6   0  -6    6.88    6.77
   7   0  -6  159.17   18.99
  -7   0  -6  175.03   15.98
   7   0   6  191.12   17.85
   7   0  -6  193.56   19.81
  -7   0  -6  131.12   17.97
  -7   0  -6  138.66   18.42
   8   0  -6   20.14    5.29
   8   0   6   17.80    5.16
  -8   0  -6   16.47    4.89
  -8   0  -6   12.29    4.99
   9   0  -6   93.48    8.78
   9   0   6   78.04    8.83
  -9   0  -6   55.42   12.22
  -9   0  -6   51.83   12.87
  10   0  -6  171.00   21.83
  10   0   6  156.41   21.76
 -10   0  -6  123.86   21.70
 -10   0  -6  144.20   22.14
  11   0  -6   10.01    9.50
  11   0   6   -4.79    9.25
 -11   0  -6    1.73    5.92
 -11   0  -6    4.25    5.95
  12   0  -6 1102.99  139.38
  12   0   6 1185.60  145.18
 -12   0  -6  845.97   94.91
 -12   0  -6  850.26  100.36
  13   0  -6  123.53   12.84
  13   0   6  137.30   21.43
 -13   0  -6   84.98   19.56
 -13   0  -6   99.96   20.14
  14   0  -6 1637.40  195.21
  14   0   6 1710.30  204.42
 -14   0  -6 1229.71  235.08
 -14   0  -6 1281.91  243.83
  15   0  -6   21.45    6.59
  15   0   6   27.78   10.38
 -15   0  -6   23.97   10.79
 -15   0  -6   22.08   11.14
  16   0  -6  394.29   43.31
  16   0   6  364.22   26.62
 -16   0  -6  279.68   43.30
 -16   0  -6  288.56   45.45
  17   0  -6   29.25    9.72
  17   0   6   16.64    7.92
 -17   0  -6   16.72    8.97
 -17   0  -6   29.20    9.16
  18   0  -6   11.78    4.67
  18   0   6    1.94    6.08
  19   0  -6  106.16   13.62
   0   0   7    3.16    3.47
   0   0   7   -0.58    5.15
   0   0  -7   12.77    5.70
   0   0   7    3.88    5.34
   0   0  -7    3.63    5.89
  -1   0  -7   27.36    6.19
   1   0  -7   23.99    6.53
   1   0   7   19.45    3.47
  -1   0   7   32.12    6.76
  -1   0   7   16.42    5.10
   1   0   7    9.78    7.11
  -1   0  -7    5.27    6.51
   1   0  -7   12.23    5.51
  -1   0   7   12.19    5.11
   1   0   7   10.34    6.88
  -1   0  -7   16.96    6.69
   1   0  -7   11.12    5.61
  -2   0  -7   61.02    5.38
   2   0  -7   54.78    8.55
   2   0   7   56.16    8.49
  -2   0   7   62.79    5.44
   2   0   7   47.70    9.82
  -2   0  -7   39.43    5.23
   2   0   7   34.76    9.35
  -2   0  -7   30.81    5.54
   3   0  -7  776.57   78.67
  -3   0  -7  986.63   87.31
   3   0  -7  857.85   66.80
   3   0   7  833.04   75.12
   3   0   7  804.40  101.69
  -3   0  -7  873.10   99.37
   3   0   7  737.67   96.84
  -3   0  -7  876.50   99.56
   4   0  -7   42.96    8.58
  -4   0  -7   52.98    4.78
   4   0  -7   41.22    5.54
   4   0   7   45.74    8.50
   4   0   7   24.02   10.03
  -4   0  -7   30.15    6.09
   4   0   7   30.89   10.21
  -4   0  -7   36.44    6.26
   5   0  -7  607.30   47.57
  -5   0  -7  688.11   57.37
   5   0   7  665.43   58.29
  -5   0  -7  582.17   52.04
  -5   0  -7  585.44   52.10
   6   0  -7  533.68   57.67
   6   0   7  620.40   54.00
  -6   0  -7  540.12   46.81
  -6   0  -7  523.89   47.05
   7   0  -7   15.77    9.27
   7   0   7   16.18    4.84
  -7   0  -7   13.13    5.39
  -7   0  -7    8.38    5.56
   8   0  -7  389.99   29.47
   8   0   7  434.06   41.72
  -8   0  -7  326.38   30.85
  -8   0  -7  362.57   32.56
   9   0  -7  351.34   29.86
   9   0   7  391.35   29.87
  -9   0  -7  326.62   45.08
  -9   0  -7  314.75   45.63
  10   0  -7    5.26    9.58
  10   0   7    5.25    5.55
 -10   0  -7    2.14    5.05
 -10   0  -7   -0.96    5.42
  11   0  -7  387.81   40.84
  11   0   7  353.78   38.50
 -11   0  -7  258.64   24.92
 -11   0  -7  257.79   25.08
  12   0  -7   65.01   14.50
  12   0   7   71.66    9.17
 -12   0  -7   45.97    9.20
 -12   0  -7   45.61    9.61
  13   0  -7   21.50    7.04
  13   0   7   21.49    6.46
 -13   0  -7   13.52   10.96
 -13   0  -7    8.04   11.45
  14   0  -7   44.03    7.50
  14   0   7   37.85    6.70
 -14   0  -7   21.81    8.29
 -14   0  -7   33.89    8.42
  15   0  -7    2.31    8.74
  15   0   7    2.57    7.26
 -15   0  -7    4.14    6.23
 -15   0  -7   -1.36    6.36
  16   0  -7   88.91   13.74
  16   0   7   86.16    7.00
 -16   0  -7   55.71    8.83
 -16   0  -7   69.42    9.64
  17   0  -7  195.27   13.10
  17   0   7  165.29   10.05
 -17   0  -7  130.08   19.92
 -17   0  -7  124.36   20.23
  18   0  -7   45.81    8.26
   0   0   8  162.76   15.53
   0   0   8  186.55   15.51
   1   0   8    4.72    3.73
  -1   0  -8   -3.86    6.68
   1   0   8   -3.01    3.74
  -1   0  -8    2.28    6.79
   2   0  -8  410.75   26.21
   2   0   8  410.39   34.37
  -2   0  -8  404.48   45.89
  -2   0  -8  408.34   47.18
   3   0  -8   53.12    6.42
   3   0   8   54.73    9.33
  -3   0  -8   40.89    6.29
  -3   0  -8   31.79    6.60
   4   0  -8  692.39   72.63
   4   0   8  773.65   69.10
  -4   0  -8  603.09   76.96
  -4   0  -8  600.24   80.53
   5   0  -8  425.51   41.81
   5   0   8  467.65   37.87
  -5   0  -8  299.66   38.14
  -5   0  -8  321.19   40.54
   6   0  -8  228.49   17.22
   6   0   8  227.05   14.33
  -6   0  -8  152.83   22.89
  -6   0  -8  169.10   23.45
   7   0  -8  833.33   70.89
   7   0   8  959.94   92.08
  -7   0  -8  525.43   78.71
  -7   0  -8  570.72   82.43
   8   0  -8  652.14   52.59
   8   0   8  686.94   54.33
  -8   0  -8  443.76   63.26
  -8   0  -8  446.65   67.39
   9   0  -8  389.25   46.25
   9   0   8  445.69   45.14
  -9   0  -8  288.57   43.47
  -9   0  -8  293.99   45.91
  10   0  -8 1112.73  141.38
  10   0   8 1177.47  137.96
 -10   0  -8  810.69   96.11
 -10   0  -8  813.38  101.22
  11   0  -8   25.46   11.17
  11   0   8   27.16    6.96
 -11   0  -8   17.88   10.72
 -11   0  -8    2.78   11.29
  12   0  -8  232.63   18.65
  12   0   8  203.05   17.34
 -12   0  -8  169.89   20.58
 -12   0  -8  172.82   21.30
  13   0  -8   -1.81    5.84
  13   0   8    6.24    7.73
 -13   0  -8   -0.70   10.63
 -13   0  -8   -8.15   11.09
  14   0  -8   89.83   14.53
  14   0   8   82.07   12.46
 -14   0  -8   68.82   17.32
 -14   0  -8   56.80   17.66
  15   0  -8    1.55    8.13
  15   0   8   -4.51    6.48
 -15   0  -8    4.99    5.44
 -15   0  -8    8.66    5.97
  16   0  -8   92.60    7.40
  16   0   8   62.16    4.82
 -16   0  -8   66.81   13.45
 -16   0  -8   67.02   13.47
  17   0  -8   18.26    6.74
   0   0   9   -1.77    4.42
   1   0  -9  117.01    9.50
   1   0   9  129.27   10.28
  -2   0  -9  321.48   40.74
  -2   0  -9  337.76   41.74
   3   0  -9   34.31    5.97
   3   0   9   37.81    5.40
  -3   0  -9   18.20   10.93
  -3   0  -9    8.33   11.04
   4   0  -9  504.99   48.70
   4   0   9  444.61   39.26
  -4   0  -9  331.62   50.46
  -4   0  -9  333.19   50.45
   5   0  -9  114.07   14.51
   5   0   9  108.34   11.82
  -5   0  -9   68.84   10.09
  -5   0  -9   60.70   10.01
   6   0  -9  404.73   39.01
  -6   0  -9  274.08   26.41
  -6   0  -9  245.57   26.14
   7   0  -9    5.26   10.21
   7   0   9   33.97    9.22
  -7   0  -9   19.23    6.41
  -7   0  -9   12.11    6.59
   8   0  -9  409.82   31.18
   8   0   9  461.64   31.08
  -8   0  -9  269.06   32.18
  -8   0  -9  267.13   32.07
   9   0  -9  279.62   21.26
   9   0   9  258.81   19.78
  -9   0  -9  171.57   20.64
  -9   0  -9  180.49   21.28
  10   0  -9  235.95   19.34
  10   0   9  237.32   27.94
 -10   0  -9  140.99   28.79
 -10   0  -9  136.75   28.81
  11   0  -9   54.12   12.52
  11   0   9   54.20   10.38
 -11   0  -9   38.94    8.50
 -11   0  -9   32.11    8.94
  12   0  -9   89.49   14.85
  12   0   9   72.84   11.47
 -12   0  -9   74.49   16.53
 -12   0  -9   55.33   17.05
  13   0  -9   60.80   11.43
  13   0   9   50.50    5.47
 -13   0  -9   54.32    8.13
 -13   0  -9   38.75    8.86
  14   0  -9    6.01    4.55
  14   0   9    2.29    5.43
 -14   0  -9    7.35    9.07
 -14   0  -9   13.66    9.18
  15   0  -9   66.56    9.73
 -15   0  -9   52.63   12.40
 -15   0  -9   56.91   12.58
   0   0 -10  250.46   26.65
   1   0 -10  152.45   20.68
   2   0 -10   -9.62    8.00
   2   0  10   -6.10    5.00
  -3   0 -10  322.44   41.64
  -3   0 -10  314.50   42.33
   4   0 -10  250.16   26.87
   4   0  10  275.78   26.98
  -4   0 -10  166.03   20.40
   5   0 -10  609.53   59.14
   5   0  10  681.37   58.87
  -5   0 -10  366.36   41.56
  -5   0 -10  382.68   45.27
   6   0 -10   50.71   11.64
   6   0  10   49.74    6.60
  -6   0 -10   14.38   11.61
  -6   0 -10   26.50   12.72
   7   0 -10  277.44   31.11
   7   0  10  308.35   28.88
  -7   0 -10  158.34   29.86
  -7   0 -10  176.19   32.24
   8   0 -10   -0.38    9.16
   8   0  10   -0.45    6.94
  -8   0 -10    2.52    8.59
  -8   0 -10   -3.81    9.32
   9   0 -10  296.25   22.26
   9   0  10  272.35   25.57
  -9   0 -10  178.74   31.72
  -9   0 -10  224.82   35.28
  10   0 -10   20.28    5.99
  10   0  10   13.88    6.50
 -10   0 -10   15.74    5.97
 -10   0 -10   17.39    6.53
  11   0 -10  228.05   22.08
  11   0  10  154.28   14.57
 -11   0 -10  158.69   22.69
 -11   0 -10  159.69   25.00
  12   0 -10   14.53    7.36
  12   0  10    4.49    4.82
 -12   0 -10    9.78    5.51
 -12   0 -10   10.29    5.68
  13   0 -10    2.24    3.77
 -13   0 -10    1.33    8.15
 -13   0 -10    6.80    8.22
  14   0 -10   69.75    8.87
   0   0 -11   42.25   11.20
  -1   0 -11  842.63  100.07
   1   0 -11  794.80   72.69
  -2   0 -11   -1.54    8.97
   2   0 -11   12.40    5.09
  -3   0 -11  139.12   11.29
   3   0 -11  154.41   12.58
   4   0 -11   35.68    6.78
   5   0 -11   21.35    5.96
   5   0  11   30.44    5.64
  -5   0 -11   18.22    6.55
  -5   0 -11   21.85    6.71
  -6   0 -11  240.54   31.30
  -6   0 -11  223.73   31.42
   7   0 -11    9.73    5.45
   7   0  11   16.32    7.02
  -7   0 -11    3.61    9.14
  -7   0 -11   15.74    9.31
  -8   0 -11  259.61   32.18
  -8   0 -11  256.24   32.59
   9   0 -11    1.60    7.41
  -9   0 -11   15.21    8.50
  -9   0 -11    7.24    8.60
  10   0 -11   31.70    7.83
 -10   0 -11   25.04    5.87
 -10   0 -11   21.26    6.08
  11   0 -11  131.08    8.47
  12   0  11    3.70    4.16
  12   0  11   11.96    4.22
   0   0 -12  566.60   58.44
  -1   0 -12   22.13    5.30
   1   0 -12   10.02    8.15
  -2   0 -12  269.18   27.42
   2   0 -12  289.85   20.44
   3   0 -12   10.82    4.56
   4   0 -12    4.14    4.27
   5   0 -12  254.55   17.37
   6   0  12    5.89    7.88
   6   0  12    2.27    8.09
   7   0  12   92.33   14.49
   7   0  12   88.32   14.87
   8   0 -12   17.65    5.58
   8   0  12   13.28    7.93
   8   0  12    7.58    4.99
   9   0  12   33.41    8.63
   9   0  12   35.83    8.88
   0  -1   0   57.68    2.83
   0   1   0   61.70    2.78
   0   1   0   65.27    8.68
   0  -1   0   67.14    7.60
   0   1   0   72.33    8.97
   0  -1   0   75.07    7.80
  -1  -1   0    3.54    2.14
   1   1   0    1.81    1.44
   1  -1   0    2.26    2.34
  -1   1   0    2.60    1.63
  -1   1   0   -1.01    2.94
   1   1   0    5.58    3.89
   1  -1   0    7.62    6.14
  -1  -1   0    0.04    3.10
  -1   1   0    0.59    2.99
   1  -1   0    5.40    6.61
   1   1   0   -6.71    4.19
  -1  -1   0   -0.99    3.18
   2  -1   0   10.09    2.26
  -2  -1   0   10.48    1.80
   2   1   0   13.38    3.30
   2  -1   0   11.52    2.33
   2  -1   0    8.96    5.45
   2   1   0   16.93    5.96
  -2  -1   0   15.38    3.63
   2  -1   0    7.86    2.74
   2  -1   0   14.11    5.53
   2   1   0    7.26    6.15
  -2  -1   0    6.61    3.64
   2  -1   0   13.91    3.00
   3  -1   0   -2.08    2.35
  -3  -1   0   -4.24    2.19
   3   1   0    3.29    3.63
   3  -1   0    0.43    2.65
   3  -1   0   -0.71    4.09
   3   1   0   -4.73    3.10
  -3  -1   0   -8.62    5.38
   3  -1   0   -2.91    2.07
   3  -1   0    3.80    4.29
   3   1   0   -0.90    3.22
  -3  -1   0   -5.55    5.60
   3  -1   0    0.61    2.18
   4  -1   0 2898.76  384.30
  -4  -1   0 3036.43  442.78
   4   1   0 2777.71  377.54
   4  -1   0 2883.83  382.61
   4  -1   0 3133.23  432.12
   4   1   0 2796.53  385.70
  -4  -1   0 2894.85  496.35
   4  -1   0 3058.52  378.73
   4  -1   0 3137.13  434.85
   4   1   0 2832.32  390.32
  -4  -1   0 2948.98  503.96
   4  -1   0 3083.86  383.10
  -5  -1   0    3.86    4.85
   5  -1   0    7.07    3.49
   5   1   0    6.30    4.91
   5   1   0    4.44    4.77
  -5  -1   0    3.44    4.86
   5   1   0    1.42    4.75
  -5  -1   0    9.44    4.98
   5  -1   0    3.70    1.94
  -6   1   0 6599.68 1872.76
  -6  -1   0 7075.17 2145.75
   6  -1   0 6704.65 1978.96
   6   1   0 6636.76 2073.76
   6   1   0 7272.33 2183.69
  -6  -1   0 6399.74 2240.29
   6  -1   0 6576.88 2098.14
  -6   1   0 7228.82 2162.35
   6   1   0 7341.14 2204.40
  -6  -1   0 6425.75 2246.01
   6  -1   0 6614.72 2135.32
  -6   1   0 7369.56 2180.88
  -7   1   0   -4.05    4.33
  -7  -1   0    9.21    5.24
   7  -1   0    3.80    4.44
   7   1   0    7.87    5.71
   7   1   0    1.66    4.77
  -7  -1   0    8.47    3.12
   7  -1   0   11.46    6.09
  -7   1   0    1.51    4.00
   7   1   0   -0.94    4.90
  -7  -1   0    4.33    3.14
   7  -1   0   -0.58    6.05
  -7   1   0    4.59    4.06
  -8   1   0 4328.99  738.65
  -8  -1   0 4214.04  798.05
   8  -1   0 4154.36  762.24
   8   1   0 4053.96  800.15
   8   1   0 4843.29  862.23
  -8  -1   0 4246.68  874.80
   8  -1   0 2491.26  930.41
  -8   1   0 2681.95  785.11
   8   1   0 4924.62  876.48
  -8  -1   0 4233.44  871.63
   8  -1   0 2273.32  906.15
  -8   1   0 2511.81  793.51
  -9   1   0    5.13    3.04
  -9  -1   0    7.78    3.71
   9  -1   0    7.20    4.63
   9   1   0    3.89    3.80
   9   1   0    0.59    2.92
   9  -1   0    6.96    3.96
  -9  -1   0   -2.88    6.49
  -9   1   0    1.86    3.78
   9   1   0   -0.82    2.93
   9  -1   0    1.75    3.92
  -9  -1   0   12.73    5.91
  -9   1   0    0.76    2.44
 -10  -1   0  877.09   65.54
  10  -1   0  759.88   54.93
  10   1   0  805.37   65.13
  10   1   0  866.30   81.03
 -10  -1   0  896.46   78.99
  10   1   0  906.94   82.35
 -10  -1   0  948.58   79.39
 -11  -1   0   -1.24    3.96
  11  -1   0   -1.38    3.52
  11   1   0   12.10    6.65
  11   1   0   -2.19    3.39
 -11  -1   0    5.12    6.59
  11   1   0    0.34    3.46
 -11  -1   0    2.59    6.45
  12  -1   0   81.88    6.66
  12   1   0   70.59    7.74
  13  -1   0    4.42    4.32
  13   1   0   10.49    9.33
  14  -1   0   56.59   10.65
  14   1   0   58.84   14.59
  15  -1   0   -7.95    7.26
  15   1   0    3.13    6.24
  16  -1   0   30.52   10.12
  16   1   0   17.11    6.99
  17  -1   0  -15.10    8.79
  17   1   0    9.84    9.88
  18  -1   0  451.50   37.92
  18   1   0  518.90   61.66
  19  -1   0    2.46    4.67
  19   1   0   -4.06    9.16
  20  -1   0  908.88  103.73
  20   1   0 1044.34  126.12
  21   1   0    3.47    4.23
   0  -1  -1   66.10    3.88
   0   1   1   65.59    5.77
   0  -1   1   66.85    8.98
   0   1   1   73.99    5.35
   0  -1  -1   84.17    8.03
   0  -1   1   76.56    8.99
   0  -1   1   76.07    9.28
   0   1   1   72.83    5.59
   0  -1  -1   86.77    8.40
   0  -1   1   84.31    9.11
  -1  -1   1  168.15    5.71
   1   1   1  161.09    6.92
   1  -1  -1  175.17   10.77
  -1  -1   1  155.42    9.26
   1   1   1  157.46    8.99
   1  -1  -1  174.59   12.12
  -1  -1   1  157.08    9.31
   1   1   1  156.18    9.15
   1  -1  -1  173.08   12.48
  -1  -1  -1  154.15    6.48
  -1   1   1  163.04    9.54
   1   1  -1  155.22   14.17
   1  -1   1  173.60   16.01
  -1   1   1  159.13    7.79
  -1  -1  -1  194.86   13.99
   1  -1   1  179.28    9.39
   1   1  -1  161.29   14.45
   1  -1   1  170.97   16.52
  -1   1   1  159.30    8.00
  -1  -1  -1  191.79   14.25
   1  -1   1  188.49    9.53
  -2  -1   1  513.81   22.01
   2   1   1  426.18   29.86
   2  -1  -1  431.93   26.02
   2  -1  -1  447.08   18.95
  -2  -1   1  448.10   35.19
   2   1   1  460.62   39.00
  -2  -1   1  462.22   36.03
   2  -1  -1  444.07   19.32
   2   1   1  467.48   39.92
  -2  -1  -1  415.62   27.28
  -2   1   1  447.42   26.68
   2  -1   1  465.35   27.46
  -2   1   1  505.07   33.14
   2   1  -1  496.27   25.25
  -2  -1  -1  537.56   27.22
   2  -1   1  453.36   34.31
   2  -1   1  458.23   27.72
  -2   1   1  511.90   34.07
   2   1  -1  508.25   26.13
  -2  -1  -1  541.12   27.92
   2  -1   1  478.13   24.83
  -3   1  -1  538.56   25.41
   3  -1  -1  589.93   33.21
  -3  -1   1  664.24   38.64
   3   1   1  544.98   43.39
   3  -1  -1  549.69   35.60
   3  -1  -1  636.40   33.22
  -3  -1   1  639.53   36.55
   3   1   1  591.78   37.21
   3  -1  -1  633.13   31.89
  -3   1  -1  613.45   54.49
   3  -1  -1  638.76   33.65
   3   1   1  607.77   37.85
  -3  -1   1  636.99   36.70
   3  -1  -1  693.26   35.17
  -3   1  -1  623.07   56.15
   3   1  -1  557.81   34.97
   3  -1   1  548.34   23.36
  -3  -1  -1  519.26   27.63
   3   1  -1  537.67   43.42
  -3  -1  -1  623.50   36.39
   3  -1   1  585.61   41.96
   3   1  -1  555.28   44.25
  -3  -1  -1  634.18   36.76
   3  -1   1  595.84   43.33
  -4   1  -1   11.84    2.04
   4  -1  -1   12.55    3.85
  -4  -1   1   11.71    4.52
   4   1   1   12.82    3.27
   4  -1  -1   12.49    3.67
   4  -1  -1   14.91    2.93
   4   1   1    8.53    3.82
  -4  -1   1   22.01    5.02
   4  -1  -1   13.34    2.48
  -4   1  -1   -1.39    5.90
   4  -1  -1   17.63    2.93
   4   1   1   23.16    3.87
  -4  -1   1   10.48    5.06
   4  -1  -1   11.91    2.63
  -4   1  -1   15.96    6.51
   4  -1   1   13.07    2.59
   4   1  -1   19.91    4.33
  -4  -1  -1    9.35    4.54
   4   1  -1   15.46    3.64
  -4  -1  -1   12.65    5.88
   4  -1   1    6.23    3.06
   4   1  -1   20.12    3.85
  -4  -1  -1   10.51    5.89
   4  -1   1   15.31    3.04
  -5   1  -1   63.50    5.95
  -5  -1   1   72.80    7.32
   5  -1  -1   67.21    7.25
   5   1   1   71.84    5.79
   5  -1  -1   59.95    7.64
   5  -1  -1   60.80    4.06
   5   1   1   85.97    6.03
  -5  -1   1   71.42    4.72
   5  -1  -1   75.45    3.83
  -5   1  -1   67.40    5.60
   5  -1  -1   61.82    4.18
   5   1   1   74.92    5.96
  -5  -1   1   70.11    4.82
   5  -1  -1   76.47    3.88
  -5   1  -1   70.76    6.06
  -5  -1  -1   64.78    4.91
   5  -1   1   55.15    5.21
   5   1  -1   46.86    7.36
   5   1  -1   82.26    7.61
  -5  -1  -1   86.15    5.88
   5  -1   1   78.30    5.24
   5   1  -1   86.74    7.52
  -5  -1  -1   86.77    5.76
   5  -1   1   88.00    5.31
  -6   1  -1   75.08    4.46
  -6  -1   1   79.38    5.23
   6  -1  -1   65.59    4.78
   6   1   1   93.30   10.11
   6  -1  -1   69.79    8.20
   6  -1  -1   70.82    3.87
   6   1   1   85.95    6.18
  -6  -1   1   79.91    6.73
   6  -1  -1   70.80    4.93
  -6   1  -1   81.04    9.83
   6  -1  -1   69.52    3.95
   6   1   1   95.25    6.27
  -6  -1   1   69.00    6.87
   6  -1  -1   65.28    3.36
  -6   1  -1   71.29   10.04
  -6  -1  -1   79.86    8.60
   6  -1   1   75.59    6.66
   6   1  -1   69.82    8.62
   6   1  -1   87.54    4.77
  -6  -1  -1   91.03    9.95
   6  -1   1   71.66    6.20
   6   1  -1   83.86    4.73
  -6  -1  -1   80.17    9.96
   6  -1   1   72.89    6.34
  -7   1  -1  927.11   59.06
  -7  -1   1  858.66   75.71
   7  -1  -1  816.94   73.94
   7   1   1  875.46   68.20
   7  -1  -1  892.93   60.93
   7  -1  -1  773.04   48.19
   7   1   1  989.74   69.55
  -7  -1   1  985.36   70.30
   7  -1  -1  747.64   58.99
  -7   1  -1  815.54   90.34
   7  -1  -1  814.90   49.73
   7   1   1 1007.60   70.10
  -7  -1   1  800.95   67.27
  -7   1  -1  820.46   93.82
  -7  -1  -1  823.67   60.34
   7   1  -1  803.22   61.33
   7  -1   1  891.11   57.13
   7   1  -1  936.50   72.95
  -7  -1  -1 1029.66   91.34
   7  -1   1 1009.63   90.92
   7   1  -1 1000.24   74.33
  -7  -1  -1 1034.40   91.84
   7  -1   1  967.43   89.84
  -8   1  -1   73.65    8.00
  -8  -1   1   92.38    5.90
   8  -1  -1   91.06    8.86
   8   1   1   92.29    7.40
   8  -1  -1   94.73    6.16
   8   1   1   85.28   10.54
  -8  -1   1   87.14    7.65
  -8   1  -1   59.95   10.69
   8   1   1   89.26    6.79
  -8  -1   1   86.59    7.42
  -8   1  -1   46.70   10.88
  -8  -1  -1   87.07    6.36
   8   1  -1   72.34   10.19
   8  -1   1   80.21    7.96
   8   1  -1   85.18    7.80
   8  -1   1   52.30   11.45
   8   1  -1   85.09    7.75
   8  -1   1   45.29   12.08
  -9   1  -1    6.79    3.09
  -9  -1   1    9.56    5.86
   9  -1  -1    3.31    3.36
   9  -1  -1    4.43    3.69
   9   1   1   14.72    6.26
  -9  -1   1    8.42    5.56
  -9   1  -1    1.12    5.74
   9   1   1    7.91    6.42
  -9  -1   1    7.89    4.97
  -9   1  -1    9.90    6.31
  -9  -1  -1    4.16    3.73
   9  -1   1    3.10    2.98
   9   1  -1    8.86    3.81
   9   1  -1    3.41    2.86
   9  -1   1    1.29    5.39
  -9  -1  -1   16.55    7.80
   9   1  -1    5.90    2.81
   9  -1   1    8.44    5.46
  -9  -1  -1   13.59    8.09
 -10   1  -1  190.83   16.68
 -10  -1   1  188.67   17.88
  10  -1  -1  176.93   10.90
  10   1   1  182.77   13.81
  10  -1  -1  199.40   12.30
  10   1   1  201.48   12.88
 -10  -1   1  147.30   18.88
  10   1   1  192.85   13.20
 -10  -1   1  167.19   19.02
 -10  -1  -1  181.78   11.63
  10   1  -1  162.55   18.53
  10  -1   1  174.59   15.08
  10   1  -1  179.55   14.57
 -10  -1  -1  225.33   27.88
  10   1  -1  177.48   14.52
 -10  -1  -1  201.12   27.78
 -11   1  -1  505.97   32.82
 -11  -1   1  497.31   31.28
  11  -1  -1  428.23   28.41
  11   1   1  474.48   52.96
  11  -1  -1  523.20   48.55
  11   1   1  509.85   35.52
  11   1   1  551.00   36.71
  11   1  -1  428.76   32.86
  11  -1   1  405.28   37.81
 -11  -1  -1  430.19   37.15
 -11  -1  -1  431.91   36.16
  12  -1  -1  250.46   16.21
  12   1   1  274.63   20.56
  12   1   1  293.51   27.02
  12   1   1  299.83   27.93
  12   1  -1  253.89   28.12
  12  -1   1  235.10   15.08
 -12  -1  -1  205.57   29.28
  13  -1  -1  154.36   11.48
  13   1   1  164.91   21.86
  13   1  -1  132.41   19.37
  13  -1   1  134.56    9.63
  14  -1  -1   27.04    5.61
  14   1   1   11.98    6.68
  14   1  -1   19.97    5.98
  14  -1   1   21.60    8.76
  15  -1  -1   17.62    5.77
  15   1   1   20.70   10.44
  15   1  -1   11.35    6.88
  15  -1   1   14.70    8.82
  16  -1  -1   11.19    5.28
  16   1   1    0.32    6.24
  16   1  -1   -1.18   10.33
  16  -1   1    7.53    8.42
  17  -1  -1   39.17   10.09
  17   1   1   29.46    8.30
  17   1  -1   50.31   12.83
  17  -1   1   31.73    9.79
  18  -1  -1    8.56   10.01
  18   1   1   21.74   10.59
  18   1  -1   26.89   10.50
  18  -1   1   14.97    8.47
  19  -1  -1   27.96    9.29
  19   1   1   34.90   10.54
  19   1  -1   27.09   10.66
  19  -1   1   26.26    8.47
  20  -1  -1  125.43   15.39
  20   1   1  148.12   17.36
  20   1  -1  128.58   17.22
  20  -1   1  118.86    9.11
  21   1   1   99.56    8.31
  21   1  -1   97.69    8.12
   0   1  -2    9.16    0.92
   0  -1  -2   10.06    3.27
   0   1   2   14.45    3.00
   0  -1   2   14.64    4.48
   0   1   2   11.22    3.16
   0  -1  -2   14.28    4.29
   0  -1   2   11.01    5.53
   0  -1   2   13.83    4.51
   0   1   2    7.06    3.20
   0  -1  -2    8.70    4.35
   0  -1   2   13.18    5.77
  -1   1  -2 4201.10  624.66
   1  -1  -2 4192.23  771.40
   1   1   2 4203.91  763.03
  -1  -1   2 4185.73  787.74
   1   1   2 4260.88  877.94
   1  -1  -2 4420.21  797.70
  -1  -1   2 4447.83  806.79
  -1   1  -2 4376.60  841.54
  -1  -1   2 4177.37  789.90
   1   1   2 4310.90  891.27
   1  -1  -2 4464.14  807.68
  -1  -1   2 4496.31  820.88
  -1   1  -2 4465.19  857.42
   1   1  -2 4046.44  658.96
  -1  -1  -2 4261.23  774.06
   1   1  -2 3934.71  634.95
  -1   1   2 3990.42  777.41
   1  -1   2 3835.23  568.42
  -1   1   2 4239.36  804.34
  -1  -1  -2 4220.26  758.25
   1  -1   2 3982.54  734.26
  -1   1   2 4303.76  818.84
  -1  -1  -2 4240.97  761.86
   1  -1   2 4128.68  761.78
  -2   1  -2 2566.48  241.44
   2   1   2 2246.18  306.90
   2  -1  -2 2277.83  303.40
  -2  -1   2 2321.79  322.32
   2   1   2 2380.71  292.99
   2  -1  -2 2580.51  280.29
  -2  -1   2 2452.39  317.81
  -2   1  -2 2372.48  300.27
  -2  -1   2 2321.38  322.82
   2   1   2 2415.46  296.37
   2  -1  -2 2630.86  285.43
  -2  -1   2 2447.30  319.18
  -2   1  -2 2405.15  305.61
   2   1  -2 2304.96  251.67
  -2  -1  -2 2375.51  274.58
   2  -1   2 2384.40  232.58
  -2   1   2 2128.75  276.39
   2   1  -2 2072.00  219.15
  -2   1   2 2319.32  268.41
  -2  -1  -2 2430.14  277.52
   2  -1   2 2283.52  268.33
  -2   1   2 2354.45  273.77
  -2  -1  -2 2489.77  283.30
   2  -1   2 2315.72  273.06
  -3   1  -2 1482.51  105.57
   3   1   2 1394.19  146.22
   3  -1  -2 1492.97  125.25
  -3  -1   2 1368.66  134.41
   3   1   2 1491.41  171.49
   3  -1  -2 1509.08  103.85
  -3   1  -2 1356.51  129.10
  -3  -1   2 1545.48  120.75
  -3  -1   2 1385.35  136.67
   3   1   2 1511.72  175.66
   3  -1  -2 1503.29  103.95
  -3   1  -2 1465.88  140.27
  -3  -1   2 1570.27  122.44
   3   1  -2 1334.41  114.79
  -3  -1  -2 1273.23  130.51
   3  -1   2 1260.49   89.43
   3   1  -2 1327.63   91.83
  -3   1   2 1316.68   98.66
  -3  -1  -2 1640.18  134.14
   3  -1   2 1449.81  123.21
  -3   1   2 1326.93  100.51
  -3  -1  -2 1597.11  130.96
   3  -1   2 1445.19  123.64
  -4  -1   2 1922.66  205.53
   4  -1  -2 1927.02  230.23
  -4   1  -2 1945.00  196.01
   4   1   2 1874.03  203.46
   4  -1  -2 1835.44  231.28
  -4  -1   2 1981.06  199.54
   4  -1  -2 1982.18  177.74
   4   1   2 1928.58  222.14
   4  -1  -2 2240.38  191.19
  -4   1  -2 1875.26  231.85
  -4  -1   2 1994.79  201.68
   4   1   2 1975.98  227.51
   4  -1  -2 1950.76  167.51
   4  -1  -2 2256.31  193.99
  -4   1  -2 1906.72  238.98
   4   1  -2 1804.87  211.00
  -4  -1  -2 1858.58  232.09
   4  -1   2 1861.51  182.32
   4   1  -2 2031.92  201.02
  -4  -1  -2 2202.21  235.04
   4  -1   2 2028.90  271.51
   4   1  -2 2044.24  202.97
  -4  -1  -2 2227.94  237.62
   4  -1   2 2035.43  273.42
  -5  -1   2  478.52   23.10
   5  -1  -2  420.90   23.47
  -5   1  -2  464.20   25.23
   5   1   2  485.81   39.88
   5  -1  -2  449.01   25.89
   5   1   2  460.09   29.27
   5  -1  -2  445.19   14.14
  -5  -1   2  434.80   19.81
   5  -1  -2  460.60   14.75
  -5   1  -2  362.36   42.76
   5   1   2  477.24   29.63
  -5  -1   2  428.19   19.93
   5  -1  -2  461.52   15.23
  -5   1  -2  374.66   43.91
   5   1  -2  442.11   30.99
  -5  -1  -2  413.21   33.04
   5  -1   2  426.61   18.51
  -5  -1  -2  525.69   29.81
   5  -1   2  463.06   28.83
  -5  -1  -2  506.55   29.09
   5  -1   2  447.14   28.72
  -6  -1   2  315.57   14.79
   6  -1  -2  324.08   23.89
  -6   1  -2  317.23   13.19
   6   1   2  277.14   17.37
   6  -1  -2  264.49   13.87
   6   1   2  295.69   19.07
  -6  -1   2  277.44   15.66
  -6   1  -2  248.44   19.72
   6  -1  -2  282.93    7.16
   6   1   2  296.32   19.05
  -6  -1   2  304.62   15.98
  -6   1  -2  255.65   29.89
   6   1  -2  257.22   14.49
  -6  -1  -2  292.11   15.33
   6  -1   2  253.55   15.60
   6   1  -2  317.71   18.07
  -6  -1  -2  353.16   18.77
   6  -1   2  266.56   20.88
   6   1  -2  329.61   18.41
  -6  -1  -2  353.02   19.48
   6  -1   2  250.45   20.17
  -7  -1   2   16.27    3.46
  -7   1  -2   20.39    4.57
   7  -1  -2   21.97    3.61
   7   1   2   18.85    6.83
   7  -1  -2   14.32    5.39
   7   1   2   20.46    7.49
  -7  -1   2   16.25    3.46
  -7   1  -2    9.92    4.86
   7   1   2   34.41    7.71
  -7  -1   2   17.57    3.45
  -7   1  -2   16.05    5.10
  -7  -1  -2    5.34    6.28
   7   1  -2   10.14    5.55
   7  -1   2   11.09    2.70
   7   1  -2   14.70    2.82
  -7  -1  -2   25.80    6.15
   7  -1   2   13.16   11.22
   7   1  -2   18.76    2.93
  -7  -1  -2   22.94    5.57
   7  -1   2   24.04   10.94
  -8  -1   2  122.58    7.50
  -8   1  -2  107.56    9.72
   8  -1  -2  118.21   12.30
   8   1   2  119.23    8.76
   8  -1  -2  109.75    7.72
   8   1   2  145.97   15.42
  -8  -1   2  108.11    7.39
  -8   1  -2  106.73   15.69
   8   1   2  159.41   15.70
  -8  -1   2  116.18    7.35
  -8   1  -2   94.93   16.12
  -8  -1  -2  109.40    7.99
   8   1  -2  102.35   11.64
   8  -1   2  105.12    6.19
   8   1  -2  124.76    5.81
  -8  -1  -2  162.25   18.47
   8  -1   2   98.20   11.40
   8   1  -2  135.06    5.88
  -8  -1  -2  139.36   19.30
   8  -1   2  100.92   11.87
  -9  -1   2  562.36   45.80
  -9   1  -2  526.58   40.55
   9  -1  -2  538.59   34.05
   9   1   2  516.29   35.94
   9  -1  -2  530.57   33.52
   9   1   2  625.30   42.90
  -9  -1   2  432.31   33.37
  -9   1  -2  424.67   61.29
   9   1   2  616.81   42.40
  -9  -1   2  514.61   33.75
  -9   1  -2  327.64   61.92
  -9  -1  -2  546.12   48.96
   9   1  -2  445.43   30.40
   9  -1   2  513.31   40.12
   9   1  -2  483.32   33.33
   9  -1   2  540.29   62.43
  -9  -1  -2  735.21   70.57
   9   1  -2  500.39   33.99
   9  -1   2  445.37   54.91
  -9  -1  -2  734.65   71.10
 -10  -1   2  943.59   99.18
 -10   1  -2 1043.05   85.86
  10  -1  -2  934.35   81.28
  10   1   2  937.44   89.23
  10  -1  -2  965.25   84.62
  10   1   2 1150.26  136.38
  10   1   2 1260.10  138.94
 -10  -1  -2 1058.00  118.43
  10   1  -2  886.78   79.72
  10  -1   2  964.36  101.01
 -10  -1  -2 1476.82  186.21
 -10  -1  -2 1440.91  181.22
 -11   1  -2  741.16   72.75
  11  -1  -2  796.47   83.82
  11   1   2  722.06   90.51
  11   1   2  940.94  104.02
 -11   1  -2  557.32  101.35
  11   1   2  955.55  104.63
 -11   1  -2  547.90  108.75
  11   1  -2  683.09   80.41
  11  -1   2  774.96   59.04
 -11  -1  -2  937.80  102.28
 -11  -1  -2  973.30  104.18
  12  -1  -2  344.82   32.28
  12   1   2  327.94   36.57
 -12   1  -2  225.82   39.49
 -12   1  -2  238.91   42.83
  12   1  -2  319.35   33.42
  12  -1   2  343.57   30.11
 -12  -1  -2  310.58   24.78
 -12  -1  -2  318.03   25.17
  13  -1  -2 1009.64  116.65
  13   1   2 1023.63  101.66
  13   1  -2  992.39   95.29
  13  -1   2 1007.37   88.50
 -13  -1  -2  875.67   94.29
 -13  -1  -2  941.26  101.12
  14  -1  -2   83.92   12.37
  14   1   2   66.64   13.91
  14   1  -2   66.53    8.26
  14  -1   2   52.21   10.14
 -14  -1  -2   48.96   10.92
 -14  -1  -2   35.69   10.88
  15  -1  -2  723.23   62.55
  15   1   2  761.97   74.59
  15   1  -2  655.16   60.83
  15  -1   2  632.15   74.46
  16  -1  -2  564.03   46.80
  16   1   2  563.62   76.88
  16   1  -2  579.00   74.58
  16  -1   2  461.97   40.29
  17  -1  -2  126.14   11.96
  17   1   2  131.67   13.75
  17   1  -2  152.06   21.33
  17  -1   2  108.12   11.10
  18  -1  -2  316.66   33.19
  18   1   2  330.15   27.39
  18   1  -2  322.91   37.86
  18  -1   2  258.49   21.50
  19  -1  -2   18.64    8.68
  19   1   2    4.95    5.63
  19   1  -2   19.63    5.75
  19  -1   2    8.58    7.21
  20  -1  -2   24.86    7.82
  20   1   2   34.81    5.76
  20   1  -2   31.61    6.11
  20  -1   2   17.87    3.97
   0   1  -3   91.92    3.77
   0  -1  -3   93.27    6.72
   0   1   3  108.18    6.60
   0   1   3   89.20    5.34
   0  -1  -3   92.38    4.86
   0  -1   3   89.47    5.41
   0   1   3   89.37    5.43
   0  -1  -3   89.27    4.89
   0  -1   3   82.00    5.62
  -1   1  -3  608.92   24.48
   1  -1  -3  622.05   38.80
   1   1   3  584.42   49.57
  -1  -1   3  673.72   58.57
   1   1   3  607.51   51.89
   1  -1  -3  587.02   28.44
  -1  -1   3  636.40   48.08
  -1   1  -3  611.33   40.67
  -1  -1   3  678.46   59.88
   1   1   3  616.91   53.42
   1  -1  -3  591.37   28.32
  -1  -1   3  633.40   48.86
  -1   1  -3  608.66   41.06
   1   1  -3  561.62   26.01
  -1  -1  -3  641.96   54.29
  -1   1   3  588.96   47.37
  -1   1   3  609.89   38.52
  -1  -1  -3  667.52   49.04
   1  -1   3  683.41   40.51
  -1   1   3  619.25   38.92
  -1  -1  -3  636.12   47.82
   1  -1   3  694.33   41.21
  -2   1  -3  262.23    9.02
   2   1   3  282.52   22.35
   2  -1  -3  285.14   15.51
  -2  -1   3  231.50   18.45
   2   1   3  282.38   24.91
   2  -1  -3  265.56    9.17
  -2  -1   3  267.68   17.46
  -2   1  -3  252.26   16.72
  -2  -1   3  232.32   19.08
   2   1   3  280.21   25.29
   2  -1  -3  265.35    9.01
  -2  -1   3  265.87   18.10
  -2   1  -3  269.80   18.16
   2   1  -3  281.33   12.86
  -2  -1  -3  285.76   14.54
   2  -1   3  287.55   10.16
   2   1  -3  272.13   11.91
  -2   1   3  264.28   12.94
  -2   1   3  298.61   13.30
  -2  -1  -3  320.31   15.34
   2  -1   3  285.79   23.08
  -2   1   3  298.37   13.74
  -2  -1  -3  293.72   14.80
   2  -1   3  272.27   23.17
  -3   1  -3 1206.12   79.85
   3   1   3 1204.24   96.64
   3  -1  -3 1220.04   99.03
  -3  -1   3 1217.79  108.99
   3   1   3 1206.10  111.88
   3  -1  -3 1239.09   80.54
  -3  -1   3 1370.79  109.70
  -3   1  -3 1275.28  116.95
  -3  -1   3 1182.02  108.45
   3   1   3 1204.03  112.42
   3  -1  -3 1241.03   80.29
  -3  -1   3 1397.55  112.22
  -3   1  -3 1278.83  119.55
   3   1  -3 1073.51   86.86
  -3  -1  -3 1317.41  103.94
   3  -1   3 1172.75   71.31
   3   1  -3 1079.55   71.05
  -3   1   3 1187.84   93.76
  -3   1   3 1285.31   80.96
  -3  -1  -3 1269.25  128.77
   3  -1   3 1212.71  106.45
  -3   1   3 1288.63   81.58
  -3  -1  -3 1254.49  102.30
   3  -1   3 1207.48  107.97
   4  -1  -3  107.30   10.60
  -4   1  -3  122.95    6.35
   4   1   3  131.92   12.85
   4  -1  -3  130.43   13.12
   4   1   3  113.14   10.51
   4  -1  -3  130.90    3.83
  -4   1  -3  117.90   16.17
  -4  -1   3  137.72    7.50
   4  -1  -3  124.16    3.12
  -4  -1   3  104.56    5.13
   4   1   3  115.97   10.44
   4  -1  -3  131.90    4.82
  -4   1  -3  115.75   16.57
  -4  -1   3  122.95    7.62
   4  -1  -3  132.41    4.30
   4   1  -3  108.82    8.87
  -4  -1  -3  126.90    7.67
   4  -1   3  121.50    4.14
  -4  -1  -3  134.91   13.73
   4  -1   3  114.62    9.61
  -4  -1  -3  149.42   14.12
   4  -1   3  112.56    9.60
   5  -1  -3   23.94    6.13
  -5   1  -3   19.61    3.83
   5   1   3   16.11    7.51
   5  -1  -3   26.76    3.86
  -5  -1   3   24.50    2.46
   5   1   3   24.22    5.86
  -5   1  -3   20.81    5.76
  -5  -1   3   31.35    2.29
  -5  -1   3   21.51    2.49
   5   1   3   23.84    6.07
  -5   1  -3   23.71    5.84
  -5  -1   3   28.22    2.36
   5   1  -3   26.81    3.25
  -5  -1  -3   28.00    4.12
   5  -1   3   25.39    2.28
   5   1  -3   24.89    2.68
  -5  -1  -3   30.38    6.48
   5  -1   3   27.77    9.61
  -5  -1  -3   38.32    5.87
   5  -1   3   32.24    9.56
   6  -1  -3   12.60    3.85
  -6   1  -3   19.96    4.02
   6   1   3   19.95    7.18
   6  -1  -3   19.96    6.59
   6   1   3   28.82    5.80
  -6  -1   3   21.58    2.18
  -6   1  -3   10.59    5.65
  -6  -1   3   21.77    2.93
   6   1   3   29.15    5.80
  -6  -1   3   21.09    3.44
  -6  -1   3   22.02    3.20
   6   1  -3   18.36    3.38
  -6  -1  -3   26.16    6.40
   6  -1   3   26.19    4.29
   6   1  -3   14.28    5.18
  -6  -1  -3   33.19    6.26
   6  -1   3   32.06   12.91
  -6  -1  -3   23.44    6.62
   6  -1   3   32.45   12.69
   7  -1  -3   78.66   10.25
  -7   1  -3   60.86    6.45
   7   1   3   78.01    6.79
   7  -1  -3   65.39    9.89
   7   1   3   75.43   13.31
  -7  -1   3   68.13    4.35
  -7   1  -3   29.88   13.40
  -7  -1   3   77.68    4.03
   7   1   3   85.19   13.65
  -7  -1   3   70.20    4.43
  -7   1  -3   24.63   13.73
  -7  -1   3   76.57    4.50
   7   1  -3   63.70    5.40
  -7  -1  -3   74.40    6.08
   7  -1   3   70.03    4.46
   7   1  -3   80.91    5.05
  -7  -1  -3   96.57   10.16
   7  -1   3   72.31    9.78
  -7  -1  -3   94.82   10.28
   7  -1   3   55.49   10.05
  -8   1  -3   44.97    6.84
   8  -1  -3   59.67    5.63
   8   1   3   57.49   10.64
   8  -1  -3   68.66   10.00
   8   1   3   50.56   12.02
   8   1   3   68.70   12.19
  -8  -1  -3   45.40    9.49
   8   1  -3   52.52    5.26
   8  -1   3   57.95    7.14
   8   1  -3   54.92    4.84
   8  -1   3   41.76    8.38
  -8  -1  -3  102.36   18.10
   8  -1   3   57.34    8.62
  -8  -1  -3   95.02   17.73
  -9   1  -3   -0.26    4.79
   9  -1  -3    9.21    6.82
   9   1   3   -1.39    4.57
   9  -1  -3    0.91    4.44
   9   1   3   10.14    5.23
  -9   1  -3    7.55    5.41
   9   1   3   -1.57    5.13
  -9   1  -3   -5.36    5.53
  -9  -1  -3   -5.56    4.32
   9   1  -3   10.62    5.80
   9  -1   3    0.31    5.48
   9   1  -3    2.72    3.47
   9  -1   3   27.20    9.23
  -9  -1  -3    8.26    9.45
   9  -1   3   12.26    8.42
  -9  -1  -3    5.22    9.35
 -10   1  -3   88.70   11.11
  10  -1  -3  122.38    9.65
  10   1   3   94.83   10.66
  10  -1  -3  133.48   10.64
  10   1   3  148.75   12.27
 -10   1  -3   78.86   19.02
  10   1   3  134.95   19.35
 -10   1  -3   72.28   19.47
  10   1  -3  101.37   12.77
  10  -1   3  117.37   11.70
  10   1  -3  127.43    8.58
  10  -1   3   81.66   10.58
 -10  -1  -3  150.97   20.28
 -10  -1  -3  141.46   19.25
 -11   1  -3   86.77   11.44
  11  -1  -3   98.42    9.13
  11   1   3  106.45   10.38
 -11   1  -3   94.53   12.60
 -11   1  -3   88.60   12.91
  11   1  -3   88.99   12.97
  11  -1   3  101.02   11.51
 -11  -1  -3  124.14   17.80
 -11  -1  -3  133.05   18.25
  12  -1  -3  119.15   15.74
  12   1   3   91.73   17.72
 -12   1  -3   90.32   19.85
 -12   1  -3   91.95   21.56
  12   1  -3  104.52   14.73
  12  -1   3  100.95    7.94
 -12  -1  -3   85.81   15.87
 -12  -1  -3  110.08   15.97
  13  -1  -3    6.45    8.53
  13   1   3   16.06    8.95
 -13   1  -3   -4.69   11.75
 -13   1  -3    4.76   12.85
  13   1  -3   -9.72    5.01
  13  -1   3    1.90    6.53
 -13  -1  -3    3.56    7.57
 -13  -1  -3    8.00    7.48
  14  -1  -3   31.19    9.44
  14   1   3   19.27    6.91
  14   1  -3   14.54    6.37
  14  -1   3   22.58    5.21
 -14  -1  -3   20.11    5.42
 -14  -1  -3   14.12    5.47
  15  -1  -3  545.68   43.41
  15   1   3  535.47   68.85
  15   1  -3  494.98   43.11
  15  -1   3  413.94   50.04
  16  -1  -3   23.60    6.39
  16   1   3   28.56    7.52
  16   1  -3   18.75    6.20
  16  -1   3   21.04    8.11
 -16  -1  -3   12.19    9.02
  17  -1  -3  505.75   38.36
  17   1   3  500.35   61.98
  17   1  -3  486.26   41.69
  17  -1   3  350.93   32.71
  18  -1  -3   14.57    9.28
  18   1   3   20.47   10.76
  18   1  -3   27.73    6.77
  18  -1   3   17.20    4.73
  19  -1  -3    6.14    4.84
  19   1   3   -0.13    8.15
  19   1  -3  -11.86    8.11
  19  -1   3   -1.77    5.68
  20  -1  -3    2.10    6.35
  20   1   3    3.31    7.43
  20   1  -3   13.04    7.66
   0   1  -4   -2.20    1.45
   0  -1  -4   -7.64    6.28
   0   1   4    2.73    3.13
   0  -1   4    4.92    2.40
   0   1   4   -1.18    4.41
   0  -1  -4   -2.15    3.38
   0  -1   4    4.26    5.02
   0   1  -4    2.43    3.62
   0   1   4   -0.34    4.45
   0  -1  -4    2.34    3.53
   0  -1   4   -4.42    3.04
   0   1  -4   -2.71    3.71
  -1   1  -4 3055.95  424.05
   1  -1  -4 3194.68  502.93
   1   1   4 3006.25  466.54
  -1  -1   4 3233.75  591.39
   1   1   4 3333.49  571.52
   1  -1  -4 3386.48  562.91
  -1  -1   4 3023.76  447.99
  -1   1  -4 3087.69  567.62
  -1  -1   4 3270.59  600.30
   1   1   4 3387.08  581.49
   1  -1  -4 3475.75  579.55
  -1  -1   4 2963.30  443.91
  -1   1  -4 3122.39  576.33
   1   1  -4 2809.71  402.23
  -1  -1  -4 3232.74  568.47
   1   1  -4 2926.64  419.56
  -1   1   4 3191.13  493.95
   1  -1   4 3208.82  437.70
  -1   1   4 3066.27  459.86
  -1  -1  -4 3318.35  531.37
   1  -1   4 3107.42  566.81
  -1   1   4 3105.15  464.98
  -1  -1  -4 3411.99  544.37
   1  -1   4 3058.08  565.87
  -2   1  -4 1154.63   73.49
   2  -1  -4 1134.06   96.20
   2   1   4 1106.98  111.94
  -2  -1   4 1133.41  108.78
   2   1   4 1135.80  101.47
   2  -1  -4 1151.18   86.80
  -2  -1   4 1191.75   83.94
  -2   1  -4 1067.15  125.45
  -2  -1   4 1115.11  110.46
   2   1   4 1147.15  102.27
   2  -1  -4 1163.90   86.37
  -2  -1   4 1225.13   86.97
  -2   1  -4 1151.65  137.13
   2   1  -4 1016.18   76.67
  -2  -1  -4 1123.71  116.67
   2   1  -4 1028.63   75.79
   2  -1   4 1270.80   80.86
  -2   1   4 1037.37   82.81
  -2   1   4 1105.13   77.44
  -2  -1  -4 1240.16  106.91
   2  -1   4 1151.81  134.07
  -2   1   4 1103.26   77.64
  -2  -1  -4 1267.83  108.98
   2  -1   4 1159.29  136.03
  -3   1  -4 1675.88  133.30
   3   1   4 1728.75  169.52
   3  -1  -4 1685.46  207.70
  -3  -1   4 1610.64  168.57
   3   1   4 1217.93  218.74
   3  -1  -4 1681.13  157.66
  -3  -1   4 1564.17  152.34
  -3   1  -4 1678.45  193.93
  -3  -1   4 1586.41  178.79
   3   1   4 1265.42  221.37
   3  -1  -4 1709.87  159.82
  -3  -1   4 1611.20  155.89
  -3   1  -4 1714.94  199.61
   3   1  -4 1567.55  152.94
  -3  -1  -4 1860.44  220.19
   3  -1   4 1947.02  164.04
   3   1  -4 1600.88  149.85
  -3   1   4 1681.03  164.82
  -3   1   4 1739.59  138.13
  -3  -1  -4 1831.09  246.69
   3  -1   4 1906.66  261.65
  -3   1   4 1744.40  138.50
  -3  -1  -4 1874.07  252.05
   3  -1   4 1899.72  266.93
  -4   1  -4  534.69   26.91
   4   1   4  555.59   47.31
   4  -1  -4  555.95   46.54
  -4  -1   4  466.05   29.15
  -4  -1   4  535.92   21.77
  -4   1  -4  518.87   57.06
  -4  -1   4  455.30   29.95
  -4  -1   4  532.20   22.42
  -4   1  -4  508.66   57.79
   4   1  -4  452.40   23.19
  -4  -1  -4  538.36   42.11
   4  -1   4  542.52   22.34
  -4  -1  -4  663.58   63.09
   4  -1   4  531.98   64.60
  -4  -1  -4  661.38   63.53
   4  -1   4  520.32   62.62
   5  -1  -4  618.28   52.42
  -5   1  -4  524.88   28.23
   5   1   4  689.66   57.78
   5  -1  -4  623.66   39.63
  -5  -1   4  562.39   33.69
   5   1   4  405.90   66.05
  -5  -1   4  573.95   28.99
  -5  -1   4  580.58   34.38
   5   1   4  381.17   66.15
  -5  -1   4  519.31   28.76
   5   1  -4  584.51   40.68
  -5  -1  -4  695.38   40.10
   5  -1   4  652.17   30.10
   5   1  -4  562.61   34.66
  -5  -1  -4  670.27   52.41
   5  -1   4  892.89  100.75
  -5  -1  -4  676.38   53.45
   5  -1   4  871.92  100.70
   6  -1  -4    2.83    3.69
  -6   1  -4    2.27    3.52
   6   1   4    1.98    6.88
   6  -1  -4   -7.18    6.91
  -6  -1   4    4.08    1.57
   6   1   4   -4.82    8.84
  -6  -1   4    0.54    1.93
  -6   1  -4    0.90    5.39
  -6  -1   4    2.21    1.62
   6   1   4    1.17    8.94
  -6  -1   4    1.35    1.99
  -6   1  -4   -0.60    5.54
   6   1  -4   10.16    4.78
  -6  -1  -4    8.95    6.16
   6  -1   4    1.60    3.85
   6   1  -4   -1.28    4.06
   6  -1   4   -7.27   10.37
  -6  -1  -4  -13.05   11.38
   6  -1   4    7.26   10.57
  -6  -1  -4   -4.66   11.34
   7  -1  -4   29.03    7.53
  -7   1  -4   31.43    3.25
   7   1   4   32.24    5.40
   7  -1  -4   25.01    8.68
   7   1   4   32.15    6.85
  -7   1  -4   10.23   11.11
   7   1   4   26.39    6.71
  -7   1  -4   20.88   11.19
   7   1  -4   29.07    6.20
  -7  -1  -4   27.42    4.74
   7  -1   4   26.07    5.32
   7   1  -4   20.72    3.04
   7  -1   4   21.10   11.81
  -7  -1  -4   52.97   14.39
   7  -1   4   23.02   12.59
  -7  -1  -4   43.36   14.47
   8  -1  -4    9.86    4.54
  -8   1  -4    5.42    4.79
   8   1   4    7.01    7.80
   8  -1  -4    2.58    4.18
   8   1   4   12.70    6.09
  -8   1  -4    0.29    6.19
   8   1   4   22.89    6.00
  -8   1  -4    5.40    6.25
   8   1  -4   11.47    5.78
  -8  -1  -4   13.16    7.54
   8  -1   4    4.16    3.34
   8   1  -4   11.87    5.10
   8  -1   4    8.62    6.66
  -8  -1  -4    4.69    6.23
   8  -1   4    3.57    5.98
  -8  -1  -4    4.52    6.14
  -9   1  -4  997.77  109.58
   9  -1  -4 1075.85  127.64
   9   1   4 1130.79  138.66
   9  -1  -4 1141.27   99.34
   9   1   4 1274.53  166.98
  -9   1  -4  860.43  119.81
   9   1   4 1309.85  169.47
  -9   1  -4  832.80  122.09
   9   1  -4  933.71  111.97
   9  -1   4 1199.83  123.82
   9   1  -4 1014.02  103.49
   9  -1   4 1064.27  115.78
  -9  -1  -4 1353.58  133.46
   9  -1   4 1005.46  114.82
  -9  -1  -4 1330.38  132.32
 -10   1  -4  327.02   32.66
  10  -1  -4  396.35   27.82
  10   1   4  390.61   29.88
 -10   1  -4  340.89   52.55
 -10   1  -4  363.87   53.58
  10   1  -4  336.08   34.48
  10  -1   4  343.37   32.29
 -10  -1  -4  417.75   47.90
 -10  -1  -4  435.33   47.93
  11  -1  -4 1190.57  112.36
  11   1   4 1051.04  111.38
 -11   1  -4  986.74  139.73
 -11   1  -4  891.31  139.09
  11   1  -4  930.17  122.07
  11  -1   4 1009.85  116.66
 -11  -1  -4 1325.10  170.07
 -11  -1  -4 1384.90  175.84
  12  -1  -4  514.57   57.24
  12   1   4  479.09   62.45
 -12   1  -4  472.86   76.08
 -12   1  -4  433.00   76.11
  12   1  -4  453.55   50.59
  12  -1   4  442.11   47.01
 -12  -1  -4  510.49   64.67
 -12  -1  -4  586.70   65.44
  13  -1  -4  910.39  104.94
  13   1   4  885.62  113.49
 -13   1  -4  608.36   90.79
 -13   1  -4  675.99   98.14
  13   1  -4  827.63   99.16
  13  -1   4  756.50   65.65
 -13  -1  -4  846.89  109.54
 -13  -1  -4  884.50  112.61
  14  -1  -4   -0.59    5.46
  14   1   4    6.80    6.35
 -14   1  -4   -4.33    6.19
 -14   1  -4    0.19    6.24
  14   1  -4    2.18    8.60
  14  -1   4   -2.66    6.98
 -14  -1  -4   15.22    8.90
 -14  -1  -4    4.15    8.21
 -14  -1  -4    1.12    9.04
  15  -1  -4  611.60   42.38
  15   1   4  630.92   48.91
 -15   1  -4  358.83   49.61
 -15   1  -4  365.34   50.08
  15   1  -4  624.98   61.47
  15  -1   4  454.57   36.51
 -15  -1  -4  341.35   55.51
 -15  -1  -4  362.96   55.42
  16  -1  -4  218.63   17.59
  16   1   4  239.02   30.79
  16   1  -4  203.99   26.01
  16  -1   4  136.70   21.27
  17  -1  -4  140.31   16.93
  17   1   4  139.67   12.79
  17   1  -4  135.93   16.99
 -17  -1  -4   67.35   13.99
 -17  -1  -4   67.28   14.70
  18  -1  -4   69.43    8.20
  18   1   4   75.10    9.59
  18   1  -4   81.59   15.14
  19  -1  -4   18.40    6.99
  19   1   4   10.23    5.34
  19   1  -4   12.15    5.23
  20  -1  -4    5.65    3.93
  20   1   4    8.18    4.05
  20   1  -4   10.05    6.86
   0   1  -5   90.91    3.77
   0   1   5   91.70    6.78
   0  -1   5   84.66    5.79
   0   1   5  115.86    9.50
   0  -1  -5   78.45    6.89
   0  -1   5   76.39   10.02
   0   1  -5  101.63    7.14
   0   1   5  114.88    9.51
   0  -1  -5   84.01    6.77
   0  -1   5   63.06   10.27
   0   1  -5   98.16    7.35
  -1   1  -5    8.71    3.05
   1  -1  -5   14.61    4.29
   1   1   5   -3.34    6.61
  -1  -1   5    6.65    5.35
   1   1   5    9.57    6.43
   1  -1  -5   13.85    4.80
  -1  -1   5    5.26    5.11
  -1   1  -5   18.86    6.79
  -1  -1   5   15.41    5.44
   1   1   5   13.29    6.48
   1  -1  -5    3.59    4.96
  -1  -1   5    6.81    5.12
  -1   1  -5    3.83    6.87
   1   1  -5    6.32    3.25
  -1  -1  -5   11.38    4.29
   1   1  -5    9.58    3.21
  -1   1   5    4.13    5.46
   1  -1   5   13.34    3.11
  -1   1   5    3.54    3.43
  -1  -1  -5   18.22    6.41
   1  -1   5    6.53    4.62
  -1   1   5    2.04    3.50
  -1  -1  -5   12.34    6.31
   1  -1   5   14.18    4.59
  -2   1  -5   59.49    4.07
   2  -1  -5   63.81    9.35
   2   1   5   56.87    5.22
  -2  -1   5   40.95    4.39
   2   1   5   50.23    6.31
  -2   1  -5   56.77    6.02
  -2  -1   5   44.30    4.51
   2   1   5   55.72    6.38
  -2  -1   5   35.96    5.82
  -2   1  -5   57.94    6.52
   2   1  -5   50.38    4.89
  -2  -1  -5   68.85    8.84
   2   1  -5   50.68    4.77
   2  -1   5   65.37    5.11
  -2   1   5   47.79    7.88
  -2   1   5   43.00    3.97
  -2  -1  -5   67.81   12.66
   2  -1   5   54.75   11.91
  -2   1   5   44.56    4.04
  -2  -1  -5   63.67   12.52
   2  -1   5   44.60   11.49
  -3   1  -5   14.40    3.45
   3  -1  -5   13.55    4.44
   3   1   5    7.01    6.30
  -3  -1   5   12.66    4.01
   3   1   5   12.03    8.54
  -3  -1   5   10.52    2.47
  -3   1  -5    8.35    5.28
  -3  -1   5   10.78    4.16
   3   1   5    2.16    8.85
  -3  -1   5    9.84    2.46
   3  -1  -5   13.26    2.41
  -3   1  -5   23.76    5.46
   3   1  -5   20.00    3.83
  -3  -1  -5   29.66    7.13
   3   1  -5   16.00    3.73
   3  -1   5   15.98    2.16
  -3   1   5   12.54    3.92
  -3   1   5    8.33    2.15
   3  -1   5   25.06    9.65
  -3  -1  -5   22.63    7.85
  -3   1   5   11.47    2.25
   3  -1   5   19.44    9.39
  -3  -1  -5    1.29    7.68
  -4   1  -5    3.55    2.19
   4  -1  -5   10.66    4.27
   4   1   5   15.20    6.31
  -4  -1   5    6.02    2.15
   4   1   5    7.63    8.75
  -4  -1   5   10.30    2.10
  -4   1  -5   18.09    8.99
  -4  -1   5    6.41    2.13
   4   1   5    7.65    8.99
  -4  -1   5    6.22    2.11
  -4   1  -5   11.85    9.26
   4   1  -5    5.13    2.75
  -4  -1  -5    6.49    3.69
   4  -1   5    8.17    2.26
   4  -1   5    1.13    8.05
  -4  -1  -5   10.49    4.95
   4  -1   5    0.75    8.09
  -4  -1  -5   17.21    4.85
   5  -1  -5  643.81   42.25
  -5   1  -5  504.47   44.88
   5   1   5  659.45   59.94
   5  -1  -5  615.04   43.70
  -5   1  -5  524.35   73.28
  -5   1  -5  520.11   75.65
   5   1  -5  579.66   43.28
  -5  -1  -5  671.19   58.87
   5  -1   5  690.79   42.77
   5   1  -5  558.04   38.89
   5  -1   5  672.44   67.09
  -5  -1  -5  659.94   53.13
   5  -1   5  642.57   67.71
  -5  -1  -5  625.73   50.79
   6  -1  -5   19.92    4.52
  -6   1  -5   13.24    4.66
   6   1   5    7.86    5.08
   6  -1  -5    5.64    4.77
   6   1   5   10.66   10.33
  -6   1  -5   17.87    6.44
   6   1   5   23.70   10.44
  -6   1  -5   11.33    6.47
   6   1  -5   14.80    5.61
  -6  -1  -5   25.00    4.60
   6  -1   5   17.67    2.90
   6   1  -5   17.73    4.84
   6  -1   5   24.56    7.46
  -6  -1  -5    2.11    9.57
   6  -1   5   12.52    7.82
  -6  -1  -5   14.29    9.49
   7  -1  -5 1875.31  221.85
  -7   1  -5 1626.35  224.84
   7   1   5 2125.13  249.81
   7  -1  -5 2120.18  303.15
   7   1   5 1895.64  274.29
  -7   1  -5 1578.58  254.38
   7   1   5 1900.36  278.72
  -7   1  -5 1535.53  259.14
   7   1  -5 1827.16  244.46
  -7  -1  -5 2319.78  304.54
   7  -1   5 1965.48  219.21
   7   1  -5 1629.92  177.60
   7  -1   5 2443.38  425.94
  -7  -1  -5 2165.62  284.34
   7  -1   5 2073.56  376.31
  -7  -1  -5 2167.11  286.53
   8  -1  -5   62.03   10.99
  -8   1  -5   51.78    8.31
   8   1   5   75.62   11.93
  -8   1  -5   45.37    9.29
  -8   1  -5   45.56    9.36
   8   1  -5   57.42    5.63
   8  -1   5   56.22    8.28
   8   1  -5   50.55    7.69
  -8  -1  -5   44.54   12.62
  -8  -1  -5   54.47   12.74
  -9   1  -5  169.35   18.85
   9  -1  -5  205.20   14.40
   9   1   5  211.69   24.25
  -9   1  -5  138.10   28.81
  -9   1  -5  142.00   29.96
   9   1  -5  181.41   12.64
   9  -1   5  208.49   17.91
  10  -1  -5   43.60   11.10
  10   1   5   47.08    7.82
 -10   1  -5   46.02   14.59
 -10   1  -5   50.43   15.23
  10   1  -5   38.93    6.24
  10  -1   5   44.28    8.68
 -10  -1  -5   33.97    7.97
 -10  -1  -5   51.23    7.87
  11  -1  -5  154.28   20.61
  11   1   5  144.27   14.01
 -11   1  -5  120.04   16.46
 -11   1  -5  116.67   16.83
  11   1  -5  132.21   11.15
 -11  -1  -5  160.47   20.53
 -11  -1  -5  150.15   20.72
  12  -1  -5    6.88    5.61
  12   1   5   -4.90    6.32
 -12   1  -5    0.65   10.08
 -12   1  -5   -1.69   11.07
  12   1  -5    7.63    4.74
 -12  -1  -5   -1.34    9.29
 -12  -1  -5   -7.69    9.46
  13  -1  -5   93.40    9.92
  13   1   5   69.84   16.51
 -13   1  -5   43.59   15.50
 -13   1  -5   53.12   16.88
  13   1  -5   71.38    8.78
 -13  -1  -5   73.11   15.03
 -13  -1  -5   73.97   15.08
  14  -1  -5   41.28   11.97
  14   1   5   61.37   13.31
 -14   1  -5   32.77    7.33
 -14   1  -5   24.41    7.39
  14   1  -5   42.64    6.99
 -14  -1  -5   33.05   12.71
 -14  -1  -5   27.87   12.99
  15  -1  -5   16.75    9.61
  15   1   5   13.64    7.09
 -15   1  -5    7.41    5.52
 -15   1  -5    8.99    5.80
  15   1  -5   16.30    6.11
 -15  -1  -5   12.08    8.79
 -15  -1  -5   16.08    8.96
  16  -1  -5   44.73    7.02
  16   1   5   41.88   12.75
  16   1  -5   33.04    6.86
 -16  -1  -5   31.14    9.65
 -16  -1  -5   19.15   10.24
  17  -1  -5   18.50    5.52
  17   1   5   13.16    6.44
  17   1  -5   24.48    8.79
 -17  -1  -5   10.73    4.81
 -17  -1  -5    7.24    4.99
  18  -1  -5   18.40    7.60
  18   1   5    5.19    7.99
  18   1  -5   13.05    8.81
 -18  -1  -5    6.44    3.90
 -18  -1  -5    2.26    4.03
  19  -1  -5  106.52    7.99
  19   1   5  109.13   13.48
  19   1  -5  112.65    8.95
   0   1  -6   19.40    2.36
   0  -1  -6   28.26    7.78
   0   1   6   21.29    4.64
   0   1   6   24.03    7.44
   0  -1   6    9.98   10.37
   0  -1  -6   15.60    5.39
   0   1   6   29.79    7.63
   0  -1   6   18.42   10.29
   0  -1  -6   15.26    5.62
  -1   1  -6  428.17   24.64
   1  -1  -6  460.11   30.25
   1   1   6  417.60   26.43
  -1  -1   6  428.72   43.75
   1   1   6  567.07   44.51
  -1  -1   6  350.13   38.31
  -1   1  -6  464.50   31.92
  -1  -1   6  421.04   44.39
   1   1   6  592.72   46.00
  -1  -1   6  310.64   36.07
  -1   1  -6  456.07   32.06
   1   1  -6  409.48   19.71
  -1  -1  -6  451.07   41.09
   1   1  -6  387.77   18.56
  -1   1   6  403.71   36.86
   1  -1   6  447.55   27.92
   1  -1   6  446.92   43.55
   1  -1   6  455.50   44.19
  -1  -1  -6  433.93   29.35
  -2   1  -6    8.52    3.13
   2  -1  -6    1.43    7.12
   2   1   6    6.08    5.66
  -2  -1   6    2.86    5.07
   2   1   6    2.50    4.71
  -2  -1   6    2.49    3.52
  -2   1  -6    0.89    7.23
  -2  -1   6    6.06    5.20
   2   1   6    6.70    4.76
  -2  -1   6    5.58    5.54
  -2   1  -6    4.23    7.94
   2   1  -6   10.77    4.02
  -2  -1  -6    5.70    4.14
   2   1  -6    6.50    2.39
   2  -1   6    6.52    3.80
  -2   1   6    2.86    4.14
   2  -1   6   18.40   11.26
  -2  -1  -6    4.11    3.76
   2  -1   6   -7.56   11.41
  -2  -1  -6   -1.54    3.87
  -3   1  -6    6.83    3.58
   3  -1  -6   13.81    7.44
   3   1   6    1.58    6.56
  -3  -1   6    7.76    4.03
   3   1   6   15.44    5.22
  -3  -1   6    6.80    5.15
  -3   1  -6    5.90    7.94
  -3  -1   6    2.35    4.11
   3   1   6    8.39    5.36
  -3  -1   6    1.52    4.98
  -3   1  -6   14.18    8.80
   3   1  -6    7.26    2.67
  -3  -1  -6    4.61    7.61
   3   1  -6    9.17    4.13
   3  -1   6    7.18    2.83
  -3   1   6    3.42    6.78
   3  -1   6    4.64    6.90
  -3  -1  -6   11.52    6.63
   3  -1   6    5.82    6.99
  -3  -1  -6   16.30    6.66
   4  -1  -6  896.19   79.26
  -4   1  -6 1129.26   89.34
   4  -1  -6 1101.36  131.13
   4   1   6 1028.56  112.97
   4   1   6  970.54  143.92
  -4   1  -6 1074.70  112.11
   4   1   6  979.13  146.02
  -4   1  -6 1069.87  116.79
   4   1  -6  991.46   94.31
  -4  -1  -6 1082.61   87.86
   4   1  -6  940.11   86.21
   4  -1   6 1263.18   95.66
   4  -1   6 1142.60  176.11
  -4  -1  -6 1054.33  101.06
   4  -1   6 1099.29  179.67
  -4  -1  -6 1062.41  103.47
   5  -1  -6   -0.94    7.09
  -5   1  -6    2.53    4.43
   5  -1  -6   11.58    8.68
   5   1   6   19.40    7.26
   5   1   6   19.27   10.18
  -5   1  -6   10.90    6.21
   5   1   6   16.45   10.45
  -5   1  -6   12.36    6.22
   5   1  -6    2.91    3.12
  -5  -1  -6    4.49    7.47
   5   1  -6   10.92    4.32
   5  -1   6   24.84   12.18
  -5  -1  -6    1.77    4.62
   5  -1   6   10.14    7.77
  -5  -1  -6    2.31    4.85
   6  -1  -6 2966.62  560.02
   6   1   6 3186.71  511.14
  -6   1  -6 3013.55  679.91
  -6   1  -6 2968.27  696.57
   6   1  -6 2813.50  449.76
   6   1  -6 2617.18  438.73
  -6  -1  -6 3103.70  547.05
  -6  -1  -6 3127.19  554.10
   7  -1  -6   26.77    5.38
   7   1   6   23.01    5.95
  -7   1  -6   28.87   12.31
  -7   1  -6   16.32   12.64
   7   1  -6   20.73    7.25
   7   1  -6   21.77    5.66
  -7  -1  -6   25.58    9.15
  -7  -1  -6   22.07    9.51
   8  -1  -6 2154.45  371.11
   8   1   6 2466.08  413.12
  -8   1  -6 2130.52  465.12
  -8   1  -6 2104.35  472.89
   8   1  -6 2121.11  353.19
  -8  -1  -6 2318.16  364.12
  -8  -1  -6 2418.09  369.79
   9  -1  -6   48.98   11.15
   9   1   6   62.37   12.53
  -9   1  -6   43.94    9.46
  -9   1  -6   33.53    9.74
   9   1  -6   48.02    9.67
  -9  -1  -6   37.60   11.59
  -9  -1  -6   44.62   11.75
  10  -1  -6  319.48   24.19
  10   1   6  319.52   27.31
 -10   1  -6  260.43   30.37
 -10   1  -6  270.85   31.25
  10   1  -6  283.33   32.35
 -10  -1  -6  279.71   26.05
 -10  -1  -6  303.37   26.34
  11  -1  -6   35.10    7.48
  11   1   6   35.15    7.83
 -11   1  -6   22.20   12.71
 -11   1  -6   24.98   14.06
  11   1  -6   29.01    9.59
 -11  -1  -6   32.69    7.16
 -11  -1  -6   31.49    7.15
  12  -1  -6   37.45   11.16
  12   1   6   26.61    7.52
 -12   1  -6   23.37    7.23
 -12   1  -6   24.10    8.03
  12   1  -6    8.68    9.36
 -12  -1  -6   24.90   11.81
 -12  -1  -6   20.18   12.30
  13  -1  -6  185.15   25.16
  13   1   6  187.88   17.84
 -13   1  -6  128.81   26.62
 -13   1  -6  127.87   27.19
  13   1  -6  174.71   22.83
 -13  -1  -6  177.76   27.83
 -13  -1  -6  128.65   28.44
  14  -1  -6   37.72    7.35
  14   1   6   32.64   12.53
 -14   1  -6   13.47   11.33
 -14   1  -6   16.71   11.76
  14   1  -6   23.60   10.59
 -14  -1  -6   25.87   10.92
 -14  -1  -6   29.75   10.82
  15  -1  -6   73.48   14.37
  15   1   6   87.94   10.15
 -15   1  -6   49.91    9.12
  15   1  -6   89.69    9.29
 -15  -1  -6   55.24   15.85
 -15  -1  -6   57.34   15.89
  16  -1  -6    3.27    8.66
  16   1   6   14.06    9.67
  16   1  -6    7.20    5.45
 -16  -1  -6    5.81    7.78
 -16  -1  -6    2.21    8.14
  17  -1  -6   24.62    5.06
  17   1   6   13.84    5.47
  17   1  -6   10.42    8.07
 -17  -1  -6    4.54    5.08
 -17  -1  -6    9.80    5.25
  18  -1  -6  268.55   27.13
  18   1   6  244.26   25.48
  18   1  -6  283.08   19.45
   0  -1   7  357.47   23.24
   0  -1   7  329.97   34.85
   0  -1  -7  209.55   24.41
   0  -1   7  283.55   21.81
   0  -1   7  285.46   35.05
   1   1   7  325.71   20.23
  -1  -1   7  238.54   30.66
  -1  -1   7  199.72   29.45
  -1   1  -7  316.13   23.04
  -1  -1   7  227.18   31.78
  -1   1  -7  319.48   24.00
   1   1  -7  300.04   19.27
   1   1  -7  280.92   18.05
  -1   1   7  316.31   29.31
   1  -1   7  256.11   24.52
   1  -1   7  232.13   24.80
   2   1   7  304.77   20.47
   2   1   7  369.71   38.58
  -2   1  -7  312.33   25.46
   2   1   7  362.68   27.66
  -2   1  -7  303.95   26.06
   2   1  -7  318.97   16.25
   2   1  -7  280.35   14.33
  -2   1   7  315.52   21.77
   2  -1   7  304.88   41.78
   2  -1   7  282.43   43.50
   3   1   7  724.25   53.95
   3   1   7  966.36  106.85
  -3   1  -7  775.59   94.19
   3   1   7  973.79  108.71
  -3   1  -7  807.38  103.33
   3   1  -7  711.78   61.67
   3   1  -7  703.62   58.47
  -3   1   7  751.56   60.54
  -3  -1  -7  712.32   60.61
  -3  -1  -7  722.93   62.48
   4  -1  -7    3.19    6.93
   4   1   7   16.25    4.95
  -4   1  -7   13.12    5.74
  -4   1  -7   10.95    6.30
   4   1  -7    8.16    5.89
   4   1  -7    7.15    3.10
  -4  -1  -7    3.90    4.22
  -4  -1  -7    7.94    4.35
   5  -1  -7  146.20   17.03
   5   1   7  167.89   17.69
  -5   1  -7  121.63   21.28
  -5   1  -7  125.76   23.69
   5   1  -7  146.99    8.93
   5   1  -7  136.83    7.88
  -5  -1  -7  135.78   11.45
  -5  -1  -7  126.45   11.67
   6  -1  -7  117.96   10.33
   6   1   7  138.81   15.70
  -6   1  -7  105.54   19.63
  -6   1  -7   94.03   20.85
   6   1  -7  112.11    8.31
  -6  -1  -7   93.15    9.77
  -6  -1  -7   86.85    9.75
   7  -1  -7   12.35    8.82
   7   1   7   21.36    5.54
  -7   1  -7   25.19   11.30
  -7   1  -7   11.83   11.51
   7   1  -7   15.25    7.51
  -7  -1  -7   15.07    5.41
  -7  -1  -7    4.20    5.30
   8  -1  -7    7.81    9.45
   8   1   7   12.24    8.84
  -8   1  -7    6.46   11.08
  -8   1  -7   17.36   11.19
   8   1  -7    3.72    7.73
  -8  -1  -7   10.04    8.20
  -8  -1  -7    3.74    8.28
   9  -1  -7  142.63   12.55
   9   1   7  157.71   20.51
  -9   1  -7  117.74   22.30
  -9   1  -7  111.05   24.96
   9   1  -7  143.14   17.06
  -9  -1  -7  112.16   12.52
  -9  -1  -7  122.86   12.68
  10  -1  -7   81.65    9.30
  10   1   7   84.67    9.43
 -10   1  -7   46.30   10.31
 -10   1  -7   39.66   11.35
  10   1  -7   77.49   12.94
 -10  -1  -7   61.89   15.06
 -10  -1  -7   50.69   15.59
  11  -1  -7  453.51   36.86
  11   1   7  456.48   37.72
 -11   1  -7  307.85   38.23
 -11   1  -7  312.65   41.48
  11   1  -7  380.26   46.00
 -11  -1  -7  429.89   40.90
 -11  -1  -7  449.45   43.07
  12  -1  -7  306.68   32.45
  12   1   7  260.63   21.72
 -12   1  -7  180.80   34.57
 -12   1  -7  168.31   35.25
  12   1  -7  237.42   27.38
 -12  -1  -7  201.78   20.41
 -12  -1  -7  185.73   20.80
  13  -1  -7  143.18   18.59
  13   1   7  113.30   11.95
 -13   1  -7   82.10   20.11
 -13   1  -7   76.66   20.45
  13   1  -7   98.75   10.77
 -13  -1  -7   81.19   19.69
 -13  -1  -7   84.53   19.91
  14  -1  -7  120.59   11.17
  14   1   7  107.44   17.70
 -14   1  -7   80.53   11.76
 -14   1  -7   75.12   12.30
  14   1  -7  105.46   10.09
 -14  -1  -7   74.76   18.79
 -14  -1  -7   72.58   18.88
  15  -1  -7  131.34   15.66
  15   1   7  112.60   16.51
  15   1  -7  107.86   10.24
 -15  -1  -7   62.03   15.56
 -15  -1  -7   57.85   16.31
  16  -1  -7   14.77    8.69
  16   1   7   21.35    8.89
  16   1  -7   15.43    8.11
 -16  -1  -7    5.95    9.36
 -16  -1  -7   11.50    9.58
  17  -1  -7  176.79   11.90
  17   1   7  183.70   11.38
  17   1  -7  189.03   12.11
 -17  -1  -7  117.77   12.76
 -17  -1  -7  114.33   13.42
   0  -1   8   10.57    5.89
   0  -1   8    5.44    6.16
   1   1   8  796.90   67.20
  -1  -1   8  485.47   62.82
  -1  -1   8  419.86   62.94
  -1   1   8  749.66   69.88
   1  -1   8  642.42   57.92
   1  -1   8  604.67   57.51
   2   1   8  678.90   64.19
  -2   1  -8  708.39   66.02
  -2   1  -8  688.92   67.31
  -2   1   8  672.97   51.66
  -2  -1  -8  456.52   70.39
  -2  -1  -8  538.18   74.61
   3  -1  -8  150.55   10.45
   3   1   8  161.96   17.46
  -3   1  -8  158.29   20.94
  -3   1  -8  158.22   21.34
  -3  -1  -8   98.39   10.97
  -3  -1  -8   93.48   11.67
   4  -1  -8 1160.53  115.01
   4   1   8 1158.02  106.09
  -4   1  -8 1086.93  131.77
  -4   1  -8 1051.60  132.96
  -4  -1  -8 1018.93  120.06
  -4  -1  -8 1055.43  120.41
   5  -1  -8   15.02    8.58
   5   1   8   14.79    4.97
  -5   1  -8   21.72   10.58
  -5   1  -8   13.35   10.56
  -5  -1  -8    8.42    5.19
  -5  -1  -8    5.97    5.52
   6  -1  -8  195.11   22.14
   6   1   8  189.17   19.21
  -6   1  -8  139.03   23.88
  -6   1  -8  145.38   25.96
  -6  -1  -8  131.52   14.31
  -6  -1  -8  137.70   14.41
   7  -1  -8   19.32    9.49
   7   1   8    9.99    6.06
  -7   1  -8    3.74   10.31
  -7   1  -8    9.52   11.14
   7   1  -8    7.55    7.98
  -7  -1  -8    6.71    5.53
  -7  -1  -8    9.41    5.87
   8  -1  -8  122.87   12.10
   8   1   8  134.86   18.27
  -8   1  -8   82.93   18.86
  -8   1  -8   88.34   20.45
   8   1  -8   95.73   15.10
  -8  -1  -8   81.03   17.15
  -8  -1  -8   65.56   18.03
   9  -1  -8   -0.72    5.77
   9   1   8   -0.31    9.45
  -9   1  -8   15.03   10.24
  -9   1  -8   -5.47   10.78
   9   1  -8    2.53    8.20
  -9  -1  -8   -5.78    7.99
  -9  -1  -8   14.06    8.25
  10  -1  -8  459.18   53.29
  10   1   8  527.09   38.36
 -10   1  -8  373.59   40.61
 -10   1  -8  368.30   41.05
  10   1  -8  406.35   34.46
 -10  -1  -8  379.77   35.96
 -10  -1  -8  321.75   35.29
  11  -1  -8  113.77   17.55
  11   1   8   99.13   10.94
 -11   1  -8   82.67   11.90
 -11   1  -8   67.43   12.08
  11   1  -8   85.05    9.40
 -11  -1  -8   84.25   17.09
 -11  -1  -8   71.20   17.49
  12  -1  -8  117.50   18.49
  12   1   8  122.66   11.79
 -12   1  -8  104.92   20.34
 -12   1  -8   90.59   20.74
  12   1  -8   94.99   10.11
 -12  -1  -8   82.10   12.44
 -12  -1  -8  102.86   12.77
  13  -1  -8  341.59   23.74
  13   1   8  345.98   35.90
 -13   1  -8  246.81   26.34
 -13   1  -8  226.13   27.02
  13   1  -8  272.90   31.86
 -13  -1  -8  227.88   22.46
 -13  -1  -8  228.53   24.73
  14  -1  -8  126.56   16.22
  14   1   8  140.41   17.16
  14   1  -8  110.63   14.48
 -14  -1  -8   67.52   10.79
 -14  -1  -8   74.29   11.29
  15  -1  -8  239.64   23.83
  15   1   8  266.63   18.58
  15   1  -8  193.09   15.24
 -15  -1  -8  174.77   29.08
 -15  -1  -8  162.88   29.46
  16  -1  -8  366.97   21.37
  16   1   8  321.26   26.23
  16   1  -8  296.14   26.32
 -16  -1  -8  251.02   24.85
 -16  -1  -8  234.83   25.42
   0   1   9  271.73   21.16
   1   1   9   81.11    8.86
  -1   1   9   86.69    8.76
   1  -1   9   69.78   17.69
   1  -1   9   59.45   18.17
   2  -1  -9  430.91   30.93
   2   1   9  462.38   32.43
   2  -1   9  362.56   54.80
   2  -1   9  314.97   54.93
  -3  -1  -9   69.93   13.70
  -3  -1  -9   77.96   13.97
   4  -1  -9  484.97   36.09
   4   1   9  463.31   45.65
  -4   1  -9  423.38   45.36
  -4   1  -9  390.13   45.80
   5  -1  -9   13.47    6.10
   5   1   9   15.70    5.98
  -5   1  -9    7.91    6.90
  -5   1  -9   20.99    7.06
  -5  -1  -9    8.89    5.76
  -5  -1  -9    9.98    5.86
   6  -1  -9   21.57    6.18
   6   1   9   26.50    9.58
  -6   1  -9    6.00   11.62
  -6   1  -9    9.83   11.66
  -6  -1  -9   11.52    6.13
  -6  -1  -9   19.06    6.24
   7  -1  -9  149.38   16.55
  -7   1  -9  102.09   17.92
  -7   1  -9  102.70   18.18
  -7  -1  -9   65.12   10.16
  -7  -1  -9   63.59   10.40
   8   1   9  121.84   15.14
  -8   1  -9   65.81   17.35
  -8   1  -9   68.81   17.65
  -8  -1  -9   61.84    9.93
  -8  -1  -9   81.26   10.03
   9  -1  -9   33.84   11.00
   9   1   9   30.45    9.85
  -9   1  -9   17.77   11.75
  -9   1  -9   17.40   11.87
  -9  -1  -9    8.87   10.56
  -9  -1  -9   12.02   10.58
 -10   1  -9  309.98   29.18
 -10   1  -9  293.38   30.07
 -10  -1  -9  298.84   35.17
 -10  -1  -9  272.06   37.28
  11  -1  -9   41.24    6.94
  11   1   9   34.68    6.18
 -11   1  -9   15.53    7.43
 -11   1  -9   22.64    7.57
 -11  -1  -9   13.73    5.99
 -11  -1  -9   10.16    6.34
  12  -1  -9  382.29   34.11
  12   1   9  346.41   32.00
  12   1  -9  217.60   19.97
 -12  -1  -9  223.98   22.93
 -12  -1  -9  247.48   23.74
  13  -1  -9    3.44    8.53
  13   1   9    7.55    7.69
  13   1  -9    7.77    6.63
  13  -1   9    3.54    5.72
 -13  -1  -9    1.54    9.21
  13  -1   9    2.08    5.92
 -13  -1  -9   22.55    9.27
  14   1  -9   46.13    4.77
  14  -1   9   60.48    8.75
 -14  -1  -9   36.70   11.82
  14  -1   9   66.61    9.12
 -14  -1  -9   25.33   12.07
  15  -1  -9  121.27   11.53
  15   1   9  112.26   10.45
  15  -1   9   80.46    8.85
 -15  -1  -9   72.63   13.84
  15  -1   9   74.13    9.01
 -15  -1  -9   76.62   14.35
   1   1  10  415.66   48.62
   2  -1 -10  164.20   12.40
   2   1  10  161.86   19.88
   2  -1  10   93.87   13.48
   2  -1  10   90.80   13.71
   3  -1 -10  403.55   31.57
   3   1  10  442.37   33.37
   3  -1  10  328.97   60.76
   3  -1  10  316.58   61.73
   4  -1 -10    6.99    5.77
   4   1  10   13.59    8.57
   4  -1  10    7.57   11.77
  -4  -1 -10    2.15    8.81
   4  -1  10    9.98   12.20
  -4  -1 -10   15.69    9.20
   5  -1  10  173.08   22.14
  -5  -1 -10  123.01   12.97
   5  -1  10  151.77   21.96
  -5  -1 -10  121.98   13.67
   6  -1 -10   68.23    8.19
   6   1  10   85.64   11.14
   6  -1  10   56.25    8.50
  -6  -1 -10   43.63    7.80
   6  -1  10   39.84    8.88
  -6  -1 -10   39.52    7.95
   7  -1 -10    9.69    9.67
   7   1  10    8.69    4.97
   7  -1  10   -5.26    6.01
  -7  -1 -10    9.19    5.27
   7  -1  10   12.03    5.96
  -7  -1 -10   -2.82    5.62
   8  -1 -10   35.58   10.30
   8   1  10   34.20    8.79
   8  -1  10   25.69    6.70
  -8  -1 -10   12.49    6.13
   8  -1  10   27.45    6.94
  -8  -1 -10   15.46    6.42
   9  -1  10  270.89   22.97
  -9  -1 -10  220.10   32.19
   9  -1  10  271.44   23.30
  -9  -1 -10  229.23   34.01
  10  -1 -10   72.12   11.57
  10   1  10   72.77   11.52
  10  -1  10   29.58    7.11
 -10  -1 -10   17.65   11.57
  10  -1  10   35.09    7.25
 -10  -1 -10   28.15   11.68
  11  -1  10  295.46   39.33
 -11  -1 -10  263.61   23.66
  11  -1  10  289.97   39.86
 -11  -1 -10  256.22   24.28
  12   1  10  167.14   15.50
  12  -1  10  132.17   14.77
 -12  -1 -10  120.38   19.88
  12  -1  10  129.42   15.04
 -12  -1 -10  137.99   20.41
  13  -1 -10  158.00   14.10
  13   1  10  118.78    8.58
  13  -1  10  118.53   17.17
 -13  -1 -10  119.50   16.59
  13  -1  10  119.39   17.53
 -13  -1 -10  118.63   17.33
   0  -1 -11  453.94   36.00
   2  -1 -11  239.46   29.35
   3  -1 -11   15.42    8.68
   3   1  11    5.30    5.37
   4  -1 -11   10.99    8.77
   4   1  11   11.56    8.79
   4  -1  11   14.05    9.92
   4  -1  11   21.37   10.11
   5  -1 -11  336.83   27.50
   5  -1  11  201.93   19.77
   5  -1  11  175.50   19.85
   6  -1 -11    6.67    8.78
   6   1  11   16.91    8.47
   6  -1  11    4.78    5.47
  -6  -1 -11    1.55    9.00
   6  -1  11    1.83    5.70
  -6  -1 -11   12.07    9.23
   7  -1  11  510.04   54.68
  -7  -1 -11  383.19   57.21
   7  -1  11  462.37   56.26
  -7  -1 -11  377.21   58.84
   8  -1 -11   14.78    8.74
   8   1  11   23.06    5.46
   8  -1  11   15.48    8.86
  -8  -1 -11    8.34    9.08
   8  -1  11    6.89    9.21
  -8  -1 -11    3.27    9.15
   9  -1  11   89.20    9.91
  -9  -1 -11   91.87   14.22
   9  -1  11  112.55   15.48
  -9  -1 -11  100.65   15.90
  10  -1 -11    5.44    4.41
  10   1  11   10.53    4.45
  10  -1  11    8.55    4.67
 -10  -1 -11    3.34    4.41
  10  -1  11    5.30    4.84
 -10  -1 -11    4.11    4.75
  11  -1 -11   28.90    6.74
  11   1  11   16.35    6.74
  11  -1  11   17.10    7.44
 -11  -1 -11    9.19    6.81
  11  -1  11    3.41    7.61
 -11  -1 -11    2.90    7.51
   0  -1 -12   83.35    8.80
   1  -1 -12  306.41   31.47
  -1  -1 -12  306.74   21.01
   2  -1 -12   43.98    9.53
  -2  -1 -12   30.89    9.56
   3  -1 -12    2.77    7.04
  -3  -1 -12   -1.26    4.58
   4  -1 -12   44.53    6.62
  -4  -1 -12   60.07   10.43
   5  -1 -12    8.65    4.58
  -5  -1 -12   16.84    4.29
   5  -1  12   14.74    8.23
   5  -1  12    5.11    8.84
   6  -1  12  151.71   16.28
   6  -1  12  140.57   16.63
   7  -1 -12    6.86    4.19
   7  -1  12    8.41    3.83
   7  -1  12    7.71    3.91
   8  -1  12  129.81    9.11
   8  -1  12  126.64    9.02
   0  -1 -13  335.45   30.56
   1  -1 -13  169.73   11.20
  -1  -1 -13  189.40   11.53
   2  -1 -13   54.77    5.42
  -2  -1 -13   59.86    8.44
   3  -1 -13  428.20   33.37
  -3  -1 -13  414.19   23.85
   0  -2   0 9361.96 3360.75
   0   2   0 9999.00 3561.06
   0   2   0 9750.22 4034.43
   0  -2   0 9332.34 3872.51
   0   2   0 9702.59 4027.56
   0  -2   0 9331.54 3888.50
  -1  -2   0    0.94    1.78
   1   2   0    0.57    1.53
   1   2   0   10.02    4.66
   1  -2   0    1.97    3.58
  -1  -2   0    6.85    6.21
   1  -2   0   -4.64    6.31
   1   2   0    4.86    4.80
   1  -2   0    5.55    3.64
  -1  -2   0    9.26    6.35
   1  -2   0    3.76    6.54
   2  -2   0 2839.90  352.08
  -2  -2   0 3515.28  472.43
   2  -2   0 3007.65  381.07
   2   2   0 3093.31  430.46
   2   2   0 3220.95  523.10
   2  -2   0 3024.92  543.64
  -2  -2   0 3096.18  566.40
   2  -2   0 3332.98  508.25
   2   2   0 3242.12  530.56
   2  -2   0 3076.56  556.43
  -2  -2   0 3132.23  574.44
   2  -2   0 3566.26  546.64
   3  -2   0    1.43    1.47
  -3  -2   0    1.61    2.79
   3  -2   0    1.30    1.69
   3   2   0    4.56    2.98
   3   2   0    3.49    4.08
   3  -2   0   -2.21    5.58
  -3  -2   0    6.28    3.72
   3  -2   0    6.88    5.04
   3   2   0    1.01    4.21
   3  -2   0    2.22    5.84
  -3  -2   0   -2.85    3.83
   3  -2   0   11.48    5.31
  -4  -2   0  138.90    9.44
   4  -2   0  140.67    5.22
   4   2   0  124.76    9.01
   4  -2   0  158.27    5.95
   4   2   0  149.79   14.91
   4  -2   0  152.94   13.44
  -4  -2   0  170.92   10.50
   4  -2   0  186.54   11.22
   4   2   0  151.27   15.57
   4  -2   0  159.11    9.20
  -4  -2   0  170.34   10.91
   4  -2   0  184.63   11.90
  -5  -2   0    0.54    3.72
   5  -2   0   -0.12    1.98
   5   2   0    4.78    2.48
   5  -2   0    1.47    2.19
   5   2   0    9.84    3.62
   5  -2   0   -0.68    4.86
  -5  -2   0   -0.46    5.77
   5  -2   0    4.33    4.06
   5   2   0    0.41    3.63
   5  -2   0    2.19    4.91
  -5  -2   0   -0.76    6.00
   5  -2   0   -5.51    4.13
  -6  -2   0   39.89    5.55
   6  -2   0   32.87    3.10
   6   2   0   37.86    4.36
   6  -2   0   31.65    3.75
   6   2   0   53.58    9.58
   6  -2   0   40.84    4.07
  -6  -2   0   41.42    4.76
   6  -2   0   42.57    5.17
   6   2   0   55.16   10.34
   6  -2   0   36.80    3.99
  -6  -2   0   37.81    4.84
   6  -2   0   42.78    5.26
  -7  -2   0    4.97    4.52
   7  -2   0    0.70    2.51
   7   2   0    8.65    5.79
   7  -2   0    0.47    2.93
   7   2   0    3.13    7.52
   7  -2   0    6.85    4.56
  -7  -2   0    1.91    5.85
   7  -2   0    4.54    3.94
   7   2   0    2.31    8.05
   7  -2   0    2.32    4.61
  -7  -2   0    5.84    5.93
   7  -2   0   -2.34    3.65
  -8  -2   0  116.68    7.24
   8   2   0   89.53    8.40
   8  -2   0   81.63    7.60
   8   2   0  123.54   15.21
   8  -2   0  100.07    9.44
  -8  -2   0  118.47   12.99
   8   2   0  122.35   16.38
   8  -2   0   89.39    9.37
  -8  -2   0  106.08   12.41
  -9  -2   0    4.57    3.66
   9   2   0   13.20    7.32
   9   2   0    4.44    8.55
  -9  -2   0    5.70    4.33
   9   2   0   -5.66    9.11
  -9  -2   0    9.33    4.32
  10   2   0  282.74   32.28
 -10  -2   0  284.08   30.58
 -10  -2   0  292.45   31.23
  11   2   0    1.31    5.15
 -11  -2   0    0.57    6.03
 -11  -2   0   -3.08    5.39
  12   2   0 1314.78  140.87
 -12  -2   0  939.20  200.37
 -12  -2   0 1049.81  203.34
  13   2   0    9.58    9.63
  14   2   0 2121.26  356.01
  15   2   0   -0.40    9.81
  16   2   0  367.89   33.11
  17   2   0    9.60    5.91
  18   2   0   -0.99    4.98
  19   2   0    8.59    4.69
   0  -2  -1   14.69    1.97
   0   2   1   13.74    2.85
   0   2   1   11.61    4.22
   0  -2   1    5.88    4.44
   0  -2  -1    9.91    3.87
   0  -2   1   15.40    4.39
   0   2   1    8.87    4.35
   0  -2   1   12.90    4.51
   0  -2  -1    2.61    3.97
   0  -2   1   12.17    4.44
   1  -2  -1  427.73   20.92
   1   2   1  442.58   16.89
   1   2   1  433.95   29.20
  -1  -2   1  349.02   36.45
   1  -2  -1  445.73   25.78
  -1  -2   1  454.37   28.20
   1   2   1  437.77   29.59
  -1  -2   1  359.60   37.59
   1  -2  -1  444.97   25.96
  -1  -2   1  440.14   28.45
  -1  -2  -1  402.40   19.62
  -1   2   1  402.19   18.97
  -1   2   1  452.41   42.39
   1  -2   1  406.74   28.00
  -1  -2  -1  378.36   23.85
   1  -2   1  417.45   36.82
  -1   2   1  472.71   43.72
   1  -2   1  414.98   28.60
  -1  -2  -1  382.30   24.94
   1  -2   1  459.17   40.31
   2  -2  -1  132.20    5.87
   2  -2  -1  148.00    7.65
   2   2   1  132.39    5.32
   2   2   1  126.02    9.35
  -2  -2   1  118.80   14.55
   2  -2  -1  122.48    8.03
   2  -2  -1  150.93    7.84
   2   2   1  122.80    9.58
  -2  -2   1  118.29   14.90
   2  -2  -1  122.29    8.20
   2  -2  -1  151.90    7.84
  -2  -2  -1  141.34    7.37
   2   2  -1  134.97    9.27
   2  -2   1  123.72   10.15
  -2  -2  -1  130.06    9.25
   2  -2   1  147.37    9.16
   2   2  -1  132.78    9.35
   2  -2   1  118.95   10.13
  -2  -2  -1  121.71    9.06
   2  -2   1  141.31    9.42
   3  -2  -1   53.87    3.77
   3  -2  -1   62.12    4.41
   3   2   1   56.47    5.91
   3   2   1   74.59    7.64
   3  -2  -1   57.94    7.02
  -3  -2   1   56.83    6.06
   3  -2  -1   66.13    4.01
   3   2   1   68.89    8.22
   3  -2  -1   53.19    7.24
  -3  -2   1   57.20    6.11
   3  -2  -1   66.54    4.37
  -3  -2  -1   56.12    4.95
   3   2  -1   48.79    3.91
   3   2  -1   66.58    6.89
   3  -2   1   59.31    7.56
  -3  -2  -1   69.02    5.96
   3  -2   1   66.20    8.48
   3   2  -1   75.56    7.00
   3  -2   1   72.96    8.01
  -3  -2  -1   57.81    6.16
   3  -2   1   65.20    8.72
   4  -2  -1   81.91    4.70
   4   2   1   74.83    4.95
   4  -2  -1   85.50    5.47
   4   2   1   92.86   12.46
   4  -2  -1   76.40    7.37
  -4  -2   1   85.47   11.34
   4  -2  -1   98.46    4.58
   4   2   1   91.71   12.63
   4  -2  -1   80.54    7.51
  -4  -2   1   71.41   11.65
   4  -2  -1  102.76    4.73
  -4  -2  -1   78.21    4.73
   4   2  -1   73.08    6.03
   4   2  -1  106.09   12.65
   4  -2   1  102.71   13.73
  -4  -2  -1   95.11    6.87
   4  -2   1  104.05    6.48
   4   2  -1  112.97   13.01
   4  -2   1  106.71   14.76
  -4  -2  -1   95.55    7.11
   4  -2   1   97.78    6.42
  -5  -2   1  624.10   40.72
   5  -2  -1  575.03   31.97
   5   2   1  501.10   45.59
   5  -2  -1  547.44   33.54
   5   2   1  652.02   46.02
   5  -2  -1  542.66   38.04
  -5  -2   1  690.20   44.38
   5  -2  -1  596.44   34.02
   5   2   1  650.03   46.26
   5  -2  -1  536.99   38.14
  -5  -2   1  669.23   44.06
   5  -2  -1  635.66   36.17
  -5  -2  -1  525.45   44.08
   5   2  -1  578.40   34.83
   5   2  -1  648.65   42.37
   5  -2   1  629.37   42.19
  -5  -2  -1  651.23   57.07
   5  -2   1  754.93   53.75
   5   2  -1  657.76   42.97
   5  -2   1  611.07   42.97
  -5  -2  -1  646.11   58.75
   5  -2   1  760.03   55.00
  -6  -2   1  204.68   10.12
   6  -2  -1  224.24    8.26
   6   2   1  199.16   18.02
   6  -2  -1  199.38   11.64
   6   2   1  247.38   23.39
   6  -2  -1  195.96    8.39
  -6  -2   1  226.54   20.14
   6  -2  -1  249.58   12.17
   6   2   1  231.82   23.22
  -6  -2   1  233.94   20.60
   6  -2  -1  236.39   12.63
  -6  -2  -1  200.23   15.91
   6   2  -1  200.56   11.76
   6   2  -1  240.53   19.96
   6  -2   1  220.84   19.00
  -6  -2  -1  244.24   20.94
   6  -2   1  224.21   15.80
   6   2  -1  228.00   20.46
   6  -2   1  222.81   19.52
  -6  -2  -1  238.60   21.41
   6  -2   1  212.31   16.24
  -7  -2   1   12.89    4.78
   7  -2  -1   17.92    3.71
   7   2   1   16.26    4.10
   7  -2  -1   14.98    4.33
   7   2   1   27.17    7.93
   7  -2  -1   12.05    2.17
  -7  -2   1   17.14    3.56
   7  -2  -1    6.33    3.27
   7   2   1   22.84    7.81
   7  -2  -1   10.76    2.18
  -7  -2   1    9.97    3.72
   7  -2  -1    9.13    3.29
  -7  -2  -1   15.17    5.51
   7   2  -1   13.17    5.97
   7   2  -1   16.41    6.54
   7  -2   1   14.27    6.15
  -7  -2  -1   10.79    4.73
   7  -2   1    8.55    3.40
   7   2  -1   17.37    6.60
   7  -2   1   18.41    6.23
  -7  -2  -1   18.61    4.58
   7  -2   1    6.49    3.48
  -8  -2   1  124.56    9.02
   8  -2  -1  142.79   10.00
   8   2   1  154.93   17.20
   8  -2  -1  152.24   12.36
   8   2   1  172.54   19.87
  -8  -2   1  160.25   14.05
   8   2   1  178.96   19.69
  -8  -2   1  163.42   14.31
  -8  -2  -1  148.21   14.25
   8   2  -1  143.87   16.55
   8   2  -1  161.70   15.76
   8  -2   1  148.96   14.70
  -8  -2  -1  172.90   12.56
   8   2  -1  170.82   16.26
   8  -2   1  141.01   15.27
  -8  -2  -1  157.01   12.13
  -9  -2   1  158.45   18.04
   9  -2  -1  184.01    9.72
   9   2   1  212.41   24.42
   9  -2  -1  189.54   10.76
  -9  -2   1  195.52   13.01
  -9  -2   1  201.71   12.33
  -9  -2  -1  201.27   18.48
   9   2  -1  200.57   21.40
   9   2  -1  229.48   20.29
  -9  -2  -1  240.67   24.76
   9  -2   1  111.70   26.56
   9   2  -1  233.00   20.82
  -9  -2  -1  227.73   23.88
  10  -2  -1   10.28    3.17
  10   2   1   20.69    6.00
  10  -2  -1   11.06    3.95
 -10  -2   1   16.72    4.48
 -10  -2   1   21.23    4.37
  10   2  -1    1.68    8.49
 -10  -2  -1   33.84   11.30
  10  -2   1    8.01    7.75
 -10  -2  -1   10.51   10.22
  10  -2   1    8.61    8.12
  11  -2  -1    7.08    3.32
  11   2   1   10.00    9.56
 -11  -2   1    8.93    8.89
 -11  -2   1   -0.31    7.98
  11   2  -1   15.12    7.84
 -11  -2  -1   11.74    6.94
 -11  -2  -1   -2.14    7.19
  12  -2  -1   13.93    4.00
  12   2   1   23.88   10.73
  12   2  -1   14.76    5.73
 -12  -2  -1    2.23   12.66
 -12  -2  -1   10.37   12.78
  13  -2  -1   81.08   13.35
  13   2   1  183.29   20.33
  13   2  -1  162.24   18.08
 -13  -2  -1   82.95   21.49
 -13  -2  -1   95.48   21.20
  14   2   1   69.09    9.34
  14   2  -1   65.93    8.56
 -14  -2  -1   23.75   13.62
 -14  -2  -1   40.23   13.80
  15   2   1   51.96   14.06
  15   2  -1   40.48   12.96
  16   2   1  145.21   15.06
  16   2  -1  138.77   22.17
  17   2   1   59.73    8.44
  17   2  -1   45.58    7.52
  18   2   1   54.15   11.99
  18   2  -1   43.68    6.85
  19   2   1  120.82   10.41
  19   2  -1  110.00   14.17
   0  -2  -2  253.52   10.68
   0   2   2  239.93   14.04
   0   2   2  228.91   20.69
   0  -2   2  239.62   26.42
   0  -2  -2  255.40   19.98
   0  -2   2  268.50   24.04
   0   2   2  216.58   20.84
   0  -2   2  233.02   25.73
   0  -2  -2  245.37   20.41
   0  -2   2  256.72   25.17
   1  -2  -2   55.72    6.83
   1   2   2   53.75    4.03
   1   2   2   63.58    7.07
  -1  -2   2   52.80    9.86
   1  -2  -2   67.00    5.03
  -1  -2   2   60.36    9.02
   1   2   2   67.84    7.52
  -1  -2   2   39.36    9.93
   1  -2  -2   63.55    5.04
  -1  -2   2   71.58    9.99
  -1  -2  -2   61.71    4.15
  -1   2   2   52.86    3.19
  -1   2   2   51.68    8.01
   1  -2   2   51.51   12.65
  -1  -2  -2   46.80    7.88
   1  -2   2   58.94    8.94
  -1   2   2   57.61    8.17
   1  -2   2   82.48   13.57
  -1  -2  -2   61.12    8.71
   1  -2   2   58.92    9.34
   2  -2  -2  628.33   42.14
   2   2   2  608.51   30.25
   2   2   2  618.69   43.80
  -2  -2   2  523.60   37.07
   2  -2  -2  568.37   45.17
  -2  -2   2  609.88   53.86
   2   2   2  623.35   44.49
  -2  -2   2  510.27   37.87
   2  -2  -2  589.44   45.91
  -2  -2   2  587.98   55.00
  -2  -2  -2  611.31   29.86
  -2   2   2  564.02   35.50
  -2   2   2  602.06   50.12
   2  -2   2  526.98   57.25
  -2  -2  -2  609.54   51.42
   2  -2   2  580.38   35.11
  -2   2   2  603.53   50.83
   2  -2   2  518.70   59.09
  -2  -2  -2  624.69   52.47
   2  -2   2  597.82   37.01
   3  -2  -2  949.12   63.84
   3  -2  -2  861.45   71.08
   3   2   2  894.91   59.38
   3   2   2  895.02  100.97
  -3  -2   2  833.67   91.10
   3  -2  -2  873.18   74.60
  -3  -2   2  950.93   93.25
   3  -2  -2 1034.12   73.88
   3   2   2  911.93  105.93
  -3  -2   2  835.53   91.61
   3  -2  -2  878.74   75.18
  -3  -2   2  935.69   93.89
   3  -2  -2 1040.52   75.43
  -3  -2  -2  962.35   72.79
   3  -2   2  853.52  101.89
  -3  -2  -2  884.15   88.08
   3  -2   2 1011.73   74.59
   3  -2   2  849.38  103.25
  -3  -2  -2  880.19   88.93
   3  -2   2  983.79   75.44
   4  -2  -2 1485.04  148.43
   4   2   2 1588.47  177.38
   4  -2  -2 1375.66  131.80
   4   2   2 1559.16  173.04
  -4  -2   2 1584.92  167.40
   4  -2  -2 1479.31  156.45
   4  -2  -2 1749.29  161.95
  -4  -2   2 1676.92  165.63
   4   2   2 1571.76  176.56
  -4  -2   2 1547.43  163.90
   4  -2  -2 1496.23  158.53
   4  -2  -2 1768.24  165.10
  -4  -2   2 1634.85  166.29
  -4  -2  -2 1685.70  174.63
   4   2  -2 1602.83  161.41
   4  -2   2 1608.44  184.41
  -4  -2  -2 1616.14  166.71
   4  -2   2 1569.16  181.17
   4  -2   2 1576.11  186.65
  -4  -2  -2 1589.18  163.39
   4  -2   2 1554.17  184.12
   5  -2  -2 1904.51  222.28
   5   2   2 1923.65  255.61
   5  -2  -2 1876.63  225.53
   5   2   2 1930.36  298.41
   5  -2  -2 1903.21  217.07
  -5  -2   2 1792.31  261.15
   5  -2  -2 2027.33  209.16
   5   2   2 1959.01  301.30
   5  -2  -2 1875.26  219.32
  -5  -2   2 1814.22  263.10
   5  -2  -2 2050.90  214.51
  -5  -2  -2 2112.98  229.93
   5   2  -2 1888.38  220.92
   5  -2   2 2181.67  331.49
  -5  -2  -2 2097.72  249.03
   5  -2   2 2063.96  235.28
   5  -2   2 2175.80  336.72
  -5  -2  -2 2082.31  247.64
   5  -2   2 2004.88  232.52
   6  -2  -2  279.51   15.66
   6   2   2  220.86   21.64
   6  -2  -2  229.47   15.73
   6   2   2  258.90   17.69
   6  -2  -2  243.20   12.31
  -6  -2   2  260.15   14.11
   6  -2  -2  224.02   10.24
   6   2   2  266.84   18.22
   6  -2  -2  221.94   12.54
  -6  -2   2  246.20   14.09
   6  -2  -2  220.17   10.33
  -6  -2  -2  239.25   19.98
   6   2  -2  229.04   19.20
   6  -2   2  265.89   18.28
  -6  -2  -2  281.83   25.76
   6  -2   2  255.50   21.16
   6  -2   2  270.86   19.04
  -6  -2  -2  275.33   25.13
   6  -2   2  241.86   21.58
   7  -2  -2 1531.03  141.58
   7   2   2 1575.98  207.14
   7  -2  -2 1426.55  162.19
   7   2   2 1686.26  189.26
  -7  -2   2 1403.39  146.18
   7   2   2 1697.93  191.51
  -7  -2   2 1436.22  146.78
  -7  -2  -2 1524.86  188.94
   7   2  -2 1327.14  156.84
   7   2  -2 1626.07  166.22
   7  -2   2 1553.79  186.06
  -7  -2  -2 1758.69  235.71
   7  -2   2 1512.66  170.82
   7   2  -2 1605.24  165.06
   7  -2   2 1624.14  195.82
  -7  -2  -2 1698.72  227.80
   7  -2   2 1463.04  169.21
   8  -2  -2  597.43   44.52
   8   2   2  521.88   44.52
   8  -2  -2  557.45   35.23
   8   2   2  664.30   51.90
  -8  -2   2  545.25   45.38
   8   2   2  659.42   51.09
  -8  -2   2  549.22   45.12
  -8  -2  -2  564.71   40.55
   8   2  -2  471.83   52.85
   8   2  -2  573.37   39.78
   8  -2   2  564.47   48.13
  -8  -2  -2  630.75   70.22
   8  -2   2  475.78   60.70
   8   2  -2  587.31   40.33
   8  -2   2  551.89   50.13
  -8  -2  -2  610.47   67.68
   8  -2   2  415.43   60.05
   9  -2  -2 1009.80   92.97
   9   2   2 1035.33   98.37
   9  -2  -2 1137.73  109.77
  -9  -2   2  877.05   89.33
  -9  -2   2  924.70   89.53
   9   2  -2  837.73   85.93
  -9  -2  -2 1361.26  178.04
   9  -2   2  792.50  121.96
  -9  -2  -2 1210.10  156.87
   9  -2   2  724.46  113.52
  10  -2  -2 1124.19   97.02
  10   2   2 1150.24  120.30
 -10  -2   2  928.55  110.30
 -10  -2   2 1018.23  112.61
  10   2  -2  890.88  105.19
 -10  -2  -2 1486.36  211.11
 -10  -2  -2 1508.10  215.31
  11  -2  -2  225.22   15.13
  11   2   2  247.19   21.65
  11   2  -2  188.25   27.12
 -11  -2  -2  247.25   29.28
 -11  -2  -2  259.37   29.50
  12  -2  -2  147.69   19.32
  12   2   2  183.63   19.28
 -12  -2  -2  246.64   29.76
 -12  -2  -2  276.46   29.39
  13  -2  -2   14.30    7.73
  13   2   2   14.79    7.22
  13   2  -2   17.47    9.49
 -13  -2  -2   26.13   12.33
 -13  -2  -2   12.65   12.07
  14  -2  -2   19.54    5.61
  14   2   2   54.96   12.78
  14   2  -2   32.40    6.53
 -14  -2  -2   24.16   10.99
 -14  -2  -2   38.07   11.29
  15  -2  -2   37.93    6.39
  15   2   2   52.66    8.78
  15   2  -2   34.14   11.00
 -15  -2  -2   34.62   10.41
 -15  -2  -2   31.34   10.71
  16  -2  -2   43.11   11.27
  16   2   2  100.76   15.93
  16   2  -2   75.25   13.75
  17   2   2  178.85   16.42
  17   2  -2  137.57   21.85
  18   2   2  138.15   12.28
  18   2  -2  100.27   16.20
  19   2   2  256.78   17.77
  19   2  -2  206.50   14.89
   0  -2  -3    0.74    3.24
   0   2   3    2.77    4.48
   0   2   3    4.25    3.83
   0  -2   3    7.80    5.22
   0  -2  -3   -8.68    5.08
   0  -2   3    4.97    5.27
   0   2   3    9.06    4.19
   0  -2   3    4.83    5.53
   0  -2  -3    6.11    4.96
   0  -2   3   -2.85    5.61
   1  -2  -3   54.62    8.13
   1   2   3   67.34    6.59
   1   2   3   63.84    5.89
  -1  -2   3   53.52   10.77
   1  -2  -3   52.31    6.99
  -1  -2   3   66.49    5.41
   1   2   3   55.02    5.95
  -1  -2   3   69.36   10.74
   1  -2  -3   57.90    7.24
  -1  -2   3   64.54    5.68
  -1   2   3   58.54    5.91
  -1   2   3   57.02    6.84
   1  -2   3   55.69    6.71
  -1  -2  -3   53.67    8.00
   1  -2   3   73.64    9.49
  -1   2   3   60.76    7.00
   1  -2   3   46.87    6.91
  -1  -2  -3   66.10    7.91
   1  -2   3   64.22    9.45
   2  -2  -3  120.03   11.49
   2   2   3  127.75    6.87
   2   2   3  113.27    9.38
  -2  -2   3  111.98   13.51
   2  -2  -3  125.08    6.95
  -2  -2   3  127.61    8.43
   2   2   3  120.78    9.64
  -2  -2   3  109.13   13.85
   2  -2  -3  123.68    6.81
  -2  -2   3  123.38    8.67
  -2  -2  -3  128.14   10.42
  -2   2   3  123.23    9.93
  -2   2   3  125.50    9.53
   2  -2   3  119.99   17.07
  -2  -2  -3  123.89    7.77
   2  -2   3  114.72    7.95
  -2   2   3  114.77    6.50
   2  -2   3  124.64   17.31
  -2  -2  -3  121.18    7.87
   2  -2   3  126.41    8.00
   3  -2  -3  379.94   21.18
   3   2   3  407.49   28.33
   3   2   3  347.26   25.69
  -3  -2   3  354.98   22.97
   3  -2  -3  352.06   23.94
  -3  -2   3  417.44   33.88
   3   2   3  351.92   26.82
  -3  -2   3  323.29   22.42
   3  -2  -3  376.29   24.19
  -3  -2   3  405.44   34.84
  -3  -2  -3  429.81   29.39
   3  -2   3  369.91   43.40
  -3  -2  -3  428.25   35.58
   3  -2   3  434.09   25.68
   3  -2   3  370.81   43.48
  -3  -2  -3  415.25   34.71
   3  -2   3  440.55   26.75
   4  -2  -3  152.74   10.34
   4  -2  -3  131.10   12.32
   4   2   3  155.12    8.62
   4   2   3  121.64   17.78
  -4  -2   3  114.17   14.04
   4  -2  -3  128.36    8.28
  -4  -2   3  161.71    8.89
   4  -2  -3  131.69    5.42
   4   2   3  128.92   18.28
  -4  -2   3  135.01   14.33
   4  -2  -3  127.34    8.39
  -4  -2   3  154.08    9.03
   4  -2  -3  150.36    8.21
   4  -2   3  136.62   12.25
  -4  -2  -3  148.76   15.77
   4  -2   3  140.25    9.63
   4  -2   3  137.58   12.50
  -4  -2  -3  135.08   15.06
   4  -2   3  130.85    9.65
   5  -2  -3  275.19   13.55
   5   2   3  280.51   17.55
   5  -2  -3  262.29   21.42
   5   2   3  243.00   31.41
  -5  -2   3  250.66   22.68
  -5  -2   3  309.82   21.65
   5   2   3  240.68   31.97
  -5  -2   3  252.77   23.23
  -5  -2   3  319.45   23.83
  -5  -2  -3  301.19   23.22
   5  -2   3  262.17   33.55
  -5  -2  -3  282.16   19.54
   5  -2   3  264.65   26.20
   5  -2   3  253.98   34.48
  -5  -2  -3  291.12   18.79
   5  -2   3  270.31   26.08
   6  -2  -3   96.96    8.98
   6   2   3   79.46    8.02
   6  -2  -3   83.18   10.28
   6   2   3  107.74   10.04
  -6  -2   3   78.33    6.20
  -6  -2   3  100.20    6.39
   6   2   3  104.41   10.22
  -6  -2   3   78.91    9.56
  -6  -2   3  102.52    7.01
  -6  -2  -3  100.86   10.86
   6  -2   3   90.86   18.56
  -6  -2  -3  106.12    9.56
   6  -2   3   90.15   13.78
   6  -2   3   85.30   19.64
  -6  -2  -3   93.42    9.28
   6  -2   3   72.31   13.88
   7  -2  -3  114.64   11.22
   7   2   3  109.13   14.72
   7  -2  -3  107.59   11.69
   7   2   3  125.99   12.01
  -7  -2   3   95.56    6.67
  -7  -2   3  117.12    7.44
   7   2   3  109.34   12.09
  -7  -2   3   95.69    6.73
  -7  -2   3  113.07    8.21
  -7  -2  -3  116.06    8.83
   7  -2   3  104.45   13.19
  -7  -2  -3  108.85   10.61
   7  -2   3  120.64   11.34
   7  -2   3   92.22   13.69
  -7  -2  -3  102.89   10.62
   7  -2   3  106.13   11.60
   8  -2  -3  106.66   10.91
   8   2   3   87.10    9.64
   8  -2  -3   96.38    7.78
  -8  -2   3  102.03    6.95
  -8  -2   3   90.07    7.41
   8  -2   3   90.25   12.73
  -8  -2  -3  122.21   13.88
   8  -2   3   80.24   13.45
  -8  -2  -3  108.26   12.27
   9  -2  -3  715.96   54.25
   9   2   3  662.68   92.08
  -9  -2  -3  742.12   89.69
  -9  -2  -3  749.37   90.62
  10  -2  -3   40.41    8.19
  10   2   3   36.39   10.97
  10   2  -3   19.47    4.49
 -10  -2  -3   34.36    9.91
 -10  -2  -3   23.38   10.17
  11  -2  -3  375.48   42.91
  11   2   3  362.67   55.82
 -11  -2  -3  532.33   65.45
 -11  -2  -3  504.23   62.36
  12  -2  -3   26.89    5.43
  12   2   3   30.20   11.43
  12   2  -3   11.70    5.54
 -12  -2  -3   -1.03    8.79
 -12  -2  -3   25.18    8.67
  13  -2  -3   17.70    7.80
  13   2   3   22.90   11.31
  13   2  -3    5.32    8.48
 -13  -2  -3   -7.75    7.36
 -13  -2  -3    5.99    7.48
  14  -2  -3    4.29    7.97
  14   2   3    5.72    6.85
  14   2  -3    5.20    8.48
 -14  -2  -3   -0.47    9.95
 -14  -2  -3    8.99    9.94
  15  -2  -3   54.16    7.10
  15   2   3   70.08    9.74
  15   2  -3   28.75    7.30
 -15  -2  -3   54.28   11.55
 -15  -2  -3   55.27    7.52
  16  -2  -3   32.15    5.89
  16   2   3   62.59   12.42
  16   2  -3   21.20    6.04
 -16  -2  -3   26.22    8.16
 -16  -2  -3   15.41    8.32
  17   2   3    5.89   10.11
  17   2  -3   17.39    5.18
 -17  -2  -3    5.82    5.55
  18   2   3   27.28    6.50
  18   2  -3   25.73    7.64
  19   2   3    4.23    4.23
   0  -2  -4   32.27    4.73
   0   2   4   26.24    4.38
   0  -2   4   29.09    8.42
   0   2   4   29.09    3.85
   0  -2  -4   26.62    4.31
   0  -2   4   31.76    4.10
   0  -2   4   23.04    8.86
   0   2   4   24.71    3.91
   0  -2  -4   30.43    4.23
   0  -2   4   35.19    4.30
   1  -2  -4  158.09   14.90
   1   2   4  129.67   12.21
  -1  -2   4  161.00   17.03
   1   2   4  127.18    8.78
   1  -2  -4  134.84   12.52
  -1  -2   4  158.86   14.50
  -1  -2   4  146.96   17.08
   1   2   4  125.89    9.15
   1  -2  -4  141.25   12.69
  -1  -2   4  154.13   14.65
  -1  -2  -4  174.05   14.38
  -1   2   4  139.65   12.24
   1  -2   4  122.21   17.21
  -1   2   4  151.68   13.03
  -1  -2  -4  124.08    9.41
   1  -2   4  157.63    9.89
   1  -2   4  119.47   17.84
  -1   2   4  147.75   13.85
  -1  -2  -4  132.72    9.33
   1  -2   4  142.38   10.44
   2  -2  -4  182.08   10.98
   2   2   4  189.78   10.46
  -2  -2   4  150.89   12.17
   2   2   4  157.01   11.73
  -2  -2   4  173.96   15.73
  -2  -2   4  149.17   12.30
   2   2   4  166.65   11.89
   2  -2  -4  155.14   14.36
  -2  -2   4  166.70   15.97
  -2   2   4  176.10   14.85
  -2   2   4  152.00   12.07
   2  -2   4  173.95   22.03
  -2  -2  -4  211.46   18.59
   2  -2   4  174.71   11.00
  -2   2   4  153.68   12.35
   2  -2   4  178.96   22.50
  -2  -2  -4  192.21   17.75
   2  -2   4  168.30   11.08
   3  -2  -4 1312.68  148.88
   3   2   4 1380.61  141.47
  -3  -2   4 1295.06  153.73
   3   2   4 1309.16  172.71
   3  -2  -4 1033.03  113.34
  -3  -2   4 1514.83  126.09
  -3  -2   4 1295.43  157.33
   3   2   4 1290.30  174.19
   3  -2  -4 1044.17  115.25
  -3  -2   4 1539.94  132.65
  -3  -2  -4 1508.64  148.43
  -3   2   4 1371.00  116.19
  -3   2   4 1137.74  107.39
   3  -2   4 1207.75  140.21
  -3  -2  -4 1504.31  147.38
   3  -2   4 1363.55  159.91
  -3   2   4 1175.53  111.83
   3  -2   4 1221.69  143.98
  -3  -2  -4 1452.02  140.39
   3  -2   4 1331.98  159.91
   4  -2  -4  841.51   69.75
   4  -2  -4  765.88   76.93
   4   2   4  834.61   76.41
   4   2   4  701.17   71.42
  -4  -2   4  700.92   54.93
  -4  -2   4  798.50   67.31
   4   2   4  694.87   69.62
  -4  -2   4  654.58   55.96
  -4  -2   4  806.87   72.25
  -4  -2  -4  935.93   61.44
   4  -2   4  790.78  113.05
  -4  -2  -4  810.69   88.49
   4  -2   4  834.17   90.08
   4  -2   4  798.58  116.44
  -4  -2  -4  847.86   90.11
   4  -2   4  825.29   92.10
   5  -2  -4 2039.74  266.32
   5  -2  -4 1904.80  286.82
   5   2   4 2211.85  316.44
   5   2   4 1927.31  367.85
  -5  -2   4 1815.33  272.43
  -5  -2   4 2302.06  297.64
   5   2   4 1935.02  368.29
  -5  -2   4 1744.80  273.30
  -5  -2   4 2322.93  302.88
  -5  -2  -4 2359.42  317.44
   5  -2   4 1777.68  309.26
  -5  -2  -4 2081.99  290.80
   5  -2   4 2143.02  291.33
   5  -2   4 1752.53  311.56
  -5  -2  -4 2070.38  342.88
   5  -2   4 2060.16  287.84
   6  -2  -4  232.91   12.83
   6  -2  -4  233.72   23.17
   6   2   4  251.35   24.50
  -6  -2   4  182.47   16.48
  -6  -2   4  233.50   12.46
  -6  -2   4  183.44   17.14
  -6  -2   4  204.06   12.75
  -6  -2  -4  252.68   15.21
   6  -2   4  150.31   23.48
  -6  -2  -4  277.43   23.46
   6  -2   4  158.93   24.18
  -6  -2  -4  260.16   21.36
   7  -2  -4 1232.24  118.10
   7   2   4 1309.44  120.25
  -7  -2   4 1006.43   97.49
  -7  -2   4 1062.08   90.75
  -7  -2   4  926.01   98.50
  -7  -2   4  929.17  105.71
   7  -2   4  710.59  174.47
  -7  -2  -4 1351.86  196.19
   7  -2   4  719.56  182.70
  -7  -2  -4 1347.24  198.23
   8  -2  -4  196.07   19.33
   8   2   4  191.96   26.48
  -8  -2  -4  185.17   35.80
  -8  -2  -4  205.61   36.60
   9  -2  -4 1024.10   92.58
   9   2   4 1008.89  112.45
  -9  -2  -4 1047.31  206.50
  -9  -2  -4 1018.41  205.12
  10  -2  -4  456.65   51.39
  10   2   4  391.86   42.45
 -10  -2  -4  622.97   74.84
 -10  -2  -4  602.25   73.83
  11  -2  -4  425.33   44.28
  11   2   4  396.97   38.12
 -11  -2  -4  368.26   49.05
 -11  -2  -4  370.37   47.61
  12  -2  -4   41.04    7.27
  12   2   4   32.40    9.25
 -12  -2  -4   58.96   10.76
 -12  -2  -4   59.27   10.83
  13  -2  -4   18.71    9.36
  13   2   4    8.73    7.38
 -13  -2  -4   16.48    7.37
 -13  -2  -4   14.35    7.52
  14  -2  -4    5.28    8.18
  14   2   4    1.85   11.26
 -14  -2  -4    2.48   10.30
 -14  -2  -4   23.08   10.40
  15  -2  -4  152.62   12.53
  15   2   4  172.30   24.82
 -15  -2  -4  104.25   19.23
 -15  -2  -4  103.32   19.24
  16  -2  -4   47.39    8.59
  16   2  -4   29.23    5.31
 -16  -2  -4   10.94    5.70
 -16  -2  -4    8.11    5.96
  17   2  -4  146.98   12.47
 -17  -2  -4  138.72   16.42
 -17  -2  -4  157.03   17.01
  18   2   4  159.52   15.48
  18   2  -4   82.59    9.98
   0  -2  -5   16.06    4.49
   0   2   5   -0.50    5.63
   0  -2   5   12.37    4.76
   0   2   5   12.07    5.15
   0  -2  -5    4.56    5.00
   0  -2   5   -0.93    6.52
   0  -2   5    7.35    4.81
   0   2   5    8.74    5.13
   0  -2  -5    3.67    4.63
   0  -2   5   -4.74    6.58
   1  -2  -5 1325.18  116.97
   1   2   5 1163.94  124.22
  -1  -2   5 1332.00  172.96
   1   2   5 1149.34  129.82
   1  -2  -5  766.04  126.70
  -1  -2   5 1208.32  127.38
  -1  -2   5 1352.13  182.88
   1   2   5 1025.31  131.33
   1  -2  -5  821.42  120.01
  -1  -2   5 1188.53  125.58
  -1  -2  -5 1348.85  143.38
  -1   2   5 1145.17   97.88
   1  -2   5 1160.44  124.90
  -1   2   5 1158.51  111.63
  -1  -2  -5  740.74  142.30
   1  -2   5 1250.99  116.64
   1  -2   5 1106.36  125.40
  -1   2   5 1192.81  119.46
  -1  -2  -5 1287.34  131.65
   1  -2   5 1199.00  115.40
   2   2   5   34.56    4.50
  -2  -2   5   36.07    8.97
   2   2   5   37.35    9.32
  -2  -2   5   34.08    4.59
  -2  -2   5   41.12    9.34
   2   2   5   42.63    9.62
  -2  -2   5   31.80    4.79
  -2  -2  -5   40.08    5.78
  -2   2   5   31.64    7.78
   2  -2   5    5.59   11.05
  -2   2   5   24.16    3.69
  -2  -2  -5   35.04    7.11
   2  -2   5   52.18    9.82
   2  -2   5   19.82   11.23
  -2  -2  -5   20.49    6.44
   3  -2  -5  114.85   14.82
   3   2   5  137.37    9.24
  -3  -2   5  104.26    8.72
   3   2   5  121.06   11.26
  -3  -2   5  118.14   11.84
  -3  -2   5   97.40    8.95
   3   2   5  115.56   11.53
  -3  -2   5  113.93    8.36
  -3  -2  -5  139.71    9.14
  -3   2   5  123.00    8.47
   3  -2   5   97.56   12.02
  -3  -2  -5  119.85   20.19
   3  -2   5  107.64   17.12
   3  -2   5   96.37   12.52
  -3  -2  -5  110.39   18.07
   3  -2   5   86.44   17.39
   4  -2  -5    7.82    5.80
   4  -2  -5    3.21    7.58
   4   2   5   -3.46    4.21
   4   2   5   14.79    9.81
  -4  -2   5    8.89    5.75
  -4  -2   5    3.75    4.49
   4   2   5   -1.29    9.81
  -4  -2   5    5.70    5.97
  -4  -2   5    5.81    5.23
  -4  -2  -5    7.50    7.32
   4  -2   5    5.05    7.00
  -4  -2  -5   -1.06    6.15
   4  -2   5  -12.77    7.21
  -4  -2  -5    4.29    6.34
   5  -2  -5  235.33   12.79
   5   2   5  246.62   14.94
  -5  -2   5  175.75   17.00
  -5  -2   5  181.02   14.00
  -5  -2   5  158.26   17.37
  -5  -2   5  160.13   14.23
   5  -2   5  162.08   22.30
  -5  -2  -5  257.44   32.56
   5  -2   5  165.20   23.04
  -5  -2  -5  247.86   32.64
   6  -2  -5   41.55    8.07
  -6  -2   5   20.27    5.93
  -6  -2   5   20.60    4.79
  -6  -2   5   20.36    5.88
  -6  -2   5   17.47    4.84
   6  -2   5   24.21   15.17
  -6  -2  -5   24.21    8.86
   6  -2   5   18.17   15.55
  -6  -2  -5   48.98    8.73
   7  -2  -5   41.63    5.94
   7   2   5   46.83   11.02
   7  -2   5    8.86   14.99
  -7  -2  -5   39.10   16.03
   7  -2   5    9.51   14.94
  -7  -2  -5   60.02   16.65
   8  -2  -5   67.09    7.71
   8   2   5   59.63    8.97
  -8  -2  -5   58.43   15.58
  -8  -2  -5   63.93   14.92
   9  -2  -5   28.77    9.59
   9   2   5   27.72    7.53
  -9  -2  -5   30.01    9.59
  -9  -2  -5   31.33    9.38
  10  -2  -5   20.61    6.13
  10   2   5   18.77   11.44
 -10  -2  -5   14.28   13.70
 -10  -2  -5   15.53   13.74
  11  -2  -5  207.23   17.51
  11   2   5  193.07   31.91
 -11  -2  -5  173.17   36.95
 -11  -2  -5  189.94   37.69
  12  -2  -5   26.84   10.02
  12   2   5   17.10   12.22
 -12  -2  -5   18.51   12.66
 -12  -2  -5    1.89   12.91
  13  -2  -5  546.66   59.33
  13   2   5  561.35   69.27
 -13  -2  -5  374.06   50.18
 -13  -2  -5  427.79   51.48
  14  -2  -5   24.07    5.86
  14   2   5   20.32    7.29
 -14  -2  -5    1.26   10.72
 -14  -2  -5    0.42   10.71
  15  -2  -5  168.34   20.21
  15   2   5  200.78   16.71
 -15  -2  -5  110.74   21.90
 -15  -2  -5  107.94   23.92
  16   2   5   70.20   11.08
 -16  -2  -5   29.81    5.47
 -16  -2  -5   21.65    5.63
  17   2   5   -0.18    8.00
 -17  -2  -5    6.87    6.18
 -17  -2  -5    1.35    5.78
  18   2   5    9.23    4.28
   0   2   6 3297.12  578.93
   0  -2   6 3437.33  621.81
   0   2   6 3080.94  613.64
   0  -2  -6 2140.43  827.22
   0  -2   6 3384.95  625.43
   0   2   6 3105.17  625.41
   0  -2  -6 2000.92  855.67
   1   2   6   20.81    4.99
  -1  -2   6   -1.59   10.89
   1   2   6   22.56    9.54
  -1  -2   6   11.53   11.57
   1   2   6   19.61    9.85
  -1  -2  -6   23.36   12.89
  -1  -2  -6   22.87   12.78
   2   2   6 1529.82  159.13
  -2  -2   6 1497.51  225.59
  -2  -2   6 1433.22  225.96
  -2   2   6 1510.01  162.56
   2  -2   6 1456.78  249.34
  -2  -2  -6 1055.64  320.21
   2  -2   6 1372.11  248.67
  -2  -2  -6 1874.95  320.21
   3   2   6   22.84    4.97
  -3  -2   6   21.43    4.84
  -3  -2   6   15.15    4.97
  -3  -2   6   17.86    6.61
   3  -2   6   22.21    7.16
  -3  -2  -6   21.61   14.55
   3  -2   6   28.40    7.52
  -3  -2  -6   33.28   14.43
   4   2   6   53.73   10.30
  -4  -2   6   23.96    7.35
  -4  -2   6   16.15    7.56
   4  -2   6   48.39   15.10
  -4  -2  -6   30.36   10.59
   4  -2   6   26.58   15.25
  -4  -2  -6   38.95   10.41
   5  -2  -6  217.64   16.37
   5   2   6  284.67   28.01
   5  -2   6  209.86   27.69
  -5  -2  -6  239.01   47.90
   5  -2   6  212.53   29.18
  -5  -2  -6  264.55   46.97
   6  -2  -6   26.99    9.51
   6   2   6   31.27    6.51
   6  -2   6   20.91   10.49
  -6  -2  -6   14.90   13.37
   6  -2   6   32.89   10.62
  -6  -2  -6   21.57   13.05
   7  -2  -6  153.54   19.18
   7  -2   6  116.24   32.84
  -7  -2  -6  141.99   17.50
   7  -2   6   93.95   33.53
  -7  -2  -6  136.00   16.99
   8  -2  -6   40.68    7.13
   8   2   6   25.21    7.37
  -8  -2  -6   45.75   14.90
  -8  -2  -6   42.19   15.03
   9  -2  -6   79.00    9.31
   9   2   6   85.57   16.88
  -9  -2  -6   88.39   20.75
  -9  -2  -6   72.93   21.01
  10  -2  -6  142.06   18.95
  10   2   6  106.47   13.95
 -10  -2  -6  123.01   15.09
 -10  -2  -6  117.10   15.42
  11  -2  -6   19.16   10.21
  11   2   6   14.58    6.77
 -11  -2  -6   10.54    7.09
 -11  -2  -6    9.80    7.18
  12  -2  -6  866.80   76.23
  12   2   6  811.05   82.82
 -12  -2  -6  571.28  111.93
 -12  -2  -6  607.30  113.00
  13  -2  -6   87.55   15.05
  13   2   6   80.30   16.80
 -13  -2  -6   65.34   16.82
 -13  -2  -6   75.20   16.61
  14  -2  -6 1203.68  157.98
  14   2   6 1258.84  179.91
 -14  -2  -6  995.96  190.94
 -14  -2  -6 1021.01  199.09
  15   2   6   10.96    5.86
 -15  -2  -6   15.48    7.87
 -15  -2  -6   -0.80    8.00
  16   2   6  253.92   22.70
 -16  -2  -6  149.96   15.16
 -16  -2  -6  158.64   15.43
  17   2   6   16.24    4.76
 -17  -2  -6    7.55    6.01
 -17  -2  -6   10.25    6.26
   0   2   7   14.28    7.52
   0  -2   7    2.41   11.44
   0  -2   7   -1.94   12.31
   1   2   7   23.25    7.74
  -1  -2   7   16.80   10.53
  -1  -2   7   24.63   10.57
  -1   2   7   23.64    9.09
   1  -2   7   30.36   10.73
  -1  -2  -7    6.58    9.98
   1  -2   7   32.16   10.89
  -1  -2  -7    9.19   10.21
   2   2   7   41.82    9.80
  -2  -2   7   24.79    6.19
  -2  -2   7   19.29    6.33
  -2   2   7   35.24    9.35
   2  -2   7   23.89    7.87
  -2  -2  -7   25.23    6.91
   2  -2   7    9.80    8.10
  -2  -2  -7   25.29    7.09
  -3  -2   7  293.49   34.52
  -3  -2   7  231.22   34.44
   3  -2   7  455.51   50.96
  -3  -2  -7  257.55   33.26
   3  -2   7  446.10   52.84
  -3  -2  -7  430.17   35.40
   4   2   7   58.59   10.39
   4  -2   7   42.63    8.94
  -4  -2  -7   24.46    8.06
   4  -2   7   18.93    9.19
  -4  -2  -7   21.97    8.05
   5   2   7  456.37   34.55
   5  -2   7  369.38   78.86
  -5  -2  -7  444.99   67.66
   5  -2   7  368.15   80.05
  -5  -2  -7  456.35   67.39
   6   2   7  520.80   55.19
   6  -2   7  366.46   50.40
  -6  -2  -7  355.95   54.95
   6  -2   7  342.87   51.30
  -6  -2  -7  401.16   56.18
   7   2   7   -0.06    6.62
   7  -2   7   11.44    9.45
  -7  -2  -7   15.08    6.54
   7  -2   7   14.69    9.85
  -7  -2  -7    3.74    6.51
   8  -2  -7  279.82   23.52
   8   2   7  305.29   35.69
   8  -2   7  231.00   34.33
  -8  -2  -7  236.44   38.64
   8  -2   7  195.01   34.95
  -8  -2  -7  232.28   39.19
   9  -2  -7  325.63   25.57
   9   2   7  345.09   27.60
   9  -2   7  249.63   38.87
  -9  -2  -7  262.42   29.61
   9  -2   7  234.55   39.46
  -9  -2  -7  279.73   29.63
  10  -2  -7   -1.90    9.48
  10   2   7    4.87    6.38
 -10  -2  -7    5.67    9.55
 -10  -2  -7    3.17    9.54
  11   2   7  228.26   23.39
 -11  -2  -7  251.37   34.14
 -11  -2  -7  248.41   34.58
  12  -2  -7   53.59    7.49
  12   2   7   40.69    7.74
 -12  -2  -7   31.28    7.50
 -12  -2  -7   24.11    7.61
  13   2   7    7.88    5.85
 -13  -2  -7    9.84    6.13
 -13  -2  -7    3.19    6.39
  14   2   7   32.64   11.04
 -14  -2  -7   28.28    6.22
 -14  -2  -7   37.24    6.32
  15   2   7   17.60    8.80
 -15  -2  -7   14.02    5.20
 -15  -2  -7    0.96    5.31
  16   2   7   59.28   10.20
 -16  -2  -7   34.35    8.01
 -16  -2  -7   38.14    8.52
   0  -2   8  216.19   36.48
   0  -2   8  197.96   39.59
  -1  -2   8    4.07   10.17
  -1  -2   8    8.24   10.10
   1  -2   8   11.52   10.36
   1  -2   8   11.14   10.69
   2   2   8  354.66   30.97
  -2  -2   8  190.45   29.76
  -2  -2   8  181.82   30.19
   2  -2   8  288.43   38.28
   2  -2   8  279.13   39.23
   3   2   8   40.91    6.04
   3  -2   8   32.16    9.09
  -3  -2  -8   19.28   10.58
   3  -2   8   30.32    9.42
  -3  -2  -8   17.98   10.61
   4  -2   8  471.57   61.74
  -4  -2  -8  286.62   46.94
   4  -2   8  456.88   63.87
  -4  -2  -8  361.35   53.31
   5   2   8  405.00   36.01
   5  -2   8  268.71   30.54
  -5  -2  -8  206.87   34.40
   5  -2   8  243.50   30.91
  -5  -2  -8  241.20   34.95
   6  -2   8  112.07   15.25
  -6  -2  -8   96.48   17.57
   6  -2   8  101.13   15.41
  -6  -2  -8   98.65   17.61
   7   2   8  618.51   61.07
   7  -2   8  411.47   77.89
  -7  -2  -8  450.23   47.04
   7  -2   8  368.96   81.07
  -7  -2  -8  485.05   48.33
   8   2   8  487.42   35.22
   8  -2   8  335.29   64.54
  -8  -2  -8  335.93   53.08
   8  -2   8  318.96   67.01
  -8  -2  -8  376.19   52.10
   9  -2   8  183.76   20.76
  -9  -2  -8  163.84   16.60
   9  -2   8  168.56   21.25
  -9  -2  -8  182.79   16.90
  10   2   8  739.80   78.27
  10  -2   8  525.27   65.81
 -10  -2  -8  608.55   79.38
  10  -2   8  502.73   66.60
 -10  -2  -8  646.58   80.51
  11   2   8   15.11    9.48
 -11  -2  -8   19.00    6.62
 -11  -2  -8   17.85    6.72
  12   2   8  148.99   18.76
 -12  -2  -8  119.20   18.24
 -12  -2  -8  127.75   18.67
  13   2   8    1.15    4.96
 -13  -2  -8   10.99    8.62
 -13  -2  -8   12.79    8.90
  14   2   8   56.43    9.84
 -14  -2  -8   44.07    9.56
 -14  -2  -8   43.82   10.32
  15   2   8    7.05    4.02
 -15  -2  -8    4.67    6.61
 -15  -2  -8   -3.41    6.85
   0  -2   9    6.14   10.65
   0  -2   9    6.85   10.74
   1   2   9   98.58   10.60
   1  -2   9   95.06   22.89
   1  -2   9   74.24   24.62
   2   2   9  416.09   35.20
   2  -2   9  348.12   68.93
   2  -2   9  354.25   73.47
   3   2   9   29.14   10.97
   3  -2   9   28.92    8.01
   3  -2   9   31.32    8.31
   4   2   9  403.90   33.04
   4  -2   9  290.42   42.77
  -4  -2  -9  198.59   23.20
   4  -2   9  265.00   42.84
  -4  -2  -9  216.40   23.54
   5   2   9   71.61    7.82
   5  -2   9   60.62   11.08
  -5  -2  -9   41.84    9.46
   5  -2   9   60.16   11.37
  -5  -2  -9   59.28    9.69
   6  -2   9  195.42   22.60
  -6  -2  -9  187.93   19.29
   6  -2   9  195.57   22.59
  -6  -2  -9  184.97   19.80
   7   2   9   27.89    6.82
   7  -2   9   28.67   12.64
  -7  -2  -9    2.94    6.39
   7  -2   9    8.31   12.73
  -7  -2  -9   12.08    6.61
   8  -2   9  175.01   28.76
  -8  -2  -9  136.80   24.84
   8  -2   9  146.39   28.86
  -8  -2  -9  183.05   25.54
   9  -2   9  117.81   20.68
  -9  -2  -9   95.37   10.20
   9  -2   9  132.05   21.34
  -9  -2  -9   93.50   10.52
  10  -2   9   98.43   12.25
 -10  -2  -9   94.57   14.13
  10  -2   9   76.29   12.47
 -10  -2  -9   93.46   14.66
  11   2   9   36.29   10.16
  11  -2   9   30.55   11.38
 -11  -2  -9   21.58    6.13
  11  -2   9   25.90   11.59
 -11  -2  -9   17.80    6.22
  12   2   9   78.03   11.61
 -12  -2  -9   37.41    9.74
 -12  -2  -9   44.17   10.46
  13   2   9   33.97    5.70
 -13  -2  -9   25.86    7.68
 -13  -2  -9   29.24    8.18
   0  -2 -10  150.05   12.48
   1  -2  10   37.67   12.53
   1  -2  10   32.28   12.73
   2  -2 -10   21.93    9.05
   2   2  10   34.11   10.01
   2  -2  10   -0.50    6.75
   2  -2  10    5.02    6.83
   3  -2 -10  455.34   56.27
   3   2  10  519.46   41.04
   3  -2  10  382.37   74.94
   3  -2  10  327.57   78.55
   4  -2 -10  135.68   19.70
   4   2  10  170.40   21.45
   4  -2  10  112.65   27.63
   4  -2  10  109.48   29.20
   5  -2  10  299.55   31.67
  -5  -2 -10  167.30   23.43
   5  -2  10  267.32   32.35
  -5  -2 -10  197.17   24.71
   6   2  10   46.44   10.12
   6  -2  10   27.48    6.94
  -6  -2 -10   12.70    8.61
   6  -2  10   17.80    7.13
  -6  -2 -10   34.89   10.03
   7  -2  10  105.32   11.33
  -7  -2 -10   96.38   15.01
   7  -2  10  103.16   11.44
  -7  -2 -10   88.95   16.24
   8   2  10    5.39    4.88
   8  -2  10   -7.59    5.33
  -8  -2 -10    7.80    4.81
   8  -2  10    3.79    5.39
  -8  -2 -10   -1.15    8.33
   9  -2  10  109.92   10.60
  -9  -2 -10   83.32    9.37
   9  -2  10  112.77   10.78
  -9  -2 -10  100.18   10.10
  10   2  10   29.31    8.11
  10  -2  10   25.89    8.79
 -10  -2 -10   21.86    8.02
  10  -2  10    6.83    8.97
 -10  -2 -10   19.76    8.55
  11  -2  10   93.91   16.57
 -11  -2 -10   88.30    8.09
  11  -2  10   87.82   18.07
 -11  -2 -10   88.09    8.31
   2  -2 -11    6.80    5.23
  -2  -2 -11    0.17    4.76
   3  -2  11   41.13    7.20
   3  -2  11   42.06    7.08
   4  -2 -11   28.99    6.00
   4   2  11   29.69    6.09
   5  -2 -11   28.86    5.66
   5   2  11   34.35    8.90
   5  -2  11   13.19    5.67
   5  -2  11    9.31    5.75
   6  -2  11  150.39   13.62
   6  -2  11  146.03   13.49
   7  -2  11   11.37    7.65
  -7  -2 -11    4.32    5.76
   7  -2  11   -2.98    7.74
  -7  -2 -11    5.05    6.00
   8  -2  11  133.84   14.63
  -8  -2 -11   98.39    8.28
   8  -2  11  126.35   14.82
  -8  -2 -11   89.17    8.75
   9  -2 -11   -5.33    6.40
   9   2  11    0.10    3.80
   9  -2  11    3.58    4.09
   9  -2  11    3.62    4.10
   1  -2 -12   90.19    8.02
   2  -2 -12  191.68   13.34
  -2  -2 -12  192.41   12.80
   3  -2 -12    1.46    4.26
  -3  -2 -12    2.16    6.43
   4  -2 -12    1.11    6.46
  -4  -2 -12    4.70    6.58
   5  -2 -12  187.01   20.62
  -5  -2 -12  240.31   14.16
   0  -3   0  116.15   10.87
   0  -3   0  122.97   11.12
   1  -3   0    9.69    8.15
  -1  -3   0   -3.07    4.95
   1  -3   0    2.75    8.49
   1  -3   0    5.86    8.37
  -1  -3   0    8.06    5.00
   1  -3   0   18.06    8.84
   2  -3   0   36.72    6.59
  -2  -3   0   37.52   10.66
   2  -3   0   37.35    6.69
  -2  -3   0   45.87   10.82
   3  -3   0    6.86    7.89
  -3  -3   0   -0.14    8.35
   3  -3   0   13.06    8.11
  -3  -3   0   -1.28    8.56
   4  -3   0 1388.13  158.70
  -4  -3   0 1406.86  197.11
   4  -3   0 1390.13  162.36
  -4  -3   0 1400.30  199.81
   5  -3   0   -8.13    7.15
  -5  -3   0   -3.86    7.61
   5  -3   0    0.70    7.29
  -5  -3   0    7.24    7.83
   6  -3   0 2896.32  603.59
  -6  -3   0 3072.92  613.53
   6  -3   0 2841.79  605.33
  -6  -3   0 3057.93  611.16
   7  -3   0   -1.82    6.89
  -7  -3   0   -2.71    7.70
   7  -3   0    5.54    7.09
  -7  -3   0   -1.00    7.79
  -8  -3   0 1896.02  346.63
  -8  -3   0 1901.09  324.75
  -9  -3   0   -2.61    5.49
  -9  -3   0    3.56    5.46
 -10  -3   0  425.40   43.05
 -10  -3   0  433.34   41.19
 -11  -3   0   -3.50    8.89
 -11  -3   0    1.89    9.00
 -12  -3   0   50.30   10.40
 -12  -3   0   61.87   10.62
 -13  -3   0   11.53   11.50
 -13  -3   0    3.03   11.74
   0  -3   1   38.33   11.36
   0  -3  -1   39.02    6.22
   0  -3   1   42.94   11.71
   0  -3  -1   39.51    6.30
  -1  -3   1   95.06   14.54
   1  -3  -1   70.67    7.65
   1  -3  -1   98.30   12.70
  -1  -3   1   72.48   14.43
   1  -3  -1   63.85    7.90
   1  -3  -1  101.71   12.85
   1  -3   1   70.81    9.28
  -1  -3  -1   81.38   13.26
   1  -3   1   71.19    9.64
  -1  -3  -1   82.22   13.27
  -2  -3   1  203.94   16.99
   2  -3  -1  187.42   21.14
   2  -3  -1  275.11   22.89
  -2  -3   1  203.47   17.44
   2  -3  -1  190.89   21.90
   2  -3  -1  265.28   23.83
   2  -3   1  193.36   17.04
  -2  -3  -1  206.33   16.20
   2  -3   1  189.82   17.51
  -2  -3  -1  198.84   16.56
   3  -3  -1  204.43   20.61
  -3  -3   1  184.61   16.02
   3  -3  -1  249.21   14.43
   3  -3  -1  193.50   21.16
  -3  -3   1  196.66   16.35
   3  -3  -1  247.62   15.06
   3  -3   1  196.42   26.07
  -3  -3  -1  172.15   14.25
   3  -3   1  186.08   26.63
  -3  -3  -1  167.71   14.55
   4  -3  -1   22.90    4.79
  -4  -3   1   37.02    5.97
   4  -3  -1   24.93    4.89
  -4  -3   1   15.11    6.05
   4  -3   1   24.93    9.70
  -4  -3  -1   27.96    5.40
   4  -3   1   19.08    9.70
  -4  -3  -1   20.35    5.56
   5  -3  -1   31.98    4.96
  -5  -3   1   43.59    6.58
   5  -3  -1   26.74    5.03
  -5  -3   1   40.38    6.64
   5  -3   1   28.57    6.35
  -5  -3  -1   27.88    9.79
   5  -3   1   33.05    6.56
  -5  -3  -1   47.52    9.74
   6  -3  -1   51.55    5.86
  -6  -3   1   71.06   11.56
   6  -3  -1   44.23    5.86
  -6  -3   1   68.07   11.89
   6  -3   1   73.65    7.70
  -6  -3  -1   55.40   11.74
   6  -3   1   66.21    7.76
  -6  -3  -1   57.28   12.37
  -7  -3   1  338.53   35.07
  -7  -3   1  343.91   35.42
   7  -3   1  299.01   25.73
  -7  -3  -1  374.65   42.20
   7  -3   1  276.86   26.27
  -7  -3  -1  372.15   39.91
  -8  -3   1   32.48    9.23
  -8  -3   1   35.30    9.30
   8  -3   1   22.00    5.98
  -8  -3  -1   43.95   11.27
   8  -3   1   20.76    6.10
  -8  -3  -1   36.10   11.28
  -9  -3   1    6.57    5.60
  -9  -3   1   16.99    5.33
  -9  -3  -1   10.08    6.91
  -9  -3  -1   19.32    6.73
 -10  -3   1   25.89   11.10
 -10  -3   1   39.34   10.76
 -10  -3  -1   40.18    8.36
 -10  -3  -1   47.97    8.47
 -11  -3   1  108.77   13.18
 -11  -3   1  141.46   13.50
 -11  -3  -1  166.18   21.52
 -11  -3  -1  173.97   18.90
 -12  -3   1   78.39   18.46
 -12  -3   1   62.11   16.73
 -12  -3  -1   93.42   21.54
 -12  -3  -1  106.20   22.23
 -13  -3  -1   82.16   17.59
 -13  -3  -1  118.73   17.75
 -14  -3  -1    5.21   10.12
 -14  -3  -1   17.42   10.04
 -15  -3  -1    6.56    6.90
 -15  -3  -1    3.68    6.97
   0  -3   2   -6.02    9.45
   0  -3  -2   -7.71    4.34
   0  -3  -2   -6.30    4.47
  -1  -3   2 1789.22  235.19
   1  -3  -2 1770.82  250.89
  -1  -3   2 1769.67  239.25
   1  -3  -2 1775.65  254.48
   1  -3   2 1670.30  285.23
  -1  -3  -2 1741.50  254.34
   1  -3   2 1663.71  288.88
  -1  -3  -2 1733.22  254.84
  -2  -3   2  760.33   67.91
   2  -3  -2  722.56   57.48
  -2  -3   2  734.48   66.75
   2  -3  -2  734.58   57.38
   2  -3   2  688.12   66.03
  -2  -3  -2  726.67   59.63
   2  -3   2  687.13   67.46
  -2  -3  -2  729.62   60.41
  -3  -3   2  573.78   46.41
   3  -3  -2  478.42   48.24
  -3  -3   2  566.31   46.31
   3  -3  -2  509.88   49.40
   3  -3   2  555.30   69.38
  -3  -3  -2  517.01   56.44
   3  -3   2  531.25   71.06
  -3  -3  -2  526.86   55.89
  -4  -3   2  994.66   91.42
   4  -3  -2  749.13   88.10
  -4  -3   2  968.63   91.20
   4  -3  -2  831.12   92.27
   4  -3   2 1006.15  104.42
  -4  -3  -2  986.32  112.92
   4  -3   2  989.89  105.29
  -4  -3  -2  966.41  109.51
  -5  -3   2  200.24   15.61
   5  -3  -2  140.51   15.69
  -5  -3   2  211.21   15.65
   5  -3  -2  140.13   15.80
   5  -3   2  195.03   27.48
  -5  -3  -2  200.40   22.01
   5  -3   2  203.13   27.88
  -5  -3  -2  197.39   14.93
  -6  -3   2  154.40   19.85
  -6  -3   2  158.31   20.44
   6  -3   2  160.27   24.52
  -6  -3  -2  144.86   14.40
   6  -3   2  140.77   25.00
  -6  -3  -2  151.53   13.49
  -7  -3   2   24.39    8.25
  -7  -3   2   20.29    8.52
   7  -3   2    9.30   11.83
  -7  -3  -2   18.31    6.60
   7  -3   2   13.77   11.89
  -7  -3  -2   21.32    6.64
  -8  -3   2   36.76    6.28
  -8  -3   2   28.31    6.14
  -8  -3  -2   56.68    8.56
  -8  -3  -2   49.91    8.28
  -9  -3   2  259.13   28.51
  -9  -3   2  266.17   29.03
  -9  -3  -2  273.74   28.25
  -9  -3  -2  280.23   27.28
 -10  -3   2  287.03   26.25
 -10  -3   2  296.84   25.53
 -10  -3  -2  536.21   51.57
 -10  -3  -2  457.22   45.05
 -11  -3   2  253.97   33.32
 -11  -3   2  256.69   33.69
 -11  -3  -2  373.10   42.91
 -11  -3  -2  401.24   43.59
 -12  -3  -2  129.65   34.57
 -12  -3  -2  173.84   35.43
 -13  -3  -2  292.80   60.20
 -13  -3  -2  429.36   59.52
  14   3   2   19.03    9.69
 -14  -3  -2   19.41    7.25
 -14  -3  -2   28.41    7.37
  15   3   2  125.00   12.22
 -15  -3  -2  130.06   17.14
 -15  -3  -2  145.76   17.62
  16   3   2   82.61   11.60
 -16  -3  -2   98.61    9.61
 -16  -3  -2   97.66    9.85
   0  -3   3   26.44   10.37
   0  -3  -3   21.69    4.93
   0  -3   3   23.17   10.19
   0  -3  -3   19.07    4.81
  -1  -3   3  324.42   26.40
   1  -3  -3  287.41   20.28
  -1  -3   3  322.66   27.34
   1  -3  -3  280.18   27.82
   1  -3   3  312.33   38.92
  -1  -3  -3  327.77   32.53
   1  -3   3  306.90   40.15
  -1  -3  -3  324.00   32.30
  -2  -3   3  128.38   11.90
   2  -3  -3   89.11   12.13
  -2  -3   3  125.30   12.46
   2  -3  -3  101.16   12.37
   2  -3   3  103.84   13.07
  -2  -3  -3  123.97   10.11
   2  -3   3  106.41   12.94
  -2  -3  -3  125.65   10.35
  -3  -3   3  548.33   43.67
  -3  -3   3  538.22   43.46
   3  -3  -3  354.89   39.03
   3  -3   3  492.04   67.10
  -3  -3  -3  541.99   58.82
   3  -3   3  461.80   69.04
  -3  -3  -3  526.32   55.81
  -4  -3   3   87.60   14.71
  -4  -3   3   89.01   14.99
   4  -3   3   76.36   11.63
  -4  -3  -3   76.94    9.19
   4  -3   3   81.52   11.91
  -4  -3  -3   79.45    8.69
  -5  -3   3   28.96    8.83
  -5  -3   3    7.02    9.07
   5  -3   3   16.28    7.61
  -5  -3  -3   13.51    5.96
   5  -3   3   15.00    7.82
  -5  -3  -3   10.06    5.97
   6   3   3   -2.70    6.53
  -6  -3   3    9.88    7.82
  -6  -3   3    4.12    8.15
   6  -3   3    7.37   11.51
  -6  -3  -3    4.58    9.68
   6  -3   3   -7.84   12.02
  -6  -3  -3   -3.45    9.44
   7   3   3   20.38   11.22
  -7  -3   3   13.29    5.03
  -7  -3   3   15.88    5.20
   7  -3   3   24.29   13.99
  -7  -3  -3   23.05   11.43
   7  -3   3   14.42   13.95
  -7  -3  -3   29.28   11.27
   8   3   3   23.66   11.05
  -8  -3   3    7.74    7.76
  -8  -3   3   20.27    7.62
  -8  -3  -3   16.26   11.20
   8  -3   3   15.63   13.84
  -8  -3  -3    8.37   11.70
   9   3   3    1.60   10.26
  -9  -3   3    1.64    4.01
  -9  -3   3   -3.09    4.14
  -9  -3  -3    5.22    8.63
  -9  -3  -3    1.54    7.99
  10   3   3   37.73    8.57
 -10  -3  -3   34.34   11.66
 -10  -3  -3   38.68   12.11
  11   3   3   25.31    7.30
 -11  -3  -3   13.65   10.72
 -11  -3  -3   12.27   10.88
  12   3   3   38.40    8.50
 -12  -3  -3   57.93   23.25
 -12  -3  -3   72.70   23.16
  13   3   3   -5.18    5.71
 -13  -3  -3   -2.10   11.88
 -13  -3  -3   13.18   11.44
  14   3   3    5.39    8.36
 -14  -3  -3    1.98    5.76
 -14  -3  -3    4.78    5.77
 -15  -3  -3   54.44   13.04
 -15  -3  -3   88.73   13.17
  16   3   3    3.62    5.76
 -16  -3  -3   -0.65    3.18
 -16  -3  -3    2.26    3.20
   0  -3   4   24.97    6.93
   0  -3  -4   -2.40    8.08
   0  -3   4   28.45    6.86
   0  -3  -4    1.56    8.12
   1   3   4 1682.78  180.99
  -1  -3   4 1373.17  207.16
   1  -3  -4  828.18  155.42
  -1  -3   4 1337.37  211.18
   1  -3  -4 1186.13  158.79
   1  -3   4 1341.62  163.06
  -1  -3  -4 1322.61  152.26
   1  -3   4 1321.47  167.79
  -1  -3  -4 1439.46  159.06
   2   3   4  602.03   40.03
  -2  -3   4  509.97   63.76
  -2  -3   4  470.61   64.98
   2  -3  -4  341.45   43.16
   2  -3   4  473.04   72.21
  -2  -3  -4  497.39   45.59
   2  -3   4  452.79   74.75
  -2  -3  -4  511.99   44.80
  -3  -3   4  650.59   82.58
  -3  -3   4  632.49   83.20
   3  -3   4  585.60   67.48
  -3  -3  -4  650.56   90.50
   3  -3   4  611.90   70.03
  -3  -3  -4  720.01   89.21
   4   3   4  283.13   19.57
  -4  -3   4  263.49   33.94
  -4  -3   4  246.75   34.59
  -4  -3  -4  261.04   24.97
  -4  -3  -4  228.79   23.55
   5   3   4  391.08   27.48
  -5  -3   4  327.62   27.02
  -5  -3   4  308.86   27.32
   5  -3   4  314.26   37.65
  -5  -3  -4  320.71   45.24
   5  -3   4  304.33   37.37
  -5  -3  -4  327.18   45.40
   6   3   4    8.85    6.44
  -6  -3   4   -7.54    8.33
  -6  -3   4    6.67    8.37
   6  -3   4   14.06    8.58
  -6  -3  -4   16.69   10.17
   6  -3   4   10.92    8.61
  -6  -3  -4    5.39   10.48
   7   3   4    7.60   10.55
  -7  -3   4   14.53    7.49
  -7  -3   4   16.64    7.63
   7  -3   4    2.83    9.06
  -7  -3  -4   17.00    8.91
   7  -3   4    6.76    9.20
  -7  -3  -4    8.39    8.08
   8   3   4   16.63    6.66
  -8  -3   4    4.46    6.73
  -8  -3   4    2.26    6.70
  -8  -3  -4    2.55    8.84
   8  -3   4    6.85    9.28
  -8  -3  -4    8.52    9.08
   9   3   4  578.89   95.40
  -9  -3  -4  673.43  134.20
  -9  -3  -4  714.53  134.16
  10   3   4  173.58   17.91
 -10  -3  -4   99.94   38.84
  11   3   4  454.05   54.21
 -11  -3  -4  733.86  130.85
 -11  -3  -4  813.75  132.86
  12   3   4  186.17   18.88
 -12  -3  -4  169.00   37.40
 -12  -3  -4  197.73   36.70
  13   3   4  337.77   40.62
 -13  -3  -4  283.42   46.92
 -13  -3  -4  292.04   47.60
  14   3   4    6.25    7.93
 -14  -3  -4   -5.01    5.26
 -14  -3  -4    4.35    5.39
 -15  -3  -4   87.24   11.00
 -15  -3  -4  125.33   11.11
  16   3   4   53.12    5.12
 -16  -3  -4   35.14    5.03
 -16  -3  -4   30.50    5.34
   0   3   5   50.06    6.01
   0  -3   5   44.93   12.20
   0  -3  -5   15.82    5.79
   0  -3   5   44.84   12.05
   0  -3  -5   15.24    5.96
   1   3   5   14.70    5.23
  -1  -3   5    6.14    9.86
  -1  -3   5    7.59   10.15
   1  -3   5   27.65    7.07
  -1  -3  -5    0.12    8.72
   1  -3   5    7.45    7.20
  -1  -3  -5    0.23    8.96
   2   3   5   19.55    8.03
  -2  -3   5   17.51   10.68
  -2  -3   5   14.57   10.91
   2  -3   5    7.10    8.14
  -2  -3  -5   24.11    9.99
   2  -3   5   23.40    8.05
  -2  -3  -5   29.90   10.40
   3   3   5    6.47    6.41
  -3  -3   5   11.03    9.64
  -3  -3   5    2.16   10.07
   3  -3   5    1.77   11.93
  -3  -3  -5    9.30    8.18
   3  -3   5   13.31   12.55
  -3  -3  -5    3.89    7.53
   4   3   5    9.25    8.24
  -4  -3   5   12.09    9.76
  -4  -3   5    8.55    9.82
   4  -3   5   14.68    8.21
  -4  -3  -5    1.47    9.11
   4  -3   5    9.40    8.53
  -4  -3  -5    9.36    8.24
  -5  -3   5  207.96   17.73
  -5  -3   5  186.01   17.96
   5  -3   5  212.90   25.80
  -5  -3  -5  202.88   40.03
   5  -3   5  201.38   26.40
  -5  -3  -5  249.22   41.35
   6   3   5   12.44    5.48
  -6  -3   5    2.45    8.32
  -6  -3   5   -3.72    8.35
   6  -3   5   37.34   14.60
  -6  -3  -5   22.89    8.61
   6  -3   5   -1.78   14.54
  -6  -3  -5    4.28    8.90
   7  -3   5  308.66   60.02
   7  -3   5  298.09   60.98
   8   3   5   23.25    8.07
  -8  -3  -5   14.74   17.19
  -8  -3  -5   25.80   17.26
   9   3   5  140.61   30.90
  -9  -3  -5  203.48   31.49
  -9  -3  -5  200.44   31.08
  10   3   5   11.27   11.64
 -10  -3  -5   13.14    8.82
 -10  -3  -5    3.69    8.57
  11   3   5   78.83   17.79
 -11  -3  -5   67.34   13.91
 -11  -3  -5   96.31   13.84
  12   3   5   10.67    9.62
 -12  -3  -5    9.66   10.55
 -12  -3  -5   -8.36   10.74
  13   3   5   18.11   11.92
 -13  -3  -5   40.34    7.70
 -13  -3  -5   45.96    7.95
  14   3   5   19.31    5.66
 -14  -3  -5   19.69    5.48
 -14  -3  -5   12.16    5.51
  15   3   5    5.83    5.73
 -15  -3  -5   -5.48    6.45
 -15  -3  -5   -3.85    6.35
   0   3   6  111.83   14.47
   0  -3   6   72.81   19.06
   0  -3   6   61.67   19.50
   1   3   6  251.57   24.14
  -1  -3   6  234.58   29.66
  -1  -3   6  194.28   29.35
   1  -3   6  188.90   32.60
  -1  -3  -6  158.44   21.41
   1  -3   6  188.48   21.69
  -1  -3  -6  154.67   22.27
   2   3   6   11.58    8.15
  -2  -3   6   20.75   11.03
  -2  -3   6   13.40   11.37
   2  -3   6   21.55    8.44
  -2  -3  -6   16.40    8.63
   2  -3   6   12.23    8.47
  -2  -3  -6   18.87    8.70
   3   3   6   -7.92    6.81
  -3  -3   6    0.14   10.24
  -3  -3   6    4.95   10.57
   3  -3   6   22.30   12.22
  -3  -3  -6   -1.03    8.21
   3  -3   6   16.75   12.64
  -3  -3  -6   -2.91    8.31
   4   3   6  539.11   45.76
  -4  -3   6  451.93   58.49
  -4  -3   6  366.21   58.69
   4  -3   6  413.75   53.05
  -4  -3  -6  309.86   85.60
   4  -3   6  378.31   53.30
  -4  -3  -6  509.62   89.55
   5   3   6    6.46    5.76
  -5  -3   6    6.41    5.25
  -5  -3   6    4.05    5.35
   5  -3   6    6.18    9.07
  -5  -3  -6   18.80   18.61
   5  -3   6    9.79    9.09
  -5  -3  -6   17.17   18.46
   6   3   6 1810.47  244.99
   6  -3   6  823.79  284.44
  -6  -3  -6 1767.02  310.98
   6  -3   6  786.55  285.51
  -6  -3  -6 1838.47  318.60
   7   3   6   13.66   10.13
   7  -3   6   24.63   15.66
  -7  -3  -6    3.98   13.79
   7  -3   6    5.42   15.87
  -7  -3  -6    8.53   13.45
   8   3   6 1010.44  157.32
  -8  -3  -6  974.27  144.68
  -8  -3  -6  972.85  143.59
   9   3   6   41.31    7.99
  -9  -3  -6   39.27   10.27
  -9  -3  -6   39.28   10.30
  10   3   6  148.42   14.44
 -10  -3  -6  112.70   27.53
 -10  -3  -6  130.76   28.15
  11   3   6   23.00    6.36
 -11  -3  -6   21.39   11.97
 -11  -3  -6   23.37   12.06
  12   3   6    5.63    5.53
 -12  -3  -6   11.01    6.34
 -12  -3  -6   24.52    6.41
 -13  -3  -6   20.83    6.37
 -13  -3  -6   34.14    6.55
  14   3   6    8.78    7.50
 -14  -3  -6   28.88    8.00
 -14  -3  -6   23.38    8.14
  15   3   6   33.15    5.83
 -15  -3  -6   13.52    3.97
 -15  -3  -6   13.75    4.05
   0   3   7  216.73   15.53
   0  -3   7  170.13   20.08
   0  -3   7  160.34   20.58
   1   3   7  201.74   14.62
  -1  -3   7  143.02   28.65
  -1  -3   7  120.44   28.87
   1  -3   7  167.45   19.92
   1  -3   7  143.44   20.41
   2   3   7  181.47   19.71
  -2  -3   7  153.27   24.64
  -2  -3   7  112.97   25.33
   2  -3   7  153.84   28.84
  -2  -3  -7  100.18   23.28
   2  -3   7  133.85   28.88
  -2  -3  -7   95.15   22.90
   3   3   7  431.71   38.44
  -3  -3   7  336.29   47.28
  -3  -3   7  244.82   32.95
   3  -3   7  343.66   38.71
  -3  -3  -7  345.59   52.67
   3  -3   7  323.51   40.01
  -3  -3  -7  310.95   51.13
   4   3   7    9.31    8.14
  -4  -3   7   -5.71    5.51
  -4  -3   7    1.06    5.54
   4  -3   7    3.89   13.33
  -4  -3  -7   -0.85   11.12
   4  -3   7    6.56   13.49
  -4  -3  -7    5.56   11.26
   5   3   7   72.79    7.87
   5  -3   7   42.50   13.58
  -5  -3  -7   61.34   18.56
   5  -3   7   52.17   13.59
  -5  -3  -7   86.52   18.84
   6   3   7   77.20   11.84
   6  -3   7   60.64   12.59
  -6  -3  -7   42.78   11.32
   6  -3   7   36.36   12.88
  -6  -3  -7   46.15   11.40
   7   3   7   21.03    7.01
   7  -3   7   15.94    9.99
  -7  -3  -7   14.64   13.27
   7  -3   7   22.36    9.86
  -7  -3  -7    3.54   13.56
   8   3   7   23.13   11.06
   8  -3   7   12.13    9.63
  -8  -3  -7   14.77    6.88
   8  -3   7    4.17    9.64
  -8  -3  -7   16.63    7.08
   9   3   7   94.57   14.61
  -9  -3  -7   39.67   14.52
  -9  -3  -7   45.69   14.96
  10   3   7   34.44   10.18
 -10  -3  -7   15.72    6.60
 -10  -3  -7   14.65    6.66
  11   3   7  179.07   18.41
 -11  -3  -7   92.35   12.12
 -11  -3  -7  109.91   11.88
  12   3   7  150.15   15.98
 -12  -3  -7   77.93    9.50
 -12  -3  -7   95.43    9.58
  13   3   7   46.66    5.90
 -13  -3  -7   31.47    6.02
 -13  -3  -7   29.91    6.34
   0  -3   8    9.38   11.41
   0  -3   8   18.77   11.68
  -1  -3   8  256.54   40.38
  -1  -3   8  221.99   41.44
   1  -3   8  319.08   41.45
   1  -3   8  265.39   42.05
   2   3   8  358.81   35.40
  -2  -3   8  239.44   39.79
  -2  -3   8  213.82   40.46
   2  -3   8  270.04   30.30
   2  -3   8  240.56   30.17
   3   3   8  120.71   15.16
  -3  -3   8   44.83   14.68
  -3  -3   8   45.99   14.89
   3  -3   8   99.26   20.80
   3  -3   8   85.09   20.97
   4  -3   8  552.00   52.29
  -4  -3  -8  373.44   37.59
   4  -3   8  510.18   53.03
  -4  -3  -8  374.76   38.21
   5   3   8   17.41    8.74
   5  -3   8  -10.14   12.88
  -5  -3  -8    7.58    5.57
   5  -3   8   19.73   13.38
  -5  -3  -8    4.69    5.74
  -6  -3  -8   86.21   16.37
   6  -3   8  113.35   22.88
  -6  -3  -8   72.74   16.94
   7   3   8   26.65    9.39
   7  -3   8   10.04   13.53
  -7  -3  -8   11.62    9.24
   7  -3   8    8.09   13.93
  -7  -3  -8    8.58    9.38
   8  -3   8   39.76   14.32
  -8  -3  -8   17.57    6.72
   8  -3   8   36.44   14.38
  -8  -3  -8   28.37    6.69
   9   3   8   -4.11    4.69
   9  -3   8   -8.25   10.84
  -9  -3  -8   -5.72    8.08
   9  -3   8    6.48   11.35
  -9  -3  -8    2.45    8.20
 -10  -3  -8   99.24   11.25
 -10  -3  -8  125.60   11.31
  11   3   8   36.26    5.23
 -11  -3  -8   26.05    5.80
 -11  -3  -8   31.80    6.06
  12   3   8   39.94    7.39
 -12  -3  -8   29.88    4.89
 -12  -3  -8   39.87    4.91
   0  -3   9   71.31   15.38
   0  -3   9   61.49   15.66
  -1  -3   9   22.63   10.83
  -1  -3   9  -11.48   11.21
   1  -3   9   27.49   11.42
   1  -3   9   43.06   11.77
   2  -3   9  194.64   18.81
   2  -3   9  168.47   19.03
   3  -3   9   52.38   14.92
   3  -3   9   50.92   15.29
   4   3   9  372.08   32.01
   4  -3   9  222.50   25.03
   4  -3   9  190.51   24.98
   5   3   9   17.88    5.38
   5  -3   9   13.52   10.52
  -5  -3  -9    2.84    4.16
   5  -3   9  -12.73   10.74
  -5  -3  -9    3.55    4.33
   6   3   9   -0.63    8.27
   6  -3   9   10.51   10.27
  -6  -3  -9   -1.32    4.21
   6  -3   9   22.20   10.45
  -6  -3  -9   -2.63    4.40
   7  -3   9   53.25   12.32
  -7  -3  -9   25.37    5.71
   7  -3   9   39.22   12.98
  -7  -3  -9   30.14    5.92
   8  -3   9   42.77   11.96
  -8  -3  -9   35.46    7.80
   8  -3   9   26.38   12.17
  -8  -3  -9   32.73    9.46
   9   3   9   13.39    4.90
   9  -3   9    7.54    9.23
  -9  -3  -9    9.49    3.96
   9  -3   9   18.43    8.93
  -9  -3  -9   13.31    4.07
  10  -3   9   88.79    9.49
 -10  -3  -9  112.18   12.68
  10  -3   9   82.51    9.69
 -10  -3  -9   95.01   13.03
   0  -3  10    6.22    4.58
   0  -3  10    1.22    4.69
   1  -3  10   94.17    9.77
   1  -3  10   70.08    9.74
   2  -3  10   49.15   10.71
   2  -3  10   32.00   11.17
   3  -3  10  133.95   19.18
   3  -3  10  131.83   19.23
  -4  -3 -10    9.56    4.38
   4  -3  10    5.64    7.93
   4  -3  10   -2.09    8.05
   5  -3  10   79.39    8.06
   5  -3  10   66.00    8.14
   6  -3  10   18.30    8.15
   6  -3  10   20.26    8.37
   7   3  10    9.37    4.17
   7  -3  10    5.46    6.97
   7  -3  10   -0.29    7.03
   8   3  10   11.44    3.85
   8  -3  10    0.99    6.52
   8  -3  10    6.99    6.50
  -2  -3 -11  184.28   12.17
  -3  -3 -11   23.85    7.41
   0  -4   0 3219.37  673.62
   0  -4   0 3108.08  674.65
  -1  -4   0  -33.13   12.62
  -1  -4   0  -28.11   13.09
   2  -4   0 1250.22  198.87
  -2  -4   0 1145.90  183.38
   2  -4   0 1192.09  201.60
  -2  -4   0 1115.70  186.59
   3  -4   0  -12.73    6.54
  -3  -4   0   -3.55    6.10
   3  -4   0    3.59    6.66
  -3  -4   0   -7.95    6.36
   4  -4   0   71.85   10.58
  -4  -4   0   67.65   16.47
   4  -4   0   74.03   10.58
  -4  -4   0   80.31   16.22
   5  -4   0   -4.53    5.84
  -5  -4   0   -8.79    9.46
   5  -4   0    3.49    5.96
  -5  -4   0    8.51    9.62
  -6  -4   0   65.21   14.81
  -6  -4   0   66.31   15.11
  -7  -4   0    6.34    6.30
  -7  -4   0    8.36    6.26
  -8  -4   0   72.84   10.72
  -8  -4   0   83.48   10.75
  -9  -4   0   17.32   11.46
  -9  -4   0   14.78   11.23
 -10  -4   0   89.13   19.28
 -10  -4   0  112.16   19.33
 -11  -4   0    6.10   12.14
 -11  -4   0    6.84    7.69
 -12  -4   0  499.79   55.78
 -12  -4   0  507.03   78.26
 -13  -4   0    8.94    5.07
 -13  -4   0   -1.06    4.89
   0  -4   1    5.44    7.21
   0  -4  -1    6.16    9.43
   0  -4   1    1.96    7.29
   0  -4  -1   13.57    9.72
  -1  -4   1  145.56   25.14
   1  -4  -1  139.07   21.97
  -1  -4   1  145.30   26.14
   1  -4  -1  138.03   14.38
   1  -4   1  148.38   25.59
  -1  -4  -1  139.17   14.20
   1  -4   1  156.25   26.46
  -1  -4  -1  134.38   14.53
  -2  -4   1   61.53    9.32
   2  -4  -1   31.14    7.59
  -2  -4   1   48.55    9.50
   2  -4  -1   37.79    7.73
   2  -4   1   41.76    9.19
  -2  -4  -1   53.53   12.87
   2  -4   1   33.67    9.44
  -2  -4  -1   43.10   12.85
  -3  -4   1   34.48    7.77
   3  -4  -1   35.20    6.57
   3  -4  -1   24.66    6.63
  -3  -4   1   23.35    7.89
   3  -4   1   27.71    8.25
  -3  -4  -1   17.92    7.33
   3  -4   1   36.09    8.43
  -3  -4  -1   21.95    7.52
   4  -4  -1   21.11   10.53
  -4  -4   1   51.24   12.84
   4  -4  -1   22.64   10.87
  -4  -4   1   40.19   12.98
   4  -4   1   41.72   14.43
  -4  -4  -1   40.73    8.16
   4  -4   1   43.82   14.78
  -4  -4  -1   48.87    8.10
  -5  -4   1  210.58   27.66
  -5  -4   1  182.52   27.51
   5  -4   1  132.72   30.14
  -5  -4  -1  179.24   30.26
   5  -4   1  154.57   30.56
  -5  -4  -1  203.72   28.68
  -6  -4   1   83.19   15.94
  -6  -4   1   86.97   15.72
   6  -4   1   63.72   17.23
  -6  -4  -1   85.84   17.63
   6  -4   1   46.13   17.44
  -6  -4  -1   73.44   16.91
  -7  -4   1    8.01   10.31
  -7  -4   1   28.66   10.50
  -7  -4  -1   10.57    7.48
  -7  -4  -1   29.42    7.35
  -8  -4   1   48.09   13.68
  -8  -4   1   44.81   13.42
  -8  -4  -1   43.94    9.62
  -8  -4  -1   55.40    9.36
  -9  -4   1   31.10   13.61
  -9  -4   1   36.14   13.44
  -9  -4  -1   39.59    8.69
  -9  -4  -1   43.91    8.79
 -10  -4   1    0.90    5.83
 -10  -4   1    6.63    5.83
 -10  -4  -1   -0.89    8.26
 -10  -4  -1    5.34    7.52
 -11  -4   1    8.73   11.67
 -11  -4   1    6.01   10.55
 -11  -4  -1    9.70   12.90
 -11  -4  -1   16.40   13.29
 -12  -4   1   14.67    6.95
 -12  -4   1    9.96    7.09
 -12  -4  -1   28.65   14.94
 -12  -4  -1   28.70   14.86
 -13  -4   1   17.92    5.04
 -13  -4   1   28.60    4.99
 -13  -4  -1   29.38   10.44
 -13  -4  -1   41.25   10.28
 -14  -4  -1   41.62    6.68
 -14  -4  -1   30.43    6.76
   0  -4   2   92.69   11.86
   0  -4  -2   74.30   14.66
   0  -4   2   73.83   12.43
   0  -4  -2   70.95   14.84
  -1  -4   2   53.80   15.13
   1  -4  -2   24.02    7.10
  -1  -4   2   47.76   15.09
   1  -4  -2   42.34    6.96
   1  -4   2   39.75   14.71
  -1  -4  -2   49.81   11.89
   1  -4   2   51.45   15.15
  -1  -4  -2   48.54   12.21
  -2  -4   2  218.59   31.58
   2  -4  -2  149.61   15.23
  -2  -4   2  192.22   32.71
   2  -4  -2  139.85   15.39
   2  -4   2  244.79   22.19
  -2  -4  -2  179.95   17.52
   2  -4   2  230.72   22.57
  -2  -4  -2  216.78   17.82
  -3  -4   2  352.88   32.05
  -3  -4   2  317.13   32.44
   3  -4   2  303.13   35.94
  -3  -4  -2  302.59   46.25
   3  -4   2  273.91   36.69
  -3  -4  -2  309.19   43.52
  -4  -4   2  532.39   51.76
  -4  -4   2  517.04   52.22
   4  -4   2  485.70   88.14
  -4  -4  -2  528.15   55.10
   4  -4   2  478.74   89.75
  -4  -4  -2  516.29   52.65
  -5  -4   2  679.50   69.07
  -5  -4   2  698.29   72.33
   5  -4   2  698.21  123.23
  -5  -4  -2  683.18   75.91
   5  -4   2  563.56  123.64
  -5  -4  -2  722.49   76.57
  -6  -4   2   94.58   10.68
  -6  -4   2   86.41   10.54
   6  -4   2   51.19   21.74
  -6  -4  -2   82.54   19.96
   6  -4   2   41.47   22.28
  -6  -4  -2   89.28   19.85
  -7  -4   2  543.97   46.57
  -7  -4   2  354.98   48.41
  -7  -4  -2  522.41   78.77
  -7  -4  -2  584.00   77.06
  -8  -4   2  173.22   16.65
  -8  -4   2  180.16   16.30
  -8  -4  -2   92.18   17.76
  -8  -4  -2  159.37   18.13
  -9  -4   2  249.76   26.85
  -9  -4   2  236.20   38.53
  -9  -4  -2  371.41   40.71
  -9  -4  -2  366.67   37.25
 -10  -4   2  412.47   54.95
 -10  -4   2  384.01   55.68
 -10  -4  -2  508.24   57.67
 -10  -4  -2  530.70   59.69
 -11  -4   2   37.32    8.16
 -11  -4   2   34.36   11.47
 -11  -4  -2   32.05   16.65
 -11  -4  -2   22.20   16.92
 -12  -4   2  127.89   12.31
 -12  -4   2  110.98   12.55
 -12  -4  -2  110.12   23.07
 -12  -4  -2  159.04   22.32
 -13  -4  -2   -1.85    5.50
 -13  -4  -2   15.24    5.51
 -14  -4  -2    5.01    5.67
 -14  -4  -2   12.77    5.83
   0  -4   3    6.89   11.79
   0  -4  -3    0.16    5.38
   0  -4   3   10.02   11.92
   0  -4  -3    5.11    5.21
  -1  -4   3   47.47    8.04
   1  -4  -3    6.21    6.05
  -1  -4   3   28.78    8.30
   1  -4  -3   13.40    5.87
   1  -4   3   11.75    8.69
  -1  -4  -3   21.41   10.43
   1  -4   3   42.98    8.61
  -1  -4  -3   17.63   10.08
  -2  -4   3   28.37   13.86
  -2  -4   3   34.15   13.76
   2  -4  -3   21.03    5.78
   2  -4   3   55.19   15.30
  -2  -4  -3   32.89    7.70
   2  -4   3   35.51   15.62
  -2  -4  -3   36.60    7.67
  -3  -4   3  153.48   25.46
  -3  -4   3  143.37   25.43
   3  -4   3  136.85   18.53
  -3  -4  -3  123.85   15.56
   3  -4   3  136.09   18.86
  -3  -4  -3  139.35   15.26
  -4  -4   3   69.05   14.93
  -4  -4   3   60.24   15.47
   4  -4   3   45.13   11.51
  -4  -4  -3   53.08   15.54
   4  -4   3   50.20   11.86
  -4  -4  -3   37.75   15.35
  -5  -4   3   92.09   17.03
  -5  -4   3   96.04   18.10
   5  -4   3   88.37   23.54
  -5  -4  -3   77.92   20.03
   5  -4   3   81.12   24.43
  -5  -4  -3   94.12   20.09
  -6  -4   3   29.76   11.04
  -6  -4   3   30.32   11.48
   6  -4   3   55.66   15.89
  -6  -4  -3   16.99    8.30
   6  -4   3   37.52   16.04
  -6  -4  -3   13.19    8.36
  -7  -4   3   16.61    9.85
  -7  -4   3    6.37    9.78
  -7  -4  -3    0.67   15.64
  -7  -4  -3   27.79   14.06
  -8  -4   3   13.57   10.41
  -8  -4   3   13.50    9.96
  -8  -4  -3   20.99   16.44
  -8  -4  -3   34.21   14.83
  -9  -4   3  159.15   14.40
  -9  -4   3  135.16   14.24
  -9  -4  -3  171.66   32.85
  -9  -4  -3  175.18   33.91
 -10  -4   3   11.44    8.21
 -10  -4   3   17.37    8.31
 -10  -4  -3   12.35   14.58
 -10  -4  -3    7.96   14.60
 -11  -4  -3  149.24   42.80
 -11  -4  -3  226.31   41.90
 -12  -4  -3   19.27   10.29
 -12  -4  -3    0.78   10.28
 -13  -4  -3   -2.22    4.55
 -13  -4  -3    9.66    4.67
   0  -4   4   11.36    7.81
   0  -4  -4   10.47    8.93
   0  -4   4    7.68    7.84
   0  -4  -4    1.12    8.78
  -1  -4   4   90.38   17.45
  -1  -4   4   89.01   18.06
   1  -4   4   81.11   19.27
  -1  -4  -4   49.47   14.61
   1  -4   4   53.49   19.14
  -1  -4  -4   55.60   14.36
  -2  -4   4   71.98   16.02
  -2  -4   4   45.82   16.65
   2  -4   4   82.24   11.93
  -2  -4  -4   26.28   13.90
   2  -4   4   66.81   12.02
  -2  -4  -4   38.38   14.31
  -3  -4   4  523.79   48.24
  -3  -4   4  532.40   50.19
   3  -4   4  413.48   78.85
  -3  -4  -4  385.99   42.83
   3  -4   4  383.67   78.22
  -3  -4  -4  427.93   44.80
  -4  -4   4  246.43   23.10
  -4  -4   4  227.27   23.68
   4  -4   4  225.40   27.49
  -4  -4  -4  150.16   32.80
   4  -4   4  206.26   28.37
  -4  -4  -4  197.67   33.75
  -5  -4   4  733.28   67.54
  -5  -4   4  583.42   68.35
   5  -4   4  530.02   81.01
  -5  -4  -4  802.38   92.72
   5  -4   4  478.66   81.57
  -5  -4  -4  747.14   82.49
  -6  -4   4   58.24    8.74
  -6  -4   4   56.32    8.98
   6  -4   4   38.82   12.42
  -6  -4  -4   65.19   20.18
   6  -4   4   44.18   13.15
  -6  -4  -4   67.82   20.98
  -7  -4   4  352.52   44.44
  -7  -4   4  333.29   44.43
  -7  -4  -4  359.59   49.14
  -7  -4  -4  394.38   50.21
  -8  -4   4   24.00   10.61
  -8  -4   4   29.26   10.17
  -8  -4  -4   31.48   11.55
  -8  -4  -4   47.64   11.67
  -9  -4   4  143.45   19.64
  -9  -4   4  133.47   19.77
  -9  -4  -4  321.34   44.62
  -9  -4  -4  288.36   44.49
 -10  -4  -4  177.33   33.61
 -10  -4  -4  224.06   32.50
 -11  -4  -4   51.12   15.49
 -11  -4  -4   73.38   15.67
 -12  -4  -4   16.79    8.85
 -12  -4  -4   17.78    9.06
 -13  -4  -4    9.36    4.16
 -13  -4  -4    4.54    4.31
   0  -4   5   28.21   15.56
   0  -4   5   50.91   15.82
  -1  -4   5  443.38   59.05
  -1  -4   5  437.23   59.99
   1  -4   5  417.89   41.69
  -1  -4  -5  259.45   52.71
   1  -4   5  391.69   42.08
  -1  -4  -5  210.76   55.26
  -2  -4   5   14.82    7.31
  -2  -4   5   19.45    7.48
   2  -4   5    9.07   13.73
  -2  -4  -5    6.89    7.63
   2  -4   5   23.08   14.07
  -2  -4  -5    8.00    7.86
  -3  -4   5   54.37    9.47
  -3  -4   5   46.15    9.47
   3  -4   5   47.54   18.05
  -3  -4  -5   40.51   10.50
   3  -4   5   56.99   18.47
  -3  -4  -5   50.66   10.80
  -4  -4   5    1.48    6.43
  -4  -4   5    7.04    6.60
   4  -4   5   12.84    8.51
  -4  -4  -5    3.29   12.46
   4  -4   5    3.82    8.53
  -4  -4  -5    6.11   13.21
  -5  -4   5   49.72    8.37
  -5  -4   5   47.29    8.40
   5  -4   5   34.11   11.78
  -5  -4  -5   63.98   11.77
   5  -4   5   29.00   12.15
  -5  -4  -5   69.97   12.42
  -6  -4   5   20.34    9.09
  -6  -4   5   11.38    9.29
   6  -4   5    9.63   14.46
  -6  -4  -5    4.52   14.50
   6  -4   5   13.29   14.98
  -6  -4  -5    6.28   15.00
  -7  -4   5   45.85   10.05
  -7  -4   5   23.90   10.46
  -7  -4  -5   56.10   14.08
  -7  -4  -5   67.99   13.85
  -8  -4   5    6.68    7.33
  -8  -4   5    8.41    7.03
  -8  -4  -5   21.04   17.01
  -8  -4  -5   27.07   16.73
  -9  -4  -5  -16.34   12.35
  -9  -4  -5   -5.73   11.84
 -10  -4  -5    9.23    6.64
 -10  -4  -5    6.32    6.75
 -11  -4  -5    4.80    5.68
 -11  -4  -5    6.27    5.72
 -12  -4  -5    6.37    4.38
 -12  -4  -5    3.32    4.47
   0  -4   6 1455.08  211.23
   0  -4   6 1386.18  210.62
  -1  -4   6   18.62   12.53
  -1  -4   6    8.38   11.82
  -1  -4   6   -7.70   12.22
   1  -4   6   28.14    8.52
   1  -4   6   17.18    8.52
  -2  -4   6  564.63   73.25
  -2  -4   6  516.51   74.35
   2  -4   6  542.45   84.49
  -2  -4  -6  434.59   84.59
   2  -4   6  475.82   85.92
  -2  -4  -6  420.70   85.03
  -3  -4   6   14.34   10.18
  -3  -4   6   11.63   10.46
   3  -4   6   -4.41   12.96
  -3  -4  -6    5.63   13.38
   3  -4   6  -16.15   13.47
  -3  -4  -6   13.46   13.21
  -4  -4   6   12.19   11.03
  -4  -4   6   31.16   11.29
   4  -4   6   28.38    9.30
  -4  -4  -6    7.97   11.85
   4  -4   6   24.10    9.53
  -4  -4  -6   18.89   15.57
  -5  -4   6   48.04   12.14
  -5  -4   6   36.20   12.41
   5  -4   6   52.80   11.55
  -5  -4  -6   53.65    9.69
   5  -4   6   48.43   11.93
  -5  -4  -6   57.18    9.58
  -6  -4   6   27.51    5.49
  -6  -4   6   17.71    5.49
   6  -4   6   23.20   15.28
  -6  -4  -6   30.78    8.21
   6  -4   6   13.10   15.59
  -6  -4  -6   32.15    7.90
  -7  -4  -6   35.28   14.76
  -7  -4  -6   69.35   14.91
  -8  -4  -6   26.35   13.44
  -8  -4  -6   56.82   13.48
  -9  -4  -6   17.91    5.94
  -9  -4  -6   13.84    6.12
 -10  -4  -6   48.72    6.90
 -10  -4  -6   52.03    7.19
   0  -4   7   10.97    6.74
   0  -4   7    5.78    6.93
  -1  -4   7   11.82    6.93
  -1  -4   7   24.52    7.26
   1  -4   7   40.57   12.40
   1  -4   7   15.58   12.77
  -2  -4   7   17.28    6.54
  -2  -4   7   12.82    6.61
   2  -4   7   15.45    7.81
   2  -4   7   14.54    7.74
  -3  -4   7   94.11   11.37
  -3  -4   7   80.38   11.55
   3  -4   7  168.46   22.54
  -4  -4   7   16.34    5.24
  -4  -4   7    8.87    5.43
   4  -4   7   29.96   12.68
  -4  -4  -7   12.58    4.74
   4  -4   7   24.13   13.27
  -4  -4  -7   15.95    4.88
  -5  -4   7   60.66   11.26
   5  -4   7  101.18   12.95
  -5  -4  -7   83.83   13.08
   5  -4   7   86.44   13.38
  -5  -4  -7   89.21   13.20
   6  -4   7  104.54   12.90
  -6  -4  -7   74.61   12.72
   6  -4   7   72.63   13.08
  -6  -4  -7   84.57   13.07
   7  -4   7    6.68    6.65
  -7  -4  -7    3.49    4.34
   7  -4   7    1.58    6.80
  -7  -4  -7    1.81    4.42
  -8  -4  -7   55.39    9.79
  -8  -4  -7   60.31    9.92
  -9  -4  -7   76.42    6.96
  -9  -4  -7   76.10    6.95
   0  -4   8   70.07    8.54
   0  -4   8   55.20    8.75
  -1  -4   8   -0.05    5.07
  -1  -4   8   -4.82    5.13
   1  -4   8    2.01    8.84
   1  -4   8   14.85    9.23
  -2  -4   8   37.69    6.70
  -2  -4   8   41.50    6.85
  -3  -4   8    9.24    6.47
  -3  -4   8   10.60    6.63
   3  -4   8   17.63   10.12
   3  -4   8   12.80   10.23
   4  -4   8  171.92   17.23
   4  -4   8  168.96   17.36
   5  -4   8   86.04   10.04
   5  -4   8   64.94   10.09
   6  -4   8   19.28    6.50
   6  -4   8   27.88    6.47
   1  -4   9    6.79    3.89
   1  -4   9   16.64    3.85
   0  -5   0   41.06   13.16
   0  -5   0   59.62   13.24
   1  -5   0    2.01    5.83
  -1  -5   0   20.81   10.04
   1  -5   0    4.40    5.97
  -1  -5   0    6.04    9.96
   2  -5   0    4.14    6.29
  -2  -5   0   24.29    6.96
   2  -5   0   12.27    6.43
  -2  -5   0   30.29    6.68
   3  -5   0   -0.54    5.30
  -3  -5   0   12.89   10.32
   3  -5   0    7.10    5.42
  -3  -5   0   10.54   10.25
  -4  -5   0  341.13   32.98
  -4  -5   0  351.79   32.24
  -5  -5   0    8.48    6.03
  -5  -5   0   -9.32    5.92
  -6  -5   0  801.73  108.54
  -6  -5   0  800.53  111.20
  -7  -5   0    7.20   11.69
  -7  -5   0    5.95   10.51
  -8  -5   0  649.69   94.80
  -8  -5   0  669.04   97.29
   0  -5   1    1.69   10.07
   0  -5  -1    8.73   10.38
   0  -5   1   14.89   10.28
   0  -5  -1   21.73   10.50
  -1  -5   1    8.63   10.80
   1  -5  -1   35.81   10.37
  -1  -5   1    2.03   10.79
   1  -5  -1   32.43   10.13
   1  -5   1   27.76    6.90
  -1  -5  -1   12.82    7.08
   1  -5   1   20.30    6.86
  -2  -5   1   34.98    7.11
   2  -5  -1   25.01   10.67
  -2  -5   1   31.75    7.23
   2  -5  -1   20.22   10.34
   2  -5   1   31.98    7.52
  -2  -5  -1   34.87    7.71
   2  -5   1   19.60    7.59
  -2  -5  -1   33.94    7.62
  -3  -5   1   55.87   12.51
  -3  -5   1   42.67   12.03
   3  -5   1    6.27   11.86
  -3  -5  -1   38.95   13.10
   3  -5   1   15.81   11.98
  -3  -5  -1   49.34   12.76
  -4  -5   1    3.11    9.83
  -4  -5   1    4.78    9.56
  -4  -5  -1   14.61    6.53
   4  -5   1    6.64    5.88
  -4  -5  -1   16.28   10.40
  -5  -5   1    1.68    5.89
  -5  -5   1   -2.29    5.92
  -5  -5  -1   -5.95    6.06
  -5  -5  -1  -16.80    6.32
  -6  -5  -1   70.20   18.92
  -6  -5  -1   64.90   17.47
  -7  -5   1   76.87    8.93
  -7  -5   1   63.21    9.06
  -7  -5  -1  113.63   19.32
  -7  -5  -1   82.42   17.50
  -8  -5   1   13.55    6.96
  -8  -5   1   15.45    6.12
  -8  -5  -1   22.38   11.50
  -8  -5  -1   19.64   11.87
   0  -5   2   19.44   10.02
   0  -5  -2    0.73    5.84
   0  -5   2   37.83    9.95
   0  -5  -2   -3.12    5.75
  -1  -5   2  433.24   34.07
  -1  -5   2  414.10   34.20
   1  -5  -2  269.68   30.13
   1  -5   2  402.91   34.12
  -1  -5  -2  340.87   49.64
   1  -5   2  377.15   35.19
  -1  -5  -2  328.40   48.21
  -2  -5   2  201.67   21.93
  -2  -5   2  172.77   21.66
   2  -5   2   96.70   15.04
  -2  -5  -2  171.37   22.31
   2  -5   2  115.00   15.43
  -2  -5  -2  147.71   22.72
  -3  -5   2  111.02   12.56
  -3  -5   2  140.53   12.43
   3  -5   2  118.79   13.28
  -3  -5  -2  111.84   13.29
   3  -5   2  113.11   13.58
  -3  -5  -2  111.39   13.45
  -4  -5   2  359.47   30.50
  -4  -5   2  314.84   29.66
  -4  -5  -2  413.94   60.56
  -4  -5  -2  365.16   54.47
  -5  -5   2   16.37    9.06
  -5  -5   2   15.25    8.84
  -5  -5  -2  -15.13    7.83
  -5  -5  -2  -11.62    7.17
  -6  -5   2   81.00   15.43
  -6  -5   2   72.85   15.12
  -6  -5  -2   97.11   12.60
  -6  -5  -2   88.96   13.30
  -7  -5   2   20.37    8.80
  -7  -5   2   21.36    8.92
  -7  -5  -2   18.56   13.17
  -7  -5  -2   20.46   13.43
   0  -5   3   28.32    6.23
   0  -5  -3    4.40    6.84
   0  -5   3   25.26    6.41
   0  -5  -3    3.34    6.22
  -1  -5   3   46.29   15.03
  -1  -5   3   76.24   15.25
   1  -5   3   84.95   15.49
   1  -5   3  107.76   15.95
  -2  -5   3   11.62    6.05
  -2  -5   3    5.42    5.99
   2  -5   3   31.54   10.63
  -2  -5  -3   10.42   12.31
   2  -5   3   27.51   10.96
  -2  -5  -3   28.57   11.12
  -3  -5   3  144.42   20.90
  -3  -5   3  129.91   21.18
  -3  -5  -3  178.73   27.72
  -3  -5  -3  174.11   28.36
   4  -5   3    5.57    5.95
  -4  -5  -3   10.99    7.17
   4  -5   3    7.11    6.19
  -4  -5  -3    7.79    7.53
  -5  -5   3   25.51    9.51
  -5  -5   3   28.05    9.28
  -5  -5  -3   28.59   13.95
  -5  -5  -3   28.65   14.32
  -6  -5   3   -3.30    7.38
  -6  -5   3    7.07    7.32
  -6  -5  -3   -0.06    6.91
  -6  -5  -3   -3.22    7.02
   0  -5   4   30.40    6.79
   0  -5   4   30.63   10.94
  -1  -5   4  369.72   40.10
  -1  -5   4  371.46   41.32
   1  -5   4  356.76   43.25
  -1  -5  -4  189.38   47.24
   1  -5   4  328.85   43.78
  -2  -5   4   98.40    9.38
  -2  -5   4   84.85    9.41
   2  -5   4   63.85   10.07
   2  -5   4   64.03   10.42
  -2  -5  -4  125.39   16.92
  -3  -5   4  129.16   15.17
  -3  -5   4  111.45   15.30
   3  -5   4   97.14   10.97
  -3  -5  -4   44.17   23.03
   3  -5   4   90.01   11.30
  -3  -5  -4   63.32   22.52
   4  -5   4    2.33    5.55
   4  -5   4    4.37    5.63
  -5  -5   4   56.12   10.41
  -5  -5   4   39.63   10.43
  -5  -5  -4   46.30   16.67
  -5  -5  -4   44.35   16.50
   0  -5   5    8.26    5.11
   0  -5   5   11.03    5.15
  -1  -5   5    2.01    7.67
  -1  -5   5   -0.65    7.98
   1  -5   5   14.43    8.55
   1  -5   5   20.87    8.69
  -2  -5   5    8.75    4.48
  -2  -5   5    5.23    4.39
   2  -5   5    1.95    5.08
   2  -5   5   -2.33    5.26
   0   0   0    0.00    0.00

_computing_structure_solution     'SHELXT 2014/5 (Sheldrick, 2014)'
;
_shelx_hkl_checksum              91767
loop_
_space_group_symop_operation_xyz
'x, y, z'
'-x+1/2, -y, z+1/2'
'x+1/2, -y+1/2, -z+1/2'
'-x, y+1/2, -z'
'-x, -y, -z'
'x-1/2, y, -z-1/2'
'-x-1/2, y-1/2, z-1/2'
'x, -y-1/2, z'
loop_
_atom_site_label
_atom_site_type_symbol
_atom_site_fract_x
_atom_site_fract_y
_atom_site_fract_z
_atom_site_U_iso_or_equiv
_atom_site_adp_type
_atom_site_occupancy
_atom_site_site_symmetry_order
_atom_site_calc_flag
_atom_site_refinement_flags_posn
_atom_site_refinement_flags_adp
_atom_site_refinement_flags_occupancy
_atom_site_disorder_assembly
_atom_site_disorder_group
Pb1 Pb 0.45896(8) 0.7500 0.68363(13) 0.0298(6) Uani 1 2 d S T P . .
I1 I 0.60815(13) 0.7500 0.50865(19) 0.0302(7) Uani 1 2 d S T P A .
I2 I 0.53401(12) 0.2500 0.8409(2) 0.0304(7) Uani 1 2 d S T P A .
S1 S 0.3283(5) 0.2500 0.8098(8) 0.032(2) Uani 1 2 d S T P . .
O1 O 0.3423(19) 0.597(8) 0.791(3) 0.041(9) Uani 0.5 1 d . . P A 1
C1 C 0.312(3) 0.2500 0.970(3) 0.045(11) Uani 1 2 d S T P A .
H1 H 0.3022 0.4529 0.9974 0.068 Uiso 0.5 1 calc R U P . .
H1A H 0.2687 0.1245 0.9888 0.068 Uiso 0.5 1 calc R U P . .
H1B H 0.3567 0.1726 1.0114 0.068 Uiso 0.5 1 calc R U P . .
C2 C 0.234(2) 0.2500 0.753(4) 0.058(13) Uani 1 2 d S T P A .
H2 H 0.2133 0.4516 0.7566 0.087 Uiso 0.5 1 calc R U P . .
H2A H 0.2336 0.1804 0.6698 0.087 Uiso 0.5 1 calc R U P . .
H2B H 0.2026 0.1180 0.8023 0.087 Uiso 0.5 1 calc R U P . .
loop_
_atom_site_aniso_label
_atom_site_aniso_U_11
_atom_site_aniso_U_22
_atom_site_aniso_U_33
_atom_site_aniso_U_23
_atom_site_aniso_U_13
_atom_site_aniso_U_12
Pb1 0.0296(8) 0.0294(9) 0.0306(9) 0.000 -0.0010(6) 0.000
I1 0.0283(12) 0.0360(13) 0.0262(12) 0.000 -0.0013(9) 0.000
I2 0.0300(12) 0.0310(13) 0.0303(12) 0.000 -0.0050(9) 0.000
S1 0.030(4) 0.038(5) 0.027(5) 0.000 -0.002(3) 0.000
O1 0.037(19) 0.023(19) 0.06(2) 0.002(18) 0.008(18) -0.009(17)
C1 0.07(3) 0.05(3) 0.020 0.000 0.004(18) 0.000
C2 0.03(2) 0.09(4) 0.05(3) 0.000 -0.02(2) 0.000
loop_
_atom_type_symbol
_atom_type_description
_atom_type_scat_dispersion_real
_atom_type_scat_dispersion_imag
_atom_type_scat_source
Pb Pb -4.0753 8.5060 'International Tables Vol C Tables 4.2.6.8 and 6.1.1.4'
I I -0.3257 6.8362 'International Tables Vol C Tables 4.2.6.8 and 6.1.1.4'
S S 0.3331 0.5567 'International Tables Vol C Tables 4.2.6.8 and 6.1.1.4'
O O 0.0492 0.0322 'International Tables Vol C Tables 4.2.6.8 and 6.1.1.4'
C C 0.0181 0.0091 'International Tables Vol C Tables 4.2.6.8 and 6.1.1.4'
H H 0.0000 0.0000 'International Tables Vol C Tables 4.2.6.8 and 6.1.1.4'
loop_
_geom_angle_atom_site_label_1
_geom_angle_atom_site_label_2
_geom_angle_atom_site_label_3
_geom_angle
_geom_angle_site_symmetry_1
_geom_angle_site_symmetry_3
O1 Pb1 O1 32.2(16) . 8_575
O1 Pb1 I2 83.5(8) . .
O1 Pb1 I2 106.5(8) 8_575 .
O1 Pb1 I2 106.5(8) . 1_565
O1 Pb1 I2 83.5(8) 8_575 1_565
I2 Pb1 I2 91.35(7) . 1_565
O1 Pb1 I1 162.8(8) . .
O1 Pb1 I1 162.8(8) 8_575 .
I2 Pb1 I1 89.28(6) . .
I2 Pb1 I1 89.28(6) 1_565 .
O1 Pb1 I1 79.8(8) . 5_666
O1 Pb1 I1 101.5(9) 8_575 5_666
I2 Pb1 I1 91.42(4) . 5_666
I2 Pb1 I1 173.39(7) 1_565 5_666
I1 Pb1 I1 84.75(6) . 5_666
O1 Pb1 I1 101.5(8) . 5_676
O1 Pb1 I1 79.8(8) 8_575 5_676
I2 Pb1 I1 173.39(7) . 5_676
I2 Pb1 I1 91.42(4) 1_565 5_676
I1 Pb1 I1 84.75(6) . 5_676
I1 Pb1 I1 85.22(6) 5_666 5_676
Pb1 I1 Pb1 95.25(6) . 5_666
Pb1 I1 Pb1 95.25(6) . 5_676
Pb1 I1 Pb1 85.22(6) 5_666 5_676
Pb1 I2 Pb1 91.35(7) . 1_545
O1 S1 O1 157(3) 8_565 .
O1 S1 C2 95.8(14) 8_565 .
O1 S1 C2 95.8(14) . .
O1 S1 C1 98.7(14) 8_565 .
O1 S1 C1 98.7(14) . .
C2 S1 C1 101(2) . .
O1 O1 S1 168.3(13) 8_575 .
O1 O1 Pb1 73.9(8) 8_575 .
S1 O1 Pb1 117.6(18) . .
S1 C1 H1 109.5 . .
S1 C1 H1A 109.5 . .
H1 C1 H1A 109.5 . .
S1 C1 H1B 109.5 . .
H1 C1 H1B 109.5 . .
H1A C1 H1B 109.5 . .
S1 C2 H2 109.5 . .
S1 C2 H2A 109.5 . .
H2 C2 H2A 109.5 . .
S1 C2 H2B 109.5 . .
H2 C2 H2B 109.5 . .
H2A C2 H2B 109.5 . .
loop_
_geom_bond_atom_site_label_1
_geom_bond_atom_site_label_2
_geom_bond_distance
_geom_bond_site_symmetry_2
Pb1 O1 2.50(3) .
Pb1 O1 2.50(3) 8_575
Pb1 I2 3.1531(18) .
Pb1 I2 3.1531(18) 1_565
Pb1 I1 3.294(3) .
Pb1 I1 3.3317(19) 5_666
Pb1 I1 3.3317(19) 5_676
I1 Pb1 3.3317(19) 5_666
I1 Pb1 3.3317(19) 5_676
I2 Pb1 3.1531(18) 1_545
S1 O1 1.60(3) 8_565
S1 O1 1.60(3) .
S1 C2 1.80(4) .
S1 C1 1.81(4) .
O1 O1 1.38(7) 8_575
C1 H1 0.9800 .
C1 H1A 0.9800 .
C1 H1B 0.9800 .
C2 H2 0.9800 .
C2 H2A 0.9800 .
C2 H2B 0.9800 .
loop_
_geom_torsion_atom_site_label_1
_geom_torsion_atom_site_label_2
_geom_torsion_atom_site_label_3
_geom_torsion_atom_site_label_4
_geom_torsion
_geom_torsion_site_symmetry_1
_geom_torsion_site_symmetry_4
O1 S1 O1 O1 179.99(15) 8_565 8_575
C2 S1 O1 O1 60(7) . 8_575
C1 S1 O1 O1 -42(7) . 8_575
O1 S1 O1 Pb1 -10(9) 8_565 .
C2 S1 O1 Pb1 -130(2) . .
C1 S1 O1 Pb1 128(2) . .
