#------------------------------------------------------------------------------
#$Date: 2019-11-25 06:41:08 +0200 (Mon, 25 Nov 2019) $
#$Revision: 240261 $
#$URL: file:///home/coder/svn-repositories/cod/cif/4/12/95/4129564.cif $
#------------------------------------------------------------------------------
#
# This file is available in the Crystallography Open Database (COD),
# http://www.crystallography.net/
#
# All data on this site have been placed in the public domain by the
# contributors.
#
data_4129564
loop_
_publ_author_name
'Tian, Di'
'Winter, Stephen M.'
'Mailman, Aaron'
'Wong, Joanne W. L.'
'Yong, Wenjun'
'Yamaguchi, Hiroshi'
'Jia, Yating'
'Tse, John S.'
'Desgreniers, Serge'
'Secco, Richard A.'
'Julian, Stephen R.'
'Jin, Changqing'
'Mito, Masaki'
'Ohishi, Yasuo'
'Oakley, Richard T.'
_publ_section_title
;
 The metallic state in neutral radical conductors: dimensionality,
 pressure and multiple orbital effects.
;
_journal_issue                   44
_journal_name_full               'Journal of the American Chemical Society'
_journal_page_first              14136
_journal_page_last               14148
_journal_paper_doi               10.1021/jacs.5b08254
_journal_volume                  137
_journal_year                    2015
_chemical_formula_moiety         'C6 F N2 O S4'
_chemical_formula_sum            'C6 F N2 O S4'
_chemical_formula_weight         263.32
_chemical_name_common            FBBO
_space_group_IT_number           36
_space_group_name_Hall           'C 2c -2'
_space_group_name_H-M_alt        'C m c 21'
_symmetry_cell_setting           orthorhombic
_symmetry_space_group_name_H-M   'C m c 21'
_audit_creation_date             2015-03-11T14:22
_audit_creation_method           'from EXP file using GSAS2CIF'
_audit_update_record
' 2015-03-11T14:22  Initial CIF as created by GSAS2CIF'
_cell_angle_alpha                90.0
_cell_angle_beta                 90.0
_cell_angle_gamma                90.0
_cell_formula_units_Z            4
_cell_length_a                   5.6811(15)
_cell_length_b                   7.5876(21)
_cell_length_c                   15.249(9)
_cell_measurement_temperature    293(2)
_cell_volume                     657.3(5)
_computing_structure_refinement  GSAS
_diffrn_ambient_temperature      293(2)
_diffrn_measurement_device_type  'SPring-8 BL10XU'
_diffrn_radiation_polarisn_ratio 0.95
_diffrn_radiation_probe          x-ray
_diffrn_radiation_wavelength     0.41244
_diffrn_source                   synchrotron
_exptl_absorpt_correction_T_max  1.00000
_exptl_absorpt_correction_T_min  1.00000
_exptl_absorpt_process_details
;   GSAS Absorption/surface roughness correction: function number 0
 No correction is applied.
;
_pd_block_id                     'SPring-8 PXRD for 2 (R = F) at 6.1 GPa'
_pd_calc_method                  'Rietveld Refinement'
_pd_instr_location               ' ?'
_pd_meas_2theta_range_inc        0.01
_pd_meas_2theta_range_max        28.23
_pd_meas_2theta_range_min        1.0
_pd_meas_number_of_points        2724
_pd_phase_name
'from C:/GSAS/MyWork/013/FBBO_RT_13b_flat_shift.cif'
_pd_proc_2theta_range_inc        0.01
_pd_proc_2theta_range_max        28.21339
_pd_proc_2theta_range_min        0.98339
_pd_proc_info_datetime           2015-03-11T14:22:28
_pd_proc_info_excluded_regions   ' ?'
_pd_proc_ls_background_function
;   GSAS Background function number 1 with  8 terms.
 Shifted Chebyshev function of 1st kind
      1:    16866.2     2:    8089.12     3:   -934.717     4:   -89.9349    
      5:    43.6652     6:    107.231     7:   -43.9002     8:   -116.349    
;
_pd_proc_ls_peak_cutoff          0.00100
_pd_proc_ls_profile_function
;
 CW Profile function number 2 with  18 terms
 Profile coefficients for Simpson's rule integration of pseudovoigt function
 C.J. Howard (1982). J. Appl. Cryst.,15,615-620.
 P. Thompson, D.E. Cox & J.B. Hastings (1987). J. Appl. Cryst.,20,79-83.
 #1(GU)   = 7364.820 #2(GV)   = ******** #3(GW)   =   43.188
 #4(LX)   =    0.087 #5(LY)   =   24.571 #6(trns) =   11.163
 #7(asym) =  -0.0592 #8(shft) =  -1.5871 #9(GP)   =    0.125
 #10(stec)=   473.89 #11(ptec)=    21.18 #12(sfec)=     0.00
 #13(L11) =    0.000 #14(L22) =    0.000 #15(L33) =    0.010
 #16(L12) =    0.014 #17(L13) =    0.006 #18(L23) =   -0.095
 Peak tails are ignored  where the intensity is below 0.0010 times the peak
   Aniso. broadening axis   0.0   0.0   1.0
;
_pd_proc_ls_prof_R_factor        0.0049
_pd_proc_ls_prof_wR_expected     0.0075
_pd_proc_ls_prof_wR_factor       0.0075
_pd_proc_number_of_points        2724
_pd_spec_mounting                ' ?'
_refine_ls_goodness_of_fit_all   1.02
_refine_ls_matrix_type           full
_refine_ls_number_parameters     36
_refine_ls_number_restraints     0
_refine_ls_R_Fsqd_factor         0.21390
_refine_ls_shift/su_max          0.08
_refine_ls_shift/su_mean         0.04
_reflns_d_resolution_high        1.321
_reflns_d_resolution_low         4.548
_reflns_limit_h_max              4
_reflns_limit_h_min              0
_reflns_limit_k_max              6
_reflns_limit_k_min              0
_reflns_limit_l_max              13
_reflns_limit_l_min              0
_reflns_number_total             95
_cod_data_source_file            ja5b08254_si_006.cif
_cod_data_source_block           2(R=F)_at_6.1GPa
_cod_depositor_comments
;
The following automatic conversions were performed:

data item '_geom_angle_publ_flag' value 'N' was changed to 'n' in
accordance with the
/home/saulius/struct/COD-crude-data/automatic-downloads/DataCite-retrospective/ACS/depositions/lib/dictionaries/cif_core.dic
dictionary named 'cif_core.dic' version 2.4.2 last updated on
2011-04-26 (24 times).

data item '_geom_bond_publ_flag' value 'N' was changed to 'n' in
accordance with the
/home/saulius/struct/COD-crude-data/automatic-downloads/DataCite-retrospective/ACS/depositions/lib/dictionaries/cif_core.dic
dictionary named 'cif_core.dic' version 2.4.2 last updated on
2011-04-26 (40 times).

Automatic conversion script
Id: cif_fix_values 6909 2019-04-08 15:41:33Z antanas 
;
_cod_original_cell_volume        657.3(6)
_cod_database_code               4129564
_gsas_exptl_extinct_corr_t_min   1.00000
_gsas_exptl_extinct_corr_t_max   1.00000
loop_
_symmetry_equiv_pos_site_id
_symmetry_equiv_pos_as_xyz
1 +x,+y,+z
2 -x,+y,+z
3 +x,-y,+z+1/2
4 -x,-y,+z+1/2
101 +x+1/2,+y+1/2,+z
102 -x+1/2,+y+1/2,+z
103 +x+1/2,-y+1/2,+z+1/2
104 -x+1/2,-y+1/2,+z+1/2
loop_
_atom_site_type_symbol
_atom_site_label
_atom_site_fract_x
_atom_site_fract_y
_atom_site_fract_z
_atom_site_occupancy
_atom_site_thermal_displace_type
_atom_site_U_iso_or_equiv
_atom_site_symmetry_multiplicity
S S1 0.0 1.14617 0.90357 1.0 Uiso 0.00032 4
S S4 0.0 0.48426 0.54134 1.0 Uiso 0.00032 4
F F1 0.0 0.5127 0.85561 1.0 Uiso 0.00032 4
O O1 0.0 1.04908 0.61657 1.0 Uiso 0.00032 4
N N1 0.0 1.12345 0.79707 1.0 Uiso 0.00032 4
N N2 0.0 0.69527 0.561 1.0 Uiso 0.00032 4
C C6 0.0 0.96152 0.76688 1.0 Uiso 0.00032 4
C C3 0.0 0.60488 0.70954 1.0 Uiso 0.00032 4
C C4 0.0 0.64719 0.79775 1.0 Uiso 0.00032 4
C C2 0.0 0.73915 0.64535 1.0 Uiso 0.00032 4
C C5 0.0 0.81834 0.82805 1.0 Uiso 0.00032 4
S S2 0.0 0.87749 0.93845 1.0 Uiso 0.00032 4
S S3 0.0 0.38882 0.67108 1.0 Uiso 0.00032 4
C C1 0.0 0.93061 0.6701 1.0 Uiso 0.00032 4
loop_
_atom_type_symbol
_atom_type_number_in_cell
_atom_type_scat_dispersion_real
_atom_type_scat_dispersion_imag
_atom_type_scat_Cromer_Mann_a1
_atom_type_scat_Cromer_Mann_a2
_atom_type_scat_Cromer_Mann_a3
_atom_type_scat_Cromer_Mann_a4
_atom_type_scat_Cromer_Mann_b1
_atom_type_scat_Cromer_Mann_b2
_atom_type_scat_Cromer_Mann_b3
_atom_type_scat_Cromer_Mann_b4
_atom_type_scat_Cromer_Mann_c
_atom_type_scat_source
S 16.0 0.000 0.000 6.90530 1.46790 5.20340 22.2151 1.43790 0.25360 1.58630
56.1720 0.86690 International_Tables_Vol_C
F 4.0 0.000 0.000 3.53920 10.2825 2.64120 4.29440 1.51700 0.26150 1.02430
26.1476 0.27760 International_Tables_Vol_C
O 4.0 0.000 0.000 3.04850 13.2771 2.28680 5.70110 1.54630 0.32390 0.86700
32.9089 0.25080 International_Tables_Vol_C
N 8.0 0.000 0.000 12.2126 0.00570 3.13220 9.89330 2.01250 28.9975 1.16630
0.58260 -11.529 International_Tables_Vol_C
C 24.0 0.000 0.000 2.31000 20.8439 1.02000 10.2075 1.58860 0.56870 0.86500
51.6512 0.21560 International_Tables_Vol_C
loop_
_geom_angle_atom_site_label_1
_geom_angle_atom_site_label_2
_geom_angle_atom_site_label_3
_geom_angle
_geom_angle_site_symmetry_1
_geom_angle_site_symmetry_3
_geom_angle_publ_flag
N1 S1 S2 98.563(13) 1_555 1_555 n
N2 S4 S3 99.499(19) 1_555 1_555 n
S1 N1 C6 116.600(8) 1_555 1_555 n
S4 N2 C2 115.1181(23) 1_555 1_555 n
N1 C6 C5 118.810(30) 1_555 1_555 n
N1 C6 C1 119.570(6) 1_555 1_555 n
C5 C6 C1 121.620(24) 1_555 1_555 n
C4 C3 C2 120.431(27) 1_555 1_555 n
C4 C3 S3 123.1077(34) 1_555 1_555 n
C2 C3 S3 116.461(30) 1_555 1_555 n
F1 C4 C3 117.424(27) 1_555 1_555 n
F1 C4 C5 119.567(30) 1_555 1_555 n
C3 C4 C5 123.0088(33) 1_555 1_555 n
N2 C2 C3 119.342(27) 1_555 1_555 n
N2 C2 C1 119.0757 1_555 1_555 n
C3 C2 C1 121.582(27) 1_555 1_555 n
C6 C5 C4 119.765(30) 1_555 1_555 n
C6 C5 S2 115.722(27) 1_555 1_555 n
C4 C5 S2 124.5129(25) 1_555 1_555 n
S1 S2 C5 90.305(18) 1_555 1_555 n
S4 S3 C3 89.580(24) 1_555 1_555 n
O1 C1 C6 123.212(24) 1_555 1_555 n
O1 C1 C2 123.195(27) 1_555 1_555 n
C6 C1 C2 113.5932(33) 1_555 1_555 n
loop_
_geom_bond_atom_site_label_1
_geom_bond_atom_site_label_2
_geom_bond_distance
_geom_bond_site_symmetry_2
_geom_bond_publ_flag
S1 N1 1.6331(9) 1_555 n
S1 C6 2.5115(10) 1_555 n
S1 S2 2.1069(6) 1_555 n
S4 N2 1.6289(4) 1_555 n
S4 C2 2.5012(7) 1_555 n
S4 S3 2.1068(11) 1_555 n
F1 C3 2.3347(12) 1_555 n
F1 C4 1.3490(4) 1_555 n
F1 C5 2.3568(6) 1_555 n
O1 C1 1.2142(4) 1_555 n
N1 S1 1.6331(9) 1_555 n
N1 C6 1.31208(33) 1_555 n
N2 S4 1.6289(4) 1_555 n
N2 C2 1.3286(7) 1_555 n
C6 S1 2.5115(10) 1_555 n
C6 N1 1.31208(33) 1_555 n
C6 C5 1.4319(4) 1_555 n
C6 C1 1.4943(9) 1_555 n
C3 F1 2.3347(12) 1_555 n
C3 C4 1.3829(8) 1_555 n
C3 C2 1.4128(4) 1_555 n
C3 S3 1.7411(4) 1_555 n
C4 F1 1.3490(4) 1_555 n
C4 C3 1.3829(8) 1_555 n
C4 C5 1.37837(35) 1_555 n
C2 S4 2.5012(7) 1_555 n
C2 N2 1.3286(7) 1_555 n
C2 C3 1.4128(4) 1_555 n
C2 C1 1.5009(4) 1_555 n
C5 F1 2.3568(6) 1_555 n
C5 C6 1.4319(4) 1_555 n
C5 C4 1.37837(35) 1_555 n
C5 S2 1.7423(9) 1_555 n
S2 S1 2.1069(6) 1_555 n
S2 C5 1.7423(9) 1_555 n
S3 S4 2.1068(11) 1_555 n
S3 C3 1.7411(4) 1_555 n
C1 O1 1.2142(4) 1_555 n
C1 C6 1.4943(9) 1_555 n
C1 C2 1.5009(4) 1_555 n
loop_
_pd_meas_counts_total
_pd_proc_ls_weight
_pd_proc_intensity_bkg_calc
_pd_calc_intensity_total
0.0 0.0 25452.47266 .
0.0 0.0 25234.09961 .
0.0 0.0 25017.69336 .
0.0 0.0 24803.23633 .
0.0 0.0 24590.71484 .
0.0 0.0 24380.12305 .
0.0 0.0 24171.44531 .
0.0 0.0 23964.66016 .
0.0 0.0 23759.76758 .
0.0 0.0 23556.75195 .
0.0 0.0 23355.60156 .
0.0 0.0 23156.30273 .
0.0 0.0 22958.84180 .
0.0 0.0 22763.20703 .
0.0 0.0 22569.38867 .
0.0 0.0 22377.37109 .
0.0 0.0 22187.14648 .
0.0 0.0 21998.70313 .
0.0 0.0 21812.02148 .
0.0 0.0 21627.09766 .
0.0 0.0 21443.91602 .
0.0 0.0 21262.47070 .
0.0 0.0 21082.74023 .
0.0 0.0 20904.72656 .
0.0 0.0 20728.40430 .
0.0 0.0 20553.76953 .
0.0 0.0 20380.80859 .
0.0 0.0 20209.51172 .
0.0 0.0 20039.86719 .
0.0 0.0 19871.86133 .
0.0 0.0 19705.49023 .
0.0 0.0 19540.72852 .
0.0 0.0 19377.58008 .
0.0 0.0 19216.02539 .
0.0 0.0 19056.06250 .
0.0 0.0 18897.66797 .
0.0 0.0 18740.84180 .
0.0 0.0 18585.56641 .
0.0 0.0 18431.83594 .
0.0 0.0 18279.63477 .
0.0 0.0 18128.95508 .
0.0 0.0 17979.78320 .
0.0 0.0 17832.11523 .
0.0 0.0 17685.93750 .
0.0 0.0 17541.23438 .
0.0 0.0 17398.00195 .
0.0 0.0 17256.23242 .
0.0 0.0 17115.90820 .
0.0 0.0 16977.02148 .
0.0 0.0 16839.56445 .
0.0 0.0 16703.52539 .
0.0 0.0 16568.89258 .
0.0 0.0 16435.66016 .
0.0 0.0 16303.81641 .
0.0 0.0 16173.34961 .
0.0 0.0 16044.24902 .
0.0 0.0 15916.51074 .
0.0 0.0 15790.11914 .
0.0 0.0 15665.06934 .
0.0 0.0 15541.34863 .
0.0 0.0 15418.94727 .
0.0 0.0 15297.85547 .
0.0 0.0 15178.06934 .
0.0 0.0 15059.57129 .
0.0 0.0 14942.35645 .
0.0 0.0 14826.41602 .
0.0 0.0 14711.73828 .
0.0 0.0 14598.31641 .
0.0 0.0 14486.13965 .
0.0 0.0 14375.19629 .
0.0 0.0 14265.48535 .
0.0 0.0 14156.98926 .
0.0 0.0 14049.70605 .
0.0 0.0 13943.62109 .
0.0 0.0 13838.72754 .
0.0 0.0 13735.01758 .
0.0 0.0 13632.48242 .
0.0 0.0 13531.11133 .
2584.0 0.0 13430.89746 .
2584.0 0.0 13331.83301 .
2593.0 0.0 13233.90625 .
2611.0 0.0 13137.11230 .
2630.0 0.0 13041.43945 .
2673.0 0.0 12946.87891 .
2710.0 0.0 12853.42578 .
2731.0 0.0 12761.07031 .
2761.0 0.0 12669.80273 .
2801.0 0.0 12579.61719 .
2840.0 0.0 12490.50293 .
2874.0 0.0 12402.45313 .
2896.0 0.0 12315.46094 .
2927.0 0.0 12229.51563 .
2964.0 0.0 12144.61035 .
2996.0 0.0 12060.73926 .
3050.0 0.0 11977.88770 .
3077.0 0.0 11896.05859 .
3099.0 0.0 11815.23242 .
3126.0 0.0 11735.41016 .
3164.0 0.0 11656.58008 .
3205.0 0.0 11578.73438 .
3240.0 0.0 11501.86621 .
3283.0 0.0 11425.96777 .
3315.0 0.0 11351.03223 .
3344.0 0.0 11277.05078 .
3387.0 0.0 11204.01563 .
3441.0 0.0 11131.92090 .
3476.0 0.0 11060.75977 .
3504.0 0.0 10990.52246 .
3531.0 0.0 10921.20410 .
3555.0 0.0 10852.79297 .
3599.0 0.0 10785.28613 .
3638.0 0.0 10718.67578 .
3685.0 0.0 10652.95410 .
3699.0 0.0 10588.11035 .
3728.0 0.0 10524.14258 .
3763.0 0.0 10461.04590 .
3791.0 0.0 10398.80566 .
3829.0 0.0 10337.41992 .
3863.0 0.0 10276.88281 .
3909.0 0.0 10217.18164 .
3949.0 0.0 10158.31641 .
3992.0 0.0 10100.27539 .
4028.0 0.0 10043.05273 .
4061.0 0.0 9986.64453 .
4105.0 0.0 9931.04004 .
4153.0 0.0 9876.23535 .
4197.0 0.0 9822.22363 .
4224.0 0.0 9768.99707 .
4257.0 0.0 9716.54980 .
4290.0 0.0 9664.87598 .
4325.0 0.0 9613.96875 .
4372.0 0.0 9563.82129 .
4413.0 0.0 9514.42773 .
4449.0 0.0 9465.77930 .
4492.0 0.0 9417.87305 .
4549.0 0.0 9370.70215 .
4578.0 0.0 9324.25977 .
4621.0 0.0 9278.53906 .
4653.0 0.0 9233.53320 .
4704.0 0.0 9189.24023 .
4729.0 0.0 9145.64941 .
4750.0 0.0 9102.75684 .
4793.0 0.0 9060.55664 .
4835.0 0.0 9019.04199 .
4876.0 0.0 8978.20801 .
4899.0 0.0 8938.04785 .
4932.0 0.0 8898.55566 .
4979.0 0.0 8859.72559 .
5016.0 0.0 8821.55371 .
5058.0 0.0 8784.03027 .
5086.0 0.0 8747.15332 .
5125.0 0.0 8710.91602 .
5154.0 0.0 8675.31250 .
5183.0 0.0 8640.33789 .
5199.0 0.0 8605.98535 .
5218.0 0.0 8572.25000 .
5245.0 0.0 8539.12500 .
5288.0 0.0 8506.60742 .
5321.0 0.0 8474.69141 .
5360.0 0.0 8443.37012 .
5401.0 0.0 8412.63867 .
5417.0 0.0 8382.49219 .
5444.0 0.0 8352.92383 .
5469.0 0.0 8323.93066 .
5507.0 0.0 8295.50488 .
5518.0 0.0 8267.64355 .
5524.0 0.0 8240.34180 .
5554.0 0.0 8213.59180 .
5591.0 0.0 8187.39160 .
5627.0 0.0 8161.73389 .
5658.0 0.0 8136.61426 .
5675.0 0.0 8112.02734 .
5711.0 0.0 8087.96973 .
5712.0 0.0 8064.43408 .
5735.0 0.0 8041.41650 .
5767.0 0.0 8018.91357 .
5778.0 0.0 7996.91895 .
5802.0 0.0 7975.42773 .
5829.0 0.0 7954.43652 .
5826.0 0.0 7933.93896 .
5857.0 0.0 7913.92969 .
5858.0 0.0 7894.40674 .
5881.0 0.0 7875.36426 .
5900.0 0.0 7856.79639 .
5907.0 0.0 7838.70020 .
5925.0 0.0 7821.07031 .
5944.0 0.0 7803.90234 .
5957.0 0.0 7787.19092 .
5992.0 0.0 7770.93311 .
6008.0 0.0 7755.12305 .
6029.0 0.0 7739.75781 .
6035.0 0.0 7724.83252 .
6056.0 0.0 7710.34229 .
6069.0 0.0 7696.28320 .
6091.0 0.0 7682.65088 .
6121.0 0.0 7669.44092 .
6143.0 0.0 7656.64844 .
6161.0 0.0 7644.27051 .
6189.0 0.0 7632.30273 .
6218.0 0.0 7620.74072 .
6231.0 0.0 7609.58008 .
6245.0 0.0 7598.81689 .
6263.0 0.0 7588.44678 .
6278.0 0.0 7578.46582 .
6306.0 0.0 7568.87061 .
6318.0 0.0 7559.65674 .
6342.0 0.0 7550.82031 .
6354.0 0.0 7542.35791 .
6388.0 0.0 7534.26514 .
6444.0 0.0 7526.53760 .
6503.0 0.0 7519.17139 .
6531.0 0.0 7512.16357 .
6516.0 0.0 7505.51074 .
6497.0 0.0 7499.20752 .
6495.0 0.0 7493.25195 .
6511.0 0.0 7487.63916 .
6528.0 0.0 7482.36621 .
6531.0 0.0 7477.42822 .
6542.0 0.0 7472.82275 .
6545.0 0.0 7468.54492 .
6570.0 0.0 7464.59326 .
6599.0 0.0 7460.96240 .
6616.0 0.0 7457.64990 .
6646.0 0.0 7454.65137 .
6670.0 0.0 7451.96387 .
6682.0 0.0 7449.58398 .
6686.0 0.0 7447.50732 .
6691.0 0.0 7445.73145 .
6715.0 0.0 7444.25342 .
6749.0 0.0 7443.06934 .
6761.0 0.0 7442.17529 .
6763.0 0.0 7441.56885 .
6770.0 0.0 7441.24658 .
6781.0 0.0 7441.20410 .
6815.0 0.0 7441.43994 .
6839.0 0.0 7441.95020 .
6843.0 0.0 7442.73145 .
6846.0 0.0 7443.78076 .
6869.0 0.0 7445.09424 .
6883.0 0.0 7446.67041 .
6906.0 0.0 7448.50488 .
6935.0 0.0 7450.59521 .
6956.0 0.0 7452.93701 .
6984.0 0.0 7455.52930 .
7009.0 0.0 7458.36816 .
7019.0 0.0 7461.45068 .
7026.0 0.0 7464.77393 .
7044.0 0.0 7468.33447 .
7036.0 0.0 7472.13037 .
7072.0 0.0 7476.15723 .
7082.0 0.0 7480.41357 .
7114.0 0.0 7484.89697 .
7133.0 0.0 7489.60352 .
7139.0 0.0 7494.53076 .
7154.0 0.0 7499.67578 .
7147.0 0.0 7505.03613 .
7178.0 0.0 7510.60791 .
7208.0 0.0 7516.39014 .
7240.0 0.0 7522.37988 .
7252.0 0.0 7528.57373 .
7262.0 0.0 7534.96973 .
7281.0 0.0 7541.56494 .
7293.0 0.0 7548.35645 .
7317.0 0.0 7555.34180 .
7341.0 0.0 7562.51904 .
7342.0 0.0 7569.88477 .
7354.0 0.0 7577.43604 .
7370.0 0.0 7585.17236 .
7384.0 0.0 7593.09033 .
7392.0 0.0 7601.18701 .
7406.0 0.0 7609.46045 .
7422.0 0.0 7617.90820 .
7435.0 0.0 7626.52734 .
7458.0 0.0 7635.31543 .
7482.0 0.0 7644.27100 .
7504.0 0.0 7653.39160 .
7509.0 0.0 7662.67480 .
7525.0 0.0 7672.11816 .
7543.0 0.0 7681.71924 .
7566.0 0.0 7691.47607 .
7583.0 0.0 7701.38477 .
7612.0 0.0 7711.44629 .
7646.0 0.0 7721.65674 .
7651.0 0.0 7732.01367 .
7662.0 0.0 7742.51563 .
7666.0 0.0 7753.16016 .
7687.0 0.0 7763.94482 .
7707.0 0.0 7774.86670 .
7748.0 0.0 7785.92725 .
7762.0 0.0 7797.11963 .
7784.0 0.0 7808.44531 .
7781.0 0.0 7819.90137 .
7786.0 0.0 7831.48486 .
7816.0 0.0 7843.19482 .
7826.0 0.0 7855.02881 .
7849.0 0.0 7866.98535 .
7865.0 0.0 7879.06055 .
7867.0 0.0 7891.25537 .
7872.0 0.0 7903.56641 .
7883.0 0.0 7915.99219 .
7906.0 0.0 7928.53076 .
7928.0 0.0001261 7941.18018 7945.59912
7965.0 0.0001255 7953.93750 7958.36572
7996.0 0.0001251 7966.80322 7971.24170
8015.0 0.0001248 7979.77393 7984.21973
8025.0 0.0001246 7992.84814 7997.30615
8038.0 0.0001244 8006.02344 8010.49121
8052.0 0.0001242 8019.29980 8023.77881
8068.0 0.0001239 8032.67383 8037.16357
8078.0 0.0001238 8046.14551 8050.64941
8104.0 0.0001234 8059.71094 8064.22705
8117.0 0.0001232 8073.37012 8077.89893
8138.0 0.0001229 8087.12061 8091.66064
8157.0 0.0001226 8100.96191 8105.51514
8171.0 0.0001224 8114.89014 8119.45654
8176.0 0.0001223 8128.90576 8133.48486
8195.0 0.0001220 8143.00586 8147.59717
8196.0 0.0001220 8157.18994 8161.79736
8221.0 0.0001216 8171.45605 8176.07715
8255.0 0.0001211 8185.80225 8190.43701
8273.0 0.0001209 8200.22656 8204.87598
8279.0 0.0001208 8214.72852 8219.39160
8287.0 0.0001207 8229.30664 8233.98535
8313.0 0.0001203 8243.95898 8248.65234
8351.0 0.0001197 8258.68359 8263.39258
8351.0 0.0001197 8273.47949 8278.20801
8370.0 0.0001195 8288.34668 8293.08887
8390.0 0.0001192 8303.28027 8308.03809
8409.0 0.0001189 8318.28223 8323.05664
8427.0 0.0001187 8333.34863 8338.14258
8424.0 0.0001187 8348.47949 8353.28809
8448.0 0.0001184 8363.67383 8368.51367
8462.0 0.0001182 8378.92871 8383.79004
8473.0 0.0001180 8394.24316 8399.12012
8492.0 0.0001178 8409.61816 8414.51074
8504.0 0.0001176 8425.04883 8429.96387
8532.0 0.0001172 8440.53711 8445.46973
8539.0 0.0001171 8456.07910 8461.03516
8555.0 0.0001169 8471.67480 8476.64844
8575.0 0.0001166 8487.32227 8492.31348
8590.0 0.0001164 8503.02148 8508.03418
8621.0 0.0001160 8518.76953 8523.80176
8630.0 0.0001159 8534.56738 8541.68945
8647.0 0.0001156 8550.41113 8557.57910
8676.0 0.0001153 8566.30176 8573.51660
8689.0 0.0001151 8582.23730 8589.50098
8684.0 0.0001152 8598.21680 8605.52930
8700.0 0.0001149 8614.23828 8621.59766
8704.0 0.0001149 8630.30176 8637.71191
8720.0 0.0001147 8646.40430 8653.86523
8750.0 0.0001143 8662.54785 8670.06348
8760.0 0.0001142 8678.72852 8686.29199
8776.0 0.0001139 8694.94629 8702.56250
8797.0 0.0001137 8711.20020 8718.87500
8819.0 0.0001134 8727.48828 8735.21777
8837.0 0.0001132 8743.81055 8751.59668
8854.0 0.0001129 8760.16406 8768.00977
8875.0 0.0001127 8776.55078 8784.45117
8887.0 0.0001125 8792.96680 8800.92480
8902.0 0.0001123 8809.41406 8817.43359
8932.0 0.0001120 8825.88867 8833.97070
8945.0 0.0001118 8842.39160 8850.53516
8965.0 0.0001115 8858.91992 8867.12500
8980.0 0.0001114 8875.47559 8883.74609
8987.0 0.0001113 8892.05469 8900.38965
8998.0 0.0001111 8908.65820 8917.06348
9007.0 0.0001110 8925.28418 8933.75684
9020.0 0.0001109 8941.93359 8950.47461
9037.0 0.0001107 8958.60156 8967.21191
9062.0 0.0001104 8975.29102 8983.97559
9074.0 0.0001102 8991.99902 9000.75391
9086.0 0.0001101 9008.72656 9017.58301
9106.0 0.0001098 9025.47070 9034.39746
9140.0 0.0001094 9042.23145 9051.23633
9148.0 0.0001093 9059.00781 9068.35059
9152.0 0.0001093 9075.79980 9085.22949
9167.0 0.0001091 9092.60645 9102.12500
9196.0 0.0001087 9109.42480 9119.03711
9223.0 0.0001084 9126.25684 9135.96094
9236.0 0.0001083 9143.09961 9152.89844
9265.0 0.0001079 9159.95410 9169.85156
9278.0 0.0001078 9176.81836 9186.81836
9293.0 0.0001076 9193.69238 9203.79395
9306.0 0.0001075 9210.57422 9220.78320
9304.0 0.0001075 9227.46484 9237.78027
9321.0 0.0001073 9244.36230 9254.79004
9340.0 0.0001071 9261.26758 9271.80469
9348.0 0.0001070 9278.17676 9288.83008
9376.0 0.0001067 9295.09180 9305.86523
9368.0 0.0001067 9312.01172 9322.90430
9375.0 0.0001067 9328.93555 9339.95215
9401.0 0.0001064 9345.86133 9357.01172
9420.0 0.0001062 9362.79004 9374.07227
9441.0 0.0001059 9379.71973 9391.13379
9474.0 0.0001056 9396.65137 9408.20605
9482.0 0.0001055 9413.58398 9425.28223
9510.0 0.0001052 9430.51660 9442.36230
9534.0 0.0001049 9447.44727 9459.44727
9562.0 0.0001046 9464.37695 9476.53027
9585.0 0.0001043 9481.30371 9493.62207
9598.0 0.0001042 9498.23047 9510.71777
9599.0 0.0001042 9515.15234 9527.80957
9607.0 0.0001041 9532.07129 9544.91113
9623.0 0.0001039 9548.98535 9562.00781
9641.0 0.0001037 9565.89453 9579.11230
9649.0 0.0001036 9582.79980 9596.24121
9665.0 0.0001035 9599.69727 9613.34570
9682.0 0.0001033 9616.58984 9630.40625
9694.0 0.0001032 9633.47363 9647.52246
9720.0 0.0001029 9650.35254 9664.64453
9733.0 0.0001027 9667.22168 9681.77637
9747.0 0.0001026 9684.08398 9698.92578
9756.0 0.0001025 9700.93555 9716.09668
9788.0 0.0001022 9717.77930 9733.29980
9802.0 0.0001020 9734.61230 9750.56055
9819.0 0.0001018 9751.43555 9767.88965
9814.0 0.0001019 9768.24805 9785.30566
9834.0 0.0001017 9785.04980 9802.80566
9857.0 0.0001015 9801.83887 9820.50000
9877.0 0.0001012 9818.61719 9838.14063
9893.0 0.0001011 9835.38184 9855.78125
9900.0 0.0001010 9852.13477 9873.44531
9920.0 0.0001008 9868.87402 9890.82129
9926.0 0.0001007 9885.59961 9907.95313
9948.0 0.0001005 9902.31055 9924.87109
9973.0 0.0001003 9919.00781 9941.67480
9985.0 0.0001002 9935.69043 9958.45801
9991.0 0.0001001 9952.35742 9975.31348
10012.0 0.0000999 9969.00977 9992.29102
10037.0 0.0000996 9985.64453 10009.42871
10059.0 0.0000994 10002.26465 10026.75391
10080.0 0.0000992 10018.86719 10044.29492
10085.0 0.0000992 10035.45410 10062.10645
10092.0 0.0000991 10052.02246 10080.32910
10115.0 0.0000989 10068.57422 10099.29004
10154.0 0.0000985 10085.10742 10119.62305
10196.0 0.0000981 10101.62402 10142.53125
10246.0 0.0000976 10118.12012 10169.92578
10286.0 0.0000972 10134.59961 10204.41602
10316.0 0.0000969 10151.05859 10248.79980
10342.0 0.0000967 10167.49902 10304.95117
10379.0 0.0000963 10183.91992 10372.31152
10399.0 0.0000962 10200.32031 10446.48242
10443.0 0.0000958 10216.70117 10518.46289
10484.0 0.0000954 10233.06152 10575.03906
10515.0 0.0000951 10249.40234 10603.46387
10526.0 0.0000950 10265.72168 10599.10938
10535.0 0.0000949 10282.01953 10570.00195
10550.0 0.0000948 10298.29688 10529.93848
10562.0 0.0000947 10314.55176 10490.93945
10531.0 0.0000950 10330.78613 10460.56934
10517.0 0.0000951 10346.99805 10441.93848
10501.0 0.0000952 10363.18750 10434.70020
10482.0 0.0000954 10379.35547 10436.53809
10486.0 0.0000954 10395.50098 10444.64453
10491.0 0.0000953 10411.62402 10456.58691
10496.0 0.0000953 10427.72266 10470.68066
10526.0 0.0000950 10443.79980 10485.92090
10513.0 0.0000951 10459.85352 10501.77441
10524.0 0.0000950 10475.88379 10517.98047
10538.0 0.0000949 10491.88965 10534.41602
10554.0 0.0000948 10507.87305 10551.04395
10575.0 0.0000946 10523.83203 10567.81445
10586.0 0.0000945 10539.76758 10584.71680
10586.0 0.0000945 10555.67871 10601.75098
10593.0 0.0000944 10571.56543 10618.90137
10602.0 0.0000943 10587.42773 10636.18066
10640.0 0.0000940 10603.26758 10653.58203
10653.0 0.0000939 10619.08008 10671.11523
10664.0 0.0000938 10634.87012 10688.79004
10701.0 0.0000934 10650.63379 10706.60938
10717.0 0.0000933 10666.37305 10724.59570
10747.0 0.0000930 10682.08789 10744.20117
10756.0 0.0000930 10697.77734 10762.48340
10786.0 0.0000927 10713.44043 10781.10938
10788.0 0.0000927 10729.08008 10799.98633
10776.0 0.0000928 10744.69434 10819.13672
10779.0 0.0000928 10760.28223 10838.59570
10812.0 0.0000925 10775.84570 10858.40820
10836.0 0.0000923 10791.38184 10878.61035
10859.0 0.0000921 10806.89453 10899.27344
10865.0 0.0000920 10822.38086 10920.45020
10873.0 0.0000920 10837.84082 10942.22168
10889.0 0.0000918 10853.27539 10964.68359
10904.0 0.0000917 10868.68457 10987.94531
10933.0 0.0000915 10884.06738 11012.18652
10966.0 0.0000912 10899.42578 11037.47559
10980.0 0.0000911 10914.75684 11064.06641
11020.0 0.0000907 10930.06250 11092.22168
11043.0 0.0000906 10945.34180 11122.28223
11052.0 0.0000905 10960.59668 11154.71094
11080.0 0.0000903 10975.82422 11190.16992
11093.0 0.0000901 10991.02637 11229.58789
11119.0 0.0000899 11006.20117 11274.33398
11164.0 0.0000896 11021.35156 11326.31543
11224.0 0.0000891 11036.47559 11388.32520
11334.0 0.0000882 11051.57422 11463.99414
11450.0 0.0000873 11066.64648 11557.96094
11625.0 0.0000860 11081.69238 11675.84375
11858.0 0.0000843 11096.71289 11823.74316
12190.0 0.0000820 11111.70801 12007.62305
12598.0 0.0000794 11126.67676 12232.29199
12983.0 0.0000770 11141.61914 12499.79492
13273.0 0.0000753 11156.53711 12806.99805
13505.0 0.0000740 11171.42773 13141.52441
13652.0 0.0000732 11186.29297 13476.05176
13737.0 0.0000728 11201.13281 13764.01465
13778.0 0.0000726 11215.94727 13946.10547
13764.0 0.0000727 11230.73535 13975.68262
13687.0 0.0000731 11245.49902 13848.86719
13543.0 0.0000738 11260.23633 13607.43750
13322.0 0.0000751 11274.94824 13310.88379
13013.0 0.0000768 11289.63477 13008.70801
12650.0 0.0000791 11304.29688 12731.24902
12321.0 0.0000812 11318.93262 12493.09082
12052.0 0.0000830 11333.54395 12299.09766
11881.0 0.0000842 11348.12891 12149.31641
11797.0 0.0000848 11362.69043 12043.13770
11820.0 0.0000846 11377.22559 11984.26855
11944.0 0.0000837 11391.73730 11984.53125
12138.0 0.0000824 11406.22266 12068.19922
12311.0 0.0000812 11420.68457 12264.00684
12446.0 0.0000803 11435.12207 12584.25195
12642.0 0.0000791 11449.53418 12996.67090
13012.0 0.0000769 11463.92188 13404.53711
13571.0 0.0000737 11478.28516 13656.74219
13921.0 0.0000718 11492.62500 13624.37109
13757.0 0.0000727 11506.94043 13323.25391
13164.0 0.0000760 11521.23145 12894.92676
12488.0 0.0000801 11535.49805 12481.23828
12066.0 0.0000829 11549.74219 12163.72852
11860.0 0.0000843 11563.96191 11960.91113
11773.0 0.0000849 11578.15723 11850.90332
11727.0 0.0000853 11592.33008 11799.70898
11718.0 0.0000853 11606.47949 11779.50391
11723.0 0.0000853 11620.60449 11773.65430
11724.0 0.0000853 11634.70801 11774.14648
11737.0 0.0000852 11648.78711 11777.67383
11739.0 0.0000852 11662.84473 11782.97656
11756.0 0.0000851 11676.87793 11789.54688
11761.0 0.0000850 11690.88965 11797.17969
11787.0 0.0000848 11704.87891 11805.77051
11815.0 0.0000846 11718.84570 11815.19141
11850.0 0.0000844 11732.78906 11825.16113
11900.0 0.0000840 11746.71191 11835.28906
11922.0 0.0000839 11760.61230 11845.27930
11930.0 0.0000838 11774.49023 11855.11230
11934.0 0.0000838 11788.34668 11865.02734
11916.0 0.0000839 11802.18262 11875.28613
11902.0 0.0000840 11815.99609 11885.98438
11907.0 0.0000840 11829.78906 11897.06445
11910.0 0.0000840 11843.56055 11908.42383
11938.0 0.0000838 11857.31055 11919.97949
11962.0 0.0000836 11871.04102 11931.67188
11965.0 0.0000836 11884.75000 11943.48828
11959.0 0.0000836 11898.43848 11955.41113
11973.0 0.0000835 11912.10645 11967.42676
11988.0 0.0000834 11925.75488 11979.53027
12007.0 0.0000833 11939.38281 11991.70508
12016.0 0.0000832 11952.99121 12003.95801
12042.0 0.0000830 11966.57910 12016.26660
12056.0 0.0000829 11980.14844 12028.63574
12060.0 0.0000829 11993.69727 12041.05371
12073.0 0.0000828 12007.22852 12053.52344
12091.0 0.0000827 12020.74023 12066.03613
12115.0 0.0000825 12034.23242 12078.57813
12124.0 0.0000825 12047.70605 12091.15820
12146.0 0.0000823 12061.16211 12103.77441
12155.0 0.0000823 12074.59863 12116.41211
12177.0 0.0000821 12088.01758 12129.07520
12179.0 0.0000821 12101.41797 12141.76172
12193.0 0.0000820 12114.80078 12154.46289
12222.0 0.0000818 12128.16699 12167.18359
12242.0 0.0000817 12141.51465 12179.95313
12259.0 0.0000816 12154.84473 12192.69824
12259.0 0.0000816 12168.15820 12205.45020
12270.0 0.0000815 12181.45508 12218.20215
12283.0 0.0000814 12194.73438 12230.95605
12300.0 0.0000813 12207.99805 12243.71875
12310.0 0.0000812 12221.24414 12256.46777
12310.0 0.0000812 12234.47461 12269.21191
12355.0 0.0000809 12247.68945 12281.94922
12422.0 0.0000805 12260.88770 12294.66797
12496.0 0.0000800 12274.07031 12307.36230
12608.0 0.0000793 12287.23828 12320.05078
12533.0 0.0000798 12300.38965 12332.69824
12476.0 0.0000802 12313.52734 12345.31836
12461.0 0.0000803 12326.64941 12357.90137
12455.0 0.0000803 12339.75684 12370.46484
12455.0 0.0000803 12352.84863 12384.14648
12472.0 0.0000802 12365.92773 12396.66992
12483.0 0.0000801 12378.99219 12409.41895
12491.0 0.0000801 12392.04199 12423.79980
12505.0 0.0000800 12405.07813 12445.31738
12535.0 0.0000798 12418.10156 12488.74805
12588.0 0.0000794 12431.11133 12577.86719
12620.0 0.0000792 12444.10742 12724.38281
12670.0 0.0000789 12457.08984 12890.98828
12761.0 0.0000784 12470.06055 12992.75684
12813.0 0.0000780 12483.01855 12967.66113
12817.0 0.0000780 12495.96387 12843.10059
12784.0 0.0000782 12508.89746 12705.58984
12735.0 0.0000785 12521.81738 12617.10840
12689.0 0.0000788 12534.72754 12583.00000
12680.0 0.0000789 12547.62402 12580.59277
12693.0 0.0000788 12560.50977 12590.35449
12706.0 0.0000787 12573.38477 12603.38965
12709.0 0.0000787 12586.24805 12617.06641
12702.0 0.0000787 12599.10059 12630.87305
12710.0 0.0000787 12611.94238 12644.58008
12724.0 0.0000786 12624.77344 12658.24512
12748.0 0.0000784 12637.59473 12671.87012
12772.0 0.0000783 12650.40527 12685.45117
12786.0 0.0000782 12663.20703 12698.98438
12798.0 0.0000781 12675.99805 12713.32129
12791.0 0.0000782 12688.77930 12726.80078
12813.0 0.0000780 12701.55176 12740.26172
12823.0 0.0000780 12714.31543 12753.69922
12833.0 0.0000779 12727.06836 12767.11426
12867.0 0.0000777 12739.81445 12780.52441
12875.0 0.0000777 12752.55078 12793.92383
12891.0 0.0000776 12765.27930 12807.32520
12925.0 0.0000774 12777.99902 12820.72852
12928.0 0.0000774 12790.71191 12834.13184
12940.0 0.0000773 12803.41602 12847.54297
12945.0 0.0000772 12816.11230 12860.95898
12948.0 0.0000772 12828.80273 12874.39551
12965.0 0.0000771 12841.48438 12887.84473
12981.0 0.0000770 12854.15918 12901.30664
12994.0 0.0000770 12866.82715 12914.79492
13025.0 0.0000768 12879.48926 12928.29980
13040.0 0.0000767 12892.14355 12941.83301
13056.0 0.0000766 12904.79199 12955.40234
13078.0 0.0000765 12917.43457 12968.98926
13084.0 0.0000764 12930.07129 12982.61621
13111.0 0.0000763 12942.70215 12996.27637
13133.0 0.0000761 12955.32813 13009.97363
13149.0 0.0000761 12967.94727 13023.71973
13172.0 0.0000759 12980.56250 13037.50781
13174.0 0.0000759 12993.17188 13051.34375
13181.0 0.0000759 13005.77832 13065.24316
13198.0 0.0000758 13018.37793 13079.19238
13205.0 0.0000757 13030.97461 13093.20801
13218.0 0.0000757 13043.56641 13107.29492
13223.0 0.0000756 13056.15430 13121.45020
13234.0 0.0000756 13068.73828 13135.69336
13256.0 0.0000754 13081.31836 13150.01758
13269.0 0.0000754 13093.89453 13164.44336
13293.0 0.0000752 13106.46875 13178.97070
13324.0 0.0000751 13119.03906 13193.61328
13333.0 0.0000750 13131.60645 13208.38672
13344.0 0.0000749 13144.17090 13223.29199
13340.0 0.0000750 13156.73242 13238.35059
13341.0 0.0000750 13169.29199 13253.58301
13354.0 0.0000749 13181.84961 13269.01074
13392.0 0.0000747 13194.40527 13284.81934
13405.0 0.0000746 13206.95801 13300.69727
13427.0 0.0000745 13219.50977 13316.88770
13449.0 0.0000744 13232.05957 13334.11719
13451.0 0.0000743 13244.60840 13350.94629
13478.0 0.0000742 13257.15527 13368.18262
13490.0 0.0000741 13269.70215 13385.90820
13510.0 0.0000740 13282.24707 13404.20801
13525.0 0.0000739 13294.79297 13423.18848
13533.0 0.0000739 13307.33691 13443.00000
13557.0 0.0000738 13319.88086 13463.82129
13563.0 0.0000737 13332.42480 13485.91797
13570.0 0.0000737 13344.96875 13509.60547
13598.0 0.0000735 13357.51172 13535.38770
13612.0 0.0000735 13370.05664 13564.00293
13639.0 0.0000733 13382.60059 13596.75977
13655.0 0.0000732 13395.14648 13636.11816
13678.0 0.0000731 13407.69238 13686.89844
13720.0 0.0000729 13420.23926 13757.86816
13756.0 0.0000727 13432.78711 13862.96777
13789.0 0.0000725 13445.33691 14020.03125
13893.0 0.0000720 13457.88867 14245.04883
14058.0 0.0000711 13470.44043 14540.66895
14358.0 0.0000696 13482.99512 14875.95703
14909.0 0.0000671 13495.55078 15155.38379
15459.0 0.0000647 13508.10938 15234.32129
15644.0 0.0000639 13520.66895 15090.15723
15388.0 0.0000650 13533.23242 14806.20703
14871.0 0.0000672 13545.79688 14528.64551
14404.0 0.0000694 13558.36523 14313.91992
14150.0 0.0000707 13570.93555 14171.40234
14020.0 0.0000713 13583.50977 14089.42188
13987.0 0.0000715 13596.08594 14050.05762
13962.0 0.0000716 13608.66602 14037.35645
13949.0 0.0000717 13621.24902 14040.38281
13972.0 0.0000716 13633.83594 14052.96973
13985.0 0.0000715 13646.42676 14071.66797
13990.0 0.0000715 13659.02148 14094.98535
14008.0 0.0000714 13671.61914 14122.07813
14024.0 0.0000713 13684.22168 14152.46582
14033.0 0.0000713 13696.82813 14185.84863
14055.0 0.0000711 13709.43945 14221.99902
14067.0 0.0000711 13722.05469 14260.74121
14097.0 0.0000709 13734.67480 14301.89551
14126.0 0.0000708 13747.29883 14345.43262
14147.0 0.0000707 13759.92871 14390.79102
14206.0 0.0000704 13772.56348 14437.81152
14256.0 0.0000701 13785.20410 14486.08496
14316.0 0.0000699 13797.84863 14535.07520
14405.0 0.0000694 13810.49902 14584.13867
14505.0 0.0000689 13823.15527 14632.50293
14621.0 0.0000684 13835.81738 14679.29004
14746.0 0.0000678 13848.48340 14723.56641
14864.0 0.0000673 13861.15723 14764.38281
14993.0 0.0000667 13873.83691 14800.89551
15082.0 0.0000663 13886.52148 14832.38867
15139.0 0.0000661 13899.21289 14858.42871
15185.0 0.0000659 13911.91113 14878.89355
15178.0 0.0000659 13924.61523 14894.03613
15129.0 0.0000661 13937.32617 14904.47656
15056.0 0.0000664 13950.04297 14911.16602
14940.0 0.0000669 13962.76855 14915.35938
14830.0 0.0000674 13975.49902 14918.53906
14757.0 0.0000678 13988.23828 14922.38770
14711.0 0.0000680 14000.98242 14928.89648
14713.0 0.0000680 14013.73535 14939.85156
14724.0 0.0000679 14026.49609 14957.77539
14772.0 0.0000677 14039.26367 14985.57129
14848.0 0.0000673 14052.03711 15026.95508
14945.0 0.0000669 14064.82031 15087.10840
15092.0 0.0000663 14077.61035 15173.39258
15308.0 0.0000653 14090.40820 15298.30176
15612.0 0.0000641 14103.21484 15487.93555
16136.0 0.0000620 14116.02832 15815.60449
17020.0 0.0000588 14128.85059 16497.89258
18643.0 0.0000536 14141.68066 18060.97266
21708.0 0.0000461 14154.51953 21381.45313
27048.0 0.0000370 14167.36523 27163.27148
34421.0 0.0000291 14180.22070 34711.91016
40197.0 0.0000249 14193.08496 40593.76172
40205.0 0.0000249 14205.95703 39901.99219
34063.0 0.0000294 14218.83691 33331.19531
25753.0 0.0000388 14231.72754 25938.07813
20042.0 0.0000499 14244.62598 20602.41406
17309.0 0.0000578 14257.53418 17661.09961
16106.0 0.0000621 14270.44922 16305.95801
15537.0 0.0000644 14283.37598 15707.36719
15261.0 0.0000655 14296.31055 15406.26660
15096.0 0.0000662 14309.25488 15222.58008
15002.0 0.0000667 14322.20703 15096.04297
14948.0 0.0000669 14335.16992 15004.37891
14924.0 0.0000670 14348.14258 14936.38965
14927.0 0.0000670 14361.12402 14885.42578
14941.0 0.0000669 14374.11426 14847.01172
14952.0 0.0000669 14387.11523 14818.08496
14908.0 0.0000671 14400.12598 14796.47656
14871.0 0.0000672 14413.14648 14780.63086
14835.0 0.0000674 14426.17676 14769.39160
14824.0 0.0000675 14439.21582 14761.90820
14821.0 0.0000675 14452.26563 14757.53613
14821.0 0.0000675 14465.32520 14755.77930
14829.0 0.0000674 14478.39551 14756.26270
14822.0 0.0000675 14491.47363 14758.68848
14828.0 0.0000674 14504.56445 14762.84473
14841.0 0.0000674 14517.66406 14768.55664
14864.0 0.0000673 14530.77441 14775.71582
14865.0 0.0000673 14543.89453 14784.24121
14885.0 0.0000672 14557.02539 14794.08105
14890.0 0.0000672 14570.16699 14805.23340
14901.0 0.0000671 14583.31836 14817.70508
14925.0 0.0000670 14596.47949 14831.55957
14923.0 0.0000670 14609.65137 14846.86523
14953.0 0.0000669 14622.83496 14863.74023
14949.0 0.0000669 14636.02832 14882.31445
14945.0 0.0000669 14649.23145 14902.76172
14958.0 0.0000669 14662.44531 14925.22461
14959.0 0.0000668 14675.67090 14949.90234
14962.0 0.0000668 14688.90723 14976.96973
14994.0 0.0000667 14702.15234 15006.52441
15016.0 0.0000666 14715.41016 15038.54297
15042.0 0.0000665 14728.67773 15072.78809
15048.0 0.0000665 14741.95605 15111.82617
15049.0 0.0000664 14755.24609 15148.25781
15081.0 0.0000663 14768.54492 15183.50391
15107.0 0.0000662 14781.85645 15215.30957
15171.0 0.0000659 14795.17871 15241.16895
15240.0 0.0000656 14808.51074 15258.95313
15300.0 0.0000654 14821.85352 15267.55859
15334.0 0.0000652 14835.20801 15267.34473
15310.0 0.0000653 14848.57324 15260.00293
15271.0 0.0000655 14861.94922 15247.99023
15229.0 0.0000657 14875.33496 15233.87988
15231.0 0.0000657 14888.73340 15219.83594
15227.0 0.0000657 14902.14258 15207.41309
15232.0 0.0000657 14915.56250 15197.58691
15258.0 0.0000655 14928.99121 15190.86035
15253.0 0.0000656 14942.43359 15187.37891
15276.0 0.0000655 14955.88574 15187.07031
15281.0 0.0000654 14969.34961 15189.70508
15292.0 0.0000654 14982.82227 15195.26953
15296.0 0.0000654 14996.30762 15202.86133
15295.0 0.0000654 15009.80371 15212.42285
15312.0 0.0000653 15023.31055 15223.64746
15328.0 0.0000652 15036.82715 15236.25977
15341.0 0.0000652 15050.35547 15250.70215
15345.0 0.0000652 15063.89551 15265.49512
15366.0 0.0000651 15077.44531 15281.13281
15368.0 0.0000651 15091.00684 15297.51074
15393.0 0.0000650 15104.57715 15314.55078
15396.0 0.0000650 15118.16016 15332.20215
15395.0 0.0000650 15131.75293 15350.42188
15412.0 0.0000649 15145.35742 15369.18262
15432.0 0.0000648 15158.97070 15388.48242
15453.0 0.0000647 15172.59668 15408.31055
15468.0 0.0000646 15186.23340 15428.66602
15488.0 0.0000646 15199.87988 15449.55664
15494.0 0.0000645 15213.53613 15470.98242
15502.0 0.0000645 15227.20410 15492.95605
15510.0 0.0000645 15240.88281 15515.47168
15509.0 0.0000645 15254.57129 15538.55273
15516.0 0.0000644 15268.26953 15562.18848
15541.0 0.0000643 15281.98047 15586.38281
15557.0 0.0000643 15295.70020 15611.10840
15571.0 0.0000642 15309.43164 15636.36816
15576.0 0.0000642 15323.17090 15662.09766
15609.0 0.0000641 15336.92285 15688.27734
15638.0 0.0000639 15350.68457 15714.83594
15651.0 0.0000639 15364.45605 15741.70313
15655.0 0.0000639 15378.23633 15768.76465
15671.0 0.0000638 15392.02832 15795.91602
15695.0 0.0000637 15405.83105 15823.01465
15728.0 0.0000636 15419.64355 15849.88672
15782.0 0.0000634 15433.46582 15876.36328
15824.0 0.0000632 15447.29590 15902.23145
15873.0 0.0000630 15461.13770 15927.28613
15931.0 0.0000628 15474.99023 15951.30664
15991.0 0.0000625 15488.85156 15974.08594
16109.0 0.0000621 15502.72168 15995.41406
16240.0 0.0000616 15516.60254 16015.12695
16410.0 0.0000609 15530.49219 16033.06348
16580.0 0.0000603 15544.39258 16049.30273
16674.0 0.0000600 15558.30078 16063.45215
16712.0 0.0000598 15572.21875 16075.67188
16379.0 0.0000611 15586.14746 16086.44434
16288.0 0.0000614 15600.08496 16095.02246
16209.0 0.0000617 15614.02930 16101.97070
16143.0 0.0000619 15627.98535 16107.45508
16072.0 0.0000622 15641.95020 16111.69043
16026.0 0.0000624 15655.92383 16114.87402
15997.0 0.0000625 15669.90527 16117.23926
15985.0 0.0000626 15683.89648 16118.98438
16002.0 0.0000625 15697.89648 16120.32324
16012.0 0.0000625 15711.90527 16121.43262
16008.0 0.0000625 15725.92188 16122.48145
16012.0 0.0000625 15739.94824 16123.61035
16016.0 0.0000624 15753.98242 16124.94336
16030.0 0.0000624 15768.02539 16126.80273
16048.0 0.0000623 15782.07617 16128.82715
16060.0 0.0000623 15796.13477 16131.29395
16064.0 0.0000623 15810.20215 16134.25488
16087.0 0.0000622 15824.27734 16137.74219
16086.0 0.0000622 15838.36133 16141.77930
16090.0 0.0000622 15852.45117 16146.37109
16114.0 0.0000621 15866.54980 16151.53711
16117.0 0.0000620 15880.65723 16157.26660
16130.0 0.0000620 15894.77148 16163.55762
16147.0 0.0000619 15908.89258 16170.40039
16168.0 0.0000619 15923.02148 16177.79102
16176.0 0.0000618 15937.15820 16185.70996
16191.0 0.0000618 15951.30176 16194.14941
16195.0 0.0000617 15965.45215 16203.09863
16213.0 0.0000617 15979.60938 16212.54004
16222.0 0.0000616 15993.77441 16222.69531
16230.0 0.0000616 16007.94629 16233.09766
16258.0 0.0000615 16022.12402 16243.95215
16266.0 0.0000615 16036.30859 16255.28613
16286.0 0.0000614 16050.50098 16267.07324
16309.0 0.0000613 16064.69824 16279.30859
16318.0 0.0000613 16078.90137 16291.99023
16323.0 0.0000613 16093.11230 16305.12598
16341.0 0.0000612 16107.32910 16318.70605
16357.0 0.0000611 16121.55176 16332.73730
16357.0 0.0000611 16135.78027 16347.23047
16386.0 0.0000610 16150.01367 16362.18262
16381.0 0.0000610 16164.25391 16377.67188
16398.0 0.0000610 16178.49902 16393.56250
16404.0 0.0000610 16192.75098 16409.92969
16428.0 0.0000609 16207.00586 16426.77344
16449.0 0.0000608 16221.26758 16444.09766
16475.0 0.0000607 16235.53418 16461.88477
16496.0 0.0000606 16249.80566 16480.11914
16490.0 0.0000606 16264.08105 16498.88477
16517.0 0.0000605 16278.36230 16517.90234
16527.0 0.0000605 16292.64844 16537.23828
16546.0 0.0000604 16306.93848 16556.79688
16557.0 0.0000604 16321.23242 16576.46289
16571.0 0.0000603 16335.53125 16596.10938
16582.0 0.0000603 16349.83496 16615.59180
16593.0 0.0000603 16364.14160 16634.73633
16622.0 0.0000602 16378.45117 16653.38281
16648.0 0.0000601 16392.76563 16671.38477
16682.0 0.0000599 16407.08594 16688.62500
16722.0 0.0000598 16421.40625 16705.03711
16768.0 0.0000596 16435.73047 16720.61328
16789.0 0.0000596 16450.06055 16735.40039
16791.0 0.0000596 16464.39258 16749.50391
16784.0 0.0000596 16478.72656 16763.04688
16790.0 0.0000596 16493.06445 16776.21875
16796.0 0.0000595 16507.40430 16789.19336
16794.0 0.0000595 16521.74609 16802.15039
16793.0 0.0000595 16536.09180 16815.25977
16799.0 0.0000595 16550.43945 16828.65820
16811.0 0.0000595 16564.78906 16842.48047
16827.0 0.0000594 16579.14063 16856.85352
16820.0 0.0000595 16593.49414 16871.83984
16845.0 0.0000594 16607.85156 16887.56836
16859.0 0.0000593 16622.20703 16904.07227
16890.0 0.0000592 16636.56641 16921.42969
16922.0 0.0000591 16650.92578 16939.73828
16937.0 0.0000590 16665.28906 16959.11719
16963.0 0.0000590 16679.65039 16979.76758
17007.0 0.0000588 16694.01367 17001.98828
17043.0 0.0000587 16708.37695 17026.46680
17088.0 0.0000585 16722.74219 17054.41602
17145.0 0.0000583 16737.10742 17088.08984
17194.0 0.0000582 16751.47266 17129.77148
17252.0 0.0000580 16765.83984 17182.53711
17288.0 0.0000578 16780.20703 17247.81836
17316.0 0.0000578 16794.57227 17323.63672
17358.0 0.0000576 16808.93750 17402.03906
17403.0 0.0000575 16823.30273 17467.23633
17451.0 0.0000573 16837.66797 17503.25977
17491.0 0.0000572 16852.03320 17512.51367
17551.0 0.0000570 16866.39648 17514.81250
17617.0 0.0000568 16880.75977 17529.04883
17704.0 0.0000565 16895.12109 17566.50977
17798.0 0.0000562 16909.48242 17632.64453
17902.0 0.0000559 16923.83984 17728.84961
18003.0 0.0000555 16938.19727 17853.27539
18076.0 0.0000553 16952.55469 18000.21289
18139.0 0.0000551 16966.90820 18157.02344
18206.0 0.0000549 16981.25977 18300.38086
18256.0 0.0000548 16995.60938 18399.95898
18306.0 0.0000546 17009.95703 18437.41602
18341.0 0.0000545 17024.30273 18422.56836
18361.0 0.0000545 17038.64453 18380.95898
18356.0 0.0000545 17052.98438 18328.09375
18316.0 0.0000546 17067.32227 18261.25977
18238.0 0.0000548 17081.65625 18176.01172
18156.0 0.0000551 17095.98633 18083.24023
18093.0 0.0000553 17110.31250 18000.12695
18039.0 0.0000554 17124.63672 17937.05078
17988.0 0.0000556 17138.95703 17896.71289
17945.0 0.0000557 17153.27344 17877.33398
17930.0 0.0000558 17167.58594 17875.05469
17934.0 0.0000558 17181.89453 17885.78125
17930.0 0.0000558 17196.19727 17906.24219
17900.0 0.0000559 17210.49805 17934.33984
17877.0 0.0000559 17224.79102 17969.18555
17869.0 0.0000560 17239.08203 18010.83984
17860.0 0.0000560 17253.36719 18060.01563
17878.0 0.0000559 17267.64648 18118.13477
17917.0 0.0000558 17281.92188 18187.20898
17974.0 0.0000556 17296.19141 18269.73633
18051.0 0.0000554 17310.45508 18368.97266
18180.0 0.0000550 17324.71289 18488.82813
18343.0 0.0000545 17338.96289 18633.31250
18601.0 0.0000538 17353.20898 18807.13086
18940.0 0.0000528 17367.44922 19014.78906
19365.0 0.0000516 17381.68359 19260.10547
19876.0 0.0000503 17395.91016 19545.22656
20402.0 0.0000490 17410.13086 19868.85156
20877.0 0.0000479 17424.34375 20223.36719
21253.0 0.0000471 17438.55078 20590.67188
21486.0 0.0000465 17452.74805 20938.13867
21521.0 0.0000465 17466.93945 21218.73633
21382.0 0.0000468 17481.12500 21381.25977
21121.0 0.0000473 17495.30273 21390.96094
20784.0 0.0000481 17509.46875 21248.11914
20454.0 0.0000489 17523.63086 20987.85352
20130.0 0.0000497 17537.78320 20661.60938
19889.0 0.0000503 17551.92773 20316.30469
19724.0 0.0000507 17566.06445 19984.79297
19597.0 0.0000510 17580.19141 19684.49805
19480.0 0.0000513 17594.31055 19423.27734
19395.0 0.0000516 17608.41992 19202.31250
19307.0 0.0000518 17622.51953 19019.38281
19203.0 0.0000521 17636.60938 18870.50000
19101.0 0.0000524 17650.69141 18750.89453
18965.0 0.0000527 17664.76367 18655.63086
18821.0 0.0000531 17678.82813 18579.97656
18677.0 0.0000535 17692.87891 18519.60156
18546.0 0.0000539 17706.92188 18470.84375
18426.0 0.0000543 17720.95313 18430.79102
18350.0 0.0000545 17734.97656 18397.32227
18271.0 0.0000547 17748.98633 18369.02148
18224.0 0.0000549 17762.98633 18345.00000
18197.0 0.0000550 17776.97656 18324.18164
18182.0 0.0000550 17790.95508 18307.30078
18178.0 0.0000550 17804.92188 18293.54297
18175.0 0.0000550 17818.87695 18282.64063
18168.0 0.0000550 17832.82227 18274.34961
18163.0 0.0000551 17846.75586 18268.46289
18180.0 0.0000550 17860.67578 18264.75391
18181.0 0.0000550 17874.58398 18263.04492
18194.0 0.0000550 17888.48242 18263.13672
18207.0 0.0000549 17902.36719 18265.20117
18194.0 0.0000550 17916.23828 18268.49219
18202.0 0.0000549 17930.09766 18273.18750
18225.0 0.0000549 17943.94336 18279.19531
18224.0 0.0000549 17957.77734 18286.44141
18231.0 0.0000549 17971.59766 18294.84766
18255.0 0.0000548 17985.40430 18304.37695
18269.0 0.0000547 17999.19922 18314.98828
18266.0 0.0000547 18012.97852 18326.65234
18283.0 0.0000547 18026.74609 18339.37891
18300.0 0.0000546 18040.49805 18353.18555
18327.0 0.0000546 18054.23633 18368.07813
18337.0 0.0000545 18067.96094 18384.09180
18350.0 0.0000545 18081.67188 18401.27344
18375.0 0.0000544 18095.36523 18419.66992
18385.0 0.0000544 18109.04688 18439.36719
18396.0 0.0000544 18122.71289 18460.43555
18431.0 0.0000543 18136.36523 18482.87305
18462.0 0.0000542 18150.00000 18506.88672
18506.0 0.0000540 18163.62109 18532.49414
18561.0 0.0000539 18177.22656 18559.75586
18632.0 0.0000537 18190.81641 18588.69141
18691.0 0.0000535 18204.38867 18619.30859
18721.0 0.0000534 18217.94727 18651.58008
18752.0 0.0000533 18231.49023 18685.49805
18745.0 0.0000533 18245.01563 18721.05859
18745.0 0.0000533 18258.52539 18758.32031
18786.0 0.0000532 18272.01758 18797.42578
18816.0 0.0000531 18285.49414 18838.57227
18852.0 0.0000530 18298.95508 18881.92969
18900.0 0.0000529 18312.39844 18927.61133
18924.0 0.0000528 18325.82227 18975.53906
18963.0 0.0000527 18339.23047 19025.48047
19003.0 0.0000526 18352.62305 19076.81641
19033.0 0.0000525 18365.99609 19128.68750
19068.0 0.0000524 18379.35156 19179.77539
19103.0 0.0000523 18392.68945 19228.59570
19110.0 0.0000523 18406.01172 19273.07617
19171.0 0.0000522 18419.31250 19311.35547
19311.0 0.0000518 18432.59570 19341.57422
19569.0 0.0000511 18445.86328 19362.28125
19978.0 0.0000501 18459.10938 19372.64063
19761.0 0.0000506 18472.33984 19372.61328
19455.0 0.0000514 18485.54883 19362.98242
19283.0 0.0000519 18498.73828 19345.10742
19186.0 0.0000521 18511.91211 19320.81836
19143.0 0.0000522 18525.06445 19292.05469
19113.0 0.0000523 18538.19727 19260.66602
19098.0 0.0000524 18551.31055 19228.29102
19091.0 0.0000524 18564.40625 19196.24805
19094.0 0.0000524 18577.48047 19165.47656
19113.0 0.0000523 18590.53516 19136.65430
19101.0 0.0000524 18603.57031 19110.21289
19083.0 0.0000524 18616.58398 19086.36523
19093.0 0.0000524 18629.58008 19065.19922
19080.0 0.0000524 18642.55469 19046.69141
19045.0 0.0000525 18655.50586 19030.75000
19030.0 0.0000525 18668.43945 19017.23047
19025.0 0.0000526 18681.35352 19006.11719
19026.0 0.0000526 18694.24414 18996.97461
19047.0 0.0000525 18707.11328 18989.76172
19045.0 0.0000525 18719.96289 18984.28320
19042.0 0.0000525 18732.79102 18980.41016
19042.0 0.0000525 18745.59766 18977.98438
19048.0 0.0000525 18758.38281 18976.84375
19035.0 0.0000525 18771.14648 18976.85938
19052.0 0.0000525 18783.88867 18977.91797
19075.0 0.0000524 18796.60938 18979.89453
19092.0 0.0000524 18809.30469 18982.69922
19091.0 0.0000524 18821.98242 18986.22070
19097.0 0.0000524 18834.63477 18990.40430
19086.0 0.0000524 18847.26758 18995.15430
19084.0 0.0000524 18859.87500 19000.42383
19085.0 0.0000524 18872.46094 19006.13281
19084.0 0.0000524 18885.02539 19012.25586
19077.0 0.0000524 18897.56641 19018.77930
19092.0 0.0000524 18910.08398 19025.58398
19094.0 0.0000524 18922.57813 19032.67969
19107.0 0.0000523 18935.05078 19040.03906
19131.0 0.0000523 18947.50000 19047.63086
19126.0 0.0000523 18959.92578 19055.42773
19132.0 0.0000523 18972.32617 19063.44336
19170.0 0.0000522 18984.70508 19071.64453
19172.0 0.0000522 18997.06055 19080.00391
19174.0 0.0000522 19009.39063 19088.53125
19185.0 0.0000521 19021.69727 19097.22266
19181.0 0.0000521 19033.98047 19106.06641
19196.0 0.0000521 19046.24023 19115.07227
19209.0 0.0000521 19058.47461 19124.23828
19210.0 0.0000521 19070.68555 19133.56641
19230.0 0.0000520 19082.87109 19143.05078
19259.0 0.0000519 19095.03320 19152.73828
19270.0 0.0000519 19107.17188 19162.61133
19272.0 0.0000519 19119.28320 19172.66406
19304.0 0.0000518 19131.37305 19182.98047
19318.0 0.0000518 19143.43555 19193.57031
19308.0 0.0000518 19155.47461 19204.39063
19315.0 0.0000518 19167.48633 19215.48438
19338.0 0.0000517 19179.47461 19226.87695
19343.0 0.0000517 19191.43945 19238.56641
19359.0 0.0000517 19203.37695 19250.58008
19383.0 0.0000516 19215.29102 19262.88477
19395.0 0.0000516 19227.17578 19275.48828
19414.0 0.0000515 19239.03906 19288.36523
19454.0 0.0000514 19250.87500 19301.51367
19465.0 0.0000514 19262.68555 19314.90430
19484.0 0.0000513 19274.47070 19328.49023
19495.0 0.0000513 19286.22852 19342.31641
19491.0 0.0000513 19297.96289 19356.21680
19488.0 0.0000513 19309.66992 19370.22461
19497.0 0.0000513 19321.34961 19384.28711
19486.0 0.0000513 19333.00586 19398.38281
19468.0 0.0000514 19344.63477 19412.48828
19483.0 0.0000513 19356.23828 19426.58594
19492.0 0.0000513 19367.81445 19440.66211
19496.0 0.0000513 19379.36523 19454.71875
19519.0 0.0000512 19390.88867 19468.77148
19512.0 0.0000513 19402.38477 19482.81250
19519.0 0.0000512 19413.85547 19496.86523
19528.0 0.0000512 19425.30078 19510.97070
19524.0 0.0000512 19436.71680 19525.12109
19526.0 0.0000512 19448.10938 19539.35352
19535.0 0.0000512 19459.47070 19553.68359
19557.0 0.0000511 19470.80859 19568.10352
19552.0 0.0000511 19482.11914 19582.63477
19551.0 0.0000511 19493.40234 19597.30469
19567.0 0.0000511 19504.65820 19612.08594
19567.0 0.0000511 19515.88672 19627.00586
19578.0 0.0000511 19527.08984 19642.04883
19602.0 0.0000510 19538.26563 19657.22266
19616.0 0.0000510 19549.41211 19672.52930
19611.0 0.0000510 19560.53320 19687.97852
19630.0 0.0000509 19571.62500 19703.54883
19634.0 0.0000509 19582.69141 19719.32227
19626.0 0.0000510 19593.73047 19735.30078
19634.0 0.0000509 19604.74023 19751.62305
19644.0 0.0000509 19615.72461 19768.47656
19669.0 0.0000508 19626.68164 19786.22656
19706.0 0.0000507 19637.60938 19805.36133
19755.0 0.0000506 19648.50977 19826.61523
19813.0 0.0000505 19659.38477 19850.81250
19908.0 0.0000502 19670.23047 19878.78516
19997.0 0.0000500 19681.04883 19911.07227
20065.0 0.0000498 19691.83789 19947.62695
20095.0 0.0000498 19702.60156 19987.51172
20068.0 0.0000498 19713.33789 20028.64648
20015.0 0.0000500 19724.04492 20067.70508
19972.0 0.0000501 19734.72461 20100.44727
19958.0 0.0000501 19745.37695 20122.53516
19959.0 0.0000501 19756.00000 20131.72070
20013.0 0.0000500 19766.59766 20129.23438
20089.0 0.0000498 19777.16602 20118.99609
20195.0 0.0000495 19787.70508 20105.39063
20348.0 0.0000491 19798.21875 20092.13477
20482.0 0.0000488 19808.70508 20081.48828
20540.0 0.0000487 19819.16211 20074.64258
20497.0 0.0000488 19829.58984 20071.88672
20391.0 0.0000490 19839.99219 20072.57617
20251.0 0.0000494 19850.36523 20075.87695
20156.0 0.0000496 19860.71094 20080.95313
20101.0 0.0000497 19871.02734 20087.10938
20076.0 0.0000498 19881.31641 20093.87500
20089.0 0.0000498 19891.58008 20101.00781
20100.0 0.0000498 19901.81250 20108.41406
20097.0 0.0000498 19912.01758 20116.00391
20069.0 0.0000498 19922.19727 20123.80273
20040.0 0.0000499 19932.34766 20131.79102
20017.0 0.0000500 19942.46875 20140.00391
19998.0 0.0000500 19952.56250 20148.42188
20013.0 0.0000500 19962.63086 20157.08398
20015.0 0.0000500 19972.66797 20165.96094
20009.0 0.0000500 19982.67969 20175.08398
19997.0 0.0000500 19992.66211 20184.42969
20006.0 0.0000500 20002.61719 20193.99805
20040.0 0.0000499 20012.54492 20203.80859
20058.0 0.0000499 20022.44531 20213.84766
20074.0 0.0000498 20032.31641 20224.16211
20080.0 0.0000498 20042.16016 20234.79883
20096.0 0.0000498 20051.97656 20245.83398
20121.0 0.0000497 20061.76563 20257.33203
20148.0 0.0000496 20071.52734 20269.42578
20162.0 0.0000496 20081.26172 20282.17969
20201.0 0.0000495 20090.96680 20295.62109
20222.0 0.0000495 20100.64648 20309.60742
20245.0 0.0000494 20110.29688 20323.92383
20261.0 0.0000494 20119.91992 20338.13477
20287.0 0.0000493 20129.51563 20351.60547
20306.0 0.0000492 20139.08594 20363.57031
20337.0 0.0000492 20148.62695 20373.17383
20391.0 0.0000490 20158.14063 20379.76172
20441.0 0.0000489 20167.62695 20383.33789
20494.0 0.0000488 20177.08594 20384.44531
20540.0 0.0000487 20186.51953 20384.07422
20545.0 0.0000487 20195.92383 20383.12695
20503.0 0.0000488 20205.30273 20382.34375
20464.0 0.0000489 20214.65430 20382.26367
20423.0 0.0000490 20223.97852 20383.16406
20396.0 0.0000490 20233.27539 20385.12891
20390.0 0.0000490 20242.54492 20388.16602
20383.0 0.0000491 20251.78906 20392.17773
20366.0 0.0000491 20261.00586 20397.00000
20349.0 0.0000491 20270.19727 20402.58008
20365.0 0.0000491 20279.35938 20408.82227
20361.0 0.0000491 20288.49609 20415.67383
20377.0 0.0000491 20297.60742 20423.09961
20399.0 0.0000490 20306.69141 20431.05859
20399.0 0.0000490 20315.75000 20439.96680
20397.0 0.0000490 20324.78125 20449.04102
20420.0 0.0000490 20333.78711 20458.70117
20431.0 0.0000489 20342.76563 20468.89844
20434.0 0.0000489 20351.71875 20479.62500
20454.0 0.0000489 20360.64648 20490.92383
20469.0 0.0000489 20369.54688 20502.76563
20463.0 0.0000489 20378.42383 20515.16211
20453.0 0.0000489 20387.27344 20528.08008
20473.0 0.0000488 20396.09766 20541.53906
20486.0 0.0000488 20404.89648 20555.45117
20503.0 0.0000488 20413.66797 20570.02930
20535.0 0.0000487 20422.41602 20584.66797
20579.0 0.0000486 20431.13867 20599.49219
20611.0 0.0000485 20439.83594 20614.30469
20631.0 0.0000485 20448.50781 20628.90430
20662.0 0.0000484 20457.15430 20643.01367
20677.0 0.0000484 20465.77734 20656.32617
20691.0 0.0000483 20474.37500 20668.60938
20698.0 0.0000483 20482.94727 20679.59961
20694.0 0.0000483 20491.49609 20689.15234
20705.0 0.0000483 20500.01758 20697.22266
20735.0 0.0000482 20508.51758 20703.85547
20749.0 0.0000482 20516.99219 20709.23047
20752.0 0.0000482 20525.44336 20713.55859
20768.0 0.0000482 20533.86914 20717.05273
20782.0 0.0000481 20542.27148 20719.98828
20777.0 0.0000481 20550.65039 20722.56250
20781.0 0.0000481 20559.00586 20724.99609
20766.0 0.0000482 20567.33594 20727.44336
20749.0 0.0000482 20575.64453 20730.04688
20748.0 0.0000482 20583.92773 20732.92383
20740.0 0.0000482 20592.18945 20736.16602
20725.0 0.0000483 20600.42773 20739.81641
20730.0 0.0000482 20608.64063 20743.93555
20737.0 0.0000482 20616.83398 20748.56836
20742.0 0.0000482 20625.00195 20753.68359
20739.0 0.0000482 20633.14844 20759.27734
20756.0 0.0000482 20641.27148 20765.35156
20760.0 0.0000482 20649.37305 20771.91602
20763.0 0.0000482 20657.45313 20778.91992
20785.0 0.0000481 20665.50977 20786.35547
20800.0 0.0000481 20673.54492 20794.21289
20805.0 0.0000481 20681.55664 20802.47461
20815.0 0.0000480 20689.54883 20811.10156
20830.0 0.0000480 20697.51758 20820.08008
20830.0 0.0000480 20705.46484 20829.42188
20834.0 0.0000480 20713.39258 20839.08594
20863.0 0.0000479 20721.29883 20849.06641
20860.0 0.0000479 20729.18359 20859.38281
20854.0 0.0000480 20737.04688 20869.99414
20854.0 0.0000480 20744.88867 20880.91602
20868.0 0.0000479 20752.71094 20892.13281
20888.0 0.0000479 20760.51367 20903.66211
20904.0 0.0000478 20768.29492 20915.50391
20907.0 0.0000478 20776.05469 20927.65820
20912.0 0.0000478 20783.79688 20940.13477
20926.0 0.0000478 20791.51953 20952.93945
20941.0 0.0000478 20799.22070 20966.32031
20946.0 0.0000477 20806.90234 20979.84375
20952.0 0.0000477 20814.56445 20993.73047
20983.0 0.0000477 20822.20898 21007.98242
21010.0 0.0000476 20829.83203 21022.63477
21040.0 0.0000475 20837.43945 21037.70313
21119.0 0.0000474 20845.02539 21053.17188
21222.0 0.0000471 20852.59375 21069.06250
21263.0 0.0000470 20860.14258 21085.37500
21247.0 0.0000471 20867.67578 21102.11133
21138.0 0.0000473 20875.18945 21119.27930
21096.0 0.0000474 20882.68555 21136.84961
21079.0 0.0000474 20890.16211 21154.80273
21087.0 0.0000474 20897.62305 21173.14844
21087.0 0.0000474 20905.06641 21191.81250
21104.0 0.0000474 20912.49219 21210.80859
21141.0 0.0000473 20919.90039 21230.05469
21182.0 0.0000472 20927.29297 21249.52930
21189.0 0.0000472 20934.66797 21269.15234
21200.0 0.0000472 20942.02734 21288.86523
21236.0 0.0000471 20949.36914 21308.55273
21254.0 0.0000470 20956.69531 21328.11719
21255.0 0.0000470 20964.00586 21347.39258
21261.0 0.0000470 20971.30078 21366.23438
21266.0 0.0000470 20978.58008 21384.38867
21282.0 0.0000470 20985.84375 21401.60742
21306.0 0.0000469 20993.09180 21417.63867
21326.0 0.0000469 21000.32422 21432.14258
21357.0 0.0000468 21007.54297 21444.87305
21383.0 0.0000468 21014.74805 21455.57422
21439.0 0.0000466 21021.93750 21464.09766
21505.0 0.0000465 21029.11328 21470.36133
21594.0 0.0000463 21036.27344 21474.49219
21756.0 0.0000460 21043.41992 21476.56250
21948.0 0.0000456 21050.55469 21476.91406
22125.0 0.0000452 21057.67578 21475.91406
22226.0 0.0000450 21064.78320 21473.90625
22180.0 0.0000451 21071.87695 21471.31836
22020.0 0.0000454 21078.95703 21468.53516
21826.0 0.0000458 21086.02539 21465.82031
21653.0 0.0000462 21093.08203 21463.50391
21551.0 0.0000464 21100.12500 21461.76758
21496.0 0.0000465 21107.15625 21460.74414
21459.0 0.0000466 21114.17578 21460.57813
21444.0 0.0000466 21121.18359 21461.31445
21441.0 0.0000466 21128.18164 21463.01758
21431.0 0.0000467 21135.16602 21465.69727
21436.0 0.0000467 21142.14063 21469.36914
21427.0 0.0000467 21149.10352 21473.98242
21425.0 0.0000467 21156.05664 21479.50977
21433.0 0.0000467 21163.00000 21485.92969
21430.0 0.0000467 21169.93164 21493.18164
21437.0 0.0000466 21176.85547 21501.22461
21447.0 0.0000466 21183.76758 21509.96875
21456.0 0.0000466 21190.66992 21519.36719
21467.0 0.0000466 21197.56445 21529.33789
21468.0 0.0000466 21204.44922 21539.77930
21488.0 0.0000465 21211.32422 21550.60547
21491.0 0.0000465 21218.19141 21561.70117
21511.0 0.0000465 21225.04883 21572.96289
21548.0 0.0000464 21231.90039 21584.25195
21580.0 0.0000463 21238.74219 21595.52344
21602.0 0.0000463 21245.57617 21606.53906
21618.0 0.0000463 21252.40234 21617.28906
21644.0 0.0000462 21259.22266 21627.57422
21645.0 0.0000462 21266.03516 21637.35352
21645.0 0.0000462 21272.83984 21646.54297
21642.0 0.0000462 21279.63867 21655.10352
21662.0 0.0000462 21286.43164 21662.98633
21665.0 0.0000462 21293.21680 21670.23047
21682.0 0.0000461 21299.99609 21676.83594
21707.0 0.0000461 21306.76953 21682.88281
21718.0 0.0000460 21313.53906 21688.42969
21722.0 0.0000460 21320.30078 21693.55078
21731.0 0.0000460 21327.05859 21698.33789
21721.0 0.0000460 21333.81250 21702.91016
21720.0 0.0000460 21340.56055 21707.34375
21706.0 0.0000461 21347.30469 21711.74805
21700.0 0.0000461 21354.04297 21716.17969
21708.0 0.0000461 21360.77734 21720.74023
21696.0 0.0000461 21367.50977 21725.46094
21699.0 0.0000461 21374.23828 21730.45703
21706.0 0.0000461 21380.96289 21735.72461
21715.0 0.0000461 21387.68359 21741.30859
21713.0 0.0000461 21394.40234 21747.26563
21718.0 0.0000460 21401.11914 21753.58594
21718.0 0.0000460 21407.83203 21760.30078
21734.0 0.0000460 21414.54297 21767.44727
21749.0 0.0000460 21421.25195 21775.00000
21760.0 0.0000460 21427.96094 21782.97656
21768.0 0.0000459 21434.66602 21791.38672
21764.0 0.0000459 21441.37109 21800.23633
21787.0 0.0000459 21448.07422 21809.49609
21789.0 0.0000459 21454.77734 21819.21680
21790.0 0.0000459 21461.48047 21829.34375
21804.0 0.0000459 21468.18164 21839.91602
21814.0 0.0000458 21474.88281 21850.92188
21816.0 0.0000458 21481.58398 21862.35938
21835.0 0.0000458 21488.28711 21874.21289
21849.0 0.0000458 21494.98828 21886.50000
21857.0 0.0000458 21501.69141 21899.22070
21881.0 0.0000457 21508.39648 21912.36523
21905.0 0.0000457 21515.10156 21925.94922
21917.0 0.0000456 21521.80859 21939.94336
21914.0 0.0000456 21528.51758 21954.37695
21914.0 0.0000456 21535.22656 21969.21094
21918.0 0.0000456 21541.93945 21984.45313
21942.0 0.0000456 21548.65625 22000.12891
21952.0 0.0000456 21555.37305 22016.21680
21973.0 0.0000455 21562.09180 22032.67773
22009.0 0.0000454 21568.81641 22049.53320
22018.0 0.0000454 21575.54297 22066.76953
22045.0 0.0000454 21582.27344 22084.38281
22067.0 0.0000453 21589.00586 22102.34766
22061.0 0.0000453 21595.74414 22120.75000
22062.0 0.0000453 21602.48633 22139.43945
22064.0 0.0000453 21609.23242 22158.49609
22061.0 0.0000453 21615.98242 22177.95898
22071.0 0.0000453 21622.73633 22197.88281
22092.0 0.0000453 21629.49805 22218.35742
22132.0 0.0000452 21636.26367 22239.51367
22166.0 0.0000451 21643.03516 22261.55078
22205.0 0.0000450 21649.81055 22284.66602
22262.0 0.0000449 21656.59375 22309.19531
22423.0 0.0000446 21663.38281 22335.45508
22650.0 0.0000442 21670.17773 22363.80664
22800.0 0.0000439 21676.97852 22394.58008
22837.0 0.0000438 21683.78711 22428.06445
22722.0 0.0000440 21690.60352 22464.37891
22661.0 0.0000441 21697.42578 22503.49414
22640.0 0.0000442 21704.25586 22545.14844
22654.0 0.0000441 21711.09375 22588.70898
22692.0 0.0000441 21717.93945 22633.26563
22750.0 0.0000440 21724.79102 22677.54688
22791.0 0.0000439 21731.65430 22719.94141
22821.0 0.0000438 21738.52344 22758.49023
22822.0 0.0000438 21745.40234 22791.11328
22814.0 0.0000438 21752.29102 22815.88672
22795.0 0.0000439 21759.18555 22831.46875
22758.0 0.0000439 21766.09180 22837.53125
22743.0 0.0000440 21773.00781 22834.72656
22712.0 0.0000440 21779.93359 22824.58594
22683.0 0.0000441 21786.86719 22808.86914
22665.0 0.0000441 21793.81250 22789.39258
22665.0 0.0000441 21800.76758 22767.65039
22670.0 0.0000441 21807.73242 22744.86328
22671.0 0.0000441 21814.70898 22722.00977
22660.0 0.0000441 21821.69531 22699.81836
22659.0 0.0000441 21828.69336 22678.82031
22657.0 0.0000441 21835.70313 22659.39258
22666.0 0.0000441 21842.72461 22641.75391
22635.0 0.0000442 21849.75586 22625.92773
22632.0 0.0000442 21856.80078 22611.86719
22623.0 0.0000442 21863.85547 22599.41406
22587.0 0.0000443 21870.92383 22588.42969
22568.0 0.0000443 21878.00391 22578.70508
22569.0 0.0000443 21885.09766 22570.09766
22551.0 0.0000443 21892.20313 22562.42969
22527.0 0.0000444 21899.32031 22555.61523
22521.0 0.0000444 21906.45313 22549.58008
22527.0 0.0000444 21913.59766 22544.23047
22523.0 0.0000444 21920.75586 22539.56250
22513.0 0.0000444 21927.92578 22535.57031
22532.0 0.0000444 21935.11133 22532.21875
22546.0 0.0000444 21942.31055 22529.54883
22550.0 0.0000443 21949.52344 22527.57617
22560.0 0.0000443 21956.75000 22526.35547
22560.0 0.0000443 21963.99219 22526.52539
22551.0 0.0000443 21971.24805 22526.90625
22542.0 0.0000444 21978.51758 22528.14648
22560.0 0.0000443 21985.80273 22530.29688
22571.0 0.0000443 21993.10352 22533.31250
22578.0 0.0000443 22000.41797 22537.16992
22586.0 0.0000443 22007.74805 22541.87891
22597.0 0.0000443 22015.09570 22547.34961
22587.0 0.0000443 22022.45508 22553.52539
22577.0 0.0000443 22029.83203 22560.36914
22581.0 0.0000443 22037.22461 22567.83594
22603.0 0.0000442 22044.63477 22575.91211
22606.0 0.0000442 22052.05859 22584.58984
22603.0 0.0000442 22059.49805 22593.86523
22626.0 0.0000442 22066.95508 22603.77930
22625.0 0.0000442 22074.42969 22614.37109
22632.0 0.0000442 22081.91797 22625.68359
22637.0 0.0000442 22089.42578 22637.80664
22663.0 0.0000441 22096.94922 22650.80859
22667.0 0.0000441 22104.48828 22664.74609
22684.0 0.0000441 22112.04688 22679.72070
22719.0 0.0000440 22119.61914 22695.77539
22748.0 0.0000440 22127.21094 22712.93164
22764.0 0.0000439 22134.81836 22731.22070
22770.0 0.0000439 22142.44531 22750.60352
22786.0 0.0000439 22150.08789 22770.95703
22806.0 0.0000438 22157.74805 22792.17578
22824.0 0.0000438 22165.42773 22814.09180
22842.0 0.0000438 22173.12305 22836.42773
22859.0 0.0000437 22180.83594 22858.89063
22879.0 0.0000437 22188.56836 22881.19141
22897.0 0.0000437 22196.31836 22903.01758
22920.0 0.0000436 22204.08594 22924.13672
22951.0 0.0000436 22211.87109 22944.46289
22950.0 0.0000436 22219.67578 22963.98633
22952.0 0.0000436 22227.49805 22982.89844
22953.0 0.0000436 22235.33789 23001.41602
22931.0 0.0000436 22243.19531 23019.78320
22922.0 0.0000436 22251.07227 23038.23633
22922.0 0.0000436 22258.96680 23056.91992
22938.0 0.0000436 22266.88086 23075.98633
22959.0 0.0000436 22274.81250 23095.56055
22969.0 0.0000435 22282.76367 23115.73047
22986.0 0.0000435 22290.73242 23136.54883
23028.0 0.0000434 22298.72070 23158.05273
23063.0 0.0000434 22306.72656 23180.25195
23100.0 0.0000433 22314.75195 23203.03711
23170.0 0.0000432 22322.79492 23226.35156
23263.0 0.0000430 22330.85742 23250.01953
23309.0 0.0000429 22338.93750 23273.88086
23322.0 0.0000429 22347.03711 23297.75586
23344.0 0.0000428 22355.15430 23321.43945
23365.0 0.0000428 22363.29102 23344.70313
23374.0 0.0000428 22371.44531 23367.33008
23396.0 0.0000427 22379.61914 23389.09766
23430.0 0.0000427 22387.81055 23409.79688
23476.0 0.0000426 22396.02344 23429.15234
23508.0 0.0000425 22404.25195 23446.96875
23538.0 0.0000425 22412.50000 23463.02930
23569.0 0.0000424 22420.76563 23477.10547
23581.0 0.0000424 22429.05078 23489.06055
23580.0 0.0000424 22437.35352 23498.73633
23598.0 0.0000424 22445.67383 23506.08984
23616.0 0.0000423 22454.01367 23511.11523
23607.0 0.0000424 22462.37109 23513.89648
23606.0 0.0000424 22470.74805 23514.63867
23602.0 0.0000424 22479.14063 23513.56250
23605.0 0.0000424 22487.55273 23511.03711
23572.0 0.0000424 22495.98242 23507.39453
23553.0 0.0000425 22504.42969 23503.32031
23538.0 0.0000425 22512.89648 23498.70508
23509.0 0.0000425 22521.37891 23494.20117
23454.0 0.0000426 22529.87891 23490.20703
23423.0 0.0000427 22538.39453 23487.07813
23437.0 0.0000427 22546.92969 23485.11914
23409.0 0.0000427 22555.48242 23484.58984
23386.0 0.0000428 22564.05273 23485.66016
23388.0 0.0000428 22572.63867 23488.42383
23405.0 0.0000427 22581.24219 23492.89648
23438.0 0.0000427 22589.86133 23498.97852
23459.0 0.0000426 22598.49805 23506.49609
23475.0 0.0000426 22607.14844 23515.14258
23492.0 0.0000426 22615.81836 23524.54883
23518.0 0.0000425 22624.50195 23534.27344
23542.0 0.0000425 22633.20313 23543.84375
23559.0 0.0000424 22641.91992 23552.77734
23573.0 0.0000424 22650.65234 23560.86914
23579.0 0.0000424 22659.39844 23567.63672
23588.0 0.0000424 22668.16211 23573.14648
23597.0 0.0000424 22676.93750 23577.32617
23602.0 0.0000424 22685.72852 23580.23633
23589.0 0.0000424 22694.53516 23581.92773
23576.0 0.0000424 22703.35547 23582.41797
23566.0 0.0000424 22712.19141 23581.84180
23555.0 0.0000425 22721.04102 23580.31641
23546.0 0.0000425 22729.90234 23578.15820
23532.0 0.0000425 22738.77930 23575.68750
23538.0 0.0000425 22747.66797 23573.31250
23539.0 0.0000425 22756.56836 23571.44531
23542.0 0.0000425 22765.48242 23570.49023
23534.0 0.0000425 22774.40820 23570.80469
23555.0 0.0000425 22783.34766 23572.67578
23545.0 0.0000425 22792.29688 23576.36523
23559.0 0.0000424 22801.25977 23582.03320
23585.0 0.0000424 22810.23242 23589.74609
23633.0 0.0000423 22819.21680 23599.47852
23678.0 0.0000422 22828.20898 23611.11133
23712.0 0.0000422 22837.21484 23624.40625
23715.0 0.0000422 22846.22852 23638.94727
23708.0 0.0000422 22855.25391 23654.20703
23738.0 0.0000421 22864.28711 23669.57031
23759.0 0.0000421 22873.33008 23684.25781
23778.0 0.0000421 22882.38086 23697.44727
23796.0 0.0000420 22891.43945 23708.38477
23806.0 0.0000420 22900.50391 23716.42383
23810.0 0.0000420 22909.57813 23721.22656
23802.0 0.0000420 22918.66016 23722.74219
23803.0 0.0000420 22927.74805 23721.36133
23779.0 0.0000421 22936.84180 23717.85547
23780.0 0.0000421 22945.94336 23713.34766
23759.0 0.0000421 22955.04883 23709.11719
23737.0 0.0000421 22964.15820 23706.65039
23723.0 0.0000422 22973.27344 23707.39063
23705.0 0.0000422 22982.39063 23712.71680
23691.0 0.0000422 22991.51367 23723.82031
23684.0 0.0000422 23000.64063 23741.71875
23674.0 0.0000422 23009.76758 23767.04297
23670.0 0.0000422 23018.89844 23800.08984
23686.0 0.0000422 23028.03125 23840.74805
23691.0 0.0000422 23037.16602 23888.37305
23717.0 0.0000422 23046.30078 23941.82813
23722.0 0.0000422 23055.43359 23999.44141
23747.0 0.0000421 23064.56836 24059.02930
23763.0 0.0000421 23073.70313 24117.96094
23782.0 0.0000420 23082.83594 24173.20508
23837.0 0.0000420 23091.96680 24221.53516
23930.0 0.0000418 23101.09375 24259.76953
24063.0 0.0000416 23110.22070 24285.15430
24236.0 0.0000413 23119.34180 24295.82813
24484.0 0.0000408 23128.45898 24291.21094
24764.0 0.0000404 23137.57031 24272.12109
24957.0 0.0000401 23146.67773 24240.45313
24983.0 0.0000400 23155.77930 24198.96289
24799.0 0.0000403 23164.87500 24150.62305
24495.0 0.0000408 23173.96289 24098.42578
24213.0 0.0000413 23183.04297 24045.05664
24019.0 0.0000416 23192.11523 23992.83789
23899.0 0.0000418 23201.17773 23943.64844
23829.0 0.0000420 23210.22852 23898.87305
23799.0 0.0000420 23219.27148 23859.43945
23761.0 0.0000421 23228.30273 23825.84570
23735.0 0.0000421 23237.32031 23798.13086
23726.0 0.0000421 23246.32813 23776.08984
23727.0 0.0000421 23255.32031 23759.26172
23735.0 0.0000421 23264.30078 23746.98047
23726.0 0.0000421 23273.26367 23738.55078
23731.0 0.0000421 23282.21094 23733.26953
23730.0 0.0000421 23291.14453 23730.40039
23719.0 0.0000422 23300.06055 23729.33789
23707.0 0.0000422 23308.95703 23729.55664
23716.0 0.0000422 23317.83594 23730.63672
23725.0 0.0000421 23326.69531 23732.21094
23729.0 0.0000421 23335.53516 23734.08789
23732.0 0.0000421 23344.35352 23736.07227
23731.0 0.0000421 23353.14844 23738.14648
23746.0 0.0000421 23361.92188 23740.17578
23771.0 0.0000421 23370.67188 23742.20508
23810.0 0.0000420 23379.39844 23744.27344
23850.0 0.0000419 23388.09766 23746.39453
23858.0 0.0000419 23396.77148 23748.62305
23832.0 0.0000420 23405.41797 23751.00781
23792.0 0.0000420 23414.03711 23753.56250
23785.0 0.0000420 23422.62695 23756.33398
23780.0 0.0000421 23431.18359 23759.34766
23771.0 0.0000421 23439.71289 23762.63281
23761.0 0.0000421 23448.20898 23766.18555
23770.0 0.0000421 23456.67383 23770.03125
23772.0 0.0000421 23465.10352 23774.20703
23773.0 0.0000421 23473.50000 23778.71484
23784.0 0.0000420 23481.85938 23783.66016
23794.0 0.0000420 23490.18164 23788.86133
23794.0 0.0000420 23498.46484 23794.41797
23805.0 0.0000420 23506.70898 23800.34570
23806.0 0.0000420 23514.91406 23806.66797
23815.0 0.0000420 23523.08008 23813.36133
23824.0 0.0000420 23531.20117 23820.45117
23819.0 0.0000420 23539.28125 23827.95313
23820.0 0.0000420 23547.31641 23835.83203
23824.0 0.0000420 23555.30469 23844.09766
23847.0 0.0000419 23563.24609 23852.74805
23844.0 0.0000419 23571.14063 23861.77148
23833.0 0.0000420 23578.98633 23871.14063
23821.0 0.0000420 23586.78125 23880.84766
23834.0 0.0000420 23594.52539 23890.83984
23864.0 0.0000419 23602.21680 23901.09570
23881.0 0.0000419 23609.85547 23911.57422
23877.0 0.0000419 23617.43750 23922.23242
23884.0 0.0000419 23624.96484 23933.02148
23897.0 0.0000418 23632.43164 23943.88477
23908.0 0.0000418 23639.84180 23954.78320
23934.0 0.0000418 23647.19141 23965.66797
23955.0 0.0000417 23654.48047 23976.50391
23980.0 0.0000417 23661.70703 23987.24414
24014.0 0.0000416 23668.86914 23997.91406
24035.0 0.0000416 23675.96484 24008.46094
24058.0 0.0000416 23682.99609 24018.89844
24108.0 0.0000415 23689.95508 24029.22070
24129.0 0.0000414 23696.84766 24039.45508
24140.0 0.0000414 23703.66992 24049.56055
24160.0 0.0000414 23710.41797 24059.57227
24123.0 0.0000415 23717.09375 24069.47852
24090.0 0.0000415 23723.69531 24079.26953
24078.0 0.0000415 23730.21875 24088.95117
24073.0 0.0000415 23736.66406 24098.46094
24065.0 0.0000416 23743.02734 24107.82031
24061.0 0.0000416 23749.31250 24116.96680
24071.0 0.0000415 23755.51367 24125.87305
24062.0 0.0000416 23761.63281 24134.51172
24074.0 0.0000415 23767.66406 24142.81641
24052.0 0.0000416 23773.60938 24150.75977
24048.0 0.0000416 23779.46484 24158.32227
24059.0 0.0000416 23785.23047 24165.40820
24057.0 0.0000416 23790.90234 24172.00977
24064.0 0.0000416 23796.48047 24178.08789
24063.0 0.0000416 23801.96484 24183.59570
24060.0 0.0000416 23807.35156 24188.50000
24072.0 0.0000415 23812.64063 24192.75977
24085.0 0.0000415 23817.82813 24196.38867
24112.0 0.0000415 23822.91211 24199.35938
24111.0 0.0000415 23827.89453 24201.70313
24120.0 0.0000415 23832.76953 24203.42188
24137.0 0.0000414 23837.53711 24204.56836
24163.0 0.0000414 23842.19727 24205.21875
24177.0 0.0000414 23846.74414 24205.50586
24199.0 0.0000413 23851.18164 24205.50977
24231.0 0.0000413 23855.50195 24205.40820
24290.0 0.0000412 23859.70508 24205.35352
24338.0 0.0000411 23863.79102 24205.49609
24361.0 0.0000410 23867.75781 24206.06055
24378.0 0.0000410 23871.59961 24207.18164
24351.0 0.0000411 23875.31836 24209.05273
24298.0 0.0000412 23878.91211 24211.80859
24259.0 0.0000412 23882.37695 24215.54883
24232.0 0.0000413 23885.71289 24220.33203
24216.0 0.0000413 23888.91602 24226.15430
24216.0 0.0000413 23891.98633 24232.98633
24219.0 0.0000413 23894.91992 24240.69336
24213.0 0.0000413 23897.71484 24249.08594
24219.0 0.0000413 23900.36914 24257.91406
24249.0 0.0000412 23902.88281 24266.89258
24260.0 0.0000412 23905.25195 24275.70898
24272.0 0.0000412 23907.47461 24284.10742
24289.0 0.0000412 23909.54883 24291.91016
24293.0 0.0000412 23911.47070 24299.08203
24308.0 0.0000411 23913.24219 24305.72656
24316.0 0.0000411 23914.85742 24312.07617
24327.0 0.0000411 23916.31445 24318.43164
24328.0 0.0000411 23917.61328 24325.10352
24336.0 0.0000411 23918.74805 24332.40430
24345.0 0.0000411 23919.72070 24340.59766
24344.0 0.0000411 23920.52734 24349.92188
24353.0 0.0000411 23921.16406 24360.53711
24360.0 0.0000411 23921.63086 24372.55859
24368.0 0.0000410 23921.92383 24386.06055
24367.0 0.0000410 23922.04102 24401.01758
24381.0 0.0000410 23921.98047 24417.39453
24400.0 0.0000410 23921.73828 24435.10352
24399.0 0.0000410 23921.31445 24454.01172
24396.0 . . .
24400.0 . . .
24395.0 . . .
24387.0 . . .
24382.0 . . .
24387.0 . . .
24390.0 . . .
24390.0 . . .
24386.0 . . .
24392.0 . . .
24385.0 . . .
24391.0 . . .
24386.0 . . .
24377.0 . . .
24381.0 . . .
24380.0 . . .
24372.0 . . .
24364.0 . . .
24366.0 . . .
24379.0 . . .
24397.0 . . .
24412.0 . . .
24437.0 . . .
24468.0 . . .
24515.0 . . .
24561.0 . . .
24588.0 . . .
24574.0 . . .
24557.0 . . .
24530.0 . . .
24505.0 . . .
24484.0 . . .
24464.0 . . .
24473.0 . . .
24476.0 . . .
24473.0 . . .
24482.0 . . .
24475.0 . . .
24468.0 . . .
24465.0 . . .
24459.0 . . .
24451.0 . . .
24461.0 . . .
24458.0 . . .
24475.0 . . .
24479.0 . . .
24481.0 . . .
24484.0 . . .
24477.0 . . .
24486.0 . . .
24488.0 . . .
24473.0 . . .
24476.0 . . .
24477.0 . . .
24477.0 . . .
24487.0 . . .
24495.0 . . .
24504.0 . . .
24518.0 . . .
24537.0 . . .
24546.0 . . .
24548.0 . . .
24552.0 . . .
24570.0 . . .
24581.0 . . .
24577.0 . . .
24592.0 . . .
24606.0 . . .
24613.0 . . .
24618.0 . . .
24634.0 . . .
24652.0 . . .
24650.0 . . .
24639.0 . . .
24640.0 . . .
24640.0 . . .
24643.0 . . .
24636.0 . . .
24634.0 . . .
24647.0 . . .
24667.0 . . .
24689.0 . . .
24697.0 . . .
24715.0 . . .
24725.0 . . .
24721.0 . . .
24703.0 . . .
24688.0 . . .
24682.0 . . .
24680.0 . . .
24663.0 . . .
24651.0 . . .
24634.0 . . .
24629.0 . . .
24635.0 . . .
24624.0 . . .
24636.0 . . .
24630.0 . . .
24616.0 . . .
24619.0 . . .
24639.0 . . .
24659.0 . . .
24652.0 . . .
24668.0 . . .
24678.0 . . .
24682.0 . . .
24690.0 . . .
24685.0 . . .
24680.0 . . .
24683.0 . . .
24722.0 . . .
24749.0 . . .
24759.0 . . .
24758.0 . . .
24745.0 . . .
24740.0 . . .
24716.0 . . .
24708.0 . . .
24697.0 . . .
24677.0 . . .
24676.0 . . .
24675.0 . . .
24672.0 . . .
24660.0 . . .
24658.0 . . .
24645.0 . . .
24644.0 . . .
24645.0 . . .
24658.0 . . .
24659.0 . . .
24647.0 . . .
24653.0 . . .
24660.0 . . .
24663.0 . . .
24677.0 . . .
24664.0 . . .
24686.0 . . .
24695.0 . . .
24707.0 . . .
24718.0 . . .
24740.0 . . .
24767.0 . . .
24799.0 . . .
24817.0 . . .
24816.0 . . .
24826.0 . . .
24800.0 . . .
24785.0 . . .
24771.0 . . .
24736.0 . . .
24705.0 . . .
24683.0 . . .
24676.0 . . .
24674.0 . . .
24665.0 . . .
24649.0 . . .
24655.0 . . .
24658.0 . . .
24644.0 . . .
24631.0 . . .
24621.0 . . .
24609.0 . . .
24599.0 . . .
24620.0 . . .
24609.0 . . .
24588.0 . . .
24582.0 . . .
24586.0 . . .
24563.0 . . .
24583.0 . . .
24571.0 . . .
24564.0 . . .
24553.0 . . .
24554.0 . . .
24557.0 . . .
24540.0 . . .
24527.0 . . .
24502.0 . . .
24492.0 . . .
24488.0 . . .
24476.0 . . .
24467.0 . . .
24469.0 . . .
24453.0 . . .
24455.0 . . .
24453.0 . . .
24440.0 . . .
24430.0 . . .
24420.0 . . .
24414.0 . . .
24409.0 . . .
24387.0 . . .
24366.0 . . .
24333.0 . . .
24282.0 . . .
24234.0 . . .
24202.0 . . .
24140.0 . . .
24095.0 . . .
24045.0 . . .
23960.0 . . .
23896.0 . . .
23819.0 . . .
23798.0 . . .
23948.0 . . .
24028.0 . . .
24061.0 . . .
24074.0 . . .
24068.0 . . .
24062.0 . . .
24082.0 . . .
24098.0 . . .
24100.0 . . .
24096.0 . . .
24107.0 . . .
24100.0 . . .
24091.0 . . .
24089.0 . . .
24056.0 . . .
24026.0 . . .
24026.0 . . .
24013.0 . . .
24011.0 . . .
24013.0 . . .
23997.0 . . .
23981.0 . . .
23968.0 . . .
23956.0 . . .
23949.0 . . .
23941.0 . . .
23925.0 . . .
23933.0 . . .
23918.0 . . .
23889.0 . . .
23877.0 . . .
23880.0 . . .
23872.0 . . .
23866.0 . . .
23858.0 . . .
23854.0 . . .
23833.0 . . .
23815.0 . . .
23811.0 . . .
23798.0 . . .
23786.0 . . .
23780.0 . . .
23786.0 . . .
23778.0 . . .
23764.0 . . .
23755.0 . . .
23753.0 . . .
23745.0 . . .
23730.0 . . .
23719.0 . . .
23722.0 . . .
23711.0 . . .
23703.0 . . .
23691.0 . . .
23671.0 . . .
23672.0 . . .
23677.0 . . .
23672.0 . . .
23661.0 . . .
23641.0 . . .
23612.0 . . .
23604.0 . . .
23595.0 . . .
23578.0 . . .
23570.0 . . .
23553.0 . . .
23545.0 . . .
23536.0 . . .
23519.0 . . .
23512.0 . . .
23518.0 . . .
23513.0 . . .
23491.0 . . .
23486.0 . . .
23498.0 . . .
23489.0 . . .
23480.0 . . .
23471.0 . . .
23454.0 . . .
23455.0 . . .
23452.0 . . .
23460.0 . . .
23473.0 . . .
23464.0 . . .
23464.0 . . .
23451.0 . . .
23451.0 . . .
23457.0 . . .
23441.0 . . .
23437.0 . . .
23418.0 . . .
23404.0 . . .
23388.0 . . .
23381.0 . . .
23369.0 . . .
23342.0 . . .
23309.0 . . .
23293.0 . . .
23282.0 . . .
23271.0 . . .
23257.0 . . .
23242.0 . . .
23219.0 . . .
23202.0 . . .
23192.0 . . .
23177.0 . . .
23145.0 . . .
23131.0 . . .
23093.0 . . .
23073.0 . . .
23070.0 . . .
23041.0 . . .
23020.0 . . .
22999.0 . . .
22970.0 . . .
22928.0 . . .
22915.0 . . .
22903.0 . . .
22889.0 . . .
22880.0 . . .
22870.0 . . .
22845.0 . . .
22840.0 . . .
22826.0 . . .
22829.0 . . .
22827.0 . . .
22791.0 . . .
22769.0 . . .
22756.0 . . .
22734.0 . . .
22718.0 . . .
22698.0 . . .
22684.0 . . .
22679.0 . . .
22677.0 . . .
22658.0 . . .
22635.0 . . .
22614.0 . . .
22593.0 . . .
22570.0 . . .
22570.0 . . .
22566.0 . . .
22536.0 . . .
22514.0 . . .
22506.0 . . .
22488.0 . . .
22447.0 . . .
22417.0 . . .
22399.0 . . .
22382.0 . . .
22371.0 . . .
22351.0 . . .
22318.0 . . .
22294.0 . . .
22253.0 . . .
22228.0 . . .
22207.0 . . .
22180.0 . . .
22159.0 . . .
22136.0 . . .
22121.0 . . .
22106.0 . . .
22085.0 . . .
22066.0 . . .
22058.0 . . .
22030.0 . . .
21991.0 . . .
21955.0 . . .
21938.0 . . .
21931.0 . . .
21916.0 . . .
21907.0 . . .
21888.0 . . .
21853.0 . . .
21825.0 . . .
21791.0 . . .
21766.0 . . .
21760.0 . . .
21766.0 . . .
21732.0 . . .
21710.0 . . .
21689.0 . . .
21672.0 . . .
21646.0 . . .
21610.0 . . .
21581.0 . . .
21547.0 . . .
21522.0 . . .
21502.0 . . .
21473.0 . . .
21450.0 . . .
21437.0 . . .
21420.0 . . .
21391.0 . . .
21376.0 . . .
21350.0 . . .
21333.0 . . .
21320.0 . . .
21290.0 . . .
21255.0 . . .
21237.0 . . .
21209.0 . . .
21196.0 . . .
21177.0 . . .
21160.0 . . .
21147.0 . . .
21132.0 . . .
21095.0 . . .
21073.0 . . .
21058.0 . . .
21045.0 . . .
21026.0 . . .
21001.0 . . .
20979.0 . . .
20938.0 . . .
20924.0 . . .
20928.0 . . .
20930.0 . . .
20887.0 . . .
20852.0 . . .
20849.0 . . .
20831.0 . . .
20814.0 . . .
20795.0 . . .
20787.0 . . .
20769.0 . . .
20744.0 . . .
20731.0 . . .
20723.0 . . .
20680.0 . . .
20663.0 . . .
20649.0 . . .
20654.0 . . .
20652.0 . . .
20629.0 . . .
20606.0 . . .
20606.0 . . .
20597.0 . . .
20589.0 . . .
20561.0 . . .
20517.0 . . .
20505.0 . . .
20501.0 . . .
20487.0 . . .
20477.0 . . .
20449.0 . . .
20426.0 . . .
20384.0 . . .
20373.0 . . .
20383.0 . . .
20354.0 . . .
20341.0 . . .
20312.0 . . .
20308.0 . . .
20311.0 . . .
20288.0 . . .
20250.0 . . .
20217.0 . . .
20188.0 . . .
20163.0 . . .
20126.0 . . .
20081.0 . . .
20050.0 . . .
20024.0 . . .
20024.0 . . .
20009.0 . . .
19965.0 . . .
19939.0 . . .
19911.0 . . .
19898.0 . . .
19884.0 . . .
19857.0 . . .
19822.0 . . .
19791.0 . . .
19762.0 . . .
19764.0 . . .
19740.0 . . .
19719.0 . . .
19686.0 . . .
19667.0 . . .
19652.0 . . .
19624.0 . . .
19584.0 . . .
19561.0 . . .
19542.0 . . .
19536.0 . . .
19511.0 . . .
19474.0 . . .
19455.0 . . .
19432.0 . . .
19390.0 . . .
19367.0 . . .
19319.0 . . .
19311.0 . . .
19313.0 . . .
19317.0 . . .
19316.0 . . .
19277.0 . . .
19234.0 . . .
19186.0 . . .
19146.0 . . .
19134.0 . . .
19085.0 . . .
19072.0 . . .
19082.0 . . .
19069.0 . . .
19048.0 . . .
18993.0 . . .
18952.0 . . .
18932.0 . . .
18919.0 . . .
18923.0 . . .
18884.0 . . .
18866.0 . . .
18832.0 . . .
18785.0 . . .
18781.0 . . .
18738.0 . . .
18706.0 . . .
18669.0 . . .
18649.0 . . .
18634.0 . . .
18586.0 . . .
18578.0 . . .
18563.0 . . .
18531.0 . . .
18519.0 . . .
18482.0 . . .
18447.0 . . .
18422.0 . . .
18393.0 . . .
18375.0 . . .
18325.0 . . .
18295.0 . . .
18282.0 . . .
18277.0 . . .
18249.0 . . .
18173.0 . . .
18153.0 . . .
18147.0 . . .
18134.0 . . .
18095.0 . . .
18047.0 . . .
18024.0 . . .
18002.0 . . .
17986.0 . . .
17941.0 . . .
17904.0 . . .
17878.0 . . .
17850.0 . . .
17851.0 . . .
17824.0 . . .
17796.0 . . .
17791.0 . . .
17769.0 . . .
17760.0 . . .
17701.0 . . .
17639.0 . . .
17603.0 . . .
17589.0 . . .
17601.0 . . .
17554.0 . . .
17505.0 . . .
17484.0 . . .
17488.0 . . .
17505.0 . . .
17449.0 . . .
17426.0 . . .
17394.0 . . .
17393.0 . . .
17360.0 . . .
17301.0 . . .
17274.0 . . .
17249.0 . . .
17255.0 . . .
17205.0 . . .
17154.0 . . .
17145.0 . . .
17128.0 . . .
17118.0 . . .
17078.0 . . .
17025.0 . . .
17003.0 . . .
16999.0 . . .
16998.0 . . .
16928.0 . . .
16893.0 . . .
16876.0 . . .
16893.0 . . .
16850.0 . . .
16772.0 . . .
16747.0 . . .
16754.0 . . .
16752.0 . . .
16705.0 . . .
16677.0 . . .
16667.0 . . .
16662.0 . . .
16661.0 . . .
16594.0 . . .
16571.0 . . .
16554.0 . . .
16540.0 . . .
16514.0 . . .
16463.0 . . .
16413.0 . . .
16384.0 . . .
16419.0 . . .
16372.0 . . .
16316.0 . . .
16285.0 . . .
16281.0 . . .
16273.0 . . .
16230.0 . . .
16211.0 . . .
16201.0 . . .
16222.0 . . .
16152.0 . . .
16096.0 . . .
16081.0 . . .
16097.0 . . .
16081.0 . . .
16000.0 . . .
15979.0 . . .
15996.0 . . .
16030.0 . . .
15989.0 . . .
15918.0 . . .
15894.0 . . .
15882.0 . . .
15881.0 . . .
15786.0 . . .
15760.0 . . .
15731.0 . . .
15731.0 . . .
15680.0 . . .
15623.0 . . .
15607.0 . . .
15597.0 . . .
15603.0 . . .
15538.0 . . .
15518.0 . . .
15510.0 . . .
15519.0 . . .
15453.0 . . .
15398.0 . . .
15368.0 . . .
15367.0 . . .
15365.0 . . .
15279.0 . . .
15251.0 . . .
15224.0 . . .
15238.0 . . .
15151.0 . . .
15094.0 . . .
15071.0 . . .
15106.0 . . .
15105.0 . . .
15020.0 . . .
15007.0 . . .
15000.0 . . .
15013.0 . . .
14940.0 . . .
14895.0 . . .
14887.0 . . .
14894.0 . . .
14840.0 . . .
14774.0 . . .
14740.0 . . .
14712.0 . . .
14721.0 . . .
14643.0 . . .
14617.0 . . .
14622.0 . . .
14641.0 . . .
14564.0 . . .
14506.0 . . .
14513.0 . . .
14520.0 . . .
14465.0 . . .
14388.0 . . .
14395.0 . . .
14386.0 . . .
14384.0 . . .
14298.0 . . .
14266.0 . . .
14256.0 . . .
14271.0 . . .
14192.0 . . .
14153.0 . . .
14170.0 . . .
14180.0 . . .
14127.0 . . .
14047.0 . . .
14010.0 . . .
13992.0 . . .
13986.0 . . .
13908.0 . . .
13890.0 . . .
13880.0 . . .
13874.0 . . .
13792.0 . . .
13735.0 . . .
13739.0 . . .
13783.0 . . .
13727.0 . . .
13647.0 . . .
13651.0 . . .
13690.0 . . .
13627.0 . . .
13543.0 . . .
13539.0 . . .
13556.0 . . .
13537.0 . . .
13433.0 . . .
13416.0 . . .
13441.0 . . .
13416.0 . . .
13334.0 . . .
13293.0 . . .
13300.0 . . .
13317.0 . . .
13222.0 . . .
13158.0 . . .
13160.0 . . .
13177.0 . . .
13090.0 . . .
13050.0 . . .
13044.0 . . .
13056.0 . . .
12999.0 . . .
12942.0 . . .
12926.0 . . .
12941.0 . . .
12883.0 . . .
12814.0 . . .
12807.0 . . .
12845.0 . . .
12799.0 . . .
12717.0 . . .
12649.0 . . .
12639.0 . . .
12622.0 . . .
12538.0 . . .
12510.0 . . .
12519.0 . . .
12503.0 . . .
12413.0 . . .
12391.0 . . .
12419.0 . . .
12394.0 . . .
12280.0 . . .
12247.0 . . .
12245.0 . . .
12239.0 . . .
12148.0 . . .
12102.0 . . .
12107.0 . . .
12113.0 . . .
12007.0 . . .
11957.0 . . .
11968.0 . . .
11995.0 . . .
11873.0 . . .
11795.0 . . .
11780.0 . . .
11818.0 . . .
11762.0 . . .
11712.0 . . .
11672.0 . . .
11697.0 . . .
11623.0 . . .
11548.0 . . .
11513.0 . . .
11526.0 . . .
11464.0 . . .
11409.0 . . .
11382.0 . . .
11409.0 . . .
11346.0 . . .
11243.0 . . .
11216.0 . . .
11260.0 . . .
11199.0 . . .
11119.0 . . .
11102.0 . . .
11125.0 . . .
11068.0 . . .
10978.0 . . .
10929.0 . . .
10934.0 . . .
10884.0 . . .
10812.0 . . .
10787.0 . . .
10782.0 . . .
10699.0 . . .
10641.0 . . .
10630.0 . . .
10642.0 . . .
10545.0 . . .
10518.0 . . .
10495.0 . . .
10474.0 . . .
10376.0 . . .
10304.0 . . .
10308.0 . . .
10282.0 . . .
10159.0 . . .
10134.0 . . .
10161.0 . . .
10147.0 . . .
10051.0 . . .
9985.0 . . .
9972.0 . . .
9952.0 . . .
9849.0 . . .
9807.0 . . .
9805.0 . . .
9764.0 . . .
9646.0 . . .
9600.0 . . .
9641.0 . . .
9559.0 . . .
9475.0 . . .
9432.0 . . .
9432.0 . . .
9313.0 . . .
9212.0 . . .
9225.0 . . .
9267.0 . . .
9147.0 . . .
9073.0 . . .
9075.0 . . .
9090.0 . . .
8980.0 . . .
8981.0 . . .
9047.0 . . .
9049.0 . . .
8950.0 . . .
8992.0 . . .
9061.0 . . .
8947.0 . . .
8814.0 . . .
8831.0 . . .
8926.0 . . .
8822.0 . . .
8741.0 . . .
8739.0 . . .
8772.0 . . .
8633.0 . . .
8622.0 . . .
8685.0 . . .
8692.0 . . .
8559.0 . . .
8534.0 . . .
8587.0 . . .
8551.0 . . .
8466.0 . . .
8461.0 . . .
8485.0 . . .
8372.0 . . .
8296.0 . . .
8335.0 . . .
8411.0 . . .
8265.0 . . .
8232.0 . . .
8269.0 . . .
8264.0 . . .
8146.0 . . .
8155.0 . . .
8244.0 . . .
8139.0 . . .
8020.0 . . .
8072.0 . . .
8175.0 . . .
7970.0 . . .
7912.0 . . .
8002.0 . . .
8053.0 . . .
7866.0 . . .
7886.0 . . .
7998.0 . . .
7870.0 . . .
7711.0 . . .
7769.0 . . .
7857.0 . . .
7683.0 . . .
7686.0 . . .
7773.0 . . .
7710.0 . . .
7534.0 . . .
7573.0 . . .
7637.0 . . .
7468.0 . . .
7455.0 . . .
7535.0 . . .
7526.0 . . .
7400.0 . . .
7420.0 . . .
7488.0 . . .
7402.0 . . .
7315.0 . . .
7354.0 . . .
7395.0 . . .
7271.0 . . .
7255.0 . . .
7303.0 . . .
7256.0 . . .
7165.0 . . .
7149.0 . . .
7168.0 . . .
7090.0 . . .
7066.0 . . .
7085.0 . . .
7061.0 . . .
6965.0 . . .
6949.0 . . .
6983.0 . . .
6952.0 . . .
6896.0 . . .
6911.0 . . .
6958.0 . . .
6879.0 . . .
6849.0 . . .
6835.0 . . .
6782.0 . . .
6692.0 . . .
6700.0 . . .
6730.0 . . .
6689.0 . . .
6651.0 . . .
6624.0 . . .
6631.0 . . .
6600.0 . . .
6586.0 . . .
6553.0 . . .
6525.0 . . .
6502.0 . . .
6484.0 . . .
6469.0 . . .
6428.0 . . .
6394.0 . . .
6379.0 . . .
6367.0 . . .
6290.0 . . .
6257.0 . . .
6252.0 . . .
6212.0 . . .
6200.0 . . .
6160.0 . . .
6185.0 . . .
6086.0 . . .
6058.0 . . .
6039.0 . . .
6026.0 . . .
6010.0 . . .
6008.0 . . .
5973.0 . . .
5964.0 . . .
5898.0 . . .
5886.0 . . .
5863.0 . . .
5828.0 . . .
5850.0 . . .
5792.0 . . .
5776.0 . . .
5743.0 . . .
5658.0 . . .
5691.0 . . .
5677.0 . . .
5572.0 . . .
5551.0 . . .
5510.0 . . .
5485.0 . . .
5461.0 . . .
5392.0 . . .
5397.0 . . .
5337.0 . . .
5288.0 . . .
5318.0 . . .
5256.0 . . .
5222.0 . . .
5170.0 . . .
5066.0 . . .
5074.0 . . .
5072.0 . . .
5028.0 . . .
4963.0 . . .
4924.0 . . .
4973.0 . . .
4958.0 . . .
4865.0 . . .
4828.0 . . .
4773.0 . . .
4713.0 . . .
4673.0 . . .
4566.0 . . .
4573.0 . . .
4638.0 . . .
4523.0 . . .
4493.0 . . .
4355.0 . . .
4264.0 . . .
4297.0 . . .
4162.0 . . .
4115.0 . . .
4113.0 . . .
3926.0 . . .
3861.0 . . .
3801.0 . . .
3505.0 . . .
3430.0 . . .
3183.0 . . .
2786.0 . . .
2743.0 . . .
2375.0 . . .
1994.0 . . .
2002.0 . . .
4096.0 . . .
5191.0 . . .
loop_
_refln_index_h
_refln_index_k
_refln_index_l
_refln_observed_status
_refln_F_squared_meas
_refln_F_squared_calc
_refln_phase_calc
_refln_d_spacing
_gsas_i100_meas
0 0 4 o 10136.481 6333.147 -161.28 3.81225 2.85
0 0 6 o 319.159 278.828 66.56 2.54150 0.04
0 0 8 o 21880.029 17976.750 131.71 1.90612 1.54
0 0 10 o 1637.776 1602.218 164.66 1.52490 0.07
1 1 9 o 0.000 3330.484 105.97 1.58772 0.00
1 1 8 o 0.000 394.527 -1.69 1.75795 0.00
1 1 6 o 22766.875 21709.961 -126.07 2.21855 12.35
1 1 7 o 0.000 1555.307 -166.10 1.96465 0.00
1 1 11 o 0.000 1520.068 12.86 1.32603 0.00
2 0 6 o 294.196 258.273 76.67 1.89405 2.21
1 1 10 o 0.000 3837.766 31.14 1.44578 0.00
1 1 5 o 3432.726 3091.350 -131.89 2.53294 20.72
2 0 8 o 14866.744 14611.254 131.47 1.58279 49.97
2 0 10 o 0.000 1383.811 164.18 1.34354 0.00
1 1 4 o 4999.141 4417.534 -113.32 2.92151 28.84
2 0 4 o 4459.083 4244.917 -159.17 2.27777 8.58
0 2 10 o 1541.468 1513.339 178.70 1.41488 8.00
1 1 3 o 0.000 32.165 87.77 3.38919 0.00
0 2 9 o 1067.964 1046.921 153.16 1.54706 4.45
0 2 8 o 200.851 188.786 30.85 1.70323 0.49
0 2 7 o 10865.610 9832.887 164.04 1.88914 6.31
1 1 0 o 43.157 16.471 180.00 4.54764 0.07
0 2 6 o 1934.788 1828.433 66.67 2.11149 0.65
1 1 2 o 5627.590 5377.733 -91.95 3.90567 28.11
1 1 1 o 262.123 235.751 173.94 4.35797 2.17
2 2 9 o 854.517 871.160 152.09 1.35862 1.59
2 0 2 o 0.000 28.679 -121.70 2.66182 0.00
0 2 5 o 999.140 985.784 80.18 2.37698 3.43
2 2 8 o 133.877 133.283 42.37 1.46076 0.19
2 2 7 o 8172.885 8129.391 163.92 1.57302 0.65
0 2 0 o 6671.237 6700.934 0.00 3.79380 9.17
1 3 9 o 0.000 3334.338 87.06 1.36634 0.00
2 2 6 o 0.000 1464.632 66.28 1.69460 0.00
1 3 8 o 0.000 887.422 -50.40 1.47036 0.00
2 2 5 o 0.000 636.701 82.81 1.82293 0.00
1 3 7 o 120.056 119.728 -46.71 1.58504 0.06
0 2 4 o 999.485 919.728 69.39 2.68912 6.17
0 2 1 o 223.374 144.162 64.04 3.68157 0.01
3 1 8 o 282.478 285.263 -12.70 1.32284 0.76
3 1 7 o 906.976 898.119 -168.09 1.40449 2.50
2 2 4 o 1296.738 734.380 71.67 1.95284 1.62
0 2 3 o 7602.169 7365.057 -90.25 3.04033 9.01
0 2 2 o 654.714 793.684 75.40 3.39656 1.26
1 3 6 o 3076.461 2948.242 -58.18 1.70964 5.81
1 3 5 o 2143.097 2410.233 167.87 1.84170 2.54
3 1 6 o 13005.026 12991.566 -127.77 1.48899 47.61
3 1 5 o 1958.363 1952.159 -132.64 1.57381 8.49
2 2 3 o 5419.684 4987.140 -89.81 2.07561 21.33
1 3 4 o 0.000 498.425 -24.47 1.97597 0.00
2 0 0 o 140444.42 140044.17 0.00 2.84055 100.00
3 1 4 o 2556.833 2554.289 -112.54 1.65514 6.83
0 4 8 o 5792.671 5939.938 -24.74 1.34456 8.99
2 2 2 o 541.378 546.984 71.42 2.17899 1.12
1 3 3 o 804.551 795.599 14.67 2.10345 0.65
0 4 7 o 902.145 900.813 135.59 1.43056 1.01
0 4 6 o 2899.165 2907.484 65.95 1.52016 0.86
1 3 2 o 18532.932 18454.766 122.14 2.21126 43.51
2 2 1 o 89.526 95.891 77.42 2.24896 0.01
0 4 5 o 0.000 2535.669 134.89 1.61075 0.00
3 1 3 o 0.000 20.207 79.59 1.72792 0.00
1 3 1 o 5369.296 5302.142 -64.15 2.28449 7.27
1 3 0 o 5821.489 5740.002 180.00 2.31057 1.42
2 2 0 o 4571.134 4453.642 0.00 2.27382 1.81
0 4 4 o 15352.983 13575.915 81.92 1.69828 7.38
3 1 2 o 2754.782 2787.891 -88.85 1.78621 2.46
0 4 3 o 403.920 391.226 -171.42 1.77718 0.29
2 4 6 o 2423.898 2474.442 65.83 1.34030 11.38
3 3 5 o 1588.070 1654.125 173.64 1.35745 2.44
0 4 2 o 2817.805 3316.249 58.82 1.84079 0.04
2 4 5 o 2090.556 2059.560 133.69 1.40116 6.14
3 1 1 o 8.193 8.515 -141.59 1.82415 0.08
4 0 4 o 0.000 2369.196 -148.84 1.33091 0.00
0 4 1 o 1287.003 955.401 150.26 1.88239 0.12
2 4 4 o 11761.563 11753.769 80.72 1.45763 10.59
3 3 4 o 283.840 278.891 -24.52 1.40861 0.48
2 4 3 o 0.000 351.544 -172.01 1.50661 0.00
3 3 3 o 388.144 386.196 19.46 1.45266 0.36
0 4 0 o 4184.434 3899.379 180.00 1.89690 1.44
1 5 5 o 0.000 3648.151 43.47 1.32136 0.00
3 1 0 o 49.140 48.194 180.00 1.83734 0.40
2 4 2 o 0.000 2651.089 59.78 1.54478 0.00
1 5 4 o 1829.431 1888.460 -97.49 1.36841 2.39
3 3 2 o 11292.566 11159.005 124.50 1.48678 1.72
1 5 3 o 244.987 239.502 -36.33 1.40869 0.47
4 0 2 o 0.000 92.766 -35.38 1.39626 0.00
2 4 1 o 753.773 767.000 151.83 1.56912 0.89
1 5 2 o 6506.429 6423.736 153.06 1.43974 10.12
3 3 1 o 3069.969 3228.688 -63.19 1.50845 0.45
2 4 0 o 3292.663 3266.627 180.00 1.57750 3.31
1 5 1 o 1252.142 1261.656 -138.48 1.45939 1.29
3 3 0 o 3873.380 3997.534 180.00 1.51588 0.68
1 5 0 o 2578.797 2624.252 180.00 1.46612 1.09
4 2 1 o 98.800 99.875 111.01 1.32509 0.24
4 0 0 o 57506.16 56525.80 0.00 1.42027 10.29
4 2 0 o 2248.816 2234.021 0.00 1.33012 2.83
