#------------------------------------------------------------------------------
#$Date: 2019-11-25 06:11:14 +0200 (Mon, 25 Nov 2019) $
#$Revision: 240198 $
#$URL: file:///home/coder/svn-repositories/cod/cif/4/12/94/4129487.cif $
#------------------------------------------------------------------------------
#
# This file is available in the Crystallography Open Database (COD),
# http://www.crystallography.net/
#
# All data on this site have been placed in the public domain by the
# contributors.
#
data_4129487
loop_
_publ_author_name
'Bag, Sukdev'
'Patra, Tuhin'
'Modak, Atanu'
'Deb, Arghya'
'Maity, Soham'
'Dutta, Uttam'
'Dey, Aniruddha'
'Kancherla, Rajesh'
'Maji, Arun'
'Hazra, Avijit'
'Bera, Milan'
'Maiti, Debabrata'
_publ_section_title
;
 Remote para-C-H Functionalization of Arenes by a D-Shaped Biphenyl
 Template-Based Assembly.
;
_journal_issue                   37
_journal_name_full               'Journal of the American Chemical Society'
_journal_page_first              11888
_journal_page_last               11891
_journal_paper_doi               10.1021/jacs.5b06793
_journal_volume                  137
_journal_year                    2015
_chemical_formula_moiety         'C33 N O3 Si'
_chemical_formula_sum            'C33 H39 N O3 Si'
_chemical_formula_weight         525.74
_space_group_crystal_system      triclinic
_space_group_IT_number           2
_space_group_name_Hall           '-P 1'
_space_group_name_H-M_alt        'P -1'
_audit_creation_date             2015-06-16
_audit_creation_method
;
Olex2 1.2
(compiled 2015.01.26 svn.r3150 for OlexSys, GUI svn.r4998)
;
_cell_angle_alpha                94.02(6)
_cell_angle_beta                 103.10(7)
_cell_angle_gamma                103.67(7)
_cell_formula_units_Z            2
_cell_length_a                   7.820(5)
_cell_length_b                   12.203(6)
_cell_length_c                   16.271(12)
_cell_measurement_reflns_used    1614
_cell_measurement_temperature    100
_cell_measurement_theta_max      68.6
_cell_measurement_theta_min      7.1
_cell_volume                     1456.9(17)
_computing_cell_refinement
;
CrystalClear-SM Expert 2.1 b28 (Rigaku, 2013)
;
_computing_data_collection
;
CrystalClear-SM Expert 2.1 b28 (Rigaku, 2013)
;
_computing_data_reduction
;
CrystalClear-SM Expert 2.1 b28 (Rigaku, 2013)
;
_computing_molecular_graphics    'Olex2 (Dolomanov et al., 2009)'
_computing_publication_material  'Olex2 (Dolomanov et al., 2009)'
_computing_structure_refinement  'ShelXL (Sheldrick, 2008)'
_diffrn_ambient_temperature      100
_diffrn_detector                 CCD
_diffrn_detector_area_resol_mean 28.5714
_diffrn_measured_fraction_theta_full 0.973
_diffrn_measured_fraction_theta_max 0.970
_diffrn_measurement_details
;
scan:
	Number of images: 180
	           Slice: -191.0000 - -11.0000
	     Image width: 1.0000
	        Exp time: 4.0000
	   Rotation axis: Omega
	           Omega: 0.0000
	           Kappa: 0.0000
	             Phi: -36.0000
	             XTD: 34.8646
	          2theta: -100.9119
scan:
	Number of images: 180
	           Slice: -122.0000 - 58.0000
	     Image width: 1.0000
	        Exp time: 4.0000
	   Rotation axis: Omega
	           Omega: 0.0000
	           Kappa: 0.0000
	             Phi: -108.0000
	             XTD: 34.8646
	          2theta: -31.9119
scan:
	Number of images: 124
	           Slice: -135.0000 - -11.0000
	     Image width: 1.0000
	        Exp time: 4.0000
	   Rotation axis: Omega
	           Omega: 0.0000
	           Kappa: 72.0000
	             Phi: -36.0000
	             XTD: 34.8646
	          2theta: -100.9119
scan:
	Number of images: 96
	           Slice: -107.0000 - -11.0000
	     Image width: 1.0000
	        Exp time: 4.0000
	   Rotation axis: Omega
	           Omega: 0.0000
	           Kappa: 72.0000
	             Phi: 108.0000
	             XTD: 34.8646
	          2theta: -100.9119
scan:
	Number of images: 86
	           Slice: -102.0000 - -16.0000
	     Image width: 1.0000
	        Exp time: 4.0000
	   Rotation axis: Omega
	           Omega: 0.0000
	           Kappa: 72.0000
	             Phi: -180.0000
	             XTD: 34.8646
	          2theta: -100.9119
scan:
	Number of images: 89
	           Slice: -104.0000 - -15.0000
	     Image width: 1.0000
	        Exp time: 4.0000
	   Rotation axis: Omega
	           Omega: 0.0000
	           Kappa: 72.0000
	             Phi: 36.0000
	             XTD: 34.8646
	          2theta: -100.9119
scan:
	Number of images: 88
	           Slice: -104.0000 - -16.0000
	     Image width: 1.0000
	        Exp time: 4.0000
	   Rotation axis: Omega
	           Omega: 0.0000
	           Kappa: 72.0000
	             Phi: -108.0000
	             XTD: 34.8646
	          2theta: -100.9119
scan:
	Number of images: 71
	           Slice: -66.0000 - 5.0000
	     Image width: 1.0000
	        Exp time: 4.0000
	   Rotation axis: Omega
	           Omega: 0.0000
	           Kappa: 72.0000
	             Phi: -108.0000
	             XTD: 34.8646
	          2theta: -31.9119
scan:
	Number of images: 49
	           Slice: -60.0000 - -11.0000
	     Image width: 1.0000
	        Exp time: 4.0000
	   Rotation axis: Omega
	           Omega: 0.0000
	           Kappa: -72.0000
	             Phi: 108.0000
	             XTD: 34.8646
	          2theta: -31.9119
scan:
	Number of images: 99
	           Slice: -176.0000 - -77.0000
	     Image width: 1.0000
	        Exp time: 4.0000
	   Rotation axis: Omega
	           Omega: 0.0000
	           Kappa: -72.0000
	             Phi: 108.0000
	             XTD: 34.8646
	          2theta: -100.9119
scan:
	Number of images: 113
	           Slice: -189.0000 - -76.0000
	     Image width: 1.0000
	        Exp time: 4.0000
	   Rotation axis: Omega
	           Omega: 0.0000
	           Kappa: -72.0000
	             Phi: -180.0000
	             XTD: 34.8646
	          2theta: -100.9119
scan:
	Number of images: 30
	           Slice: -191.0000 - -161.0000
	     Image width: 1.0000
	        Exp time: 4.0000
	   Rotation axis: Omega
	           Omega: 0.0000
	           Kappa: -72.0000
	             Phi: -108.0000
	             XTD: 34.8646
	          2theta: -100.9119
scan:
	Number of images: 30
	           Slice: -30.0000 - 0.0000
	     Image width: 1.0000
	        Exp time: 4.0000
	   Rotation axis: Omega
	           Omega: 0.0000
	           Kappa: -72.0000
	             Phi: -36.0000
	             XTD: 34.8646
	          2theta: -31.9119
scan:
	Number of images: 30
	           Slice: -191.0000 - -161.0000
	     Image width: 1.0000
	        Exp time: 4.0000
	   Rotation axis: Omega
	           Omega: 0.0000
	           Kappa: -72.0000
	             Phi: -36.0000
	             XTD: 34.8646
	          2theta: -100.9119
scan:
	Number of images: 30
	           Slice: -187.0000 - -157.0000
	     Image width: 1.0000
	        Exp time: 4.0000
	   Rotation axis: Omega
	           Omega: 0.0000
	           Kappa: -72.0000
	             Phi: 36.0000
	             XTD: 34.8646
	          2theta: -100.9119
scan:
	Number of images: 180
	           Slice: -191.0000 - -11.0000
	     Image width: 1.0000
	        Exp time: 4.0000
	   Rotation axis: Omega
	           Omega: 0.0000
	           Kappa: 0.0000
	             Phi: 36.0000
	             XTD: 34.8646
	          2theta: -100.9119
scan:
	Number of images: 124
	           Slice: -66.0000 - 58.0000
	     Image width: 1.0000
	        Exp time: 4.0000
	   Rotation axis: Omega
	           Omega: 0.0000
	           Kappa: 72.0000
	             Phi: 36.0000
	             XTD: 34.8646
	          2theta: -31.9119
;
_diffrn_measurement_device
;
AFC12 (Right): Kappa 3 circle
;
_diffrn_measurement_device_type
;
Rigaku Saturn724+ (4x4 bin mode)
;
_diffrn_measurement_method       'profile data from \w-scans'
_diffrn_measurement_specimen_support Fiber
_diffrn_orient_matrix_type       XPlain
_diffrn_orient_matrix_UB_11      -0.129619
_diffrn_orient_matrix_UB_12      0.037232
_diffrn_orient_matrix_UB_13      0.002428
_diffrn_orient_matrix_UB_21      -0.021770
_diffrn_orient_matrix_UB_22      -0.008797
_diffrn_orient_matrix_UB_23      -0.081764
_diffrn_orient_matrix_UB_31      0.125852
_diffrn_orient_matrix_UB_32      -0.100762
_diffrn_orient_matrix_UB_33      -0.003247
_diffrn_radiation_monochromator  Confocal
_diffrn_radiation_type           CuK\a
_diffrn_radiation_wavelength     1.54187
_diffrn_reflns_av_R_equivalents  0.0821
_diffrn_reflns_av_unetI/netI     0.0589
_diffrn_reflns_Laue_measured_fraction_full 0.973
_diffrn_reflns_Laue_measured_fraction_max 0.970
_diffrn_reflns_limit_h_max       9
_diffrn_reflns_limit_h_min       -7
_diffrn_reflns_limit_k_max       14
_diffrn_reflns_limit_k_min       -14
_diffrn_reflns_limit_l_max       19
_diffrn_reflns_limit_l_min       -19
_diffrn_reflns_number            15791
_diffrn_reflns_point_group_measured_fraction_full 0.973
_diffrn_reflns_point_group_measured_fraction_max 0.970
_diffrn_reflns_theta_full        67.687
_diffrn_reflns_theta_max         68.570
_diffrn_reflns_theta_min         7.141
_diffrn_source                   MicroMax003_Cu
_diffrn_source_current           0.6
_diffrn_source_power             0.0
_diffrn_source_voltage           50.0
_exptl_absorpt_coefficient_mu    0.967
_exptl_absorpt_correction_T_max  1.000
_exptl_absorpt_correction_T_min  0.610
_exptl_absorpt_correction_type   numerical
_exptl_crystal_colour            Colorless
_exptl_crystal_density_diffrn    1.198
_exptl_crystal_description       Prism
_exptl_crystal_F_000             564
_exptl_crystal_size_max          0.32
_exptl_crystal_size_mid          0.1
_exptl_crystal_size_min          0.05
_refine_diff_density_max         0.841
_refine_diff_density_min         -0.795
_refine_diff_density_rms         0.116
_refine_ls_extinction_method     none
_refine_ls_goodness_of_fit_ref   1.630
_refine_ls_hydrogen_treatment    undef
_refine_ls_matrix_type           full
_refine_ls_number_parameters     343
_refine_ls_number_reflns         5219
_refine_ls_number_restraints     0
_refine_ls_restrained_S_all      1.630
_refine_ls_R_factor_all          0.1589
_refine_ls_R_factor_gt           0.1457
_refine_ls_shift/su_max          0.000
_refine_ls_shift/su_mean         0.000
_refine_ls_structure_factor_coef Fsqd
_refine_ls_weighting_details
;
 w=1/[\s^2^(Fo^2^)+(0.2000P)^2^]
 where P=(Fo^2^+2Fc^2^)/3
;
_refine_ls_weighting_scheme      calc
_refine_ls_wR_factor_gt          0.4045
_refine_ls_wR_factor_ref         0.4279
_reflns_Friedel_coverage         0.000
_reflns_number_gt                4186
_reflns_number_total             5219
_reflns_shell_number_unique_all  5219
_reflns_threshold_expression     'I > 2\s(I)'
_cod_data_source_file            ja5b06793_si_004.cif
_cod_data_source_block           shelxl
_cod_depositor_comments
;
The following automatic conversions were performed:

data item '_exptl_absorpt_correction_type' value 'Numerical' was
changed to 'numerical' in accordance with the
/home/saulius/struct/COD-crude-data/automatic-downloads/DataCite-retrospective/ACS/depositions/lib/dictionaries/cif_core.dic
dictionary named 'cif_core.dic' version 2.4.2 last updated on
2011-04-26.

Automatic conversion script
Id: cif_fix_values 6909 2019-04-08 15:41:33Z antanas 
;
_cod_database_code               4129487
_shelxl_version_number           2012-9
_shelx_space_group_comment
;
The symmetry employed for this shelxl refinement is uniquely defined
by the following loop, which should always be used as a source of
symmetry information in preference to the above space-group names.
They are only intended as comments.
;
_shelx_estimated_absorpt_t_max   0.953
_shelx_estimated_absorpt_t_min   0.747
_olex2_refinement_description
;
;
_shelx_res_file
;
TITL DM-SB-PARA-1-RP
CELL 1.54187 7.82 12.203 16.271 94.02 103.1 103.67
ZERR 2 0.005 0.006 0.012 0.06 0.07 0.07
LATT 1
SFAC C H N O Si
UNIT 66 78 2 6 2

L.S. 50
PLAN  -25
SIZE 0.05 0.1 0.32
TEMP -173
WPDB -2
HTAB
BOND $H
CONF
LIST 4
fmap 2
acta
MORE -1
SHEL 99999 0
REM <olex2.extras>
REM <HklSrc "%.\\shelxl.hkl">
REM </olex2.extras>

WGHT    0.200000
FVAR       0.86367
SI1   5   -0.127960    0.613831    0.792994    11.00000    0.04439    0.04268 =
         0.05795    0.01138    0.01753    0.00633
O3    4    0.757125    0.784114    0.422994    11.00000    0.05508    0.06206 =
         0.06786    0.01027    0.02171    0.01331
O11   4    0.686091    0.940183    0.469716    11.00000    0.07172    0.06201 =
         0.09752    0.01130    0.03571    0.01202
O13   4   -0.091835    0.753059    0.815113    11.00000    0.04262    0.04731 =
         0.06470    0.01029    0.01940    0.01258
N4    3   -0.127477    1.242799    0.953756    11.00000    0.05087    0.04904 =
         0.06808    0.01011    0.01922    0.01099
C5    1   -0.474955    1.149310    0.906175    11.00000    0.03524    0.04243 =
         0.05442    0.01584    0.01608    0.01156
C6    1   -0.586266    1.220697    0.917080    11.00000    0.04207    0.04968 =
         0.05762    0.01806    0.01884    0.01643
C7    1   -0.429493    0.961662    0.851820    11.00000    0.03591    0.04420 =
         0.04521    0.01380    0.01076    0.01059
C8    1   -0.772802    1.181159    0.887794    11.00000    0.04193    0.05292 =
         0.06196    0.02462    0.01833    0.01559
C9    1   -0.734620    0.997874    0.834205    11.00000    0.03889    0.04701 =
         0.05518    0.01699    0.01263    0.01099
C10   1   -0.547270    1.037124    0.863739    11.00000    0.03623    0.04300 =
         0.04848    0.01519    0.01503    0.01195
C12   1   -0.210006    0.817729    0.825614    11.00000    0.03464    0.04256 =
         0.05094    0.01167    0.01332    0.00879
C14   1   -0.282844    1.198050    0.932819    11.00000    0.03290    0.04313 =
         0.05921    0.01818    0.01282    0.00841
C15   1   -0.292973    0.946463    0.918257    11.00000    0.03812    0.04039 =
         0.04974    0.01048    0.01054    0.00804
C16   1    0.082311    0.584784    0.856191    11.00000    0.05839    0.04189 =
         0.06195    0.01081    0.02001    0.01024
C17   1   -0.848276    1.070187    0.845872    11.00000    0.04240    0.05118 =
         0.06005    0.02164    0.01468    0.01469
C18   1   -0.454138    0.903335    0.771403    11.00000    0.04030    0.05135 =
         0.06119    0.00699    0.01106    0.01303
C19   1   -0.343174    0.830981    0.758547    11.00000    0.04288    0.05675 =
         0.04960    0.00756    0.00608    0.01245
C20   1   -0.307604    0.548139    0.921468    11.00000    0.05057    0.05585 =
         0.05957    0.01509    0.02313    0.00767
C21   1   -0.168440    0.574796    0.673504    11.00000    0.05221    0.06197 =
         0.06165    0.00967    0.02058   -0.00110
C22   1    0.662946    0.838587    0.461519    11.00000    0.06328    0.05684 =
         0.05944    0.01028    0.01642    0.00809
C23   1   -0.016551    0.632747    0.636531    11.00000    0.05623    0.05783 =
         0.05709    0.00531    0.01498   -0.00011
C24   1    0.259573    0.673200    0.851944    11.00000    0.04543    0.05061 =
         0.07073    0.01759    0.02174    0.01429
C25   1    1.004029    0.795122    0.354454    11.00000    0.05480    0.06742 =
         0.06339    0.01671    0.01855    0.01260
C26   1   -0.343329    0.544630    0.824737    11.00000    0.04193    0.06379 =
         0.06391    0.01009    0.01192    0.00347
C27   1    0.269780    0.736095    0.568048    11.00000    0.05498    0.05680 =
         0.04809    0.00945    0.00866    0.00647
C28   1    0.157868    0.800901    0.593018    11.00000    0.05172    0.06794 =
         0.05842    0.00959    0.01204    0.00472
C29   1    0.526089    0.756107    0.495854    11.00000    0.05719    0.05949 =
         0.05854    0.00858    0.01578    0.00614
C30   1    0.238416    0.621260    0.575757    11.00000    0.06294    0.06755 =
         0.06265    0.01132    0.01599    0.00411
C31   1    0.417466    0.801334    0.532090    11.00000    0.05790    0.07033 =
         0.05390    0.01048    0.01697    0.00728
C32   1    0.011467    0.747231    0.627445    11.00000    0.05910    0.07089 =
         0.05065    0.01390    0.00835   -0.00351
C33   1    1.176156    0.873561    0.338392    11.00000    0.07263    0.06446 =
         0.06467    0.01394    0.01975    0.02157
C34   1    0.098691    0.462538    0.834382    11.00000    0.07892    0.04269 =
         0.08770    0.01295    0.02769    0.01745
C35   1   -0.441863    0.425183    0.779743    11.00000    0.06565    0.06329 =
         0.08216    0.01235    0.02303   -0.00457
C36   1    0.898364    0.864059    0.392029    11.00000    0.06815    0.06528 =
         0.07559    0.01878    0.03102    0.00670
C37   1    0.098407    0.569485    0.609814    11.00000    0.07739    0.06619 =
         0.06026    0.00443    0.02429    0.01125
C38   1    1.275878    0.809863    0.292330    11.00000    0.07063    0.08278 =
         0.07021    0.01769    0.02999    0.01676
C39   1   -0.184510    0.874232    0.906552    11.00000    0.03652    0.04141 =
         0.05515    0.01272    0.01313    0.00793
HKLF 4

REM  DM-SB-PARA-1-RP
REM R1 =  0.1457 for    4186 Fo > 4sig(Fo)  and  0.1589 for all    5219 data
REM    343 parameters refined using      0 restraints

END

WGHT      0.2000      0.0000

REM No hydrogen bonds found for HTAB generation

REM Highest difference peak  0.841,  deepest hole -0.795,  1-sigma level  0.116
Q1    1   0.6190  0.5868  0.4542  11.00000  0.05    0.84
Q2    1  -0.0729  0.8026  0.6428  11.00000  0.05    0.69
Q3    1  -0.2725  0.9841  0.9779  11.00000  0.05    0.64
Q4    1  -0.0688  0.8625  0.9602  11.00000  0.05    0.62
Q5    1   0.5860  0.6819  0.4690  11.00000  0.05    0.61
Q6    1   0.8593  0.7262  0.3985  11.00000  0.05    0.59
Q7    1  -0.8030  0.9168  0.8054  11.00000  0.05    0.59
Q8    1   0.1465  0.8830  0.5974  11.00000  0.05    0.57
Q9    1   0.0672  0.5862  0.9203  11.00000  0.05    0.57
Q10   1   0.3803  0.6753  0.5397  11.00000  0.05    0.52
Q11   1  -0.8698  1.2368  0.8939  11.00000  0.05    0.52
Q12   1   0.2567  0.7626  0.8753  11.00000  0.05    0.51
Q13   1  -0.2285  0.6284  0.9532  11.00000  0.05    0.51
Q14   1  -0.5401  1.3080  0.9450  11.00000  0.05    0.51
Q15   1  -0.5722  0.9093  0.7173  11.00000  0.05    0.49
Q16   1   0.0699  0.4753  0.6130  11.00000  0.05    0.48
Q17   1   0.4354  0.9022  0.5327  11.00000  0.05    0.48
Q18   1  -0.4402  0.6015  0.8064  11.00000  0.05    0.48
Q19   1   0.3309  0.5628  0.5667  11.00000  0.05    0.47
Q20   1  -0.2021  0.4854  0.6633  11.00000  0.05    0.47
Q21   1  -0.9965  1.0313  0.8225  11.00000  0.05    0.46
Q22   1   1.3947  0.8558  0.2814  11.00000  0.05    0.46
Q23   1   0.1251  0.4587  0.7765  11.00000  0.05    0.46
Q24   1   0.3825  0.6461  0.8941  11.00000  0.05    0.45
Q25   1  -0.3622  0.7877  0.6946  11.00000  0.05    0.45
;
_shelx_res_checksum              4587
_shelx_hkl_file
;
  -1   0   2  195.63    8.82
  -1   0   2  210.09    9.50
   1   0  -2  200.02    8.91
  -1   0   2  226.41    9.97
  -1   0   2  182.22    9.32
   1   0  -2  182.93    8.58
   0  -1  -2  418.19   11.31
   1  -1   1 1509.77   17.32
   1  -1   1 1576.33   17.94
  -1   1  -1 1554.02   17.24
   1   0   1 1622.09   17.92
   0  -2   0 1075.81   12.13
  -1  -1   1  114.09    4.77
   1   1  -1  114.76    4.65
   1   1  -1  112.97    4.73
  -1  -1   1  118.81    5.05
   1  -1  -2  534.75   13.43
   1  -1  -2  536.01   13.30
  -1   1   2  561.84   14.30
   0   2  -1  208.41    8.99
   0  -2   1  202.16    9.23
   0   2  -1  185.26    8.36
   1   1   0 3843.33   38.36
  -1  -1   0 4038.43   41.25
  -1   2   0   59.37    3.63
   1  -2   0   51.31    4.35
   1   1  -2 1308.73   14.95
  -1  -1   2 1350.47   15.98
   0   0  -3 6641.37   67.02
   0   1  -3 1212.99   15.25
   0  -2   2  392.26   10.05
   0  -2   2  336.83   14.27
   0   2  -2  329.31   14.08
  -1   2  -1 2657.31   28.69
   1  -2   1 2610.54   28.34
   1   1   1 1029.93   13.39
   1  -1   2  133.22    6.26
  -1   1  -2  151.29    7.11
   1   0  -3  320.66   13.79
   1   0  -3  311.09   13.82
  -1   0   3  303.88   13.42
   1  -1  -3  332.31   14.84
   0  -1  -3  322.46   14.62
  -1   2   2   10.48    3.12
   1  -2  -2    7.51    2.82
   1  -2  -2    7.46    2.50
   1   1  -3 5905.54   59.66
  -1  -1   3 5965.91   60.78
   1   1  -3 6020.77   58.90
   1  -2   2 7031.21   70.88
  -1   2  -2 7163.35   21.20
  -1   2  -2 7165.31   27.74
   0  -2   3 6722.50   67.77
   0   2  -3 6446.58   65.31
   1   2   0 1996.31   23.23
   1   2   0 1988.19   22.45
  -1  -1  -2  187.29    9.03
   1   1   2  179.21    8.82
   1   1   2  192.16    8.64
   1   2  -2    6.81    2.14
   1   2  -2    3.34    1.45
   0   0  -4 5003.27   53.03
   0   3  -1  945.57   12.46
  -1   1  -3   62.08    5.80
  -1   3   0 1770.38   22.80
   1  -3   0 1773.26   21.05
   1  -3   0 1765.33   18.92
   1   0  -4  468.19   11.81
  -1   0   4  459.28   12.83
   1   0  -4  464.25   15.24
  -2   1   1   75.86    3.55
  -2   1   1   80.00    4.12
   2  -1  -1   75.61    3.72
  -2   1   1   64.09    2.52
   2  -1  -1   74.77    7.91
   0   1  -4 4456.88   47.68
   1  -2  -3 1066.61   14.25
  -1   0  -310972.56   38.24
   2  -1   0  105.88    4.68
  -2   1   0  104.04    5.41
   2  -1   0  110.59    5.14
  -2   1   0  108.67    4.68
   2   0  -1  379.91   11.58
   2   0  -1  393.43   10.48
  -1   3   1    6.89    1.89
  -1   3   1   10.12    4.04
   1  -3  -1   14.64    3.63
  -1   3   1   13.42    3.28
   1  -3   1 2628.09   29.16
   1   2   1  658.70   16.93
   1   2   1  644.73   16.44
   2  -1  -2    4.20    1.25
  -2   1   2    3.46    1.25
  -2   1   2    2.49    1.04
  -2   1   2    1.05    0.55
  -2   1   2    3.36    1.18
   2   0  -2  510.71   13.12
   2   0  -2  522.37   14.28
  -2   0   2  532.66   12.39
   1  -1  -4 1829.82   23.56
   1  -1  -4 1770.85   22.76
   0  -3  -1  351.23    5.36
   0   3   1  338.18   15.37
   1   1  -4  558.09   14.86
   1   1  -4  556.53   13.46
  -1  -1   4  538.86   14.43
   0  -2  -3  491.94   13.17
   2   0   0 1010.40   13.52
  -2   0   0 1028.43   13.44
   2   0   0 1045.35   14.58
   1   2  -3 7273.61   26.35
  -1   2  -3 3641.80   40.58
   1  -2   3 3640.65   39.18
  -2   2   1  697.09   16.36
  -2   2   1  686.92   16.85
   0  -1  -4 2626.21   31.75
  -2   2   0  269.66   12.03
  -2   2   0  285.85   13.43
   2  -2   0  264.65   12.59
   2  -2   0  253.95   10.99
   2  -1   1  165.49    7.30
  -2   1  -1  153.81    6.87
  -2   1  -1  162.05    8.54
   2  -1   1  140.96    6.60
  -1   3   2   77.45   10.80
  -1   3   2   55.01    2.79
   1  -3  -2   59.25    7.70
  -1   3  -2  186.92   11.56
   1  -3   2  198.07    9.07
   1  -3   2  177.27    7.02
   0  -2   4   90.44    5.69
  -2   2   2  465.90   12.39
  -2   2   2  476.00   11.90
  -2   1   3   33.02    2.75
  -2   1   3   47.50    4.78
   2  -1  -3   43.58    2.91
   2   0  -3   17.00    1.72
   2   0  -3   25.10    3.73
  -2   0   3   25.63    7.43
  -2   0   3   22.61    4.29
  -1  -1  -3 1002.53   14.87
   2   0   1    4.34    2.16
  -2   0  -1    1.36    1.08
   2   0   1    3.40    1.23
   2   0   1    1.50    1.51
  -2   0  -1    0.53    1.08
   2   1  -1   44.00    2.47
   2   1  -1   39.22    2.93
   2   1  -1   43.45    1.33
  -2   2  -1 3292.82   35.81
  -2   2  -1 3390.47   37.51
   2  -2   1 3283.25   34.58
   0  -3   3   -0.23    1.91
   0   3  -3   -0.48    0.74
  -2  -1   2  192.97    8.52
   2   1  -2  167.40    7.69
   2   1  -2  166.19    7.83
   2   1  -2  175.51    3.03
   1   2   2   41.15    5.26
   2   1   0  378.63    9.20
   2   1   0  398.97    9.92
  -2  -1   0  370.87    9.74
   2   1   0  381.61   11.04
   1   2  -4 3064.82   34.66
   1   2  -4 3047.83   31.09
  -1   1  -4  341.19   15.63
   1   3  -1 1581.45   20.41
   1   3  -1 1575.57   20.08
  -2   2   3  260.52   11.92
  -2   2   3  224.62   10.99
   1   0  -5 4216.45   46.56
   1   0  -5 4378.68   46.15
   2   1  -3 1307.00   15.83
   2   1  -3 1314.10   16.09
   2  -1   2 2484.41   28.27
  -2   1  -2 2472.38   27.93
   1   3  -2 1557.76   19.97
   1   3  -2 1618.10   20.29
  -1   0  -416433.08   47.42
   1   3   0 1576.32   20.18
  -1  -3   0 1620.86   18.09
   1   3   0 1538.27   19.89
   1  -3  -3   26.73    8.76
  -1   3   3   28.27    9.09
  -1   3  -3  413.87   12.12
   1  -3   3  400.07   11.03
  -2   3   1 2258.78   26.63
   2  -3   0  195.75   10.40
  -2   3   0  204.63   11.54
   2   0  -4  110.61    5.90
   2   0  -4  112.26    5.71
  -2   0   4  115.80    6.46
   1   1  -5   54.90    4.45
   1   1  -5   55.91    4.10
   2  -1  -4  216.55   10.43
  -2   1   4  205.56   10.45
   2  -1  -4  207.14   10.02
  -1   2  -4  400.80   11.81
   1  -1  -5  278.11   12.99
   1  -1  -5  257.11   12.70
  -2   2  -2 2266.68   28.12
   2   1   1    1.30    0.47
   2   1   1    5.63    1.82
   2   1   1    2.61    1.12
  -2  -1  -1    3.18    1.06
  -2   0  -2  175.90    5.71
   2   0   2  179.46    9.07
   1  -4   0  485.66   13.16
  -2   3   2   11.20    3.94
   2  -3  -2    6.89    2.56
   2  -3   1  390.24   11.49
  -2   3  -1  373.05   10.75
   1   3  -3  287.66   15.92
   0  -3   4 1991.83   24.31
   1  -4   1   10.02    2.41
   1  -4   1   11.01    2.84
   0   4  -1  110.38    9.68
   0   4  -1  109.27    5.96
   0  -4   1   92.51    4.51
   1   3   1   14.16    3.65
   1   3   1   18.17    4.43
   0  -3  -3 1727.35   21.83
   0   3   3 1638.58   23.38
  -1   4   1   15.18    3.70
  -1   4   1   13.19    3.08
   1  -4  -1    9.14    2.67
   0  -4   0    8.70    3.49
   0   4   0   13.52    2.84
   0   4   0   10.23    2.88
   0  -2   5  769.99   13.02
   1   2   3  535.16   15.07
   1   2   3  492.49   12.19
  -2  -1   4   12.06    3.60
   2   1  -4   13.03    4.49
   2   1  -4   11.91    3.26
  -2  -2   1  224.77   10.69
   2   2  -1  203.96    9.79
  -1  -1  -4    8.22    2.61
  -2  -2   2 6973.15   70.62
   2   2  -2 6957.74   70.19
   2  -2  -4   22.19    5.26
  -2   2   4   23.48    7.91
   1  -4   2   22.40    5.15
   1  -4   2   19.05    4.07
   1   2  -5    3.91    1.87
   1   2  -5    0.34    0.56
   0   4   1   48.36    6.73
   0   4   1   45.39    8.26
   0  -4  -1   39.76    3.35
  -2   3   3  561.69   16.41
   2   2   0  375.72   10.17
  -2  -2   0  337.68   14.49
  -2   1  -3 1471.03   19.41
   2  -3   2  530.19   16.28
   2   2  -3 1409.22   15.29
   2   2  -3 1407.96   17.67
   1  -4  -2  550.81   15.20
  -1   4   2  551.62   14.48
  -1   4   2  500.26   12.85
  -1   3  -4 1932.38   26.04
   2   0  -5  771.72   13.01
  -2   0   5  763.32   12.97
   2   0  -5  791.80   12.41
   1   3  -4  264.05   13.82
  -1  -3   4  223.87   13.73
  -2   2  -3   39.99    3.10
  -2   1   5   41.48    6.66
   2  -1  -5   45.40    3.88
   2  -1  -5   41.14    4.37
   1   3   2  367.28   11.40
   1   3   2  351.33    8.15
   0  -4   3    2.95    1.51
   0  -4   3    6.61    1.55
   0   4  -3    3.78    1.19
  -1   1  -5   24.27    7.55
   2   0   3  120.24    6.69
  -2   0  -3  116.70    6.22
   1   0  -6 5881.81   65.10
   1   0  -6 5890.85   61.58
  -1   0  -5 2334.97   29.95
  -2   4   0   33.24    9.13
  -2   4   0   30.02    4.87
   2  -4   0   20.41    7.12
   2   2   1   52.74    7.03
  -2   4   1  175.96    5.64
  -2   4   1  198.93   12.45
   2  -4  -1  197.68   10.45
   1  -4   3  140.36    6.72
   1  -4   3  146.46    6.90
   1   1  -6   22.95    5.14
   1   1  -6   23.72    9.05
   0   4   2  165.58    8.65
   0   4   2  142.08   11.26
   0  -4  -2  154.00    7.52
   2   1  -5  240.84   11.75
  -2  -1   5  234.37   11.86
   2   1  -5  227.17   10.85
  -1   2  -5 1138.72   21.36
   0  -3   5 1633.75   22.93
   2   2  -4  540.33   13.63
   2   2  -4  592.39   15.48
   0   3   4  796.28   13.16
   0  -3  -4  796.51   12.96
   1  -1  -6  281.36   14.13
   1  -1  -6  265.32   12.80
   3  -1  -1  156.40    7.93
  -3   1   1  134.99    6.91
   3  -1  -1  124.06    8.35
  -3   1   2  386.57   11.07
   3  -1  -2  393.50   11.20
   3  -1  -2  391.30   12.56
   2  -4   1   25.25    7.39
  -2   4  -1   21.91    6.43
  -2   3   4   14.01    4.86
   1  -4  -3  761.45   13.96
  -1   4   3  746.41    9.72
   2  -2  -5  181.54   13.13
  -2   2   5  166.77    8.79
  -2   4   2  267.96   16.39
   2  -4  -2  226.05   12.02
   2  -4  -2  222.21   10.17
  -2   4   2  213.39   11.29
  -1  -4   1  413.47   10.29
   1   4  -1  452.48   13.38
   1   4  -1  451.05   13.23
  -1  -4   1  425.20   11.06
  -1  -4   1  438.69   11.56
   2  -3   3  245.89   14.08
  -2   3  -3  222.27   13.11
  -1  -2  -4  192.99   10.28
  -3   2   1    8.24    1.99
  -3   2   1    8.50    1.92
   3  -2  -1   11.47    3.10
  -3   2   1   10.20    2.61
   3  -2  -1    8.13    2.73
  -3   2   1    8.24    1.85
   1   4  -2  967.69   16.66
   1   4  -2  951.14   15.52
  -3   2   2  108.38    5.25
  -3   2   2  111.25    5.22
   3  -2  -2  115.46    7.97
   3  -1   0  234.58   11.74
  -3   1   0  211.84   11.75
   3  -1   0  219.59   10.49
   3   0  -2  489.71   13.60
   3   0  -2  514.98   15.05
  -3   1   3  119.46    5.21
  -3   1   3  126.14    6.83
   3  -1  -3  130.44    9.21
  -3   1   3  135.11    6.49
   3   0  -1   14.74    4.79
   3   0  -1    9.17    3.02
   0  -4   4  325.43   15.15
   1   4   0    8.13    2.42
  -1  -4   0    7.42    2.77
   1   4   0   13.38    3.65
  -3   2   0   53.56    2.56
   3  -2   0   50.19    3.05
  -3   2   0   62.10    8.95
  -2  -1  -3   40.71    3.22
   2   1   3   44.07    6.03
  -1  -3   5  543.97   15.47
   1   3  -5  511.54   11.83
  -1  -1  -5    9.24    3.39
   1   2  -6  528.05   15.44
   1   2  -6  549.83   15.00
  -2   1  -4   10.50    4.43
  -3   0   3   54.15    8.15
   3   0  -3   54.75    4.68
   1   3   3   34.46    7.40
   1   3   3   27.57    7.94
  -2   4  -2   14.21    4.39
   2  -4   2   16.63    5.49
   1   4  -3   27.66    9.23
   3  -2  -3   11.50    4.36
  -3   2   3    8.08    2.50
  -3   2   3   10.65    2.29
   2   3  -2   12.86    3.03
  -2  -3   2    3.55    1.26
   2   2   2   40.17    3.17
   2   3  -1   38.91    9.40
   3   0   0  408.57   12.10
  -3   0   0  418.91   12.14
   3   0   0  433.42   12.90
  -2   2  -4 2818.31   33.96
  -1   3  -5  224.90   11.91
   2   0  -6  346.19    7.05
   2   0  -6  334.68   16.41
  -2   0   6  351.77    9.30
   0   4   3  253.52   13.61
   0  -4  -3  284.65   13.66
   0   4   3  302.04   15.20
   1  -5   0 1003.91   15.61
   1  -4   4   80.76    5.32
   1  -4   4   74.61    5.22
  -1   4  -4   76.03    8.60
   2   2  -5 2028.07   25.64
   2   2  -5 1967.55   27.18
   1  -5   1  101.18    5.85
   3  -1   1  113.80    6.54
   3  -1   1  141.72    7.92
  -3   1  -1  135.91    7.05
   3  -1   1  129.90    6.76
   2  -1  -6   13.99    3.46
   2  -1  -6   14.72    3.29
  -1  -4  -1 1470.32   18.57
   1   4   1 1493.89   21.52
   1   4   1 1391.61   21.01
  -3   3   1  179.94    8.86
   2   3  -3  698.93   18.28
  -2   0  -4   23.69    9.00
  -3   2  -1  752.31   11.36
   3  -2   1  747.29   10.47
  -3   1   4  169.60    7.85
  -3   1   4  166.79   10.30
   3  -1  -4  169.17   11.20
   2   3   0   48.34   10.80
  -3   3   2    4.02    1.49
   1  -5  -1  183.92    9.90
  -1   5   1  190.05   11.24
   0   5  -1   14.96    2.74
   0   5  -1   10.33    3.31
   0  -5   1    3.47    1.30
  -2  -1   6  756.57   14.58
   2   1  -6  778.93   12.99
   2   1  -6  742.19   11.95
   3   1  -2  831.54   13.63
   3   1  -2  788.86   14.10
  -3   0   4 1238.19   19.23
   3   0  -4 1247.03   19.39
  -3   0   4 1150.96   14.58
   1  -5   2 1538.03   21.04
   1  -5   2 1507.32   19.27
   1  -4  -4  472.30   16.53
  -1   4   4  431.34   12.53
   0   5   0 3689.43   46.11
   0   5   0 3717.97   42.41
   0  -5   0 3484.71   38.66
   3   1  -1  439.63   15.02
   3   1  -1  418.08   12.87
  -2   3   5   92.89   12.19
   0  -5   2  201.25    9.24
   0   5  -2  255.21   16.18
  -1  -4   4  121.77    9.17
   1   4  -4  133.10    8.90
  -1   1  -6  127.53    7.92
   3  -2  -4  119.19   13.25
  -3   2   4  118.70    7.60
  -3   2   4  112.26   10.21
  -3   0  -1 1477.45   20.62
   3   0   1 1469.97   23.71
   3   0   1 1410.86   20.65
   3   1  -3  797.72   13.86
   3   1  -3  787.06   12.69
   0  -3   6 2621.07   34.74
  -2   3  -4  147.55    8.37
   2  -3   4  138.14    8.68
   1   0  -7   94.95    6.79
   1   0  -7   95.99    7.38
   2  -4   3  431.25   13.26
  -2   4  -3  422.69   14.22
   3  -3  -3    2.35    1.29
  -3   3   3    5.21    1.53
   0  -3  -5    9.97    2.59
   0   3   5    8.71    3.61
   2   3  -4 1391.55   21.35
   0  -4   5   50.67    9.15
   0   4  -5   49.58   11.12
   2  -2  -6  529.72   16.58
   2  -2  -6  562.85   18.60
   1   1  -7   89.80    7.56
   1   1  -7  101.40   16.92
  -1   2  -6 1007.23   17.62
  -1   0  -6  771.41   15.33
  -1   5   2  182.26    8.96
  -1   5   2  199.02   11.19
   1  -5  -2  185.96   10.11
  -1   5   2  176.60   14.40
   3   1   0  478.68   15.17
  -3  -1   0  470.70   14.12
   0  -2  -6  432.49   15.29
   0  -2  -6  445.75   14.97
   0   5   1    5.94    1.78
   0  -5  -1    0.30    1.06
   0   5   1    5.08    1.63
   2   3   1  226.66   11.95
   2   3   1  226.70   11.78
  -2   4   4    8.48    3.96
   2  -4  -4    9.36    3.32
  -2   4   4    5.85    2.85
   1   4   2  166.45    8.92
  -1  -4  -2  154.10    8.23
   1   4   2  158.61    8.83
   2  -5   0  918.51   16.34
  -2   5   0  900.70   16.93
   3  -1   2  420.26   12.56
  -3   1  -2  442.44   12.58
   3  -1   2  482.98   14.96
   0   1  -7  293.15   15.85
   3  -2   2  737.70   13.58
  -3   2  -2  726.43   18.63
   3  -2   2  721.68   19.13
  -1  -3   6  151.51    8.57
   1   3  -6  161.55    6.93
   1   3  -6  153.26    9.57
   0  -5   3    8.56    3.06
   0  -5   3    5.60    1.51
   0   5  -3    8.12    4.02
  -1  -2  -5 1090.21   19.40
  -2   5   1   52.98   14.88
  -2   5   1   65.20   13.84
   2  -5  -1   54.14   13.07
   1  -5   3  170.96    8.27
   1  -5   3  185.80   11.74
  -1   5  -3  158.48    9.44
   1  -1  -7 1084.99   19.10
   1  -1  -7 1080.36   17.44
   2   2   3   26.53    6.33
   2   2   3   16.85    6.61
   2   1   4    7.18    2.46
  -2  -1  -4    1.73    2.31
   0   0  -7  519.36   16.44
   3   1  -4 1352.87   18.38
  -3  -1   4 1305.23   20.91
   3   1  -4 1344.21   18.32
  -3   1   5   47.87    3.81
   3  -1  -5   51.51    4.53
  -3   1   5   52.28    6.51
   2  -5   1  587.08   18.24
  -2   5  -1  603.41   17.72
   1   3   4  309.18   17.48
   1   3   4  331.44   16.33
   3   0  -5    0.82    2.14
  -3   0   5    6.03    1.70
   3   0  -5    1.42    2.59
   0   4   4  665.89   18.45
   0   4   4  690.67   20.48
   0  -4  -4  691.22   19.79
  -2  -2   6 1786.33   25.25
   2   2  -6 1823.14   24.03
   2   2  -6 1734.93   23.85
  -1   4  -5   44.38    9.72
   3  -4  -1    1.79    2.69
  -3   4   1    4.31    1.80
  -3   4   1    3.83    1.83
  -2   1  -5  137.94   15.37
   3  -3  -4 1573.02   29.29
  -3   3   4 1594.80   22.62
   0   2  -7    1.16    1.69
   1   2  -7 1487.79   23.16
  -1  -2   7 1471.52   22.61
   1   2  -7 1485.17   19.65
   2  -5  -2   92.55   11.66
  -2   5   2  103.48    7.99
  -2   5   2   92.61    6.17
   3   0   2   72.45   11.84
  -2   2  -5   70.89    7.90
   1   4  -5  295.07   21.04
  -1  -4   5  277.24   14.15
   3  -2  -5   39.42    9.70
  -3   2   5   44.14    9.94
   3  -4   0 1628.99   29.36
   3   1   1  290.04   14.49
   3   1   1  220.58   10.13
   1  -3  -6   51.73   15.05
  -1   3   6   47.94    4.78
   3  -3   2   53.24    4.31
  -3   3  -2   40.38   10.01
   3  -3   2   48.14    4.83
   0  -5  -2    5.95    1.73
   0   5   2    4.96    2.21
   0   5   2    7.72    2.05
  -3   4   2  217.76   12.42
  -3   4   2  239.64   16.34
   3  -4  -2  219.85   12.65
   2   0  -7  230.69   11.52
   2   0  -7  239.98   17.38
  -2   0   7  226.68   14.50
   2   3  -5  281.36   14.66
  -2  -3   5  281.06   14.08
  -1   3  -6  253.87   19.56
  -1  -1  -6  152.63    9.34
  -1   5   3  836.64   13.18
  -1   5   3  852.87   23.83
  -1   5   3  855.99   13.67
   1  -5  -3  805.66   15.60
  -2   5  -2  756.33   15.32
   2  -5   2  694.08   21.82
   0  -1  -7  161.87   10.26
   3   2  -2 1133.87   21.39
   2  -1  -7   69.47    6.35
   2  -1  -7   67.75   16.90
   2   3   2   71.46    4.38
   2   3   2   72.92    7.26
   0   5  -4   24.49    5.96
   0  -5   4   18.11    7.39
  -1   4   5    4.70    1.94
   1  -4  -5    6.88    2.49
  -1   4   5    5.56    3.24
   2  -4   4  343.72   17.46
  -2   4  -4  351.37   21.90
  -2   0  -5  104.60    7.03
  -3  -2   1    3.30    1.84
   3   2  -1   -1.55    2.51
   3   2  -3 3792.24   45.49
   3   2  -3 3640.71   42.90
  -3  -1   5  518.28   15.74
   3   1  -5  524.38   14.54
   3   1  -5  529.28   14.61
   2   1  -7  360.61   11.07
  -2  -1   7  330.60   19.79
   2   1  -7  329.05   19.10
  -3   4  -1  215.11   14.53
   3  -4   1  211.45   11.47
  -3   4  -1  271.34   13.73
   1   5  -1    7.47    1.82
  -1  -5   1    2.94    1.86
   1   5  -1    5.58    2.37
   2  -3  -6   45.68    9.72
  -2   3   6   36.12   14.12
   1   5  -2  302.36   15.37
   1   5  -2  323.25   15.89
  -1   5  -4  510.13   16.18
   1  -5   4  525.76   14.71
   1  -5   4  509.94   15.15
   1  -2  -7   13.21    3.78
   1  -2  -7    6.44    2.46
  -3   4   3  287.67   14.84
  -3   4   3  287.04   15.48
   3  -4  -3  255.89   13.96
   1   4   3   72.32   11.63
   1   4   3   83.48    9.92
  -1  -4  -3   76.61   10.76
   2   4  -2  108.06    6.96
   2   4  -2  115.46   11.62
   3  -2   3   35.22   10.63
  -3   2  -3   37.32    9.25
   3  -2   3   31.22    5.10
  -2   5   3  118.77   20.11
  -2   5   3  130.20    8.61
   2  -5  -3  122.73    8.90
  -2   5   3   97.61    4.40
  -2   3  -5  141.32   13.34
   3  -1   3   17.43    4.54
  -3   1  -3   13.84    2.45
   2   4  -1   12.99    3.29
  -2  -4   1    8.94    2.19
   2   4  -1   10.07    2.88
   0   4  -6  195.90   19.50
   0  -4   6  180.10   10.28
   2  -4  -5  113.80   21.18
  -2   4   5   85.35   13.88
   1   5   0   61.95   13.63
   1   5   0   65.39   14.63
  -1  -5   0   49.36    2.96
   2   4  -3  223.68   11.76
   2   4  -3  222.58   11.93
  -3  -2   0   74.19    5.94
   3   2   0   74.30    7.42
   1   5  -3  321.47   16.10
   3  -1  -6   12.63    2.47
  -3   1   6   14.09    3.98
   3   2  -4  593.06   16.00
   3   2  -4  568.20   14.97
  -3  -2   4  584.55   20.78
   0   3  -7    8.37    3.19
   3   0  -6   35.12    3.61
   3   0  -6   41.35    9.94
  -3   0   6   41.98    6.11
  -3   3   5  769.04   15.36
   3  -3  -5  704.43   21.94
   2  -5   3  173.69   11.89
  -2   5  -3  166.71   12.60
   2  -2  -7  384.22   14.79
   2  -2  -7  398.77   13.43
   0  -3  -6   21.36    5.61
   0   3   6   20.72    4.08
   3   1   2   56.46   11.06
   3   1   2   31.60    5.21
  -2  -4   0   47.96    3.38
   2   4   0   46.27    9.82
   2   4   0   55.17   12.91
   2   2   4  392.50   17.76
   2   2   4  341.51   16.76
   0   5   3  407.99   13.39
   0   5   3  389.89   19.42
   0  -5  -3  416.73   13.38
  -1   1  -7   10.60    3.87
   1   3  -7  311.80   16.07
   1   3  -7  322.17   14.58
  -1  -3   7  291.50   16.46
  -3   3  -3   24.15    5.88
   3  -3   3   27.49    9.59
   3  -3   3   42.89    9.98
  -3   4  -2  268.46   17.96
   3  -4   2  236.60   10.85
   3  -4   2  272.85   15.91
   3   0   3  933.88   17.91
  -3   0  -3  893.35   14.49
   1  -6   1   31.95   10.45
  -1   6  -1   29.67    8.83
  -1   6   0  119.69    8.06
   1  -6   0  114.11    6.99
   1   0  -8 1218.71   20.24
   1   0  -8 1230.14   24.85
   2   3  -6  127.49    9.07
  -2  -3   6  122.05    7.41
   3  -2  -6  157.00   11.87
  -3   2   6  188.78   15.20
  -1  -4   6   38.05   11.84
   1   4  -6   40.30    8.91
  -1   2  -7 1339.30   22.65
  -2  -2   7  217.17   11.80
   2   2  -7  201.47   11.07
   2   2  -7  227.59   10.99
   1   5   1  166.57    9.69
  -1  -5  -1  164.63    8.00
   1   5   1  167.85   10.27
   1   1  -8  116.05   17.72
   1   1  -8  117.71   10.56
   2   1   5   85.10    6.41
  -2  -1  -5   79.22    6.73
  -1   5   4   27.62    6.34
  -1   5   4   24.16    8.21
   1  -5  -4   30.22    9.01
  -1   5   4   20.61    5.44
  -2  -4   4   77.99   11.90
   2   4  -4   86.30   13.14
   0  -4  -5  185.02   11.68
   0   4   5  178.41   18.08
   0   4   5  189.95   14.03
  -3   4   4 1593.37   24.69
   3  -4  -4 1634.11   31.64
   1   3   5   95.49   11.88
   1   3   5   74.85   15.37
   0   5  -5    2.83    1.42
   0  -5   5    1.66    1.78
   0  -2  -7  400.21   14.91
   0  -2  -7  379.29   13.33
  -1   0  -7  340.86   17.73
  -1   4  -6  119.21    9.77
  -1  -2  -6 1568.18   26.01
   1   5  -4   29.83    8.07
  -1  -5   4   30.38   10.09
   2   3   3   79.86   12.58
   2   3   3   95.82   14.45
   3   1  -6  157.73   12.20
   3   1  -6  155.29   10.20
  -3  -1   6  159.10    9.46
   1  -6   2  205.21   10.58
  -1   6  -2  196.36   11.92
   1  -6   2  173.75    5.71
  -1   6   1 1374.87   23.28
   1  -6  -1 1366.42   21.26
  -1   6   1 1378.70   19.01
   3   2   1   34.38    9.80
   3   2   1   24.50    3.06
  -2   5   4    9.99    3.43
  -2   5   4    8.73    3.18
   2  -5  -4    8.81    3.87
  -2   5   4    5.01    2.99
   3   2  -5    8.41    2.77
   3   2  -5    6.24    2.61
  -3  -2   5   12.22    3.30
   0   1  -8  233.43   15.18
  -3   5   1  125.56   13.50
  -3   5   1  117.12    8.55
   3  -5  -1  122.65    8.18
   1  -1  -8  103.91    7.88
   1  -1  -8  114.71    8.45
   0  -6   1  191.66    9.53
   0   6  -1  170.57    9.52
   0   6  -1  213.83   13.47
   2   4   1   22.92    7.21
   2   4   1   28.21    7.09
  -1   5  -5    4.89    1.50
   1  -5   5    1.44    2.97
  -3   5   0    6.85    2.37
   3  -5   0    4.22    2.69
  -3   5   0    8.47    2.60
  -2   4  -5  208.83   17.75
  -2   1  -6  506.08   16.77
   0   0  -8  522.65   17.13
   0   6  -2   38.08    9.58
   0  -6   2   28.26    4.67
  -2   2  -6  425.24   15.95
   0   6   0  721.41   20.06
   0  -6   0  696.05   18.64
   0   6   0  720.53   21.87
   1   2  -8  403.59   20.80
   1   2  -8  402.74   14.01
   3  -5  -2 1050.06   20.35
  -3   5   2 1037.63   20.55
  -3   5   2 1048.02   19.30
  -2   6   0  487.17   20.96
   2  -6   0  455.91   14.86
   1   4   4   79.13    7.15
  -1  -4  -4   82.22   18.94
   1   4   4   85.94   15.33
   4  -1  -2   44.36    4.03
   4  -1  -2   49.02    8.31
  -4   1   2   51.76    6.97
  -4   1   2   54.03   11.18
  -1   3   7 1510.33   26.59
   1  -3  -7 1595.52   27.26
   2   0  -8   -2.03    3.20
   2   0  -8    1.47    1.64
  -4   2   2   55.79    3.94
  -4   2   2   59.36    9.39
   4  -2  -2   54.17    5.97
  -1   4   6   91.92   22.31
  -1   4   6   68.83   12.40
   1  -4  -6   73.95   20.98
  -1   3  -7  280.29   15.04
   3  -2   4    1.03    2.43
  -3   2  -4    3.60    2.25
   0   2  -8  144.98   20.68
  -2   5  -4    1.62    1.82
   2  -5   4    1.08    1.17
   4  -2  -1  585.61   17.33
  -4   2   1  554.17   23.05
   4  -2  -1  537.36   18.33
  -4   2   1  548.79   18.49
  -2   6   1  618.46   23.26
   2  -6  -1  615.27   19.98
  -2   6  -1    2.77    1.73
   2  -6   1    5.50    2.15
   3  -1   4 1928.59   30.74
  -3   1  -4 1871.68   26.30
   1  -6   3  151.25    7.85
   1  -6   3  149.73    7.89
  -1   6  -3  176.79   19.00
   4  -1  -1  204.74   13.46
  -4   1   1  205.21   12.16
   4  -1  -1  209.88   11.86
   3   3  -2  770.45   20.07
  -3   5  -1  247.51   17.51
   3  -5   1  237.86   13.43
  -2  -4   5  243.50   13.26
   2   4  -5  246.51   12.81
  -1   6   2  188.26   26.33
  -1   6   2  223.70   11.17
   1  -6  -2  214.14   13.24
   4  -1  -3  626.36   18.71
  -4   1   3  677.97   19.32
   1   5   2   44.54    9.64
   1   5   2   54.59   14.00
  -1  -5  -2   28.46   10.95
  -3   4  -3  410.77   14.64
   3  -4   3  411.50   12.22
   3  -4   3  386.08   16.93
   2  -4  -6  103.47   10.27
  -2   4   6  104.61   11.05
  -4   2   3  774.52   13.95
   4  -2  -3  761.34   18.12
   3   3  -3  176.52   13.64
   2  -1  -8   26.36    5.16
   2  -1  -8   42.52    7.17
  -2   3   7  698.95   21.93
   2  -3  -7  802.64   22.78
  -1  -1  -7  970.88   19.90
   3  -3  -6   95.26    8.89
  -3   3   6  112.57   20.27
   3   1   3    1.56    1.20
   3   1   3    0.40    1.69
   0  -6   3  194.96   11.92
   0   6  -3  191.22   13.63
   2   1  -8  265.01   14.44
   2   1  -8  265.06   18.51
  -2  -1   8  252.71   13.60
  -2   0  -6  250.33   14.07
   3   3  -1  521.19   19.22
  -3   1   7    6.22    3.02
   3  -1  -7    3.53    2.65
   3  -1  -7    2.79    1.97
   0   6   1    3.50    1.91
   0  -6  -1    1.12    1.34
   0   6   1    4.54    2.26
  -1  -5   5  433.13   14.70
   1   5  -5  447.07   18.35
  -3   0   7   73.16    6.74
   3   0  -7   69.13    5.65
   3   0  -7   69.75   14.92
   0   5   4  271.44   20.39
   0  -5  -4  264.48   18.38
   0   5   4  275.11   15.96
  -3   4   5  369.85   17.36
   3  -4  -5  393.45   14.26
   0   4  -7    3.34    1.83
   0  -4   7    2.47    1.54
  -2   3  -6  612.99   19.31
   3  -5  -3  388.86   14.08
  -3   5   3  389.70   17.00
  -3   5   3  396.96   18.51
   4  -2   0  140.14   13.95
  -4   2   0  146.46    9.20
   4  -2   0  122.04    7.05
   4   0  -2  685.11   21.90
   4   0  -2  709.93   19.89
  -4   0   2  711.34   20.06
  -3   3  -4   73.54   12.48
   0  -1  -8   78.36   11.63
   0  -1  -8   75.30    7.08
   2  -6  -2   19.01    5.43
  -2   6   2   13.61    5.58
  -2   6   2   18.98    4.56
   4  -3  -2  743.99   16.87
  -4   3   2  761.01   19.22
  -4   1   0  237.73   12.85
   4  -1   0  257.80   19.06
   4  -1   0  235.61   14.12
  -2   6  -2   27.16    5.19
   2  -6   2   27.59    6.59
   3   2   2  235.54   16.31
   3   2   2  282.13   19.24
  -4   3   1   89.88    8.64
   4  -3  -1   83.74    6.27
   4  -1  -4   50.09    4.16
  -4   1   4   67.31   14.69
   4   0  -3  231.43   13.32
  -4   0   3  225.56   12.56
  -3  -3   4  576.72   18.16
   3   3  -4  567.58   15.84
   3   2  -6    0.92    0.88
  -3  -2   6    5.57    2.78
   4   0  -1  221.03   14.44
  -4   0   1  196.17   15.89
   4   0  -1  213.90   14.35
   1  -2  -8    6.66    3.04
   1  -2  -8   10.67    4.23
   2   4   2   -0.21    2.34
   2   4   2   -1.01    2.45
  -2  -3   7  117.94   14.11
   2   3  -7  122.72    9.76
   3   0   4 1377.54   27.01
  -3   0  -4 1343.38   20.97
  -4   2   4 1278.69   47.46
   4  -2  -4 1250.70   50.38
   0   5  -6   12.43    5.02
   0  -5   6    8.91    3.81
  -1   5   5   85.67   20.57
   1  -5  -5   67.32   21.25
  -1   5   5   67.11   12.27
  -3   5  -2  248.74   15.26
   3  -5   2  221.34    9.82
   3   3   0   40.13   12.45
   2   2   5   18.49    3.99
   2   2   5   25.61    8.88
  -4   3   3   33.55    7.59
   4  -3  -3   36.99   11.17
  -3   2   7    9.98    3.15
   3  -2  -7    9.55    3.29
  -1  -4   7  197.95    8.36
   1   4  -7  222.22   21.70
  -2   5   5   11.81    3.87
  -2   5   5    3.79    2.42
   2  -5  -5   10.10    4.64
   4  -3   0   79.00    6.55
  -4   3   0   88.51   17.47
   3   1  -7  133.32    8.14
  -3  -1   7  140.70   10.43
   3   1  -7  136.85    5.77
   0   3  -8   29.52    7.65
  -4   0   4   50.33    5.32
   4   0  -4   45.24   10.94
   1  -6   4    1.25    1.25
  -1   6  -4    2.32    2.82
   1  -6   4    1.08    1.12
   2  -2  -8   30.22   10.36
   2  -2  -8   33.97    5.76
   0  -6   4  658.73   26.51
   0   6  -4  685.72   28.89
   2   3   4   11.53    4.77
   2   3   4   16.99    3.07
   1  -6  -3    0.66    1.96
  -1   6   3    3.76    1.28
  -1   6   3    4.01    2.61
   1   3  -8  163.88    5.53
  -1  -3   8  157.68   12.02
   1   3  -8  154.40   19.18
   0  -3  -7  434.20   18.67
   0   3   7  392.23   18.18
   0   6   2   79.22   15.64
   0  -6  -2   68.07    4.64
   0   6   2   90.92   17.30
   2   2  -8  231.83    6.79
   2   2  -8  197.46   11.32
  -2  -2   8  201.98    8.90
   4  -2   1  173.38    9.41
   4  -2   1  144.62    7.38
  -4   2  -1  179.50   19.10
   0  -4  -6  180.50    9.77
   0   4   6  190.46   13.28
   0   4   6  194.65    9.25
   4   0   0    1.02    1.78
   4   0   0    8.68    3.25
  -4   0   0    3.39    2.09
   2   4  -6 1281.73   48.46
  -2  -4   6 1276.41   48.81
   3  -5  -4  259.60   15.85
  -3   5   4  268.88   12.55
  -3   5   4  253.38   25.27
  -2   6   3   10.18    4.89
   2  -6  -3   12.58    3.41
  -2   6   3   12.17    2.68
  -1   5  -6   13.64    4.82
   4  -1   1  254.98    8.16
  -4   1  -1  271.64    8.24
   4  -1   1  267.67    9.82
   1   3   6  225.84   15.38
   1   3   6  183.91   12.52
  -2   6  -3  326.05   17.43
   2  -6   3  315.81   18.04
  -1   4  -7    2.94    2.05
   2   5  -2  588.57   24.52
   2   5  -2  615.68   25.36
   2   1   6   31.11    4.48
  -2  -1  -6   39.17    5.89
   1   5   3 1585.25   60.03
   1   5   3 1609.83   64.72
  -1  -5  -3 1566.17   57.87
  -3  -3   5 2303.22   25.65
   3   3  -5 2203.45   80.24
  -4   1   5  291.77    9.84
   4  -1  -5  285.14   17.30
   4  -3  -4   56.99   12.28
  -4   3   4   35.09   10.07
  -1   1  -8  500.04   22.11
   2   5  -1  577.35   24.17
   2   5  -1  563.12   23.66
   2   5  -3   76.45   15.79
  -2   5  -5    3.66    2.55
   3  -4   4  295.95   10.01
  -3   4  -4  319.56   10.52
  -4   2   5   29.79    7.93
   4  -2  -5   30.09    7.95
   1   6  -2    3.14    1.27
   4   1  -2  251.80   10.27
  -4  -1   2  256.67    7.85
   4   1  -2  247.00   13.57
  -2   4  -6  324.77   24.97
   4  -3   1  246.12   10.30
  -4   3  -1  263.59    9.07
   1   6  -1    1.81    2.13
   1   6  -1    3.15    1.72
  -1  -5   6   32.37    8.89
   1   5  -6   35.21    8.34
  -1   2  -8 1108.02   43.30
   3   3   1  107.26    8.01
   4   1  -3   75.17   12.90
   4   1  -3   66.46    8.85
  -4  -1   3   57.69    7.45
   1   0  -9 1268.31   48.76
   1   0  -9 1279.81   50.13
   4  -4  -1  561.35   30.53
  -4   4   1  598.16   26.08
  -4   4   1  569.80   23.07
   1   1  -9  721.90   29.98
   1   1  -9  833.13   32.45
  -1  -2  -7    8.04    4.32
  -4   4   2  176.77    8.74
  -4   4   2  188.62    6.97
   4  -4  -2  186.78   10.47
   1   4   5  178.63   17.97
  -1  -4  -5  199.09    8.92
   1   4   5  199.36    9.67
  -4   0   5   91.06   12.99
   4   0  -5   88.01    8.89
   0  -2  -8    2.01    1.90
   0  -2  -8    3.27    3.83
   3  -5   3   27.30    7.58
  -3   5  -3   15.59    3.70
   3  -2   5  254.34    9.06
  -3   2  -5  268.94    9.08
  -3   4   6   56.14   13.95
   3  -4  -6   45.58   15.46
  -4  -1   1  250.09   10.75
   4   1  -1  276.16    9.71
  -1   0  -8  442.32   20.29
   1   6  -3  204.26   20.41
   3   1   4   15.52    4.51
   3   1   4   30.24    8.96
   3  -3  -7  547.97   26.84
  -3   3   7  519.42   32.18
   2   5   0  149.58    7.37
   2   5   0  137.91   12.11
   3  -1   5  297.08   10.13
  -3   1  -5  311.38    9.45
   1   6   0  697.13   28.88
   1   6   0  711.97   28.92
   3   2   3    0.29    0.78
   3   2   3    1.93    1.55
   4  -4   0   73.50   17.99
  -4   4   0   66.48   14.39
  -4   4   0   58.56   11.09
  -2  -5   4 1658.31   63.72
   2   5  -4 1786.83   66.58
  -4  -1   4    0.78    2.10
   4   1  -4    1.00    1.65
  -4   4   3   12.19    3.44
  -4   4   3   11.62    2.99
   4  -4  -3   13.78    3.10
   4   0   1   21.66    5.52
   2   4   3    1.49    1.61
   2   4   3    2.61    2.80
   0   5   5  533.49   25.95
   0  -5  -5  536.01   24.66
   0   5   5  513.23   27.78
   1  -4  -7    7.20    2.52
  -1   4   7    4.35    2.23
   3  -6  -1  613.93   26.61
  -3   6   1  627.16   27.10
  -3   6   1  529.27   28.23
  -2   2  -7 5616.92   40.84
  -2   1  -7   21.63    6.85
   3  -6   0  382.95   18.11
  -3   6   0  396.10   18.13
  -3  -2   7   13.13    3.66
   3   2  -7    8.70    2.63
   2  -4  -7   74.17   13.95
  -2   4   7   56.52   16.78
   0   6  -5  605.06   26.01
   0  -6   5  578.88   23.98
   3   0  -8    1.07    1.53
   3   0  -8    2.45    3.06
  -3   0   8    3.27    3.22
   1  -1  -9  445.92   20.87
   1  -1  -9  436.73   19.44
   4  -2   2  191.50    8.77
   4  -2   2  170.16    8.07
   3  -1  -8  106.83    7.22
   3  -1  -8   95.76   23.43
   0   6   3  297.53   11.35
   0  -6  -3  297.42   14.87
   0   6   3  299.03   19.40
  -3   3  -5   33.75    7.59
   0   1  -9   50.42   12.09
   1   2  -9  488.95   20.50
   1   2  -9  444.49   20.33
   1  -6   5   21.85    7.58
  -1   6  -5   40.66    9.34
   2   0  -9   65.22   16.34
   2   0  -9   47.99   12.88
   1  -3  -8  108.61   23.06
  -1   3   8   98.70    7.94
   1  -6  -4  482.72   22.90
  -1   6   4  467.87   21.60
  -1   6   4  509.45   20.83
  -4   3   5   93.80   14.65
   4  -3  -5  114.67   16.39
  -1   3  -8  327.88   11.33
  -3   6   2  221.81   12.75
   3  -6  -2  244.01   14.95
  -3   6   2  259.98   24.53
  -2   6   4   56.54   11.32
  -2   6   4   45.80    8.47
   2  -6  -4   38.18   14.79
  -2   3   8    0.27    3.77
   2  -3  -8    1.57    1.37
   4   1   0  445.55   19.58
  -4  -1   0  495.38   19.89
   4  -1   2  280.77    8.90
  -3   6  -1   79.79    7.62
   3  -6   1   84.20   15.22
   3   3  -6   28.75    7.98
  -3  -3   6   41.20   12.73
  -2   6  -4  166.44   16.68
   2  -6   4  172.50   18.45
   0   0  -9   18.35   12.75
   0   0  -9   42.28    9.82
   1   6  -4    1.64    1.82
  -1  -6   4    2.71    1.84
  -3   5   5  577.99   27.51
   3  -5  -5  592.44   27.30
  -4   1   6   39.42   12.09
   4  -1  -6   43.95   11.07
   1  -7   1  460.80   19.27
  -1   7  -1  468.82   26.36
   1  -7   1  449.82   18.77
   0   4  -8  288.68   25.22
   0  -5   7   70.66   22.85
   0   5  -7   84.45   19.09
   2   1  -9  263.82   10.79
   2   1  -9  295.20    9.85
  -2  -3   8   48.63   14.59
   2   3  -8   53.18   12.53
   2  -5  -6 1099.26   42.89
  -2   5   6 1068.47   49.02
  -2   5   6  958.80   40.10
   1  -7   0   94.99   12.04
  -1   7   0  118.79   14.68
  -4   4  -1   12.50    3.83
   4  -4   1   19.48    4.83
   4  -3   2   75.18   11.66
  -1   5   6  636.64   35.97
   1  -5  -6  633.36   26.67
  -1   5   6  637.15   25.73
   0   2  -9   20.07    5.25
   2  -1  -9  139.29   18.44
   2  -1  -9  138.98   10.07
  -1  -6  -1  123.88    5.50
   1   6   1  160.46   10.77
   1   6   1  160.48   21.90
  -2   3  -7   28.75    9.44
   3   0   5   99.81   17.53
  -3   0  -5   83.47    6.12
   3   4  -2  542.05   26.75
  -2   0  -7 3632.97   33.80
  -4   4   4   57.44    6.04
  -4   4   4   61.97   13.88
   4  -4  -4   57.36   13.48
   4   1  -5   85.34    6.50
  -4  -1   5   97.24   19.23
   3   4  -3 1025.07   40.10
   2   5   1    1.65    1.60
   2   5   1    0.92    1.89
  -2  -5  -1    0.79    0.71
  -4   2   6  205.98    8.66
   4  -2  -6  202.26   24.62
   3   1  -8  310.99   11.70
   3   1  -8  286.90   10.62
  -3  -1   8  289.21   11.28
  -2  -4   7  122.26    9.98
   2   4  -7  123.88    8.31
   1  -7   2  240.32    7.42
   1  -7   2  197.17   10.15
  -1   7  -2  222.08   21.83
   3   3   2    2.37    3.59
   3  -2  -8   32.70   11.21
  -3   2   8   39.01    5.35
  -1  -1  -8   46.45    6.60
   4   0  -6   40.73   11.36
  -4   0   6   44.14   10.54
  -2  -5   5  312.96   11.68
   2   5  -5  341.92   18.74
  -1  -4   8    2.82    3.81
   1   4  -8    4.55    2.77
   3   4  -1  109.58   16.56
   1   5   4  124.75   20.65
  -1  -5  -4  109.96    6.02
   1   5   4  127.85   14.28
   1  -7  -1  402.47   17.76
  -1   7   1  429.32   24.42
   2   3   5   41.68    9.45
   2   3   5   22.83    8.93
   3  -6  -3   13.95    4.52
  -3   6   3   11.35    3.03
  -3   6   3   13.59    4.59
   2   2   6   15.79    4.74
   2   2   6    4.35    3.15
  -3   6  -2  629.87   28.08
   3  -6   2  615.22   25.69
  -3  -4   4   12.69    3.38
  -2   7   0  131.17   23.30
   2  -7   0   98.83   12.38
  -3   5  -4    8.14    2.37
   3  -5   4    9.71    5.65
   4   0   2   49.00   11.73
  -2   7  -1   57.28   14.70
   2  -7   1   28.57    9.68
  -1  -5   7   37.35   13.95
   1   5  -7   43.96   11.81
   0  -1  -9    2.68    1.76
   0  -1  -9   -2.12    3.51
  -3   4  -5   37.50    9.86
   4   2  -2    5.92    4.16
  -4  -2   2    2.19    1.90
   4   2  -3  380.30   17.64
   0   7  -1  172.47    9.35
  -1   5  -7  610.73   37.77
  -2   7   1  113.63   23.70
   2  -7  -1   72.76   14.41
   4   1   1  886.53   35.42
   1  -2  -9    6.29    2.00
   1  -2  -9    6.76    3.10
  -2   5  -6  167.40   19.25
   4  -5  -1  147.50   11.49
  -4   5   1  153.57    7.63
  -4   5   1  143.76   13.19
  -1   7  -3   19.09    5.58
   0   7  -2  144.58   11.97
   2   2  -9 1207.82   47.07
  -2  -2   9 1152.33   45.08
   1   6  -5   44.50    9.97
  -1  -6   5   37.80   13.81
  -4   5   2  136.13   24.34
   4  -5  -2  164.04   22.19
  -4   5   2  130.08   20.40
   1   3  -9  159.34   22.89
   0   4   7  670.04   34.00
   0   4   7  708.16   32.61
   0  -4  -7  693.58   28.97
   3   4   0    1.35    2.21
   2  -2  -9  178.03   25.60
   2  -2  -9  171.43   11.16
   0   7   0  114.67   15.26
   0   7   0  105.73   13.12
   0   3  -9  516.27   27.47
   4  -4   2   64.91   15.61
  -4   4  -2   38.48   12.88
   0  -6   6  217.59   15.79
   0   6  -6  242.47   17.93
   4  -3  -6   90.10   16.52
  -4   3   6   74.62   19.64
   4  -5   0   13.10    4.33
  -4   5   0   12.15    3.33
  -4   5   0   12.65    4.78
   4   2  -1  618.09   26.25
   4  -2   3   67.65   12.30
  -4  -2   4    5.73    2.15
   1   6   2  268.00   10.64
   1   6   2  262.58   27.90
  -1  -6  -2  247.51    7.94
  -3   4   7   47.08   14.40
   3  -4  -7   42.09   12.77
  -4   4   5    1.81    1.65
   4  -4  -5    0.42    1.41
  -2   7  -2  213.69   23.12
   2  -7   2  189.32   15.56
   0  -3  -8  189.67   11.06
   0   3   8  188.48   10.26
  -1   7   2  421.91   26.04
   1  -7  -2  458.00   20.02
  -1   4  -8  180.72   22.39
   0   6   4  105.84   23.54
   0  -6  -4   98.10   15.99
   0   6   4  101.24   16.20
   3   2   4    2.82    2.18
   3   2   4    0.94    0.76
   2   4   4   29.18    6.45
   2   4   4   20.03    6.25
  -4  -1   6   15.88    4.83
   1   3   7   99.66   14.94
   1   3   7   80.39   19.45
  -1  -3  -7   95.80   22.80
   0   7  -3   44.49   10.72
   0  -7   3   39.97   11.19
  -2   4  -7   82.35   21.29
  -3  -4   5  491.62   22.04
  -4   5   3   60.25   12.20
  -4   5   3   45.15   11.64
   4  -5  -3   56.58   15.33
   2   1   7    4.59    4.32
  -2  -1  -7    2.26    3.38
   2   5   2   33.52    7.78
  -2  -5  -2   17.59    7.52
   2   5   2   29.06    9.37
  -2   6   5   82.28    8.31
   2  -6  -5   71.99   19.96
  -2   6   5   90.24   17.70
  -2   7   2  576.50   29.77
   2  -7  -2  557.04   24.36
  -3  -3   7    9.24    3.72
   3   3  -7   11.71    3.62
   3   3  -7    6.71    2.12
   4  -1   3    1.35    2.08
  -3  -2   8 1324.58   52.10
   3   2  -8 1274.87   49.65
  -1   6  -6  480.95   27.81
   1   4   6   12.13    3.96
   1   4   6    4.28    2.54
  -1  -4  -6   17.33    4.95
  -2   6  -5  695.46   29.46
   4  -3   3   23.45   11.75
   4  -3   3   47.25   13.12
   1  -6  -5   61.37   25.41
  -1   6   5   75.29   16.11
  -1   6   5   66.12   16.91
   3   1   5   55.44   11.66
   3   1   5   52.63    5.25
   3  -6  -4  104.26   23.18
  -3   6   4  102.44   11.43
  -3   6   4  104.33   11.08
  -4   1   7  405.03   19.89
   4  -1  -7  409.10   19.20
   2   5  -6  193.75   21.39
  -2  -5   6  175.23   10.83
   3  -2   6    2.18    2.08
  -3   2  -6    3.33    3.00
   3  -2   6    4.34    2.97
   3  -3  -8    1.77    1.94
  -3   3   8    5.93    3.40
   3  -5  -6  242.31    9.97
  -3   5   6  259.11   12.89
   0   7   1  551.55   30.29
   0   7   1  500.09   22.98
   0  -7  -1  483.67   20.47
   3  -6   3  207.71   19.08
  -3   6  -3  229.58   29.04
   0  -5  -6   -0.71    2.48
   0   5   6    3.54    2.47
   0   5   6   -1.12    2.55
   4  -5   1   23.07    5.46
  -4   5  -1   15.22    5.03
   4  -5   1   19.18    4.50
   4  -5   1   19.47    7.18
   4  -5   1   18.23    6.53
   3  -1   6  135.35   22.38
  -3   1  -6  118.50   16.97
   3  -1   6  131.26   29.02
   3  -1   6  119.90    7.86
  -4   0   7   46.21   11.90
   4   0  -7   40.61    7.83
   4   0  -7   37.76    8.94
   4   0  -7   33.63    9.79
   4   2   0  166.99    9.73
  -4  -2   5   31.94    7.48
   4  -2  -7  439.95   20.43
   4  -2  -7  430.71   20.63
   4  -2  -7  455.64   22.78
  -1   7  -4   40.18    9.13
   1  -7   4   46.03   10.26
  -1   7  -4   29.75    8.65
  -1   7  -4   27.04    5.81
   3   3   3    4.06    2.92
   3   3   3    3.36    2.06
   3   3   3    0.60    2.06
   3   3   3   -0.61    2.28
  -1   1  -9  110.62   11.46
  -3   3  -6   26.39    8.00
   3  -3   6   24.70    5.64
   3  -3   6   13.85    4.95
   3  -3   6   37.02    9.78
  -1  -2  -8  144.60    9.63
   1   2   8  137.24   17.98
  -2   4   8 1038.16   42.48
   2  -4  -8 1068.07   43.28
   3   4   1    9.60    2.74
   3   4   1    7.99    2.35
   3   4   1   10.76    3.34
   3   4   1    9.29    3.52
  -1   2  -9   28.32    8.70
   1  -2   9   23.82    7.43
  -1   2  -9   30.31    9.27
   3   0  -9  226.45   10.97
   3   0  -9  238.96   18.52
   3   0  -9  182.52   23.66
   2  -7   3  221.23   28.41
  -2   7  -3  220.25   13.71
  -2   7  -3  199.23   27.18
  -2   7  -3  237.91   28.53
   2  -7   3  200.67   12.66
   3  -1  -9    2.17    1.83
   3  -1  -9    1.98    3.42
   3  -1  -9    1.50    1.26
   3  -1  -9    4.76    2.25
   1   1 -10  244.08   13.02
  -1  -1  10  227.58   35.66
   1   1 -10  243.75    9.38
   1   1 -10  228.46   31.98
   0   7  -4  111.91   19.77
   0   7  -4  143.24   27.34
   0  -7   4  120.67   16.77
   0   7  -4  133.70   22.78
   0  -7   4  146.47   26.32
   1  -4  -8  219.64   11.67
  -1   4   8  142.66   37.13
  -1   4   8  208.52   17.19
  -1   4   8  157.09   27.31
   1   0 -10   14.66    5.12
  -1   0  10   15.00    3.45
   1   0 -10   14.98    5.37
   1   0 -10   19.30    5.53
  -1   0  10   10.10    4.07
  -4   5   4   86.16   19.37
   4  -5  -4   97.30   21.31
   4  -5  -4   95.61   16.68
   4  -5  -4   82.51   20.03
   4  -5  -4   65.63    5.66
  -4   5   4   98.03   21.50
   4   1   2   17.49    6.30
   4   1   2   38.53   10.47
   4   1   2   45.98   14.13
  -2   5   7  145.44   31.99
  -2   5   7  202.68   42.97
   2  -5  -7  225.72   10.24
  -2   5   7  160.59   34.36
  -2   5   7  195.47   11.42
  -2  -4   8   61.76   17.30
   2   4  -8   50.93    8.31
   2   4  -8   57.08   14.38
   0   2   9    9.58    3.29
   0  -2  -9    4.89    4.34
   0  -2  -9   17.07    5.17
   0   2   9    8.40    3.54
   0  -2  -9    9.52    3.58
   0   5  -8  180.89   12.03
   0  -5   8  189.06   16.55
   0   5  -8  222.78   20.88
   1   6  -6   50.85   12.46
  -1  -6   6   37.97   11.54
  -1   7   3   13.36    4.13
  -1   7   3   17.73    5.41
  -1   7   3    5.38    2.09
   1  -7  -3    9.31    4.72
   4   0   3    2.45    2.30
   4   0   3    1.72    2.13
   4   0   3    3.65    2.38
  -2   7   3   14.76    5.73
   2  -7  -3   11.34    4.90
  -2   7   3   10.80    3.83
  -2   7   3   11.09    3.82
  -2   2  -8   70.16   23.16
   2  -2   8   42.61   11.43
   1   0   9   50.19    9.48
   1   0   9   48.29   13.31
  -1   0  -9   54.93   14.02
  -1   0  -9   33.41   10.15
   2  -1   8  132.95    9.14
  -2   1  -8  160.13    9.29
   2   3  -9   34.39    9.00
  -2  -3   9   32.16    9.68
  -1   5   7  148.89   29.45
   1  -5  -7  189.42   18.86
  -1   5   7  173.18    7.61
  -1   5   7  178.61   30.61
  -1   5   7  155.45   30.97
   4  -4   3    4.98    2.32
   4  -4   3    7.16    2.99
   4  -4   3    7.63    2.52
   4  -4   3    7.11    2.27
   4  -4   3   10.34    3.76
  -1  -5  -5  560.34   23.79
   1   5   5  541.52   26.90
   1   5   5  588.22   25.81
   1   5   5  556.89   25.41
  -3  -4   6   92.61   14.54
   3   4  -6  110.92   16.55
   3   4  -6  121.17   14.26
   3   4  -6   97.98   18.06
   3  -5   5   77.68   18.09
  -3   5  -5   74.35    9.31
   2   6  -2  713.37   30.82
   2   6  -2  758.88   32.41
   2   6  -2  762.69   31.66
   2   6  -2  708.18   30.99
   3   1  -9 1093.28   43.21
   3   1  -9 1130.07   44.75
   1   6   3  173.02   26.63
   1   6   3  155.03   21.41
   3   0   6  167.91   21.68
  -3   0  -6  191.73    9.67
   3   0   6  153.58   31.24
   3   0   6  160.27   29.73
   3   0   6  184.37   19.64
   0   7   2   50.54    9.96
   0   7   2   48.40    8.58
   0   7   2   54.79   11.90
   0  -7  -2   22.33   11.39
   0   7   2   58.97   11.34
   0   7   2   48.37    8.53
   4  -4  -6    8.57    3.16
   4  -4  -6    3.59    3.05
   4  -4  -6   -0.18    1.54
   4  -4  -6    4.59    2.38
  -4   4   6    5.29    2.92
  -2   3   9  230.05   40.38
   2  -3  -9  321.85   14.93
  -2   3   9  258.38   45.04
  -2   3   9  307.06   13.98
   2   6  -3  862.51   36.16
   2   6  -3 1030.67   43.60
  -2   0  10    0.58    1.92
   2   0 -10    0.83    2.19
   2   0 -10   -2.06    4.33
  -1  -2  10  413.33   21.87
   1   2 -10  450.63   24.66
   1   2 -10  419.74   38.75
   1   2 -10  506.84   21.54
  -1   3   9    6.37    3.53
  -1   3   9   11.47    3.59
  -1   3   9    5.56    3.91
  -1   3   9    3.38    1.83
   1  -3  -9    3.46    1.83
   0  -4   9 1175.94   48.30
   0   4  -9 1358.32   53.62
   0   4  -9 1176.33   46.81
   4  -5   2  388.65   18.52
  -4   5  -2  475.44   23.86
   4  -5   2  389.73   20.44
   4  -5   2  422.35   21.85
   4  -5   2  435.51   36.56
   2   6  -1   47.11    7.78
   2   6  -1   39.43    7.31
   2   6  -1   28.04    4.03
   2   6  -1   45.79   11.39
   2   6  -1   47.24    9.27
   4   1  -7   24.77    5.67
   4   1  -7   36.48    6.78
  -4  -1   7   34.88   11.57
   4   1  -7   41.42   11.90
  -1   3  -9  202.56   17.38
   1  -3   9  205.73   30.01
  -1   3  -9  202.20   12.78
   3  -7   0  179.15    8.89
   3  -7   0  167.21    8.59
  -3   7   0  183.98   11.38
   4  -3  -7   23.74    7.34
   4  -3  -7   18.93    5.64
   4  -3  -7   23.95    7.45
  -4   3   7   19.88    5.58
   4  -3  -7   20.46    9.41
   1  -1 -10  707.07   31.37
   1  -1 -10  676.84   29.83
  -1   1  10  634.68   48.59
   1  -1 -10  672.28   30.03
  -1   1  10  627.84   28.64
  -3   2   9   90.80    8.34
   3  -2  -9   46.08   20.34
   3  -2  -9   43.69   21.37
   3  -2  -9   60.45   23.48
   3  -7  -1   30.37    9.82
   3  -7  -1   30.89    6.65
  -3   7   1   40.06   10.84
  -1  -4   9  956.42   39.44
   1   4  -9  950.97   39.02
   1   4  -9  841.41   35.16
  -1  -4   9  836.33   43.64
   4   2   1 1163.43   48.50
   4   2   1 1060.13   42.59
   4   2   1 1012.97   41.25
   2   1 -10 1295.57   50.47
   2   1 -10 1267.16   50.31
   1   5  -8    9.68    3.49
  -1  -5   8   21.81    7.52
  -1  -5   8   18.20    5.91
   1   5  -8   25.06    6.88
   4   2  -6   46.59    7.46
  -4  -2   6   62.54   16.41
   4   2  -6   58.28    9.90
   4   2  -6   55.10   11.04
  -3   6   5  149.59   16.35
   3  -6  -5  135.52   15.97
  -3   6   5  136.25   24.86
  -2   3  -8   36.24    6.39
   2  -3   8   39.88    9.05
   2  -3   8   41.26    7.54
  -2   3  -8   42.66   13.11
   0   1 -10  104.66   20.83
   0   1 -10  103.14   22.56
   0   1 -10   79.73   23.08
   0  -1  10  104.38   15.51
   0  -1  10   94.77   20.37
   2   3   6   33.39   10.51
   2   3   6   44.31    8.79
   2   3   6   26.52    5.37
   2   3   6   30.69    6.71
   2   5   3   25.01    5.55
   2   5   3   25.06    5.35
  -2  -5  -3   23.40    7.44
   2   5   3   25.98    5.56
   2   5   3   24.30    9.47
   2   5   3   23.86    5.61
   0   6  -7  338.46   24.73
   0  -6   7  395.62   36.78
   0  -6   7  315.91   40.09
   0  -6   7  355.89   17.41
   0   6  -7  381.43   33.08
   4  -2   4   -0.90    2.54
   4  -2   4    2.71    2.06
   4  -2   4    3.93    3.34
   4  -2   4    2.30    1.62
   3  -4   6   26.06    7.43
  -3   4  -6   32.99    9.11
   3  -4   6   21.96    5.82
   3  -4   6   24.05    5.60
   2  -1 -10    2.15    2.54
   2  -1 -10    5.51    4.89
   2  -1 -10    3.98    4.07
  -2   1  10    4.33    5.36
  -2   1  10    3.61    3.72
   3  -6   4  134.25   14.61
  -3   6  -4   97.71   24.71
   3  -6   4  121.63   24.66
   3  -7   1  542.69   25.48
  -3   7  -1  507.82   27.23
   3  -7   1  531.32   27.93
   2   6  -4  259.63   29.06
   2   6  -4  252.25   14.82
   2   6  -4  268.17   12.12
  -2  -6   4  241.85   18.64
   2   0   8 3690.76   55.14
   1   7  -2  351.94   13.99
   1   7  -2  357.49   19.96
   2   5  -7   31.15    6.42
  -2  -5   7   34.94    9.85
   2   5  -7   34.76    7.03
   2   5  -7   28.11    7.50
   0  -6  -5    5.82    2.61
   0   6   5    8.13    4.31
   0   6   5    8.16    3.97
   0   6   5   12.56    4.49
   0   6   5    8.21    3.82
  -2   7  -4    9.88    4.52
  -2   7  -4    8.92    3.31
  -2   7  -4    6.78    3.38
   2  -7   4   17.53    4.50
   2  -7   4   18.14    6.12
  -1   7  -5   13.88    3.96
  -1   7  -5   11.45    4.47
  -1   7  -5    9.99    3.46
   1  -7   5   17.77    5.57
   4   3  -3    8.01    2.19
   4   3  -3    4.31    1.70
   4   3  -3    4.91    2.27
   4   3  -3    3.11    1.96
   2  -5   7  234.82   28.51
  -2   5  -7  222.30   18.32
  -2   5  -7  200.61   15.42
   2  -5   7  197.19   37.38
  -3   7   2   74.18   13.13
  -3   7   2   62.59   12.19
  -3   7   2   81.38   14.61
  -3   7   2   60.61   16.92
   3  -7  -2   80.81   21.64
   3  -7  -2   62.48    5.88
   1   7  -1  327.98   11.90
   1   7  -1  332.97   12.62
   1   7  -1  349.85   13.45
   0   0  10    5.20    2.64
   0   0  10    2.34    3.59
   0   0 -10    0.13    1.68
   0   0 -10    4.41    2.17
   0   0 -10    0.08    1.58
   0   2 -10   88.52   17.20
   0   2 -10   60.34   16.86
   0  -2  10   88.70   16.06
   0  -2  10  106.69   17.72
   0   2 -10  104.44   12.40
   4   3  -2  371.33   21.77
   4   3  -2  336.74   17.50
   2   2   7   91.62   21.30
   2   2   7   93.20    8.68
   2   2   7   97.90   17.49
   2   2   7  114.49   20.57
   2   2   7  120.07   24.08
   4  -3   4    3.71    2.86
   4  -3   4   -0.27    1.41
   4  -3   4    6.14    3.25
   4  -3   4    3.98    2.58
   0   7  -5   -0.77    3.24
   0  -7   5    0.61    2.33
   0   7  -5    1.54    3.17
   0  -7   5    3.29    1.93
   0   7  -5    2.91    2.87
   4  -5  -5   32.18    7.95
  -4   5   5   27.27    7.66
   4  -5  -5   32.85    7.31
  -4   5   5   24.84    6.18
   4  -5  -5   29.14    8.65
   2   6   0  192.97   26.01
   2   6   0  209.31   23.37
   2   6   0  185.93   15.03
   2   6   0  244.59   25.18
   2   6   0  220.91   21.81
   3   3  -8  327.63   18.17
   3   3  -8  303.15   16.29
   3   3  -8  323.25   18.71
  -3  -3   8  360.56   19.84
   3   3  -8  336.23   17.14
  -1   5  -8   62.59   14.38
   1  -5   8   41.37   11.29
  -1   5  -8   71.50   12.06
   1  -5   8   60.12   13.92
  -2   6   6   29.47   10.63
  -2   6   6   29.82    8.86
  -2   6   6   13.77    6.60
  -2   6   6   24.93    7.16
   2  -6  -6   20.57    8.57
   4  -6  -1  595.36   30.49
   4  -6  -1  593.82   26.85
  -4   6   1  672.84   37.88
  -4   6   1  619.07   27.17
   4  -6  -1  595.38   29.47
   4  -1   4  118.67   27.42
   4  -1   4   81.48   20.59
   4  -1   4   90.37   12.97
   4  -1   4   75.52   15.69
   3   4   2    0.97    2.08
   3   4   2    3.03    2.24
   3   4   2   -1.21    1.96
   3   4   2   -1.69    3.12
   1   7  -3  144.73   30.48
  -1  -7   3  137.43   23.50
   1   7  -3  146.12   11.04
  -2   6  -6    1.75    2.69
  -2   6  -6    2.69    2.04
   2  -6   6    1.01    3.37
   2  -6   6    2.82    1.71
   5  -2  -2  803.85   34.46
   5  -2  -2  779.35   33.61
  -5   2   2  819.43   36.64
   5  -2  -2  795.52   35.36
   3  -4  -8  144.15   25.35
   3  -4  -8  105.64   19.21
  -3   4   8  189.20   20.37
  -4   1   8  136.91    8.07
   4  -1  -8  140.79   14.26
   4  -1  -8  124.41   12.31
   4  -1  -8  116.96   14.09
  -4   6   2  174.34   20.12
  -4   6   2  186.86   23.72
   4  -6  -2  138.59    8.79
   4  -6  -2  161.98   11.52
   4  -6  -2  146.95   10.58
   2   4   5   82.42   12.39
   2   4   5   68.58   16.21
   2   4   5   66.83   10.75
  -2  -4  -5   67.27   18.76
   2   4   5   86.25   13.16
   2   4   5   69.55   19.57
   5  -2  -3   31.23    9.47
   5  -2  -3   26.93    6.44
  -5   2   3   21.92    6.50
   5  -2  -3   28.00    7.06
   5  -2  -3   30.22    6.86
   4   3  -4   81.99   15.43
  -4  -3   4   90.07   14.38
   4   3  -4   77.74   13.24
   4   3  -4   73.95   15.69
   1   1   9    3.77    2.94
   1   1   9    3.45    2.22
  -1  -1  -9    2.59    5.93
  -1  -1  -9    4.93    2.29
   3   2   5    3.86    2.40
   3   2   5    7.81    2.40
   3   2   5    3.48    2.22
   3   2   5    1.84    1.54
   3   2   5    2.79    2.16
   4  -6   0   68.88   12.45
   4  -6   0   71.59   17.72
   4  -6   0   72.40   15.25
  -4   6   0   78.81   17.03
  -1   6  -7    6.32    2.33
   1  -6   7    3.89    2.93
   1  -6   7    5.19    3.18
  -1   6  -7    1.67    2.73
   3   5  -2  329.12   20.76
   3   5  -2  336.23   37.85
   3   5  -2  337.73   20.91
   3   5  -2  326.11   18.08
   3   5  -3  720.72   30.81
   3   5  -3  603.77   26.29
   3   5  -3  754.49   41.50
  -1   6   6  190.21   19.17
  -1   6   6  234.93   21.10
   1  -6  -6  219.66   13.82
  -1   6   6  215.78   17.98
  -1   6   6  188.15   41.75
  -3   5   7   -2.83    3.16
  -3   5   7   -1.09    3.67
   3  -5  -7    0.46    1.88
  -3   5   7    1.82    1.99
   2  -7  -4    0.83    2.96
  -2   7   4    9.80    5.20
  -2   7   4    5.98    1.95
  -2   7   4    4.78    2.90
  -2   7   4    5.10    3.14
  -5   1   3  146.60    9.83
   5  -1  -3  135.51   19.97
  -5   1   3  138.25   18.63
   5  -1  -3  122.96    8.44
  -5   1   2  127.98   18.98
   5  -1  -2  131.52   10.27
   1   7   0  102.70   18.11
   1   7   0   96.78   14.08
   1   7   0  105.63   17.31
   1   7   0   82.21   11.03
   1   7   0   87.73   13.76
   1   7   0   77.12   13.95
   4   3  -1   20.94    7.06
   4   3  -1   18.71    4.91
   4   3  -1   19.62    5.05
   4   0  -8  220.26   17.59
   4   0  -8  178.98   15.38
  -4   0   8  207.16   17.18
   4   0  -8  161.84   20.40
   5  -2  -1   34.53    9.00
   5  -2  -1   35.65   10.42
   5  -2  -1   49.68   15.78
  -5   2   1   54.15   13.13
  -3  -2   9    2.45    1.88
   3   2  -9    1.58    1.41
   3   2  -9    2.44    1.69
   3   2  -9    4.35    2.79
   2   2 -10  588.03   27.22
   2   2 -10  533.84   31.40
  -2  -2  10  521.22   30.39
   3  -7   2   78.45   18.89
  -3   7  -2   69.04   12.74
   3  -7   2   54.26   13.89
  -3   7  -2   88.51   18.16
  -3   7  -2   85.86   15.97
   1  -7  -4  414.26   19.68
  -1   7   4  424.67   43.48
  -1   7   4  401.90   22.96
  -1   7   4  427.97   41.45
   5  -3  -2    3.32    2.63
   5  -3  -2    6.99    2.97
   5  -3  -2    8.93    3.00
  -5   3   2    3.55    1.14
   5  -3  -2    3.33    1.92
   3   3   4   67.06   15.04
   3   3   4   70.24   14.14
   3   3   4   58.60   16.59
   3   3   4   64.55    8.48
   4  -2  -8   20.39    7.18
   4  -2  -8   20.85    5.48
   4  -2  -8   25.35    8.42
   4   1   3  324.73   17.93
   4   1   3  301.64   15.97
   4   1   3  341.94   17.59
   4   1   3  317.02   17.02
   4   1   3  334.99   18.14
   5  -2  -4  321.67   21.29
  -5   2   4  345.86   26.71
   5  -2  -4  323.25   16.50
   5  -2  -4  336.66   23.14
   5  -2  -4  316.04   23.95
   0   4   8    0.77    2.39
   0   4   8    1.33    1.48
   0  -4  -8    6.11    2.17
   0   4   8    0.51    2.79
   0   4   8    2.64    2.98
   0   4   8    5.54    2.50
   0   7   3    1.19    4.31
   0  -7  -3    3.14    1.78
   0   7   3    1.55    2.30
   0   7   3    4.10    2.69
   0   7   3    2.43    3.08
   0   7   3    3.82    3.34
   1   3 -10 1198.68   33.11
  -1  -3  10  997.09   44.24
   1   3 -10 1035.97   45.89
   5  -3  -3  248.97   26.10
   5  -3  -3  234.67   17.84
   5  -3  -3  233.87   13.14
   5  -3  -3  241.36   18.31
  -5   3   3  255.20   30.10
   5  -3  -3  231.02   39.16
   3   5  -1   33.89    8.13
   3   5  -1   34.61    8.15
   3   5  -1   21.97    3.80
   3   5  -1   40.93    9.71
   3   5  -1   28.03    8.25
   3   5  -4  227.19   27.08
  -3  -5   4  244.72   33.16
   3   5  -4  250.80   21.26
   3   4  -7  163.54   11.49
   3   4  -7  178.01   24.91
   3   4  -7  200.72   31.18
  -3  -4   7  178.54   18.51
   2   6  -5  416.87   19.76
   2   6  -5  498.96   23.42
  -2  -6   5  448.78   22.00
   2   6  -5  421.19   38.97
  -3   7   3    9.88    2.91
   3  -7  -3    4.33    1.34
  -3   7   3   10.46    4.34
  -3   7   3    6.10    4.87
  -3   7   3    6.59    2.74
   3  -7  -3    1.74    2.01
   4  -6  -3  107.37   18.89
   4  -6  -3   86.16   20.59
  -4   6   3  112.65   22.76
  -4   6   3  117.44   22.88
   4  -6  -3  118.09   16.44
  -1  -7   4  334.98   17.75
   1   7  -4  339.34   18.18
   1   7  -4  362.88   18.69
   1   7  -4  342.16   41.33
   1   7  -4  315.41   39.27
   1   7  -4  318.79   31.15
  -5   1   4  780.29   35.72
   5  -1  -4  772.15   39.24
  -5   1   4  803.36   38.04
   5  -1  -4  766.69   32.80
   5  -1  -4  787.50   33.77
   5  -1  -1  500.81   24.08
   5  -1  -1  525.56   23.95
   5  -1  -1  492.68   23.21
  -5   1   1  543.33   23.69
   5  -1  -1  449.95   28.97
   1   6  -7   53.92   10.13
   1   6  -7   39.51    8.68
  -1  -6   7   56.65   13.18
  -1  -6   7   44.90   15.73
   1   6  -7   44.95   10.35
  -1  -6   7   40.89    8.41
   1   6  -7   52.57   14.79
   5  -3  -1   26.37    9.13
   5  -3  -1   36.76    8.65
  -5   3   1   20.55    6.02
   5  -3  -1   30.18    6.83
   5  -3  -1   34.17    7.12
   4  -5   3   59.06    9.18
   4  -5   3   40.64   11.43
   4  -5   3   59.98   15.27
   4  -5   3   47.88   11.76
   4  -5   3   65.16   15.74
  -4   5  -3   24.30    9.31
   3   1   6   -0.20    1.46
   3   1   6    3.01    2.37
   3   1   6    1.77    3.27
   3   1   6    3.14    3.90
   3   1   6    2.24    3.45
   3   1   6   -0.15    3.86
  -4   6  -1   53.20   12.33
   4  -6   1   66.24   16.72
   4  -6   1   75.17   17.09
   4  -6   1   74.78   14.81
   4  -6   1   76.50   17.09
   2  -4   8   56.09   11.68
   2  -4   8   73.33   20.70
   2  -4   8   55.78   13.74
   2  -4   8   54.97   13.62
  -2   4  -8   54.31   15.98
  -2   4  -8   54.72    9.45
   1  -2 -10  376.42   18.74
   1  -2 -10  366.28   19.74
  -1   2  10  328.93   40.84
  -1   2  10  366.94   18.82
   1  -2 -10  410.53   21.33
  -2   2  10    5.82    3.45
   2  -2 -10    3.79    3.58
  -2   2  10    5.27    2.53
  -2   2  10    4.65    2.67
   2  -2 -10    7.77    7.90
   2  -2 -10    2.14    2.43
   4   3  -5   25.83    4.71
  -4  -3   5   22.33    7.10
   4   3  -5   22.73    6.47
   4   3  -5   30.37    5.92
   0  -1 -10   76.11   16.80
   0   1  10   93.29   19.41
   0   1  10   76.48   18.36
   0  -1 -10   73.51   21.97
   0  -1 -10   89.50    8.36
  -1   4  -9   50.71   10.20
   1  -4   9   42.53   10.70
  -1   4  -9   48.05   15.11
   1  -4   9   48.77   11.19
  -3   3   9   13.35    4.08
   3  -3  -9   15.33    8.60
  -3   3   9   14.97    3.80
  -3   3   9   19.54    8.66
   3  -3  -9   11.91    6.00
   3  -3  -9   16.04    7.68
   1   4   7    5.47    3.03
   1   4   7   11.75    3.75
   1   4   7    7.19    3.08
   1   4   7   10.99    3.03
   1   4   7    9.36    2.70
  -1  -4  -7   14.34    4.92
   1   4   7   13.03    3.77
   4  -4   4    8.89    3.59
   4  -4   4   20.82    6.71
   4  -4   4   14.74    6.22
   4  -4   4   11.31    3.52
   2   6   1   30.13    6.66
   2   6   1   25.37    4.85
   2   6   1   24.92    5.59
   2   6   1   22.60    5.67
   2   6   1   19.61    6.24
   0   3 -10    2.31    1.08
   0  -3  10   -0.61    3.25
   0  -3  10    5.99    3.97
   0   3 -10    2.18    2.40
   0   3 -10    6.25    4.24
   0  -5  -7   -1.96    2.70
   0   5   7    2.20    3.93
   0   5   7    1.80    1.76
   0   5   7    0.74    1.80
   0   5   7    5.56    3.74
   0   5   7    1.70    4.03
   3  -2   7   44.86   10.11
   3  -2   7   43.74   11.11
   3  -2   7   56.58   13.18
  -3   2  -7   29.27   13.85
   4   2   2  280.28   15.78
   4   2   2  238.38   19.62
   4   2   2  265.29   22.26
   4   2   2  285.22   17.55
   1   3   8  225.31   13.03
   1   3   8  286.45   15.43
   1   3   8  256.71   30.18
   1   3   8  285.10   17.75
  -1  -3  -8  296.05   14.92
   1   3   8  209.82   43.88
   4   2  -7    0.63    1.74
   4   2  -7    1.36    1.78
   4   2  -7    2.62    2.04
   4   2  -7    0.43    2.20
  -4  -2   7    1.67    2.60
   4   0   4  491.06   23.68
   4   0   4  559.48   25.67
   4   0   4  545.23   25.28
   4   0   4  520.48   25.48
   4   0   4  544.06   35.24
  -1   8  -1  262.27   17.92
   1  -8   1  253.57   29.59
  -1   8  -1  262.42   28.04
  -1   8  -1  315.17   35.71
   5  -2   0   35.10   11.10
   5  -2   0   41.93    7.82
   5  -2   0   54.61   13.00
   5  -2   0   49.49   18.04
  -5   2   0   52.37    9.29
   5  -2   0   45.20   11.32
   1   6   4  243.95   30.69
   1   6   4  253.84   35.88
   1   6   4  313.17   27.32
   1   6   4  272.37   26.63
   1   6   4  309.41   32.96
   1   6   4  322.40   21.29
   1   6   4  287.54   17.49
  -1  -6  -4  327.45   16.32
   0   3   9  225.40   27.00
   0  -3  -9  231.98   17.05
   0   3   9  191.12   35.48
   0   3   9  257.68   21.95
   0   3   9  237.67   16.13
   4  -4  -7    7.24    3.11
   4  -4  -7    5.55    3.59
   4  -4  -7    6.71    3.80
  -4   4   7    2.37    2.85
   5  -3  -4   88.41   13.78
  -5   3   4   80.82   14.40
   5  -3  -4   75.74   14.16
   5  -3  -4   89.93   17.67
   5  -3  -4   95.12    9.87
   5  -3  -4   83.35   20.36
   4   3   0    0.95    2.26
   4   3   0    3.25    4.25
   4   3   0    0.52    1.57
   4   3   0    1.12    1.93
   2   1   8   43.09   14.33
   2   1   8   36.08   15.67
   2   1   8   42.28   11.36
   2   1   8   63.46   14.95
  -2  -1  -8   66.44    7.41
  -2  -1  -8   34.63   15.37
   2   1   8   60.33    6.72
   1   7   1  107.09   17.56
   1   7   1  120.03   27.10
   1   7   1   91.64   16.39
   1   7   1  130.42   22.31
   1   7   1  116.77   19.55
   1   7   1  114.99   20.53
   1   7   1  115.08   18.26
  -5   0   3   89.74   25.13
  -5   0   3   82.95   15.66
   5   0  -3   91.45    8.88
  -1   8   0  576.22   33.64
   1  -8   0  597.88   27.60
  -1   8   0  465.54   22.59
  -1   8   0  618.81   34.63
  -1   8   0  491.70   23.51
   5   0  -2   27.17   10.65
   5   0  -2   34.51    6.70
  -5   0   2   28.22    6.38
  -5   0   2   25.66    6.64
  -3   1  -7  424.97   25.44
   3  -1   7  411.60   20.12
   3  -1   7  473.16   28.50
   3  -1   7  441.53   21.60
   3  -1   7  371.53   18.99
  -1   8  -2   31.66    5.26
  -1   8  -2   21.80    5.52
  -1   8  -2   22.82    4.61
   1  -8   2   27.33    8.67
   4   1  -8   97.82    6.83
  -4  -1   8  110.90   10.78
   4   1  -8   99.36    6.98
   4   1  -8  115.33   20.49
   4   1  -8   90.08   20.92
   2   4  -9  265.33   20.35
   2   4  -9  260.69   45.69
  -2  -4   9  239.32   43.53
   2   4  -9  281.53   15.31
   2   4  -9  312.65   16.52
  -2  -4   9  320.34   17.92
   5  -3   0  492.63   27.45
   5  -3   0  483.32   33.39
  -5   3   0  557.70   24.60
   5  -3   0  517.15   26.62
   5  -3   0  431.15   22.31
   5  -3   0  528.59   24.09
   3   5   0    6.60    2.97
   3   5   0    1.31    1.57
   3   5   0    1.56    1.30
   3   5   0    5.08    1.97
   3  -6  -6    2.78    2.42
  -3   6   6    3.47    3.07
   3  -6  -6    1.93    1.21
   3  -6  -6    1.07    2.00
  -3   6   6    2.39    2.24
  -3   6   6    2.51    2.23
  -3   6   6    2.89    2.21
   3  -3   7   81.83   20.95
   3  -3   7   91.88   16.16
  -3   3  -7   21.45   11.21
   3  -3   7   83.44   16.17
   5  -2  -5  478.68   33.24
   5  -2  -5  514.63   27.79
   5  -2  -5  474.95   21.79
   5  -2  -5  503.84   26.93
   5  -2  -5  451.15   20.71
   3   5  -5    6.02    2.53
   3   5  -5    1.92    2.37
  -3  -5   5    3.39    2.30
   3  -5   6   48.99   13.78
  -3   5  -6   29.87    7.16
   3  -5   6   31.87    7.96
   3  -5   6   42.53    9.64
  -3   5  -6   32.42   10.75
   5  -1  -5   10.75    2.84
   5  -1  -5   12.13    4.00
   5  -1  -5    7.33    2.88
  -5   1   5   11.37    3.69
   5  -1  -5   11.88    5.22
   5  -1   0    7.91    2.80
  -5   1   0    9.13    3.08
   5  -1   0    2.94    2.57
   5  -1   0    5.16    2.97
   5  -1   0    2.87    2.86
   5  -1   0    6.85    3.15
  -2   7  -5   79.65   13.86
  -2   7  -5   63.08   12.27
  -2   7  -5   75.51   20.21
   2  -7   5   75.68   17.87
   5   0  -4    7.39    3.17
   5   0  -4   13.15    3.94
   5   0  -4   10.36    2.87
  -5   0   4   10.83    3.53
  -5   0   4   15.41    4.36
   5   0  -4   12.04    4.34
   4  -5  -6    5.85    3.31
   4  -5  -6    6.79    2.59
   4  -5  -6    5.92    3.91
  -4   5   6    4.17    2.67
  -3   7  -3  144.54   32.22
   3  -7   3  139.66   25.20
  -3   7  -3  139.12   17.18
   3  -7   3  152.91   18.19
   3  -7   3  148.07   25.57
  -3   7  -3  138.31   25.04
   3  -7   3  162.23   15.48
   0   7  -6    3.88    3.91
   0   7  -6   -0.24    2.65
   0   7  -6    0.86    3.05
   0  -7   6    3.90    3.24
   0   7  -6    1.13    2.47
   0  -7   6    0.85    1.49
  -2   8   0  319.14   32.18
   2  -8   0  196.35   27.11
  -2   8   0  280.50   30.34
   2  -8   0  213.35   12.17
  -2   8   0  231.56   16.19
   3   0 -10   40.37   18.77
   3   0 -10   81.16    8.14
   3   0 -10   55.02   16.70
   3   0 -10   48.63   16.66
  -2   5   8  155.06   13.77
  -2   5   8   75.59   18.85
  -2   5   8   81.79   22.54
   2  -5  -8   63.40   21.41
  -4   6   4  142.59   29.94
   4  -6  -4  115.22    7.42
   4  -6  -4  142.27   25.08
   4  -6  -4  119.27   11.69
  -4   6   4  120.27   26.86
   5  -4  -2  117.91   27.91
   5  -4  -2  104.16   22.56
  -5   4   2  107.52   15.34
   5  -4  -2   92.34    9.89
   5  -4  -2  112.32   21.29
  -2   8  -1  416.36   24.56
   2  -8   1  476.24   21.93
  -2   8  -1  502.70   27.36
  -2   8  -1  436.80   24.40
   2  -8   1  487.34   24.03
  -2   4   9   18.83   10.12
  -2   4   9   30.31    7.54
  -2   4   9   36.83   11.23
   2  -4  -9   31.43   11.55
  -2   4   9   33.85    7.66
  -3   6  -5  158.49   15.10
  -3   6  -5  143.70   20.19
   3  -6   5  116.10   28.70
   3  -6   5  142.15   29.04
   3  -6   5  155.09   24.12
   3  -6   5  121.88   27.08
   2   5   4   50.37    9.73
   2   5   4   46.25    9.50
   2   5   4   47.51    8.34
  -2  -5  -4   33.83    8.36
   2   5   4   33.49   10.03
   2   5   4   43.48    9.59
   4  -3  -8   56.48   13.30
   4  -3  -8   36.83   16.05
   4  -3  -8   42.08   14.69
  -4   3   8   44.03   15.94
   4  -3  -8   48.74   14.84
  -1   7  -6    4.38    2.86
  -1   7  -6   19.05    4.10
   1  -7   6   12.47    3.54
  -1   7  -6   13.89    6.12
   1   5   6  279.33   40.47
   1   5   6  314.45   27.32
   1   5   6  320.39   35.97
   1   5   6  355.19   20.21
   1   5   6  284.83   29.76
   1   5   6  344.76   19.13
  -1  -5  -6  350.38   18.90
   1   5   6  280.48   48.39
   5   0  -1  487.26   23.42
   5   0  -1  521.80   23.00
   3  -1 -10    9.95    6.15
   3  -1 -10    5.70    4.52
  -3   1  10    1.56    3.73
   3  -1 -10    1.09    1.38
   3  -1 -10    5.97    2.92
   3  -1 -10    1.17    2.66
  -1   8   1    6.24    2.91
  -1   8   1    9.61    3.00
  -1   8   1   12.30    4.45
  -1   8   1    8.24    4.23
   1   7  -5  108.37   17.96
   1   7  -5  102.63   20.86
   1   7  -5  104.87   27.57
  -1  -7   5  130.90   17.65
   1   7  -5   96.95   17.96
   1   7  -5  126.92   28.41
   0   5  -9  126.79   20.20
   0   5  -9  124.65   26.27
   0  -5   9  125.28   25.36
   0  -5   9  115.34   20.40
   5  -4  -1    8.87    2.61
   5  -4  -1   11.09    2.56
   5  -4  -1    6.58    3.37
   5  -4  -1    6.14    3.73
  -5   4   1    3.94    1.78
   5  -4  -3  143.60   11.25
  -5   4   3  153.58   28.46
   5  -4  -3  161.25   20.24
   5  -4  -3  146.42   11.98
   4  -6   2  116.85   23.26
  -4   6  -2   69.98   18.18
   4  -6   2  114.19   16.38
   4  -6   2   82.77   22.43
   4  -6   2  110.29   11.39
   4  -6   2  109.34   12.23
   3   4   3    7.91    3.32
   3   4   3   12.11    3.07
   3   4   3    9.24    2.85
   3   4   3   10.39    5.03
  -3   7   4  200.97   31.69
  -3   7   4  184.59   20.80
  -3   7   4  157.72   20.22
   3  -7  -4  133.80   33.03
  -3   7   4  192.90   21.59
   3  -7  -4  209.69   12.56
  -2   8   1  907.23   38.35
  -2   8   1 1039.57   43.34
   2  -8  -1 1080.62   23.51
   2  -8  -1 1068.32   43.98
  -2   8   1 1087.99   44.99
  -2  -5   8  124.87   12.29
   2   5  -8  130.03   19.88
  -2  -5   8   79.76   19.99
   2   5  -8  114.41   25.45
   2   5  -8  109.04   20.44
   2   5  -8   95.80   17.76
   2   5  -8   87.17   14.46
   4   3  -6   58.68   17.53
  -4  -3   6  117.81   18.14
   4   3  -6   89.31   15.19
   4   3  -6  128.66   22.29
   4   3  -6  108.68   17.34
  -1   8  -3   44.42    8.11
  -1   8  -3   47.26   10.39
   1  -8   3   41.51   10.73
  -1   8  -3   46.41    7.86
   2   6  -6 1089.13   21.56
  -2  -6   6 1020.04   42.60
   2   6  -6  913.67   37.89
   2   6  -6  945.57   39.23
  -1   4   9  101.36   21.46
  -1   4   9  114.25   24.51
  -1   4   9   92.76   25.95
   1  -4  -9   96.88   30.49
  -1   4   9  104.19   24.60
  -1   5   8   52.78   25.78
  -1   5   8   82.43   18.61
   1  -5  -8   59.67   25.19
  -1   5   8   85.95   15.37
  -1   5   8   88.90   21.50
  -1   5   8   56.26   18.11
   4  -2   5   -0.20    2.94
   4  -2   5    2.13    2.37
   4  -2   5    2.79    1.99
   4  -2   5    4.08    3.33
   2   3 -10    3.56    2.97
  -2  -3  10    1.56    4.74
   2   3 -10    9.47    7.02
  -2  -3  10    4.86    3.92
   2   3 -10    1.86    2.96
   2   3 -10    2.36    2.06
   5  -3  -5    1.91    2.55
   5  -3  -5    1.99    2.51
   5  -3  -5    1.40    1.81
   5  -3  -5    0.65    4.14
  -5   3   5    1.32    1.66
   5  -3  -5    1.99    2.57
   2  -7  -5  535.55   26.47
  -2   7   5  474.90   23.94
  -2   7   5  553.45   27.36
  -2   7   5  582.73   29.78
   0   6  -8   52.42   12.79
   0  -6   8   47.63   11.99
   0   6  -8   57.57   19.96
   0  -6   8   27.26   15.43
   0  -6   8   50.66   11.11
  -2   8  -2  365.90   31.80
  -2   8  -2  383.11   30.81
  -2   8  -2  295.00   25.39
   2  -8   2  294.52   17.46
   1   2   9  478.88   37.29
   1   2   9  436.95   49.98
  -1  -2  -9  539.44   26.22
   1   2   9  510.50   26.64
  -1  -2  -9  521.20   23.27
   3   1 -10   13.84    6.15
   3   1 -10    7.75    2.68
   3   1 -10   16.03    4.99
   5  -2   1  186.16   12.63
   5  -2   1  176.69   15.13
   5  -2   1  210.97   21.69
   5  -2   1  151.91   10.35
   5  -2   1  156.93   22.70
  -1   1 -10   -4.00    3.66
  -1   1 -10    4.69    3.75
   1  -1  10    3.48    2.07
   1  -1  10    3.21    3.86
   1   5  -9  280.82   24.88
  -1  -5   9  348.11   18.55
   1   5  -9  340.11   33.09
   1   5  -9  309.63   24.45
  -1  -5   9  317.41   33.99
  -1  -5   9  277.01   23.29
   5   0  -5   12.75    4.72
   5   0  -5   17.98    3.58
  -5   0   5   19.30    6.44
   5   0  -5   17.30    5.48
   5   0  -5   18.78    4.85
   1  -2  10  461.15   33.61
  -1   2 -10  468.23   22.63
   1  -2  10  472.83   24.40
  -1   2 -10  532.70   25.17
   1  -2  10  509.76   24.28
   4  -3   5    5.45    4.37
   4  -3   5    6.33    2.18
   4  -3   5    2.29    2.13
   4  -3   5    9.48    3.49
   0   8  -1   25.76    4.68
   0   8  -1   34.26    6.43
   0   8  -1   42.05   11.81
   0   8  -1   47.45    8.81
   3   0   7   53.36   16.86
   3   0   7   54.41   14.82
   3   0   7   39.22   21.89
   3   0   7   27.35    9.68
  -3   0  -7   49.42    6.95
   3   0   7   48.94   10.88
   0  -8   2    6.55    2.65
   0   8  -2    2.44    2.66
   0   8  -2    4.73    4.64
   0   8  -2    3.75    3.72
   0   8  -2    5.73    3.97
   2   6   2  352.41   24.62
   2   6   2  331.94   16.15
   2   6   2  344.03   17.67
   2   6   2  426.74   20.74
   2   6   2  411.72   28.57
   0  -6  -6  201.06   13.68
   0   6   6  162.07   33.38
   0   6   6  253.35   28.83
   0   6   6  185.87   30.30
   0   6   6  108.31   31.56
   0   6   6  148.78   28.61
   0   6   6  199.77   14.54
   0   6   6  181.96   38.97
   5  -4   0   16.34    4.65
   5  -4   0    8.43    2.65
   5  -4   0   12.62    3.89
  -5   4   0   13.84    5.43
   5  -4   0   13.43    4.48
   5  -4   0   17.90    4.94
  -3  -3   9   79.63   25.41
   3   3  -9   75.17   15.25
   3   3  -9   93.75   22.09
   3   3  -9   77.28   20.07
   5  -4  -4   77.81   20.16
   5  -4  -4   77.41    8.42
  -5   4   4   96.53   21.39
   5  -4  -4   60.54   11.20
   5  -4  -4   83.10   22.53
   5  -4  -4   85.73   20.92
  -1  -1  11   31.82    7.02
   1   1 -11   18.59    8.69
  -1  -1  11   26.13    6.45
   1   1 -11   22.35    8.11
   1   1 -11   23.74    5.14
   4   3   1   27.61    7.86
   4   3   1   24.94    7.79
   4   3   1   23.96    8.46
   4   3   1   25.68   10.99
   5  -3   1    1.52    2.07
   5  -3   1    3.05    2.67
   5  -3   1    2.21    2.32
   5  -3   1    4.57    3.22
   5  -3   1    6.24    2.57
   5  -3   1    4.03    2.56
   0   7   4  293.17   36.84
   0   7   4  293.32   44.42
   0   7   4  284.36   36.33
   0   7   4  294.91   28.43
   0  -7  -4  291.26   27.44
   0   7   4  265.45   45.53
   0   7   4  205.29   34.07
  -2   6   7  210.65   24.06
  -2   6   7  254.03   25.96
   2  -6  -7  249.16   20.06
  -2   6   7  211.58   43.93
   2  -2   9   58.71    6.70
   2  -2   9   62.99   13.71
   2  -2   9   55.84   11.17
   2  -2   9   84.94   17.93
   2  -2   9   39.01   14.50
  -2   2  -9   66.15   10.94
  -2   2  -9   45.19   17.20
   1   7   2   82.92   15.09
   1   7   2   90.83   17.50
   1   7   2   82.34   15.60
   1   7   2   90.03   14.24
   1   7   2   74.45   18.95
   1   7   2   82.89   15.64
   1   7   2   81.99   14.62
   4  -1   5  122.05   16.41
   4  -1   5  139.83   27.55
   4  -1   5  100.79   24.34
   4  -1   5  160.85   25.32
   1  -7  -5  349.45   29.67
  -1   7   5  311.22   35.76
  -1   7   5  343.03   41.19
  -1   7   5  238.88   54.78
  -1   7   5  349.98   35.98
  -3   4  -7    1.84    2.37
  -3   4  -7    2.54    2.82
   3  -4   7    5.59    3.93
   3  -4   7    6.29    3.70
   3  -4   7    3.93    1.63
   3  -4   7   11.64    3.12
   1   0 -11   22.03    6.19
  -1   0  11   23.06    5.41
  -1   0  11   18.57    3.96
   1   0 -11   21.47    6.36
   1   0 -11   17.52    6.55
   3   5   1  362.05   32.85
   3   5   1  303.41   23.01
   3   5   1  285.44   21.75
   3   5   1  306.95   23.25
   5   0   0  258.26   46.10
   5   0   0  228.64   22.94
   5   0   0  288.66   21.95
   5   0   0  284.99   22.80
   2  -6   7   40.82   10.10
  -2   6  -7   36.28   12.67
   2  -6   7   52.20   12.11
  -2   6  -7   44.61   10.46
   0   2  10   35.77    9.26
   0  -2 -10   36.65    5.83
   0  -2 -10   29.83    7.04
   0   2  10   23.23    8.53
  -3   2  10  486.42   35.18
  -3   2  10  495.74   51.17
   3  -2 -10  498.46   35.75
   3  -2 -10  448.00   38.42
  -3   2  10  400.23   69.94
   3  -2 -10  540.42   39.38
  -3   2  10  565.64   42.23
   2  -8  -2  169.66   30.37
  -2   8   2  164.48   30.97
  -2   8   2  194.55   36.15
  -2   8   2  166.94   29.25
   3   5  -6    3.03    2.00
  -3  -5   6    1.14    2.20
   3   5  -6    1.52    2.49
   4  -5   4    3.62    3.02
   4  -5   4    0.09    1.90
   4  -5   4    0.75    1.64
   4  -5   4    1.13    3.02
   4  -5   4    0.32    4.14
  -2   1  -9   59.81   15.19
   2  -1   9   58.97   21.88
   2  -1   9   65.67   14.86
   2  -1   9   58.67   16.28
  -2   1  -9   72.72   23.13
   2  -1   9   97.67   22.65
   0   8   0    4.10    3.47
   0   8   0    3.62    2.82
   0   8   0    2.42    2.18
   0   8   0    2.32    2.91
  -1  -4  10  212.75   40.28
   1   4 -10  230.72   41.23
   1   4 -10  238.56   30.83
   5  -1  -6  139.29   15.71
   5  -1  -6  170.29   32.88
  -5   1   6  163.86   31.62
   5  -1  -6  146.52   15.90
   5  -1  -6  154.95   15.24
   4  -1  -9   61.99   16.40
   4  -1  -9   39.34   14.41
   4  -1  -9   51.99   10.37
   5  -2  -6   19.83    4.83
   5  -2  -6   18.16    4.23
   5  -2  -6   26.58    5.84
   5  -2  -6   11.48    4.95
   5  -2  -6   23.59    6.86
   5  -1   1   58.48   12.65
   5  -1   1   37.13   16.44
   5  -1   1   46.81   12.25
   5  -1   1   49.11   11.36
  -1   8   2  120.03   21.25
  -1   8   2  101.95   23.74
   1  -8  -2   47.52   26.60
  -1   8   2   88.38    7.49
  -1   8   2   91.06   19.40
  -2   3  10   91.18   19.30
  -2   3  10   74.40   15.11
  -2   3  10   85.50   11.57
  -2   3  10   79.42   20.30
   2  -3 -10   55.70   19.17
   3   4  -8   30.68    7.10
   3   4  -8   33.68    8.49
   3   4  -8   41.80    8.76
  -3  -4   8   33.28    9.29
   2   3   7  338.86   25.86
   2   3   7  312.49   26.53
   2   3   7  325.26   49.38
   2   3   7  209.63   39.77
   0  -4  10   38.05    8.79
   0   4 -10   77.37   17.14
   0   4 -10   75.43   14.05
   0  -4  10   56.02   10.11
   0  -8   3   29.04    7.60
   0   8  -3   43.54   10.32
   0   8  -3   29.47    5.92
   0  -8   3   57.41   14.22
   0   8  -3   46.16    8.34
  -5  -1   3   52.18   17.70
   5   1  -3   47.90   11.75
  -5  -1   3   54.24   18.40
   5   1  -3   54.53   10.55
   2  -5   8  557.69   44.28
   2  -5   8  534.20   39.62
  -2   5  -8  555.76   47.30
  -2   5  -8  616.34   44.39
   4   1   4  269.25   21.22
   4   1   4  231.31   35.25
   4   1   4  234.24   29.27
   4   1   4  247.16   35.78
   4   1   4  256.12   24.70
   4   1   4  220.61   32.88
  -1   0 -10   93.81    8.50
   1   0  10  107.83   23.67
   1   0  10  112.27   25.89
  -1   0 -10  109.39   27.02
   4   0  -9   86.97   23.25
   4   0  -9   91.65   19.64
  -4   0   9  105.61   14.99
   2   0 -11  197.24   31.79
  -2   0  11  199.09   20.16
  -2   0  11  187.99   21.16
   2   0 -11  184.74   23.54
   2   0 -11  183.32   15.03
   2   0 -11  222.41   28.02
   2   0 -11  232.86   20.61
   3  -5  -8    1.85    1.80
   3  -5  -8    4.50    2.54
  -3   5   8    5.58    3.32
  -3   5   8    4.05    2.49
   3  -5  -8    5.74    3.30
  -3   5   8    6.30    3.10
  -4   6   5  140.74   27.08
  -4   6   5  106.44   29.08
   4  -6  -5  123.47   15.38
   4  -6  -5  118.03   10.85
   4  -6  -5  106.22   14.10
  -1   6  -8    6.15    2.24
  -1   6  -8    4.35    2.58
   1  -6   8    9.84    3.10
   1  -6   8    3.26    2.42
   5   1  -2  338.45   41.54
   5   1  -2  374.13   29.15
   2  -8   3   16.60    5.58
  -2   8  -3    6.85    2.94
  -2   8  -3   15.27    4.43
  -2   8  -3   15.88    4.74
   2   4   6   48.86   18.34
  -2  -4  -6   37.86   11.67
   2   4   6   42.57    7.89
   2   4   6   12.66    9.05
   2   4   6   25.66   12.11
   2   4   6   44.48   14.44
   2   4   6   47.28    8.84
   2   4   6   53.34   11.95
   1  -3 -10    3.43    2.98
  -1   3  10    4.56    1.89
  -1   3  10    3.39    3.96
  -1   3  10    4.76    2.47
  -1   3  10    4.83    3.93
   4   2   3   64.36   14.87
   4   2   3   60.85   12.70
   4   2   3   60.59    7.10
   4   2   3   30.04   12.47
   4   2   3   58.77   15.58
   4   2   3   65.14   20.47
   4   2  -8   66.54   16.35
   4   2  -8   56.28   12.97
  -4  -2   8   65.44   15.68
   4   2  -8   56.10   12.00
   4   2  -8   58.52   10.67
   1  -8   4   99.18   25.66
  -1   8  -4   93.44   15.47
  -1   8  -4   77.99   15.56
  -1   8  -4  107.05   17.76
  -1   6   7   63.88   17.67
  -1   6   7   79.75   15.59
   1  -6  -7   63.15   25.43
  -1   6   7   56.22   19.11
  -1   6   7   64.79   15.63
  -1   6   7   78.92   15.53
  -1  -2  11   87.45   17.25
   1   2 -11   93.83   23.47
   1   2 -11   93.60   13.03
   2  -3   9  529.95   38.57
  -2   3  -9  554.40   40.40
   2  -3   9  553.58   41.63
   2  -3   9  590.80   47.13
  -2   3  -9  623.36   45.57
   2  -3   9  456.96   33.50
   1   6  -8   57.99    9.90
   1   6  -8   31.42    9.77
  -1  -6   8   42.15   16.06
  -1  -6   8   41.96   10.56
  -1  -6   8   58.28   16.30
   1   6  -8   51.65   12.31
   5   1  -4    9.32    2.78
  -5  -1   4   10.62    3.81
   5   1  -4    5.08    2.86
  -5  -1   4    7.49    7.65
   5   1  -4   13.31    3.85
   1  -3  10   26.89    7.36
  -1   3 -10   31.26    6.69
  -1   3 -10   27.36   10.18
   1  -3  10   40.94   10.14
   1  -3  10   20.82    7.80
   3  -4  -9  273.77   22.78
   3  -4  -9  207.89   28.77
  -3   4   9  265.50   36.69
  -3   4   9  333.74   27.24
  -3   4   9  236.39   30.67
   3  -4  -9  259.33   42.20
   3  -7   4  220.42   40.89
   3  -7   4  172.32   31.03
  -3   7  -4  214.56   36.90
   3  -7   4  231.81   33.21
  -3   7  -4  218.66   20.69
   3  -7   4  172.31   35.78
  -3   7  -4  231.16   25.01
   2   1 -11  111.25   18.50
  -2  -1  11  179.16   25.28
   2   1 -11  157.21   32.26
   2   1 -11  171.03   31.06
   3   2   6   18.19    4.67
   3   2   6   15.99    5.32
   3   2   6   21.13    6.27
   3   2   6   17.63    4.41
  -1   5  -9    2.12    1.68
   1  -5   9   -0.86    3.08
  -1   5  -9    1.79    1.71
   1  -5   9    4.88    2.79
   3   3   5    1.82    2.49
   3   3   5    6.96    2.59
   3   3   5   -0.84    3.17
   3   3   5    3.58    2.81
   4  -2  -9   23.32    7.25
   4  -2  -9   23.86    9.22
   4  -2  -9   37.13   10.45
   4   4  -3   20.41    3.69
   4   4  -3   10.36    2.81
   4   4  -3   16.57    4.41
   4   4  -3    9.57    2.59
   4   4  -3    5.40    3.94
   4  -6   3   28.37    5.82
   4  -6   3   29.30    5.98
   4  -6   3   32.85    9.24
   4  -6   3   27.44    6.00
   4  -6   3   23.64    6.93
  -4   6  -3   13.58    3.73
   4  -4   5    3.24    3.20
   4  -4   5    5.03    2.68
   4  -4   5    5.46    2.36
   1   7  -6  368.95   53.20
   1   7  -6  376.95   35.69
   1   7  -6  352.29   29.64
   1   7  -6  361.36   50.28
  -1  -7   6  408.38   30.94
  -1  -7   6  371.98   29.64
   1   7  -6  364.40   44.22
   5   0  -6   10.74    2.74
   5   0  -6   15.59    4.21
  -5   0   6   15.35    3.49
   5   0  -6   10.00    3.28
  -1   1  11    2.22    1.90
   1  -1 -11    3.37    5.33
   1  -1 -11    3.31    2.64
   1  -1 -11    2.43    2.87
  -1   1  11    2.17    1.77
   4   4  -2   20.98    5.33
   4   4  -2   16.69    8.25
   4   4  -2   13.50    4.41
   4   4  -2   11.45    4.97
   4   4  -2   24.77    7.43
  -3  -2  10  543.91   39.87
   3   2 -10  498.01   36.73
   3   2 -10  481.23   35.47
   3   2 -10  476.44   34.65
   5  -4   1    5.72    3.53
   5  -4   1    3.45    3.79
   5  -4   1    4.87    2.33
   5  -4   1    2.79    1.71
   5  -4   1    3.66    3.65
   5  -4   1    5.57    1.98
   5  -3  -6    5.32    2.39
   5  -3  -6    1.58    2.13
   5  -3  -6    2.00    1.63
   5  -3  -6    3.12    3.09
   5  -3  -6    3.97    2.95
   2   2   8   44.16    8.85
   2   2   8   31.13   11.72
   2   2   8   60.21   14.74
   2   2   8   33.66    6.16
   2   2   8   51.48   14.13
   2   2   8   21.19    6.09
   2   2   8   43.89    6.73
   0   8   1   88.60    7.87
   0   8   1  103.11   19.15
   0   8   1  103.61   23.62
   0   8   1  121.22   23.78
   0   8   1   69.04   18.85
   4  -7  -1  110.83   26.79
  -4   7   1  136.20   21.32
   4  -7  -1  105.68    7.23
   4  -7  -1   99.51    9.81
  -4   7   1  121.05   19.92
  -4   7   1  120.98   21.85
   5  -4  -5    3.96    3.63
   5  -4  -5    1.30    1.76
   5  -4  -5   -0.73    1.85
   5  -4  -5    2.99    1.61
   5  -4  -5    1.44    2.60
  -5   4   5    2.91    3.28
   2  -1 -11   95.25   19.30
  -2   1  11   81.93   16.14
   2  -1 -11  107.51   10.77
  -2   1  11   95.07   21.25
   2  -1 -11   48.39   18.57
   2  -1 -11   59.65   24.21
   2  -1 -11   35.21   22.22
   5  -5  -2   72.34   18.31
   5  -5  -2   64.77    9.25
  -5   5   2   70.54   13.24
   5  -5  -2   76.49   13.30
   4   3  -7  248.83   27.60
   4   3  -7  295.42   22.66
   4   3  -7  279.02   21.45
   4   3  -7  307.98   35.00
  -4  -3   7  297.45   28.19
   2   0   9    2.07    1.96
   2   0   9    1.78    1.71
  -2   0  -9    4.87    2.26
   2   0   9    1.69    1.41
  -2   0  -9    1.43    4.33
   2   0   9    7.46    4.94
   5   1  -1  175.08   15.49
   5   1  -1  147.81   33.62
   5   1  -1  130.25   26.26
  -4  -4   4   26.73   10.64
   4   4  -4   22.78    5.64
   4   4  -4   22.93    5.22
   4   4  -4   24.11    6.61
   1   6   5  140.32   27.39
   1   6   5  105.42   27.51
   1   6   5  128.86   25.78
  -1  -6  -5  141.50   17.99
   1   6   5  127.36   29.96
   1   6   5  102.65   35.44
   1   6   5  146.64   19.84
   1   6   5  156.77   38.03
  -3   7   5    6.51    3.06
   3  -7  -5    2.97    2.33
   3  -7  -5   11.34    2.95
  -3   7   5    9.31    3.58
  -3   7   5    8.94    2.63
  -3   7   5   11.46    3.42
   4  -4  -8  166.96   30.11
   4  -4  -8  152.43   28.77
   4  -4  -8  182.68   19.05
  -4   4   8  189.27   39.66
   0  -1  11   31.85    7.37
   0   1 -11   29.51    7.05
   0   1 -11   36.61    8.49
   0   1 -11   20.08    7.44
   0  -1  11   37.35    7.98
   4  -7   0    5.60    2.64
  -4   7   0    2.53    2.51
  -4   7   0   10.73    3.90
   4  -7   0    4.12    2.99
   4  -7   0    3.65    2.41
  -4   7   0    9.42    2.38
  -5   5   1   26.14    6.01
   5  -5  -1   15.05    5.55
   5  -5  -1   34.42    6.85
   5  -5  -1   31.09    6.46
   5  -5  -1   41.12   10.10
   5  -5  -1   33.72    8.80
   0   8  -4    4.71    3.51
   0  -8   4    7.76    3.01
   0   8  -4    7.76    4.69
   0  -8   4    8.76    2.68
   0   8  -4    9.87    4.15
  -2   7  -6  252.31   25.08
   2  -7   6  265.89   21.38
   2  -7   6  242.69   33.16
  -2   7  -6  240.18   25.28
   4  -5  -7    1.48    2.65
   4  -5  -7   -0.36    3.87
   4  -5  -7    2.81    1.85
  -4   5   7    0.65    2.03
   4  -7  -2   71.36   17.14
   4  -7  -2   67.07   19.06
  -4   7   2   56.84   11.59
  -4   7   2   63.20   13.13
  -4   7   2   37.39    8.83
  -4   7   2   46.92   11.93
   4  -7  -2   71.19   14.36
   0  -7   7   28.50    7.02
   0   7  -7   29.10    8.97
   0   7  -7   24.07    5.35
   0  -7   7   17.42    7.32
   0  -7   7   36.47   10.58
   4   0   5  351.50   26.97
   4   0   5  312.85   32.85
   4   0   5  273.70   31.89
   4   0   5  303.48   24.68
   4   0   5  356.90   28.67
   4   0   5  309.85   24.20
  -2  -6   7   50.77   18.30
  -2  -6   7   66.03   17.59
  -2  -6   7   31.47   11.69
   2   6  -7   43.60    8.10
   2   6  -7   59.51   11.76
   2   6  -7   68.41   17.56
   2   6  -7   42.54    9.92
   5  -2   2    5.67    4.21
   5  -2   2    5.06    2.25
   5  -2   2    0.97    2.83
   5   1  -5   88.83   19.57
  -5  -1   5   96.24   25.79
   5   1  -5   91.32   12.83
   5   1  -5   93.49   17.01
   5   1  -5  109.59   15.99
  -2   8   3    9.52    2.74
   2  -8  -3   11.38    5.56
  -2   8   3    9.22    3.33
  -2   8   3   20.75    6.54
  -3   8   0  275.92   34.17
   3  -8   0  314.65   32.41
   3  -8   0  254.72   47.46
  -3   8   0  325.97   48.42
   3  -8   0  329.71   28.50
   3  -8   0  291.47   31.52
  -3   8   0  308.51   48.04
  -5   5   3   51.06   12.20
   5  -5  -3   52.78   12.07
   5  -5  -3   56.16   13.73
   5  -5  -3   54.45   15.47
  -3   6   7  156.74   25.74
   3  -6  -7  123.73   29.51
  -3   6   7  153.21   34.25
   3  -6  -7  114.90   24.59
   3  -6  -7  198.42   17.17
  -3   6   7  169.58   34.81
  -3   6   7  166.81   39.15
   4   1  -9  153.35   23.37
   4   1  -9  185.36   19.18
  -4  -1   9  197.03   19.22
   3  -8  -1    5.15    2.07
  -3   8   1    9.01    6.47
  -3   8   1    6.15    2.84
   3  -8  -1    3.47    2.00
  -3   8   1   -0.21    2.58
   3  -8  -1    2.53    2.59
   5   0   1   11.18    3.53
   5   0   1   15.93    5.22
   5   0   1   17.80    6.11
   5   0   1   31.16    7.25
   5   0   1   25.96    6.27
   0   2 -11  153.14   23.92
   0  -2  11  115.01   19.00
   0   2 -11  114.82   22.75
   0  -2  11  157.10   27.39
   0   2 -11  134.42   32.08
   5  -3   2    2.39    2.36
   5  -3   2   12.77    4.69
   5  -3   2   20.94    5.69
   5  -3   2   19.27    5.37
   5  -3   2   17.21    5.75
   5  -3   2   17.17    3.48
   4   4  -1  334.66   45.14
   4   4  -1  393.24   29.89
   4   4  -1  346.50   37.93
   4   4  -1  440.68   41.99
   4   4  -1  388.82   37.00
   0   0 -11   -0.14    2.32
   0   0 -11    5.70    3.30
   0   0  11   14.17    3.70
   0   0  11    6.26    3.95
   0   0 -11    2.02    3.82
   2   2 -11  379.74   28.52
  -2  -2  11  426.65   35.50
   2   2 -11  411.32   36.58
   2   2 -11  465.47   35.33
   1  -7   7   59.32   10.03
   1  -7   7   80.70   18.42
  -1   7  -7   56.40   12.93
  -1   7  -7   60.06   11.23
  -1   8   3    3.60    3.91
   1  -8  -3    2.82    3.37
  -1   8   3    3.49    2.06
  -1   8   3    2.90    3.17
  -1   8   3   -1.82    4.20
  -3   8  -1 1129.03   84.27
  -3   8  -1 1086.03   77.88
   3  -8   1 1055.50   75.07
  -3   8  -1  933.91   69.89
   3  -8   1 1096.04   77.97
   3  -8   1  986.37   72.22
   3   1   7   18.55    5.78
   3   1   7   21.71    7.00
   3   1   7   22.15    7.95
   3   1   7   16.35    4.83
   2   7  -2  209.48   29.84
   2   7  -2  247.38   38.24
   2   7  -2  204.53   45.97
   3  -6   6   28.23    5.61
  -3   6  -6   31.89   12.27
   3  -6   6   16.84    7.12
   3  -6   6   22.58    6.25
   3  -6   6   38.95    9.16
  -3   6  -6   42.01   10.39
   4   3   2   -0.59    2.33
   4   3   2    2.63    3.83
   4   3   2    3.33    2.25
   4   3   2    4.55    3.26
   5  -5   0   61.87   17.18
   5  -5   0  102.60   18.94
   5  -5   0   90.25   21.45
   5  -5   0   92.64   19.56
   5  -5   0   79.10   15.47
   2   7  -3  178.08   26.50
   2   7  -3  186.60   32.60
   2   7  -3  209.24   34.95
   4  -7   1  585.03   50.58
   4  -7   1  535.44   41.09
   4   4  -5  314.88   30.15
  -4  -4   5  350.22   48.47
   4   4  -5  342.54   26.00
   4   4  -5  345.43   34.05
   3   5   2   25.84    5.96
   3   5   2   28.03    6.45
   3   5   2   26.25    5.76
   3   5   2   29.87    7.03
   3   4   4   50.15    9.38
   3   4   4   34.33    9.66
   3   4   4   31.09    8.05
   3   4   4   34.93    6.98
   1   7   3   32.08    7.90
   1   7   3   34.62    8.62
   1   7   3   24.64    6.21
   1   7   3   27.56    8.52
   1   7   3   26.64    6.25
   1   7   3   37.06    8.51
   1   7   3   18.24    6.10
  -1  -1 -10    3.13    4.14
   1   1  10    6.64    4.09
  -1  -1 -10   -1.80    3.44
   1   1  10    3.72    1.74
  -1  -1 -10    4.75    2.51
   2   6   3   12.34    3.93
   2   6   3   12.02    2.69
   2   6   3    3.12    3.09
   2   6   3   10.09    2.49
   2   6   3   14.74    3.56
  -3   3  10   15.73    3.86
   3  -3 -10   12.71    5.49
  -3   3  10   19.06    4.70
  -3   3  10   13.61    5.52
  -3   3  10   15.64    4.34
   3  -3 -10   18.06    3.59
   0   4   9  285.34   22.47
   0   4   9  240.44   57.32
   0   4   9  310.34   24.66
   0   4   9  234.46   43.12
   0  -4  -9  292.01   25.06
   0   4   9  280.72   35.41
   2   5   5   52.14    8.38
   2   5   5   60.44   11.73
   2   5   5   51.84   13.92
  -2  -5  -5   37.82   11.72
   2   5   5   39.87   15.41
   2   5   5   55.86   12.43
   3   5  -7   39.07    8.15
   3   5  -7   40.15    8.24
  -3  -5   7   38.91   10.24
   3   5  -7   40.32    8.26
  -2   8  -4  118.20   25.06
  -2   8  -4  108.87   17.28
  -2   8  -4   90.33   15.58
   2  -8   4  104.97   24.50
   5  -1  -7   55.79   11.73
   5  -1  -7   41.89   11.96
  -5   1   7   35.59   15.93
   5  -1  -7   45.81    9.46
   5  -1  -7   34.55   10.90
   5  -1   2  128.93   24.40
   5  -1   2   85.00   27.27
   5  -1   2  108.64    8.40
   5  -1   2  114.04   22.48
  -4   7   3   42.13    8.21
   4  -7  -3   52.96   14.92
  -4   7   3   63.44   13.85
  -4   7   3   38.48   10.48
   4  -7  -3   57.83   16.10
  -4   7   3   43.10   10.43
   4  -7  -3   69.49   15.38
   0  -5  -8   40.43   12.97
   0   5   8   38.30   10.80
   0   5   8   52.43   10.57
   0   5   8   31.09   16.94
   0   5   8   37.53   11.87
   0   5   8   33.75    6.77
   2  -4   9   92.98   24.03
   2  -4   9  130.10   25.40
  -2   4  -9  123.65   19.37
   2  -4   9  130.20   22.94
  -2   4  -9  134.67   23.46
   2  -4   9  136.03   25.14
   5  -2  -7    2.44    1.88
   5  -2  -7    2.35    1.92
   5  -2  -7    3.30    2.84
   5  -2  -7   -0.15    2.38
   5  -2  -7   -0.34    2.99
   1   3 -11 1182.77   81.68
   1   3 -11 1367.86   41.37
  -1  -3  11 1162.58   81.45
   3  -5   7   64.39   13.39
   3  -5   7   45.55   13.82
  -3   5  -7   52.65   10.52
   3  -5   7   79.79   15.70
   3  -5   7   76.70   19.86
  -3   5  -7   33.31   18.15
   1   4   8  285.59   23.08
   1   4   8  222.14   47.51
   1   4   8  268.53   42.40
   1   4   8  310.05   27.75
  -1  -4  -8  305.98   23.22
   1   4   8  262.40   23.06
   1   4   8  195.70   46.70
  -2   7   6   18.57    5.39
   2  -7  -6   11.45    4.32
  -2   7   6   17.85    3.73
  -2   7   6   22.02    6.75
   2   7  -1  130.64   26.27
   2   7  -1  105.81   21.51
   2   7  -1  102.66   19.68
   2   7  -1  109.13   17.63
  -3   8   2   82.00   13.00
  -3   8   2   98.64   16.63
   3  -8  -2   63.30   25.03
   3  -8  -2   50.99   13.87
  -3   8   2   77.46   15.94
   3  -8  -2   65.29   17.53
   4  -3  -9  131.89   11.54
   4  -3  -9  107.45   27.18
   4  -3  -9   82.35   31.75
   4  -3  -9  127.25   20.63
   5  -5  -4  129.56   15.66
  -5   5   4  119.75   22.50
   5  -5  -4  118.48   22.76
   5  -5  -4  139.92   29.93
   5   1   0  215.20   17.63
   5   1   0  199.03   33.81
   5   1   0  222.80   38.20
   2   4 -10   10.01    4.23
  -2  -4  10   18.35    6.48
  -2  -4  10   19.82    4.84
   2   4 -10   16.79    4.85
   2   4 -10   12.07    4.24
   2   4 -10   10.90    3.53
  -1   8  -5   85.15   15.20
  -1   8  -5   73.35   14.04
  -1   8  -5   92.98   21.14
   1  -8   5   80.65   17.46
   3  -2   8   50.58   12.42
   3  -2   8   63.37   13.56
  -3   2  -8   38.51   13.29
   3  -2   8   26.79   18.34
   3  -2   8   62.79   14.71
   3  -2   8   18.76    4.58
   2   5  -9   57.30   11.38
  -2  -5   9   38.67   11.73
   2   5  -9   58.89    8.82
  -2  -5   9   45.41   20.95
   2   5  -9   50.37    9.30
   2   5  -9   44.75   11.06
   0   8   2   23.90    5.48
   0   8   2   27.86    6.34
   0   8   2   32.22   10.14
   0   8   2   15.52    4.10
   0   8   2   29.11    6.58
   1  -4  10    4.39    2.15
   1  -4  10    7.84    4.56
  -1   4 -10    9.60    4.42
   1  -4  10    1.03    1.28
  -1   4 -10    5.46    2.57
   2   7  -4  104.68    8.38
   2   7  -4   88.54   17.93
   2   7  -4  102.29   20.36
   2   7  -4  121.17   20.92
  -2  -7   4   98.66   12.61
  -2   2  11    4.23    2.37
   2  -2 -11    5.02    2.66
   2  -2 -11    7.02    3.53
  -2   2  11    2.18    1.70
  -2   2  11    6.16    3.21
   4  -6  -6   45.89    8.69
   4  -6  -6   36.56    7.89
  -4   6   6   22.17    6.47
   4  -6  -6   30.33    8.13
  -4   6   6   23.64    7.29
  -4   6   6   26.03    8.48
  -4   6   6   24.92    5.46
   3  -8   2  109.91   20.31
  -3   8  -2  186.64   33.81
  -3   8  -2  186.48   20.85
  -3   8  -2  186.86   29.33
   3  -8   2  132.54   21.86
   3  -8   2  108.83   24.62
   0   7   5    5.33    2.11
   0   7   5    0.30    1.92
   0   7   5    2.40    3.00
   0   7   5    2.90    1.48
   0   7   5    3.10    3.97
   0  -7  -5    2.16    1.12
   0   7   5    2.08    2.30
   5  -4   2  184.82   24.16
   5  -4   2  167.14   36.80
   5  -4   2  200.95   34.90
   5  -4   2  181.72   43.85
   5  -4   2  186.77   22.70
   5  -4   2  178.63   17.99
   5   1  -6    1.53    2.07
   5   1  -6    0.47    1.87
   5   1  -6    2.78    1.49
  -5  -1   6    2.31    3.20
   5   1  -6    1.98    1.79
   3   6  -3  141.03   19.51
   3   6  -3  155.33   25.92
   3   6  -3  123.89   15.25
   3  -3   8    4.88    1.94
  -3   3  -8    8.29    2.74
   3  -3   8   27.36    8.86
   3  -3   8   26.58    8.01
   3  -3   8   24.33    8.14
  -3   3  -8    7.01    2.77
   1   3   9    9.10    3.82
  -1  -3  -9   11.39    5.12
   1   3   9    8.68    4.61
   1   3   9    8.69    6.30
   1   3   9   18.91    4.79
   1   3   9    9.09    2.98
   5  -4  -6    8.62    2.43
   5  -4  -6   10.48    3.58
   5  -4  -6    4.73    1.94
   5  -4  -6    5.46    1.65
   5  -4  -6    2.96    3.01
  -5   4   6    8.80    4.80
   4   4   0  171.74   22.50
   4   4   0  177.39   17.74
   4   4   0  183.01   36.48
   4   4   0  111.12   29.33
   4   4   0  196.54   31.72
   3  -1   8  288.30   34.56
   3  -1   8  303.83   21.50
  -3   1  -8  349.82   24.73
   3  -1   8  302.02   23.06
   3  -1   8  277.69   20.39
   3  -1   8  353.32   28.12
   0  -8   5  329.37   22.88
   0   8  -5  335.08   26.13
   0   8  -5  293.14   32.72
   0   8  -5  351.29   40.96
   1   5   7  242.06   31.43
   1   5   7  291.09   23.69
   1   5   7  269.04   20.55
   1   5   7  224.87   34.60
   1   5   7  245.33   40.57
   1   5   7  205.31   43.87
   1   5   7  262.35   32.78
  -1  -5  -7  299.25   22.55
   3   6  -2   15.60    4.01
   3   6  -2   11.81    4.68
   3   6  -2   21.90    4.95
   3   6  -2   25.42    5.45
   2  -5  -9    4.77    2.88
  -2   5   9    7.70    4.40
  -2   5   9   10.15    3.90
  -2   5   9   13.26    4.72
  -2   5   9   18.06    5.49
   0   3 -11  135.76   19.81
   0  -3  11  128.29   24.92
   0   3 -11  109.29   22.95
   0  -3  11  113.48   25.35
   5   0  -7    2.99    2.11
   5   0  -7    1.24    1.95
   5   0  -7    1.26    2.06
  -5   0   7    1.91    2.23
  -1   2  11    5.60    2.09
   1  -2 -11    3.35    2.15
  -1   2  11    5.65    3.52
  -1   2  11    5.62    2.96
   1  -2 -11    3.81    5.49
   4  -5   5   15.82    3.66
   4  -5   5   11.54    3.97
   4  -5   5    9.21    2.99
   4  -5   5   14.07    5.37
   4  -2   6  118.64   25.62
   4  -2   6   59.17   34.85
   4  -2   6  121.07   20.16
   4  -2   6   99.76   14.46
  -1   7   6    2.48    3.29
  -1   7   6    2.10    1.68
  -1   7   6   -0.45    2.25
  -1   7   6    2.60    2.14
   1  -7  -6    0.97    2.06
   5  -5   1   17.20    5.60
   5  -5   1   19.59    4.90
   5  -5   1   20.06    5.72
   5  -5   1   19.25    5.15
   5  -5   1   11.64    4.77
   5  -5   1   14.81    5.38
  -3   7  -5   -1.10    3.73
   3  -7   5    2.75    2.48
  -3   7  -5    0.90    1.78
   3  -7   5    3.15    3.53
   3  -7   5    1.05    1.66
   3  -7   5    1.25    4.09
   2   1   9  145.95   23.76
  -2  -1  -9  138.10   12.90
   2   1   9  129.90   28.69
  -2  -1  -9  144.83   13.52
   2   1   9  157.16   14.97
   2   1   9  129.08   32.80
   2   1   9  158.63   20.51
   0   6  -9    3.10    4.85
   0   6  -9    4.94    2.37
   0  -6   9   11.64    3.82
   0  -6   9    7.05    2.98
   4  -6   4   91.13   20.12
   4  -6   4   79.65   18.65
   4  -6   4   76.59   18.34
   4  -6   4   89.97   27.39
  -4   6  -4   69.80   12.19
   2   7   0  345.43   23.46
   2   7   0  294.22   20.52
   2   7   0  352.44   39.44
   2   7   0  347.91   27.10
   2   7   0  374.01   28.79
   0   3  10  116.51   25.12
   0   3  10  111.46   18.27
   0   3  10  127.13   15.84
   0  -3 -10  120.18   20.17
   0   3  10  113.24   20.48
   0   1  11    5.29    2.81
   0   1  11    3.62    1.61
   0  -1 -11    1.05    1.10
   0  -1 -11    2.09    5.10
   0  -1 -11    6.04    2.51
   3   0 -11  554.78   36.99
   3   0 -11  397.04   30.61
   3   0 -11  446.39   53.83
   3   0 -11  445.65   30.18
  -3   0  11  446.56   57.70
   4  -7   2  193.52   49.23
   4  -7   2  265.40   19.82
  -4   7  -2  264.72   32.45
  -4   7  -2  225.73   35.61
   4  -7   2  261.85   25.71
   4  -7   2  257.68   22.68
   4  -7   2  249.74   31.31
  -4   7  -2  212.79   37.29
   5  -3  -7    3.15    1.76
   5  -3  -7    5.63    3.36
   5  -3  -7    3.37    2.59
   5  -3  -7    4.28    1.69
   5  -3  -7    5.28    2.27
   4  -3   6  127.98   12.24
   4  -3   6  120.12   25.86
   4  -3   6  146.17   28.62
   3   6  -4 1043.40   24.84
   3   6  -4  962.58   58.84
  -3  -6   4 1051.25   25.43
   3   6  -4  995.66   61.82
   1   7  -7  148.35   23.90
  -1  -7   7  135.63   19.34
   1   7  -7  119.92   25.77
  -1  -7   7  169.91   26.42
   1   7  -7  114.27   22.26
   1   7  -7  136.60   33.71
  -1  -7   7  112.72   33.56
   5   2  -3  199.05   36.25
   5   2  -3  289.27   35.44
  -5  -2   3  274.01   21.85
   5   2  -3  234.36   23.82
   3   4  -9   35.19    8.76
   3   4  -9   44.56    9.62
  -3  -4   9   37.62    8.28
   3   4  -9   36.10    5.37
   1   8  -2   93.23   16.38
   1   8  -2  140.43   22.19
   1   8  -2  129.72   12.28
   1   8  -2  125.54   25.41
   1   8  -2  136.82   23.12
   4   4  -6    5.17    2.27
   4   4  -6    6.70    2.28
  -4  -4   6   -0.07    2.54
   4   4  -6    5.35    3.07
   0   5 -10    9.96    3.54
   0   5 -10    8.34    4.24
   0  -5  10   10.80    3.86
   0  -5  10    5.37    2.98
  -2   8   4    7.84    3.07
  -2   8   4    3.53    2.23
  -2   8   4    9.41    3.03
   2  -8  -4    4.20    2.49
  -2   4  10    2.59    3.92
  -2   4  10    2.13    2.40
  -2   4  10    1.09    1.30
   2  -4 -10    3.49    3.94
  -2   4  10    9.45    4.06
   3  -8  -3   25.53    5.59
   3  -8  -3   20.69    4.08
  -3   8   3   33.59    6.40
  -3   8   3   15.67    5.63
   3  -8  -3   17.73    7.83
  -3   8   3   25.95   15.72
  -4   7   4  551.47   39.91
  -4   7   4  481.27   33.40
  -4   7   4  526.25   59.82
   4  -7  -4  568.30   38.40
   4  -7  -4  507.27   32.58
  -4   7   4  584.96   39.58
   4  -7  -4  454.75   30.38
   3   6  -1  526.69   33.71
   3   6  -1  614.89   43.03
   3   6  -1  539.46   35.62
   3   6  -1  597.92   53.12
   5   2  -4    3.87    2.68
  -5  -2   4    1.68    2.11
   5   2  -4    1.65    2.09
   5   2  -4    2.01    1.44
   3   3 -10  133.23   28.17
  -3  -3  10  130.31   16.30
   3   3 -10  115.95   13.77
   3   3 -10   93.19   31.49
  -3   1  11    6.69    3.79
   3  -1 -11    7.90    2.91
  -3   1  11   12.23    2.51
   3  -1 -11   10.98    2.82
   3  -1 -11   14.01    5.83
   3  -1 -11    4.37    3.56
  -3   1  11   11.86    6.37
   1   8  -1  326.03   44.38
   1   8  -1  274.99   45.07
   1   8  -1  293.72   21.31
   1   8  -1  317.40   41.02
   1   8  -1  357.30   52.93
   5   2  -2  221.77   27.86
   5   2  -2  138.95   41.60
   5   2  -2  246.29   38.39
   5   2  -2  264.30   19.38
   4   2   4   51.59   23.52
   4   2   4   77.19    7.09
   4   2   4   67.02   16.07
   4   2   4   76.60   17.08
   4   2   4   71.76   17.31
   0   6   7   43.84   11.87
   0   6   7   36.46   10.23
   0   6   7   29.23    8.68
   0  -6  -7   24.75   15.46
   0   6   7   30.33    6.11
   0   6   7   26.56   12.60
   0   6   7   39.07    9.92
   0   6   7   40.63   13.32
   4   2  -9  134.99   28.72
   4   2  -9  146.76   14.48
   4   2  -9  156.78   22.71
  -4  -2   9  149.31   17.01
   1   8  -3    6.95    2.53
   1   8  -3    3.47    2.52
   1   8  -3    1.63    3.75
  -1  -8   3    6.11    2.80
   1   8  -3    3.39    3.87
   1   8  -3    6.03    2.77
   4   3  -8  129.08   25.86
  -4  -3   8   95.39   23.45
   4   3  -8  131.88   25.50
   4   3  -8   90.92   19.41
   4   3  -8  117.16   21.16
  -2   6   8   34.39    7.30
  -2   6   8   47.01   10.59
  -2   6   8   52.69   10.43
   2  -6  -8   36.45   14.62
   1   5 -10   25.94    8.75
   1   5 -10   21.66    5.71
  -1  -5  10   22.16    8.04
   1   5 -10   18.29    4.04
   4  -1   6   12.07    6.28
   4  -1   6    8.65    5.69
   4  -1   6    6.05    2.14
   4  -1   6    1.96    3.47
  -2  -7   5  388.70   42.48
   2   7  -5  343.45   23.51
   2   7  -5  368.21   40.81
   2   7  -5  380.57   38.95
   5  -5  -5   25.10    6.17
  -5   5   5   18.99    5.46
   5  -5  -5   21.93    6.52
   5  -5  -5   19.81    5.21
   5  -5  -5   21.47    5.95
   5   0   2   14.50    4.13
   5   0   2   14.71    3.94
   5   0   2   21.25    5.77
   5   0   2   29.60    7.72
   5   0   2    9.00    5.88
  -3   7   6    4.59    2.58
  -3   7   6    1.69    3.09
  -3   7   6    1.68    2.70
   3  -7  -6   -0.33    3.14
  -3   7   6    0.49    1.69
  -1   5   9   10.41    5.62
  -1   5   9   16.08    4.75
   1  -5  -9   15.06    4.02
  -1   5   9    6.02    3.31
  -1   5   9    6.67    2.78
  -1   5   9   11.34    3.53
   4   1   5    1.19    2.86
   4   1   5   16.29    4.14
   4   1   5   16.67    4.77
   4   1   5    9.05    3.67
   4   1   5   23.42    8.39
   3   1 -11  260.74   19.94
  -3  -1  11  218.54   45.02
   3   1 -11  213.96   16.20
   3   1 -11  217.28   26.93
   3   1 -11  267.01   38.06
  -2  -3  11  179.53   34.35
   2   3 -11  149.75   27.66
   2   3 -11  188.75   24.20
   2   3 -11  117.78   10.52
   2   3 -11  189.83   33.45
   2  -6   8  237.53   26.19
  -2   6  -8  230.80   21.22
  -2   6  -8  205.05   36.30
   2  -6   8  216.44   17.91
   5  -2   3   51.64   11.56
   5  -2   3   60.35   12.72
   5  -2   3   83.64   14.52
   4  -1 -10  398.66   29.21
   4  -1 -10  348.21   24.53
   4  -1 -10  460.44   34.26
   5  -3   3  186.40   41.17
   5  -3   3  151.36   16.58
   5  -3   3  147.25   25.29
   5  -3   3  151.67   26.92
  -1   8   4   26.20    5.88
  -1   8   4   17.70    4.91
  -1   8   4   25.27    4.88
   1  -8  -4   11.93    7.43
  -1   8   4   17.29    9.00
   5   1   1    4.87    3.07
   5   1   1    2.00    1.64
   5   1   1    0.77    2.73
   5   1   1    4.41    2.40
   3  -8   3   31.07    7.15
  -3   8  -3   25.16    5.21
   3  -8   3   26.47    6.02
  -3   8  -3   24.83    6.74
   3  -8   3   22.77    6.82
  -3   8  -3   25.14    6.23
   4   0 -10  194.58   21.62
   4   0 -10  177.53   33.98
  -1  -6   9  126.93   27.00
   1   6  -9  108.21   23.62
   1   6  -9  117.42   28.72
   1   6  -9   69.83   22.26
  -1  -6   9   91.28   39.69
  -1  -6   9  123.96   29.84
   1   6  -9  141.48   24.80
  -3   4  -8   20.94   10.09
   3  -4   8   31.41    9.81
  -3   4  -8   17.07    5.56
   3  -4   8   48.72    9.29
   3  -4   8   50.28   10.36
   3  -4   8   51.63   15.77
  -2  -6   8   31.30   10.27
   2   6  -8   22.13    4.55
   2   6  -8   36.86    8.46
   2   6  -8   33.53    9.18
  -2  -6   8   31.71    9.81
   2   6  -8   24.29    9.44
  -2  -6   8   24.85    6.35
  -1   4  10   39.52    9.58
  -1   4  10   49.37    6.00
  -1   4  10   53.43   11.97
  -1   4  10   50.39   12.73
   1  -4 -10   42.03   15.58
  -1   4  10   40.88   11.00
   3   6  -5   65.70   11.48
   3   6  -5   49.80   11.94
  -3  -6   5   71.77   18.17
   3   6  -5   74.94   16.54
  -2   8  -5   92.28   17.34
   2  -8   5  106.46   28.33
  -2   8  -5   97.01   20.23
  -2   8  -5   66.25   17.05
   1   8   0   92.13   22.16
   1   8   0  115.91   18.49
   1   8   0  113.38   21.78
   1   8   0  133.20   21.16
   1   8   0   99.05   14.88
   1   8   0  116.23   18.98
  -5  -2   5    9.34    5.27
   5   2  -5   10.74    4.30
   5   2  -5   10.64    3.80
   5   2  -5   19.42    4.18
   3   0   8    3.87    3.44
   3   0   8   26.03    7.59
   3   0   8    8.26    3.45
   3   0   8   16.80    4.98
   5   2  -1   85.04   19.74
   5   2  -1   78.53   20.84
   4  -4   6    0.56    2.42
   4  -4   6   -0.73    2.68
   4  -4   6    2.97    3.37
  -3   5   9   13.00    5.33
   3  -5  -9    2.39    2.65
   3  -5  -9    2.97    2.51
  -3   5   9   10.33    5.89
  -3   5   9    8.24    2.52
   3  -5  -9    1.96    2.10
  -1  -8   4  182.95   26.16
   1   8  -4  207.57   31.66
   1   8  -4  215.90   38.23
   1   8  -4  195.36   40.49
   1   8  -4  201.01   15.84
   1   8  -4  175.17   29.02
   5  -6  -2   66.18   15.31
   5  -6  -2   71.57   15.85
   5  -6  -2   53.60   12.74
  -5   6   2   41.62   11.26
   5  -6  -1   39.38    9.55
   5  -6  -1   37.17   12.68
   5  -6  -1   48.30    9.10
   5  -6  -1   39.01   10.27
   5  -6  -1   19.05    6.56
  -4   5   8   63.27   15.93
   4  -5  -8   95.33    9.71
   4  -5  -8   74.51   32.82
  -4   5   8   76.21   23.09
  -4   5   8   79.29   18.19
   4  -5  -8   99.31   24.52
   0   8   3   11.34    4.51
   0   8   3   10.12    3.78
   0   8   3    5.95    1.69
   0   8   3    5.36    2.73
   0   8   3    8.28    3.49
  -1   6  -9    8.41    4.77
   1  -6   9   15.80    5.40
   1  -6   9   23.90    7.25
  -1   6  -9   18.92    4.34
   3   5   3  257.97   18.23
   3   5   3  280.69   20.20
   3   5   3  258.13   18.19
   3   5   3  285.21   37.05
   4   3   3   70.68   16.21
   4   3   3   60.28   18.61
   4   3   3   76.51   14.85
   4   3   3   77.89   14.77
   2  -7   7   59.50   18.41
   2  -7   7   51.76   11.33
  -2   7  -7   40.66    8.29
  -2   7  -7   43.82   11.11
   0   7  -8  353.49   37.04
   0   7  -8  344.19   49.25
   0  -7   8  406.86   27.94
   0  -7   8  346.75   25.01
   0  -7   8  317.91   44.41
   4   4   1 1021.82   22.07
   4   4   1  996.33   64.20
   4   4   1  991.59   60.57
   3   6   0   18.64    5.34
   3   6   0   20.20    4.02
   3   6   0   16.67    4.74
   3   6   0   17.66    5.54
   3   3   6    8.10    2.63
   3   3   6    7.59    7.37
   3   3   6    7.88    2.80
   3   3   6   10.04    4.40
   2   7   1  257.91   39.85
   2   7   1  235.29   34.25
   2   7   1  270.33   32.54
   2   7   1  243.35   30.85
   2   7   1  229.81   19.56
  -1   6   8   90.17   29.51
  -1   6   8   85.36   23.52
   1  -6  -8   60.41   26.47
  -1   6   8   98.07   26.71
  -1   6   8   60.63   21.33
   3   5  -8  144.92   19.41
   3   5  -8  153.14   28.56
   3   5  -8  148.36   23.34
  -3  -5   8  100.99   37.76
   5   1  -7   75.32   12.67
  -5  -1   7   68.27   18.60
   5   1  -7   84.42   17.18
   5   1  -7   71.48   12.47
  -5   1   8   14.30    6.99
   5  -1  -8   24.04    5.55
   5  -1  -8   28.22    5.89
   5  -1  -8   28.58    6.59
   1   2  10   94.67   15.13
   1   2  10   88.73   12.97
  -1  -2 -10   80.98   20.86
   1   2  10   63.20   17.66
   1   2  10   90.05   23.82
   1   2  10   55.89    7.99
  -4   2  10    3.71    2.23
   4  -2 -10    2.85    2.72
   4  -2 -10    1.82    1.90
   4  -2 -10    4.33    3.34
   5  -1   3   28.70    8.31
   5  -1   3    1.47    3.26
   5  -1   3   41.95   10.85
   5  -1   3   44.55   12.69
  -2  -4  -7   29.25    9.76
   2   4   7   16.42    6.03
   2   4   7   20.59   11.17
   2   4   7   50.06    9.23
   2   4   7   43.24    9.18
   2   4   7   38.69    6.76
   2   4   7   16.90    6.24
   2   4   7   41.53   11.77
   1   7   4   13.20    4.45
   1   7   4   24.54    5.60
   1   7   4   10.71    2.55
   1   7   4    9.23    3.50
   1   7   4   20.40    7.01
   1   7   4   14.51    3.78
   1   7   4   14.58    6.70
   3  -2 -11    2.76    3.63
  -3   2  11    6.89    3.31
   3  -2 -11    5.12    1.81
  -3   2  11    1.32    1.83
  -3   2  11    4.83    4.29
   3  -2 -11    2.14    2.12
  -3   2  11    2.12    1.58
  -2   5  -9  207.36   36.14
   2  -5   9  178.71   37.77
  -2   5  -9  186.44   22.10
   2  -5   9  177.92   30.23
   2  -5   9  105.29   29.31
   2  -5   9  175.54   25.09
   1  -8   6    3.68    2.99
  -1   8  -6    6.03    2.31
  -1   8  -6    5.47    3.60
   2   3   8    2.43    2.72
  -2  -3  -8   -0.20    3.45
   2   3   8   -0.24    4.26
   2   3   8    3.00    1.88
   2   3   8    1.74    2.56
   2   3   8    3.14    2.74
   2   3   8    5.15    4.59
   1   6   6  115.94   22.35
   1   6   6  113.37   20.00
   1   6   6   97.86   27.99
   1   6   6  100.75   21.49
  -1  -6  -6   56.51   29.72
   1   6   6  113.49   17.55
   1   6   6   90.04   33.84
   1   6   6  129.87   25.68
  -4   4   9   -0.47    2.86
   4  -4  -9    1.14    1.36
   4  -4  -9    2.01    2.22
   4  -4  -9    4.14    2.34
   5  -5   2   69.28   24.43
   5  -5   2   77.00   11.51
   5  -5   2   57.23   13.04
   5  -5   2   73.59   14.18
   5  -5   2   65.46   17.85
  -1  -4  11   89.09   18.11
   1   4 -11   73.99   20.52
   1   4 -11   89.66   18.94
   5  -2  -8   78.07   22.55
   5  -2  -8   71.10   21.80
   5  -2  -8  144.63   23.75
   5  -2  -8  122.47   19.35
   5  -2  -8  127.95   25.37
   5  -6  -3   17.09    5.07
   5  -6  -3   19.14    6.10
  -5   6   3   17.67    6.21
   5  -6  -3   20.02    4.43
   2   6   4   45.27   10.03
   2   6   4   52.04    9.41
   2   6   4   31.10   13.63
   2   6   4   48.71    8.34
   2   6   4   38.74   11.25
   3   2   7   16.03    4.56
   3   2   7   21.28    4.50
   3   2   7   17.87    6.25
   3   2   7   11.26    5.37
   0   8  -6   49.41   14.87
   0   8  -6   45.32    8.49
   0  -8   6   49.85   12.81
   0   8  -6   24.21    6.93
   0   8  -6   45.07   11.18
   4  -7   3  105.10   26.32
  -4   7  -3   64.88   11.44
   4  -7   3  110.87   14.04
  -4   7  -3   51.68   18.58
   4  -7   3  108.55   13.28
  -4   7  -3   47.50   15.15
   4  -7   3   93.78   21.93
  -3   4  10    4.87    3.79
   3  -4 -10    0.63    2.60
  -3   4  10    1.36    3.26
   3  -4 -10    4.21    2.08
  -3   4  10    0.76    4.13
   3  -4 -10    3.56    1.59
  -3   4  10    1.53    2.43
   3  -6  -8    2.37    1.75
  -3   6   8    0.79    2.16
  -3   6   8   16.37    8.54
   3  -6  -8    2.25    2.58
  -3   6   8    7.31    3.46
  -3   6   8    3.62    4.17
  -1   1 -11  984.61   64.94
   1  -1  11  926.95   58.96
   1  -1  11  911.20   65.42
  -1   1 -11  879.54   57.23
   1  -2  11    4.38    2.09
   1  -2  11   16.75    5.07
  -1   2 -11    7.97    3.86
  -1   2 -11   15.12    5.09
   1  -2  11    7.39    3.03
   5  -4   3  129.59   14.69
   5  -4   3  152.61   21.44
   5  -4   3  174.94   23.27
   5  -4   3  157.05   21.53
   5  -4   3  125.87   21.02
   5  -6   0  303.97   28.61
   5  -6   0  323.49   36.27
   5  -6   0  277.08   27.34
   5  -6   0  303.97   29.76
   5  -6   0  220.72   19.37
  -2   2 -10   64.68   17.87
  -2   2 -10   75.65   13.96
   2  -2  10   80.50   15.88
   2  -2  10   35.38   14.40
   2  -2  10   68.67   16.22
   2  -2  10   52.57   14.42
  -3   8   4  445.34   31.21
  -3   8   4  384.00   27.06
  -3   8   4  444.48   32.56
   3  -8  -4  463.87   31.88
   0   4 -11    1.21    2.52
   0  -4  11    6.09    4.09
   0  -4  11   -0.08    4.05
   0   4 -11   -1.89    5.57
   0  -4  11    3.90    1.21
   5  -4  -7   33.87   10.67
   5  -4  -7   22.96    8.01
   5  -4  -7   22.88    5.70
   5  -4  -7   32.93    9.17
   5  -4  -7   32.90    5.46
  -4  -1  10  274.62   32.13
   4   1 -10  225.56   26.84
   4   1 -10  278.01   31.26
   2  -3 -11    3.65    3.17
  -2   3  11    3.69    3.31
  -2   3  11    3.67    2.83
  -2   3  11    4.52    4.74
  -2   3  11    0.81    1.88
   4   4  -7   41.02    7.86
   4   4  -7   40.75    6.81
   4   4  -7   43.31    8.78
  -4  -4   7   30.83   12.72
   4   4  -7   21.41    9.70
   1  -7   8  195.72   22.07
  -1   7  -8  167.54   23.67
   1  -7   8  155.06   32.68
  -1   7  -8  202.81   32.83
   4   0   6   30.48    9.01
   4   0   6   35.49    7.64
   4   0   6   22.64    6.45
   4   0   6   54.76    8.94
   4   0   6   18.71   15.76
   4   0   6   46.45   11.20
   1   1 -12   99.62   17.82
   1   1 -12   39.20   21.73
  -1  -1  12  123.04   20.82
   1   1 -12   92.00   22.28
  -1  -1  12   91.80   19.99
  -4   7   5   11.44    3.12
   4  -7  -5   23.80    5.83
  -4   7   5   20.06    6.19
   4  -7  -5   19.23    5.50
  -4   7   5   12.19    3.95
  -4   7   5   10.50    4.79
   1  -9   1  185.82   15.04
  -1   9  -1  210.46   23.36
  -1   9  -1  188.48   32.85
  -1   9  -1  173.23   25.87
  -2  -7   6  796.66   67.35
   2   7  -6  866.67   63.77
  -2  -7   6  980.44   61.07
   2   7  -6  887.33   54.48
   2   7  -6  911.36   56.31
   2   7  -6 1011.10   63.45
   2  -1  10  327.43   36.12
  -2   1 -10  302.25   31.21
   2  -1  10  294.84   33.60
   2  -1  10  288.33   21.34
  -2   1 -10  323.96   34.03
   2  -1  10  315.63   24.44
   3   2 -11  270.07   24.71
   3   2 -11  265.71   37.88
   3   2 -11  279.83   22.85
   1  -5  10   42.38    5.31
  -1   5 -10   34.85    8.99
  -1   5 -10   25.18   13.45
   1  -5  10   29.69    7.17
   1  -5  10   35.65    9.61
   5   0  -8   88.56   14.94
   5   0  -8  115.03   20.49
  -5   0   8   91.65   30.41
   5   0  -8  109.28   20.56
  -4   6   7   25.99   14.72
   4  -6  -7   37.28   14.98
  -4   6   7   42.69   12.86
  -4   6   7   47.80   10.03
   4  -6  -7   31.57   17.60
  -4   6   7   37.13   14.08
   4  -6  -7   41.85   14.79
   3   4   5  154.37   40.98
   3   4   5  160.46   29.27
   3   4   5  177.01   31.42
   3   4   5  182.54   14.29
   3  -6   7   59.33   11.41
  -3   6  -7   30.89   15.37
   3  -6   7   63.06   13.25
  -3   6  -7   61.76   12.21
   3  -6   7   58.65   13.35
   1   8   1  172.41   24.53
   1   8   1  208.76   32.74
   1   8   1  161.35   12.85
   1   8   1  163.62   30.34
   1   8   1  204.58   33.81
   1   8   1  143.94   34.52
   1   8   1  186.37   35.96
   5   2  -6    3.01    1.68
  -5  -2   6    0.72    2.94
   5   2  -6    2.58    1.70
   5   2  -6    3.27    3.36
   5   2  -6    2.85    1.86
   1   0 -12   29.56    6.46
   1   0 -12   19.70    6.62
  -1   0  12   17.85    4.89
  -1   0  12   31.58    6.57
   1   0 -12    5.90    6.07
   1  -9   2  106.06   29.96
  -1   9  -2  150.80   23.72
  -1   9  -2  128.72   21.65
  -1   9  -2  113.82   22.77
   0  -2 -11    4.66    4.58
   0   2  11    7.97    2.91
   0   2  11    8.02    2.53
   0   2  11    3.45    2.74
   0  -2 -11    2.91    2.07
  -1   9   0    7.08    2.73
   1  -9   0   13.70    3.94
  -1   9   0   10.23    3.08
  -1   9   0    6.93    5.56
   5  -5  -6   25.63    6.43
   5  -5  -6   30.21    7.83
   5  -5  -6   20.37    7.10
  -5   5   6   24.30   10.71
   5  -5  -6   23.54    6.33
   5   2   0  457.16   30.95
   5   2   0  406.68   27.70
   5   2   0  404.10   26.83
  -2   7   7  121.24   41.95
  -2   7   7  164.52   35.27
  -2   7   7  199.11   40.38
   2  -7  -7  156.09   23.51
   3   6  -6  161.67   19.22
  -3  -6   6  117.28   35.73
   3   6  -6  158.42   24.44
  -2   9   0    7.79    5.13
   2  -9   0    7.37    2.14
  -2   9   0    5.00    3.38
  -2   9   0    9.75    3.74
  -2   9  -1   14.03    3.88
   2  -9   1   23.07    5.41
  -2   9  -1   23.36    6.23
  -2   9  -1   24.11    4.74
   2  -3  10   22.34    6.52
   2  -3  10   14.63    5.44
   2  -3  10   31.47    5.76
   2  -3  10   45.96    9.34
  -2   3 -10   43.55    7.82
  -2   3 -10   42.62   10.03
   1   8  -5   46.14   13.30
   1   8  -5   58.83   12.05
  -1  -8   5   30.66   11.28
   1   8  -5   38.90    8.12
   1   8  -5   48.81    8.51
   1   8  -5   61.58   12.64
  -1  -8   5   60.14   17.16
   2   0 -12    4.22    4.94
   2   0 -12    4.75    2.43
   2   0 -12    4.25    2.70
   2   0 -12    1.88    1.60
   2   0 -12    1.72    2.59
  -2   0  12    6.19    2.62
  -2   0  12    4.07    3.20
   5  -6  -4   42.19   11.35
  -5   6   4   37.78    7.22
   5  -6  -4   50.86   10.61
   5  -6  -4   47.30   12.04
  -1   3  11  126.68   25.47
  -1   3  11  132.06   13.35
   1  -3 -11   69.18   30.29
  -1   3  11  123.43   24.17
  -1   3  11  115.38   24.58
   2   5   6   62.09   12.98
  -2  -5  -6   31.41   11.32
   2   5   6   46.68   11.48
   2   5   6   52.23   13.97
   2   5   6   48.81    9.87
   2   5   6   13.15    4.20
   2   5   6   32.42    5.86
   2   5   6   24.00    6.51
  -2  -1  12   22.62    4.23
   2   1 -12    5.05    3.68
  -2  -1  12   15.48    7.16
   2   1 -12   14.23    5.28
   2   1 -12    8.68    5.27
   2  -8  -5   22.98   12.57
  -2   8   5   43.57   13.23
  -2   8   5   53.59   14.18
  -2   8   5   48.02   11.96
   1   0  11    5.95    2.75
  -1   0 -11   13.02    5.15
   1   0  11    4.03    2.90
  -1   0 -11    2.81    2.37
   5  -3  -8   76.19   11.09
   5  -3  -8   59.17   23.81
   5  -3  -8  100.19    9.98
   5  -3  -8   80.49   10.57
   5  -3  -8   95.97   20.18
  -1  -2  12  155.93   31.30
   1   2 -12  125.21   31.07
  -1  -2  12  116.38   12.55
   1   2 -12  170.24   26.64
   1  -3  11    4.91    2.37
  -1   3 -11    4.16    4.30
   1  -3  11    5.87    3.11
   1  -3  11    1.84    3.14
  -1   3 -11    9.67    4.48
  -3   8  -4   67.88   12.02
  -3   8  -4   52.76   15.07
   3  -8   4   72.23   18.17
  -3   8  -4   58.49   17.37
   4  -6   5   34.64   11.20
   4  -6   5   19.52    4.82
   4  -6   5   33.13    9.33
   4  -6   5   25.58    5.59
   2   2   9  526.51   28.24
   2   2   9  561.76   30.28
   2   2   9  519.73   29.63
   2   2   9  486.73   27.03
   2   2   9  594.34   34.24
   2   2   9  555.54   29.06
   2   2   9  529.39   30.52
   3  -7   6  117.50   28.59
   3  -7   6  166.69   34.61
   3  -7   6  144.27   30.18
  -3   7  -6   77.24   34.03
  -3   7  -6  122.68   20.21
   5  -6   1    8.99    2.84
   5  -6   1    3.98    1.65
   5  -6   1    6.97    2.38
   5  -6   1    8.74    2.17
   5  -6   1    7.11    3.13
   5  -6   1    5.10    4.00
   0   7   6   18.99    7.61
   0   7   6   21.04    4.44
   0   7   6   22.76    8.96
   0   7   6   10.81    4.98
   0   7   6   18.39    6.00
   0   7   6    9.99    7.87
   0   7   6   24.16    7.03
   0  -7  -6    4.22    4.73
   4   5  -3  376.54   27.01
   4   5  -3  365.82   49.40
   4   5  -3  408.35   22.12
   4   5  -3  355.64   47.02
  -2   9   1  169.55   31.25
   2  -9  -1  119.08   28.46
  -2   9   1  129.71   25.51
  -2   9   1  142.20   25.53
  -2   9  -2  158.95   27.85
  -2   9  -2  164.09   25.81
  -2   9  -2  182.80   32.31
   2  -9   2  166.05   12.40
  -1  -7   8   -1.27    3.13
   1   7  -8    6.40    2.82
  -1  -7   8    1.93    3.13
   1   7  -8    2.56    3.59
   1   7  -8   -0.28    1.93
  -1  -7   8   -1.15    3.51
   3   6   1   22.94    5.71
   3   6   1   26.90    6.07
   3   6   1   22.03    6.96
   3   6   1   27.47    5.50
   5   1   2  119.68   23.82
   5   1   2  155.83   35.64
   5   1   2  100.97   23.29
   5   1   2  108.15   19.42
   5   1   2  141.83   15.02
   5   1   2  148.08   11.73
  -1   9  -3   78.21   14.57
  -1   9  -3   96.82   15.86
  -1   9  -3   81.31   12.39
   1  -9   3   88.62   22.96
  -2  -5  10    5.21    2.25
   2   5 -10    6.52    2.66
   2   5 -10    5.23    2.88
   2   5 -10    4.89    5.49
  -2  -5  10   -1.14    4.07
   2   5 -10    4.90    2.22
   4  -3 -10    6.31    2.09
   4  -3 -10    6.49    2.36
   4  -3 -10    8.78    4.96
   4  -3 -10    2.07    3.16
   1  -9  -1   48.74    9.73
  -1   9   1   41.86    8.85
  -1   9   1   53.40   13.55
  -1   9   1   53.83    7.82
   5   0   3  167.68   15.05
   5   0   3  138.39   32.77
   5   0   3  193.35   13.88
   5   0   3  198.98   13.74
   5   0   3  151.08   24.56
   4   5  -4   17.54    4.27
   4   5  -4   11.14    4.07
   4   5  -4    9.58    3.62
   4   5  -4    9.15    3.22
  -4  -5   4    8.65    4.96
   4   5  -2  155.86   24.66
   4   5  -2  159.38   24.19
   4   5  -2  149.28   19.47
   4   5  -2  159.58   23.33
   4   5  -2  146.81   31.62
   3  -5   8  106.57   20.98
   3  -5   8   82.96   18.18
  -3   5  -8   84.26   17.55
  -3   5  -8   54.08   28.18
   3  -5   8   92.68   23.32
   3  -5   8   87.50   18.18
   4  -5   6   31.38    7.73
   4  -5   6   24.46    8.92
   4  -5   6   22.44    6.73
   4  -8  -1   89.93   29.39
   4  -8  -1  115.12   22.45
  -4   8   1   97.21   20.26
  -4   8   1   90.16   18.58
  -4   8   1   77.29   17.33
   4  -8  -1  121.26   22.20
   2  -1 -12    5.61    3.74
  -2   1  12   11.87    4.09
  -2   1  12   19.75    4.15
   2  -1 -12    6.46    3.73
   2  -1 -12    2.42    1.70
   2  -1 -12   12.74    5.25
   2   0  10    7.38    2.21
   2   0  10    4.29    2.54
   2   0  10    1.90    2.37
  -2   0 -10    1.13    4.93
   2   0  10    3.01    2.68
  -2   0 -10    9.09    4.08
   2   7   2    3.15    2.47
   2   7   2    2.60    3.23
   2   7   2    4.07    2.33
   2   7   2    4.47    4.91
   3   1   8   81.38   17.37
   3   1   8   60.02   15.76
   3   1   8   72.26   15.68
   3   1   8   51.14   22.61
  -4  -3   9   55.08   16.47
   4   3  -9   58.45   12.34
   4   3  -9   56.69   11.87
   4   3  -9   54.47   11.27
   4   3  -9   60.82   13.60
   4  -8   0   83.36   20.45
  -4   8   0   92.44   17.06
  -4   8   0   73.78   17.22
   4  -8   0  114.18   26.55
   4  -8   0  127.54   19.20
  -4   8   0   82.37   15.26
  -1   1  12   25.83    7.04
  -1   1  12   16.62    4.66
   1  -1 -12   13.24    4.94
   1  -1 -12   20.34    7.07
   1  -1 -12   22.82    6.18
  -1   7   7  120.58   37.43
   1  -7  -7   69.93   43.61
  -1   7   7  158.44   34.75
  -1   7   7  132.22   26.75
  -1   8   5   16.08    4.71
  -1   8   5   17.87    5.83
  -1   8   5   20.65    4.54
  -1   8   5   26.81    8.33
   1  -8  -5    5.22    3.75
   4   4   2  270.34   16.32
   4   4   2  264.69   16.13
   4   4   2  267.15   16.03
   4   4   2  314.76   20.34
   2   4 -11   82.72   16.05
   2   4 -11   45.20   16.37
   2   4 -11   64.41   16.15
   2   4 -11   60.58   17.81
  -2  -4  11   80.93   16.64
   4  -8  -2  459.90   25.07
   4  -8  -2  507.39   26.68
  -4   8   2  506.86   30.88
  -4   8   2  427.17   27.00
  -4   8   2  519.58   30.63
   4  -8  -2  532.34   30.36
  -3   3  11    8.70    3.06
  -3   3  11   10.43    4.34
  -3   3  11    9.69    6.74
   3  -3 -11   10.19    2.37
  -3   3  11   17.81    6.23
   3  -3 -11    9.00    2.88
  -2   8  -6  579.70   69.79
  -2   8  -6  532.97   32.74
   5  -2   4    9.65    2.68
   5  -2   4   14.56    4.59
   5  -2   4   14.75    5.81
   3  -7  -7  802.06   59.75
  -3   7   7  654.98   38.75
  -3   7   7  835.82  100.39
  -3   7   7  823.28   98.86
   5  -3   4  185.90   41.32
   5  -3   4  148.19   15.14
   5  -3   4  146.07   28.90
   2   2 -12  376.90   29.55
   2   2 -12  397.89   32.22
  -2  -2  12  399.93   26.17
   3   4 -10  190.07   23.34
   3   4 -10  208.02   21.20
  -3  -4  10  189.26   29.47
   0   5   9   94.64   19.31
   0  -5  -9   63.36   25.85
   0   5   9   48.88   32.88
   0   5   9   97.08   24.87
   0   5   9   82.38   25.94
   0   5   9   90.70   26.79
   0   8   4   23.28    5.17
   0   8   4   13.28    3.82
   0   8   4   10.62    3.72
   0   8   4   12.08    3.37
   0   8   4   17.82    5.26
   5  -5   3  295.39   18.65
   5  -5   3  385.59   29.97
   5  -5   3  417.24   24.18
   5  -5   3  351.09   19.50
   5  -5   3  399.10   36.20
   5  -5   3  386.06   20.98
  -5  -1   8    1.87    4.35
   5   1  -8    2.01    2.07
   5   1  -8    2.08    3.67
   5   1  -8    2.83    2.72
   5   1  -8    0.61    1.43
   0   1 -12  169.41   28.68
   0   1 -12  120.52   31.41
   0  -1  12  140.86   23.95
   0  -1  12  161.30   25.61
   0   1 -12   74.01   29.68
   4   2   5    3.65    2.42
   4   2   5    1.63    1.25
   4   2   5    2.62    1.95
   4   2   5   11.06    3.07
   4   2   5    8.01    3.28
   4   5  -5  128.63   12.91
   4   5  -5  154.94   21.79
  -4  -5   5  133.34   19.36
   4   5  -5  162.68   26.74
   4   2 -10    7.90    3.56
   4   2 -10    2.50    2.85
  -4  -2  10    3.74    2.93
   5   3  -3    3.07    2.07
   5   3  -3    3.40    1.43
  -5  -3   3    1.75    2.77
   5   3  -3    1.98    1.65
  -2   9   2   66.03   14.80
  -2   9   2   41.20   12.81
  -2   9   2   59.21    9.65
   2  -9  -2   17.71    5.41
   2  -9   3  447.70   27.10
  -2   9  -3  499.93   38.79
  -2   9  -3  478.80   38.17
  -2   9  -3  414.14   34.85
   4   5  -1   32.83   11.46
   4   5  -1   40.66    9.05
   4   5  -1   36.01    7.15
   4   5  -1   34.77    9.92
   4   5  -1   26.09    7.13
   1   4   9   78.96   15.55
   1   4   9   45.47   12.54
  -1  -4  -9   52.11   13.22
   1   4   9   40.12   10.46
   1   4   9   40.14   22.04
   1   4   9   49.65   16.62
   4  -8   1  388.72   22.00
   4  -8   1  401.09   37.75
  -4   8  -1  412.87   30.42
  -4   8  -1  347.91   31.30
   4  -8   1  381.10   28.57
  -4   8  -1  347.34   46.17
   4  -8   1  325.49   37.96
   0  -9   2   69.84   15.04
   0   9  -2   63.10   13.80
   0   9  -2   75.54   14.02
   0   9  -2   57.82   12.68
   4  -7   4    3.03    1.86
  -4   7  -4    1.79    2.45
   4  -7   4    2.82    2.89
   4  -7   4    0.80    2.49
   4  -7   4   -0.36    3.46
  -4   7  -4    7.14    2.66
   4  -7   4    1.87    1.34
   4  -2   7   39.53   10.30
   4  -2   7   10.76    4.72
   4  -2   7   53.76   14.39
   4  -2   7   49.40   10.75
   2  -4  10    7.51    4.08
  -2   4 -10    6.29    5.50
   2  -4  10    9.32    3.78
   2  -4  10   10.24    4.84
  -2   4 -10   19.42    6.18
   1   8   2   89.56   20.88
   1   8   2  107.73   23.68
   1   8   2   89.18   16.82
   1   8   2  119.80   21.06
   1   8   2  109.03   19.56
   1   8   2   81.48   23.67
   1   8   2  107.34   21.01
   0   9  -1   10.73    5.20
   0   9  -1    2.45    3.61
   0   9  -1    4.81    3.28
   0   9  -1    5.09    3.29
   0   4  10  119.54   27.15
   0   4  10  104.11   23.12
   0  -4 -10   85.57   30.45
   0   4  10   86.20   29.72
   0   4  10   93.40   19.91
   5  -6  -5   19.74    5.11
   5  -6  -5   13.87    4.71
  -5   6   5   12.02    5.32
   5  -6  -5   12.62    4.42
   5   2  -7    8.33    3.65
  -5  -2   7   10.17    6.74
   5   2  -7    1.27    2.41
   5   2  -7    8.10    4.03
   5   2  -7   12.45    2.97
   5   2  -7    5.81    1.99
   3  -8  -5  138.58   24.55
  -3   8   5  140.21   36.59
  -3   8   5  183.20   32.74
  -3   8   5  161.09   32.95
   5   3  -4   16.25    5.02
   5   3  -4   22.38    5.00
  -5  -3   4   15.33   11.00
   5   3  -4   23.92    5.90
   0  -2  12    6.80    2.64
   0   2 -12    1.40    1.80
   0  -2  12   12.70    3.23
   0   2 -12    2.38    2.64
   0   2 -12    2.27    1.85
   3  -2   9  542.71   32.18
   3  -2   9  412.09   30.65
   3  -2   9  490.10   27.03
   3  -2   9  412.84   24.44
  -3   2  -9  442.29   24.79
   3  -2   9  472.07   25.58
   4  -3   7    6.32    2.95
   4  -3   7    4.93    2.72
   4  -3   7    7.30    3.08
   5   2   1  100.21   25.18
   5   2   1  129.37   22.83
   5   2   1   83.60   22.79
  -1  -5  -8   41.96   17.17
   1   5   8   85.02   14.71
   1   5   8   84.47    8.95
   1   5   8   55.34   10.82
   1   5   8   45.43   12.53
   1   5   8   50.81   17.02
   1   5   8   60.01   14.16
   1   5   8   37.94   18.76
  -2  -6   9   62.20   15.50
   2   6  -9   53.05   12.39
   2   6  -9   57.79   12.37
  -2  -6   9   53.21   16.98
   2   6  -9   54.67   15.51
  -2  -6   9   51.26   11.21
   2   6  -9   69.25   12.65
   0   6 -10    4.79    4.45
   0   6 -10    9.13    3.90
   0  -6  10    8.06    2.77
   0  -6  10    5.06    2.16
   2   7  -7   -0.65    3.87
   2   7  -7    4.91    4.43
   2   7  -7    2.60    2.16
  -2  -7   7   -0.22    3.56
  -2  -7   7    2.95    2.29
   2   7  -7    3.49    4.46
   1   8  -6   10.17    2.05
   1   8  -6   14.84    5.97
   1   8  -6   20.34    4.78
   1   8  -6   13.56    5.83
  -1  -8   6    8.54    2.63
  -1  -8   6    4.09    2.43
   1   8  -6   15.66    4.15
   5   3  -2   48.39    9.68
   5   3  -2    9.92    3.39
   5   3  -2   28.58    8.71
   5   3  -2   32.38    9.11
   5   3  -2   19.31    6.35
  -1   9  -4  326.20   37.63
  -1   9  -4  298.36   54.05
  -1   9  -4  278.91   36.57
   1  -9   4  307.66   24.86
   1   3 -12    6.79    2.88
  -1  -3  12    9.41    4.81
   1   3 -12    2.56    3.03
   0   8  -7   73.83   11.17
   0  -8   7   71.11   18.00
   0   8  -7   63.69   15.02
   0  -8   7   98.34   28.28
   3   5   4  190.03   23.27
   3   5   4  193.25   29.04
   3   5   4  191.57   28.62
   3   5   4  178.18   20.85
   4   4  -8   13.22    2.78
  -4  -4   8   11.33   19.25
   4   4  -8   17.02    4.07
   4   4  -8    8.88    2.75
   4   4  -8   15.24    3.95
  -3  -6   7  203.10   30.44
   3   6  -7  230.42   30.27
   3   6  -7  221.78   28.13
   3   6  -7  208.12   19.04
  -1   8  -7  158.62   34.78
  -1   8  -7  183.25   18.12
   1  -8   7  208.35   40.88
   1  -8   7  156.11   23.01
  -4   7   6   78.56   19.44
  -4   7   6   83.67   23.94
  -4   7   6   89.19   22.20
  -4   7   6   56.40   28.32
   4  -7  -6   65.27   22.49
   4  -7  -6   56.20   25.64
   0   0 -12   14.26    3.74
   0   0  12   26.00    7.17
   0   0  12   24.67    7.02
   0   0 -12   18.51    5.71
   0   0 -12   35.95    8.91
  -1   9   2   -1.21    3.83
  -1   9   2    2.71    2.35
  -1   9   2    2.85    2.10
  -1   9   2    2.85    2.92
  -2   5  10   96.34   16.27
  -2   5  10   73.18   18.39
  -2   5  10   91.13   19.70
   2  -5 -10   61.46   19.74
  -2   5  10   54.20   17.02
   4   3   4   95.76   16.74
   4   3   4   79.16   22.70
   4   3   4   54.84   23.03
   4   3   4   87.91   16.35
   0  -9   3  152.20   22.51
   0   9  -3  125.67   23.35
   0   9  -3  138.57   23.70
   0   9  -3  176.22   27.66
   3   5  -9  273.93   38.22
  -3  -5   9  299.13   20.37
   3   5  -9  276.88   16.30
   3   5  -9  275.47   17.33
  -3   3  -9   57.45   12.57
   3  -3   9   66.13   16.40
   3  -3   9   62.37   16.62
   3  -3   9   56.59   12.69
   3  -3   9   54.08   10.68
   5  -1  -9  309.66   17.86
   5  -1  -9  278.32   16.66
   5  -1  -9  287.93   16.82
   4  -8  -3   37.74   16.29
  -4   8   3   64.81   14.06
  -4   8   3   64.45   11.76
  -4   8   3   42.47   11.87
   4  -8  -3   61.86   18.11
   4  -8  -3   56.08   15.03
   5  -6   2   78.01   13.11
   5  -6   2   67.69   14.84
   5  -6   2   74.07   17.87
   5  -6   2   63.48   21.25
   5  -6   2   69.54   18.52
   5  -6   2   56.46   13.97
   1   1  11   48.60   10.31
  -1  -1 -11   27.48    7.56
  -1  -1 -11   25.90    5.78
   1   1  11   34.83    8.89
  -1  -1 -11   34.62    7.91
   5  -1   4   31.19    8.83
   5  -1   4   26.44    7.04
   5  -1   4   39.55    9.39
   4   1   6   11.51    5.01
   4   1   6   18.01    5.14
   4   1   6    2.46    2.02
   4   1   6    8.66    9.58
   4   1   6   14.22    3.90
   4   1   6   10.38    4.44
  -3  -3  11    3.31    4.60
   3   3 -11    7.99    3.99
   3   3 -11    4.89    2.27
   1  -4  11    7.99    2.39
   1  -4  11    9.56    3.07
  -1   4 -11    7.13    3.54
   1  -4  11    2.74    1.67
  -1   4 -11    0.44    3.55
   0   9   0   21.70    6.29
   0   9   0   11.16    4.27
   0   9   0    8.36    2.68
   5  -4   4   50.78   12.20
   5  -4   4   40.77   10.99
   5  -4   4   43.58   11.00
   1   7   5   55.39   15.83
   1   7   5   57.03   14.12
   1   7   5   56.52   15.42
   1   7   5   75.94   14.25
   1   7   5   74.89   12.29
   1   7   5   64.38   17.11
   1   7   5   67.30   13.68
   0   6   8   18.05   15.47
   0   6   8   54.96   15.15
   0   6   8   47.29   12.24
   0   6   8   52.51   14.77
   0   6   8   31.91   12.08
   0  -6  -8   21.04   16.93
   0   6   8   46.86   16.57
   3  -1   9    2.66    3.77
   3  -1   9    5.20    2.69
   3  -1   9   36.89    9.97
   3  -1   9   32.69   10.25
   3  -1   9   12.93    4.05
   5  -4  -8   22.85    5.70
   5  -4  -8   25.90    4.63
   5  -4  -8   14.87    8.10
   5  -4  -8   34.68    9.14
  -2   6   9  452.83   24.75
  -2   6   9  420.78   43.85
  -2   6   9  448.35   42.31
   2  -6  -9  455.73   26.32
   5   3  -5    6.00    3.03
  -5  -3   5    6.04    5.25
   5   3  -5    3.18    2.81
   5   3  -5   -0.01    1.30
  -5   5   7    6.60    3.04
   5  -5  -7   14.48    5.18
   5  -5  -7   14.72    3.86
   5  -5  -7   13.99    5.94
   5  -5  -7   10.14    3.08
   6  -2  -3   80.57   20.15
   6  -2  -3   59.95   22.54
  -6   2   3   70.09   18.39
   6  -2  -3   72.85   21.17
   6  -2  -3   86.18   19.10
   4  -1   7    6.19    2.28
   4  -1   7    2.31    4.33
   4  -1   7   13.77    4.18
   4  -1   7    8.35    3.33
   5  -2  -9  297.93   29.33
   5  -2  -9  297.87   29.92
   5  -2  -9  287.75   19.22
   5  -2  -9  271.76   31.37
   5  -2  -9  256.78   23.10
   3  -9   0  168.77   36.78
  -3   9   0  250.75   28.49
   3  -9   0  190.88   23.54
  -3   9   0  174.36   29.57
  -3   9   0  227.94   36.58
   3  -9   0  197.66   40.91
  -1  -6  10    6.92    4.52
   1   6 -10    2.36    3.17
   1   6 -10    3.15    3.31
  -1  -6  10    1.30    3.87
   1   6 -10    0.61    2.86
  -2   2  12   92.09   22.17
  -2   2  12  104.80   24.07
  -2   2  12  101.13   13.01
   2  -2 -12   31.57   30.16
   2  -2 -12   32.58   14.77
  -2   2  12  102.84   20.96
   4  -5  -9   66.26   16.93
  -4   5   9   57.23   11.97
   4  -5  -9   36.77   18.19
  -4   5   9   54.79   16.97
   4  -5  -9   63.57   15.01
  -4   5   9   57.23   11.31
   6  -2  -2    1.60    3.69
   6  -2  -2    0.78    1.47
   6  -2  -2    3.17    1.98
   6  -2  -2    2.06    2.19
  -6   2   2   -1.65    2.97
  -2   6  -9    4.01    4.69
   2  -6   9    4.09    3.38
  -2   6  -9    4.75    3.40
   2  -6   9    1.38    2.23
   1   3  10   55.25   12.19
   1   3  10   54.34   25.63
   1   3  10   48.65   16.65
   1   3  10   80.98   17.48
   1   3  10   64.78   18.91
  -1  -3 -10   58.47   16.67
   0  -5  11    4.96    3.11
   0  -5  11    0.89    2.74
   0   5 -11   -1.80    3.25
   0   5 -11    1.94    3.09
   3   0 -12   81.95   10.36
  -3   0  12   75.96   20.96
   3   0 -12   82.13   17.78
   3   0 -12   96.06   23.31
   3   0 -12   77.73   19.93
   6  -3  -3  667.47   53.02
  -6   3   3  714.19   37.77
   6  -3  -3  689.62   37.25
   6  -3  -3  678.93   35.14
   6  -3  -3  614.98   32.40
   0   7  -9   64.48   19.66
   0  -7   9   85.16   20.31
   0  -7   9   88.15   20.70
   0   7  -9   95.90   18.48
   4  -1 -11  210.35   33.31
   4  -1 -11  213.14   14.66
   2   6   5  111.78   20.89
   2   6   5  131.30   20.06
   2   6   5   88.04   25.63
   2   6   5   54.31   25.56
   2   6   5  119.50   23.68
   2  -7   8    6.24    3.49
  -2   7  -8    5.31    2.44
   2  -7   8   19.84    6.12
  -2   7  -8    7.63    4.05
   1   5 -11   14.21    4.75
   1   5 -11    6.54    3.43
  -1  -5  11   12.10    4.31
   3  -9  -1   16.76    9.71
  -3   9   1   38.26    7.74
  -3   9   1   34.33    8.36
   3  -9  -1   27.12   10.48
   3  -9  -1   15.11    4.94
  -3   9   1   38.62    7.54
   3   6   2   10.23    2.56
   3   6   2   10.90    3.64
   3   6   2   10.93    4.78
   3   6   2    3.94    1.97
  -6   2   4   48.67   10.50
   6  -2  -4   43.01   15.27
   6  -2  -4   34.91    6.13
   6  -2  -4   50.67   16.65
   6  -2  -4   63.46   12.45
   6  -2  -4   43.82   14.25
  -3   9  -1  372.50   36.94
  -3   9  -1  281.15   45.31
   3  -9   1  259.19   47.55
  -3   9  -1  320.17   32.42
   5   0  -9  289.06   17.36
   5   0  -9  246.71   22.38
  -5   0   9  266.94   26.29
   5   0  -9  293.04   29.44
   4   0 -11    6.28    4.50
   4   0 -11    2.92    2.81
  -4   8  -2   32.15   11.59
   4  -8   2   19.73    5.74
   4  -8   2   14.59    9.80
  -4   8  -2   34.37    8.46
   4  -8   2   18.00    4.87
   4  -8   2   28.38    7.02
  -4   8  -2   41.52    8.11
   6  -3  -2   63.62   12.18
   6  -3  -2   52.15   12.18
   6  -3  -2   50.64   11.95
  -6   3   2   65.73   20.51
   6  -3  -2   49.89   13.16
   3  -8   5  101.79   25.68
   3  -8   5   66.52   18.38
  -3   8  -5  111.68   18.52
  -3   8  -5   72.26   26.07
   5   3  -1   28.43   17.58
   5   3  -1   59.56   16.94
   5   3  -1   51.18   13.01
   4   5  -6   48.60   12.43
   4   5  -6   60.95   11.15
  -4  -5   6   47.49   14.50
   4   5  -6   60.15   10.56
   4  -4   7   82.61   20.40
   4  -4   7   95.07   22.71
   4  -4   7   95.37   21.22
   4   5   0    3.87    2.17
   4   5   0    2.22    1.82
   4   5   0    8.16    3.01
   4   5   0    0.82    2.32
   0   3 -12  264.35   37.36
   0   3 -12  204.27   47.59
   0  -3  12  209.39   15.23
   0  -3  12  235.71   41.17
  -2   4  11    5.06    4.44
   2  -4 -11    3.93    5.34
  -2   4  11   19.93    7.00
  -2   4  11   19.81    6.30
  -2   4  11   14.92    5.73
   5  -7  -1  109.27   15.31
   5  -7  -1  118.84   16.13
   5  -7  -1  103.13   22.70
   5  -7  -2  162.25   12.14
   5  -7  -2  169.70   13.32
   5  -7  -2  129.68   30.74
   6  -1  -3    5.20    5.13
  -6   1   3    0.56    2.50
   6  -1  -3    4.86    3.02
   6  -1  -3    6.98    1.86
  -2  -1 -10   -1.79    4.99
   2   1  10    2.33    1.64
   2   1  10    1.37    2.51
   2   1  10    0.41    2.51
   2   1  10    0.06    2.06
   2   1  10    2.48    3.39
   2   1  10    1.18    2.43
   3  -1 -12  137.95   18.00
  -3   1  12  116.49   19.24
  -3   1  12  119.28   21.05
   3  -1 -12  101.85   27.39
   3  -1 -12   39.60   30.14
  -3   1  12  144.55   28.87
   0   9  -4   59.90   13.59
   0   9  -4   43.84    7.32
   0  -9   4   58.58   15.21
   0   9  -4   33.40    8.87
   6  -3  -4   95.49   26.95
  -6   3   4   74.52   18.58
   6  -3  -4  103.25   10.89
   6  -3  -4  123.02   13.92
   6  -3  -4  105.22   23.05
   4  -6  -8   82.30   15.82
   4  -6  -8   58.91   18.55
  -4   6   8   42.66   20.96
   4  -6  -8   95.97   18.28
  -4   6   8   71.54   19.23
  -4   6   8   60.10   19.41
  -4   6   8   62.48   17.74
  -2   9   3   82.18   22.80
  -2   9   3  133.79   23.45
   2  -9  -3   31.50   18.52
  -2   9   3  110.70   20.40
  -2   9  -4  141.36   22.26
  -2   9  -4  166.34   29.06
   2  -9   4  126.34   21.03
  -2   9  -4  127.89   25.38
  -1   2  12  100.50   24.52
  -1   2  12  109.09   22.09
   1  -2 -12   45.14   27.81
  -1   2  12   98.89   29.24
   3   1 -12  106.94   18.99
   3   1 -12   84.05   23.38
  -3  -1  12   96.54   26.28
   3   1 -12  104.98   14.60
   3   1 -12  116.67   36.44
  -1   5  10    0.83    3.48
  -1   5  10    7.45    2.54
   1  -5 -10    1.85    2.22
  -1   5  10    7.60    3.43
  -1   5  10    1.93    2.14
  -1   5  10    1.51    3.59
   0   3  11   28.35    9.00
   0   3  11   22.26    7.68
   0   3  11   14.74    6.19
   0   3  11   23.81   10.18
   0  -3 -11    6.80    5.22
   0   3  11    3.63    3.47
  -2   8   6   62.42   17.89
   2  -8  -6   48.34   20.91
  -2   8   6   82.36   15.51
  -2   8   6   95.91   19.22
   3  -5 -10    3.32    2.90
   3  -5 -10   -0.18    2.64
  -3   5  10    5.25    2.91
  -3   5  10    6.43    4.00
  -3   5  10    5.83    2.56
   6  -1  -4  502.55   44.07
  -6   1   4  658.43   49.55
   6  -1  -4  605.42   47.63
   0   9   1   -0.31    3.88
   0   9   1    3.04    2.93
   0   9   1    3.66    2.71
   0   9   1    2.99    1.94
   6  -2  -1  123.32   13.45
   6  -2  -1  149.27   22.08
   6  -2  -1  146.03   10.71
   6  -2  -1  122.77   18.82
   6  -2  -1  103.83   25.63
   2   3 -12   20.31    6.66
  -2  -3  12   31.31   10.56
   2   3 -12   17.00    6.70
   2   3 -12    7.19    3.22
   1   6   7    5.06    3.09
  -1  -6  -7    9.16    4.26
   1   6   7   16.43    6.03
   1   6   7   15.59    6.54
   1   6   7    7.10    5.45
   1   6   7    6.21    3.40
   1   6   7    5.38    4.31
   1   6   7   15.79    4.10
   4  -4 -10   13.88    8.73
  -4   4  10    8.92    3.47
   4  -4 -10   19.55    6.97
  -4   4  10   16.36    5.56
   4  -4 -10   18.34    5.42
   6  -1  -2  222.09   29.79
   6  -1  -2  205.34   17.89
  -6   1   2  223.22   26.90
   3  -4   9   74.90   19.37
  -3   4  -9   32.52   17.34
   3  -4   9   90.53   25.41
  -3   4  -9   62.97   16.60
   3  -4   9   56.31   14.97
   3  -4   9   94.88   21.13
   6  -3  -1  175.81   31.01
   6  -3  -1  171.50   23.13
   6  -3  -1  161.76   15.68
  -6   3   1  103.93   41.98
   6  -3  -1  169.30   19.54
   2   7   3  253.17   33.99
   2   7   3  256.26   23.00
   2   7   3  289.11   26.33
   2   7   3  297.42   41.03
   3   3   7   42.18   21.14
   3   3   7   80.30   20.53
   3   3   7   80.85   16.54
   3   3   7   81.70   16.54
   5   1   3  372.58   32.51
   5   1   3  321.06   36.64
   5   1   3  338.92   45.02
   5   1   3  398.61   32.52
   5   1   3  343.74   27.10
   5   1   3  385.35   29.85
  -3   9   2   54.21   13.66
   3  -9  -2   24.94   14.84
   3  -9  -2   35.81   12.03
  -3   9   2   77.78   16.40
  -3   9   2   88.59   19.93
  -3   6   9    5.42    2.78
  -3   6   9    0.90    2.28
  -3   6   9    5.44    2.24
   3  -6  -9    2.41    2.71
   5  -7   0   30.32    8.18
   5  -7   0   17.16    6.10
   5  -7   0   28.11    7.37
   5  -7   0   22.27    7.84
  -1   6 -10   25.28    7.01
   1  -6  10   16.27    4.79
   1  -6  10   17.88    5.01
  -1   6 -10    1.02    4.18
   4  -2 -11  136.55   33.68
   4  -2 -11   57.56   34.96
  -4   2  11  158.69   19.28
   4  -2 -11  170.03   23.85
   3  -9   2  299.61   26.98
  -3   9  -2  231.81   49.69
  -3   9  -2  284.12   33.50
  -3   9  -2  333.00   47.27
   4  -8  -4    9.56    4.16
   4  -8  -4    9.55    2.67
  -4   8   4   12.81    6.08
  -4   8   4   21.48    7.27
  -4   8   4   14.60    3.75
  -4   8   4    6.39    2.26
   4  -8  -4    5.99    5.22
  -5  -3   6  168.13   25.09
   5   3  -6  180.91   27.79
   5   3  -6  162.24   30.95
   5   3  -6  182.06   21.62
   6  -2  -5   83.78   18.26
   6  -2  -5   62.59   20.91
   6  -2  -5   72.04   12.76
  -6   2   5   62.92   13.75
   6  -2  -5   47.38   21.39
   6  -2  -5   97.81   21.69
   5  -7  -3   33.41    9.72
   5  -7  -3   29.91    7.67
   5  -7  -3   16.54    6.10
  -5   7   3   23.00    9.66
   0   1  12   22.36    7.17
   0   1  12   24.39    5.57
   0  -1 -12   10.03    7.07
   0  -1 -12   10.26    4.66
   0  -1 -12   19.05    7.68
   5  -3  -9   -0.71    4.10
   5  -3  -9    9.19    4.29
   5  -3  -9    3.15    1.75
   5  -3  -9    8.59    2.23
   5  -3  -9    7.19    4.90
  -1   6   9  306.46   28.30
  -1   6   9  232.93   43.43
   1  -6  -9  221.56   52.09
  -1   6   9  167.68   54.00
  -1   6   9  278.47   35.68
   5  -6  -6   91.41   25.20
   5  -6  -6   64.68   22.90
   5  -6  -6   69.43   18.91
  -5   6   6   65.49   25.67
   1  -7   9    2.27    2.11
   1  -7   9    4.48    2.96
  -1   7  -9    1.63    1.75
  -1   7  -9    1.55    2.14
   2   8  -2  600.69   45.77
   2   8  -2  530.80   39.18
   2   8  -3   94.09   19.18
   2   8  -3   99.38   19.07
  -2  -8   3   61.91   18.40
   2   8  -3   89.38   11.60
  -1   9  -5   96.72   24.00
  -1   9  -5   98.12   18.26
   1  -9   5   99.77   23.64
  -1   9  -5  111.49   22.39
   4   1 -11  110.64   28.02
   4   1 -11  153.92   21.22
   4  -6   6    1.40    2.10
   4  -6   6    2.05    2.93
   4  -6   6    6.02    2.58
   3   0   9    3.20    2.59
   3   0   9    0.01    2.66
   3   0   9    1.11    2.47
   3   0   9    3.28    2.00
   2   4   8    5.18    2.95
   2   4   8    5.73    4.22
   2   4   8    7.25    5.02
   2   4   8    6.65    3.63
  -2  -4  -8    8.64    2.67
   2   4   8    5.15    3.49
   2   4   8   18.22    4.63
   2   4   8    2.28    3.29
  -3  -4  -6    8.11    4.18
   3   4   6   21.05    7.02
   3   4   6   11.96    4.80
   3   4   6   13.11    3.98
   3   4   6   14.29    4.35
  -1   9   3   81.19   18.78
  -1   9   3   73.85   10.26
  -1   9   3   97.45   17.59
  -1   9   3   66.35   21.00
   6  -4  -3   19.57    6.99
   6  -4  -3   10.34    5.62
   6  -4  -3   18.56    6.45
  -6   4   3   18.75    6.23
   6  -4  -3   27.58    7.73
   6  -4  -2  188.46   19.03
   6  -4  -2  180.12   20.07
   6  -4  -2  217.45   38.88
  -6   4   2  150.82   35.81
   6  -4  -2  153.95   43.16
   1   8   3    1.62    2.46
   1   8   3    3.51    2.22
   1   8   3    2.12    2.18
   1   8   3    1.47    1.56
   1   8   3    5.28    3.65
   1   8   3    1.71    3.60
   1   8   3    1.88    3.07
   4   4   3  512.10   40.44
   4   4   3  526.51   42.04
   4   4   3  448.45   34.30
   4   4   3  439.95   32.94
   2  -7  -8    7.67    4.77
  -2   7   8   17.09    4.86
  -2   7   8   17.56    6.31
  -2   7   8    8.64    6.48
   5   0   4  229.63   22.41
   5   0   4  176.31   38.71
   5   0   4  230.11   33.98
   5   0   4  154.21   35.77
   5   0   4  129.87   28.57
   5   2  -8   10.42    4.21
   5   2  -8    4.18    2.02
  -5  -2   8    4.19    5.24
   5   2  -8    9.46    3.01
   5   2  -8    7.80    3.08
  -3   6  -8    3.54    2.01
   3  -6   8    3.47    3.89
   3  -6   8    6.70    3.26
   3  -6   8    2.98    1.80
   3  -6   8    1.23    1.79
  -3   6  -8    2.18    2.96
   3   7  -3  707.42   52.09
   3   7  -3  685.64   52.06
   3   7  -3  736.57   53.29
  -6   3   5    1.67    4.94
   6  -3  -5    2.71    2.02
   6  -3  -5    4.03    2.05
   6  -3  -5    6.92    2.96
   6  -3  -5    0.77    4.18
   6  -3  -5    3.64    2.97
   6  -3  -5    2.57    2.13
   6  -1  -5  204.03   32.10
   6  -1  -5  201.41   26.76
  -6   1   5  170.86   36.44
   6  -1  -5  198.55   19.40
  -1   4  11    4.95    2.36
  -1   4  11    5.37    4.28
  -1   4  11    3.61    2.73
  -1   4  11   12.31    7.17
  -1   4  11    4.53    2.38
   1  -4 -11    2.77    3.30
   1   7  -9    2.46    2.50
   1   7  -9   -0.63    4.05
  -1  -7   9    3.40    2.49
  -1  -7   9    7.27    5.12
  -1  -7   9    2.78    3.03
   1   7  -9    7.41    3.50
   3  -7   7  160.25   32.97
   3  -7   7  154.31   14.25
  -3   7  -7  154.35   16.31
  -3   7  -7   63.43   39.23
   4   0   7   62.63   36.22
   4   0   7  113.45   39.01
   4   0   7  135.56   24.43
   4   0   7   87.76   24.78
   4   0   7  126.87   12.41
   4   0   7  132.27   30.13
  -2   5 -10  119.24   34.45
   2  -5  10   98.54   22.12
  -2   5 -10   50.61   22.13
   2  -5  10  118.13   33.94
   2  -5  10  129.61   25.63
   6  -1  -1   72.04   21.88
   6  -1  -1   67.80   20.96
   5  -5   4  125.82   28.02
   5  -5   4  121.43   11.63
   5  -5   4  112.03   29.71
   5  -5   4  119.44   40.59
   5   2   2   -1.30    3.63
   5   2   2    3.70    3.17
   5   2   2    4.22    2.15
   5   2   2    1.20    1.37
   2   8  -1  194.58   30.23
   2   8  -1  175.28   29.63
   5   3   0   60.45   25.54
   5   3   0   95.28   23.23
   5   3   0   84.47   17.49
   3   7  -2  405.28   39.74
   3   7  -2  430.17   34.47
   3   7  -2  452.40   50.37
   3   2   8   26.17    8.47
   3   2   8   19.30   13.97
   3   2   8   25.42    8.82
   3   2   8   26.04    6.73
   2   8  -4   84.11   10.73
   2   8  -4   90.16   16.55
   2   8  -4   93.44   20.35
  -2  -8   4   59.75   24.30
  -1  -8   7    3.43    2.85
   1   8  -7    4.65    4.00
  -1  -8   7    3.46    3.04
   1   8  -7    7.19    3.99
   1   8  -7    1.83    2.84
   1   8  -7    2.67    2.98
  -1  -8   7    6.65    2.64
   5  -6   3  212.20   18.26
   5  -6   3  257.98   21.44
   5  -6   3  224.91   36.85
   5  -6   3  234.80   34.76
   5  -6   3  267.05   25.08
  -3   4  11   42.14   12.07
  -3   4  11   35.78   11.76
   3  -4 -11   14.43    4.83
   3  -4 -11    9.76    9.04
  -3   4  11   38.50    9.05
   3  -4 -11   20.59   11.27
  -3   4  11   34.38    8.70
  -5  -1   9   27.20   12.36
   5   1  -9   51.78   10.62
   5   1  -9   39.87   13.09
   2   3   9  141.69   28.62
  -2  -3  -9   79.32   26.27
   2   3   9  103.21   26.82
   2   3   9   84.03   24.17
   2   3   9  101.84   35.01
   2   3   9   59.60   27.33
   2   3   9   54.80   21.63
   3   7  -4  182.82   17.38
   3   7  -4  177.45   33.33
  -3  -7   4  125.57   35.81
   3   7  -4  205.95   23.96
  -3   2  12    2.80    3.58
  -3   2  12    0.47    3.47
  -3   2  12    3.56    2.99
   3  -2 -12    1.49    3.45
  -3   2  12    5.24    7.46
   3  -2 -12    2.55    2.13
   6  -4  -4  122.13   13.03
   6  -4  -4  123.23   12.71
  -6   4   4   89.57   22.34
   6  -4  -4   99.35   22.02
   6  -4  -4  121.80   18.19
   6  -4  -1   52.14   11.96
   6  -4  -1   45.15   10.26
   6  -4  -1   48.65   12.45
   6  -4  -1   42.01   16.11
   4  -7   5   98.83   24.58
   4  -7   5  115.20   37.07
   4  -7   5  130.80   29.64
  -4   7  -5   99.70   20.32
   4  -7   5  135.53   34.02
   3  -8  -6   29.81   26.76
  -3   8   6  110.45   29.08
  -3   8   6  135.24   28.28
   0   8   5  135.26   34.76
   0   8   5  184.00   38.30
   0   8   5  181.18   40.24
   0   8   5  175.81   36.10
   0   8   5  154.33   37.47
   2  -8   7  283.43   35.88
  -2   8  -7  270.93   33.45
  -2   8  -7  257.10   35.31
   2  -8   7  292.49   53.48
  -1   8   6    4.38    2.18
   1  -8  -6   12.23    4.88
  -1   8   6   10.59    6.76
  -1   8   6    2.51    2.92
  -1   8   6    6.37    3.81
   4  -8   3  426.76   60.69
  -4   8  -3  488.70   37.46
  -4   8  -3  365.31   40.20
   4  -8   3  453.38   44.63
   4  -8   3  384.99   29.86
   4  -8   3  420.25   36.28
  -4   8  -3  309.42   60.86
   1   4 -12   39.23    9.31
  -1  -4  12   56.07   13.97
   1   4 -12   23.23   12.37
   4   3 -10  288.62   24.20
  -4  -3  10  351.19   29.09
   4   3 -10  291.29   23.67
   4   3 -10  237.72   20.06
   3   6  -8   55.17   11.80
  -3  -6   8   39.06   12.19
  -3  -6   8   30.47   15.50
   3   6  -8   54.87   10.80
   3   6  -8   40.32   10.01
   6  -2   0  150.20   31.68
   6  -2   0  124.66   21.83
   6  -2   0  120.46   23.42
   6  -2   0  138.00   21.31
   5  -7   1  331.69   37.67
   5  -7   1  258.66   42.66
   5  -7   1  325.96   28.20
   5  -7   1  334.05   27.29
   5  -7   1  273.39   22.37
   5  -7   1  366.71   28.83
   0   7   7    3.87    3.62
   0   7   7    4.29    2.34
   0   7   7    1.84    3.98
   0   7   7    5.75    2.09
   0  -7  -7    3.35    1.37
   0   7   7    6.55    3.52
   0   7   7    6.60    2.37
   6  -3   0  492.73   37.35
   6  -3   0  599.68   45.58
   6  -3   0  529.23   42.43
   6  -3   0  481.82   36.62
   6  -3   0  524.35   39.33
  -2  -7   8   32.55    8.34
   2   7  -8   37.78   10.39
   2   7  -8   15.58    5.44
   2   7  -8   33.86    8.24
   2   7  -8   16.59    7.38
  -2  -7   8   16.66   10.16
  -2  -7   8   39.27   11.51
   2   5   7  388.04   36.97
  -2  -5  -7  335.04   43.28
   2   5   7  315.77   25.83
   2   5   7  356.05   30.47
   2   5   7  403.25   34.18
   2   5   7  388.07   33.39
   2   5   7  328.40   27.44
   0   9  -5    2.61    1.74
   0   9  -5    7.62    3.57
   0   9  -5    1.51    2.32
   0  -9   5    1.62    1.84
   5  -7  -4  137.96   12.72
   5  -7  -4   99.66   38.76
   5  -7  -4  156.42   13.74
  -5   7   4  104.08   36.39
   4   5  -7   62.16   12.06
   4   5  -7   54.49    9.96
  -4  -5   7   25.70   13.80
   4   5  -7   55.35   12.78
   3   2 -12    6.77    4.86
   3   2 -12    1.32    1.66
  -3  -2  12    7.13    3.58
   3   2 -12    2.76    4.29
   3   2 -12    2.26    1.90
   4   5   1  183.48   30.18
   4   5   1  173.48   20.30
   4   5   1  167.40   21.68
   4   5   1  137.74   20.81
   4   5   1  155.25   15.13
   5  -3   5   91.13   21.06
   5  -3   5   86.71   19.54
   5  -3   5  108.19   28.62
   3  -9  -3  764.92   60.11
  -3   9   3  826.98  206.87
  -3   9   3  813.36   67.95
  -3   9   3  920.03  230.81
   3  -9  -3  759.43   54.90
   6   0  -4    5.01    3.02
   6   0  -4    6.73    2.85
   5  -2   5   65.63   18.10
   5  -2   5   77.14   17.92
   5  -2   5   98.89   22.89
   4  -5   7   15.12    5.04
   4  -5   7   17.72    5.93
   4  -5   7   13.85    4.84
  -3   9  -3  160.98   33.37
   3  -9   3  121.89   33.91
   3  -9   3  109.30   26.61
  -3   9  -3  139.09   23.21
  -3   9  -3  105.20   26.27
   0   9   2   16.09    5.71
   0   9   2    5.97    4.22
   0   9   2    8.08    3.72
   0   9   2    6.23    3.12
   3   7  -1   11.66    5.09
   3   7  -1   11.43    4.94
   3   7  -1    9.45    3.72
   3   7  -1   13.76    4.57
   4  -7  -7  202.12   21.11
   4  -7  -7  131.50   54.51
  -4   7   7  177.21   38.22
  -4   7   7  178.74   23.60
  -4   7   7  188.53   43.61
  -4   7   7  145.85   44.05
   4   4  -9   10.20    2.86
   4   4  -9   15.44    5.00
  -4  -4   9    7.97    6.51
   4   4  -9   13.13    4.71
   4   4  -9   11.67    3.45
   1   2  11   11.29    4.42
  -1  -2 -11    5.91    4.42
   1   2  11   11.16    4.11
   1   2  11    1.22    4.28
   1   2  11    5.81    6.18
   1   2  11   14.01    4.82
   6  -2  -6   98.83   20.98
  -6   2   6   64.75   26.20
   6  -2  -6   84.69   11.54
   6  -2  -6  107.85   26.95
   6  -2  -6   76.29   22.24
   3  -7  -8   13.31    9.40
  -3   7   8   43.14    9.73
  -3   7   8   38.66    9.80
  -3   7   8   32.00    8.67
   1  -5  11    1.54    2.57
   1  -5  11    5.07    3.39
   1  -5  11    0.48    1.98
  -1   5 -11    6.06    5.85
  -1   5 -11    1.20    2.04
   0  -4  12  321.90   27.50
   0  -4  12  307.12   25.37
   0   4 -12  336.08   37.34
   0   4 -12  326.19   39.58
   2   5 -11  111.28   26.30
   2   5 -11   88.01   19.90
  -2  -5  11  110.36   24.07
   2   5 -11   81.95   28.48
   2   5 -11  120.87   24.39
   0  -8   8    1.76    3.71
   0  -8   8    8.44    4.71
   0   8  -8    4.38    3.33
   0   8  -8    1.58    1.65
  -2   9   4  398.90   58.82
  -2   9   4  501.01   51.74
   2  -9  -4  394.46   32.39
  -2   9   4  409.75   48.24
  -2   9  -5    2.52    3.55
  -2   9  -5   -0.12    3.74
   2  -9   5   -0.00    2.78
  -2   9  -5    4.68    3.60
   2  -3 -12   14.58   10.96
  -2   3  12   30.73    8.37
  -2   3  12   40.25   10.45
  -2   3  12   24.33    9.64
  -2   3  12   39.52   12.16
   2   8   0   80.61   15.74
   2   8   0   43.95   15.10
   2   8   0   77.76   16.96
   2  -2  11   71.01   22.67
  -2   2 -11  146.42   44.93
  -2   2 -11  204.51   24.48
   2  -2  11  175.42   21.84
   2  -2  11  151.25   24.37
   2  -2  11  204.53   43.42
   3   7  -5  595.78   44.12
  -3  -7   5  620.18   47.11
   3   7  -5  570.57   58.58
   3   7  -5  548.33   41.03
   5   3  -7    6.69    2.93
   5   3  -7   12.07    3.81
   5   3  -7   17.18    4.78
  -5  -3   7    3.72    3.22
   5   3  -7   10.40    3.42
   2   8  -5  346.72   54.47
   2   8  -5  296.00   46.84
   2   8  -5  381.67   43.34
   2   8  -5  307.21   45.46
  -2  -8   5  333.34   31.94
   2   8  -5  365.29   28.95
  -4   3  11  251.68   26.17
   4  -3 -11  166.25   19.03
   4  -3 -11  222.31   33.00
   4  -3 -11  184.40   34.11
   6  -1  -6  122.12   13.97
  -6   1   6   76.26   29.35
   6  -1  -6  114.16   28.92
   6  -1  -6  127.99   23.87
  -1   7   8   13.68    5.43
  -1   7   8   18.55    4.96
  -1   7   8   24.18    7.35
   1  -7  -8    8.62    6.48
  -1   7   8   10.50    4.74
   5  -5  -8   28.81    6.22
   5  -5  -8   21.56    6.80
   5  -5  -8   27.34    5.31
  -5   5   8   11.73    9.43
   5  -5  -8    7.61    4.74
   3   6   3  105.83   21.03
   3   6   3   81.96   22.60
   3   6   3   75.61   14.90
   3   6   3   58.98   19.12
   6  -4  -5   58.33   15.19
  -6   4   5   58.03   21.06
   6  -4  -5   80.20   23.32
   6  -4  -5   70.69   18.67
   6  -4  -5   67.66    8.96
   6   0  -5  512.51   37.74
   6   0  -5  566.33   41.36
   6   0  -5  557.75   40.69
   6  -1   0   20.07    7.28
   6  -1   0   22.83    7.28
   6  -1   0   45.81   10.08
   1  -2  12  263.77   37.37
   1  -2  12  173.70   29.21
  -1   2 -12  187.05   56.13
  -1   2 -12  266.33   39.28
  -1   2 -12  258.55   23.46
  -1   8  -8   -0.98    3.24
  -1   8  -8    2.76    3.46
   1  -8   8    6.45    4.14
   1  -8   8    1.76    2.27
   6  -4   0  738.87   55.93
   6  -4   0  801.04   65.03
   6  -4   0  768.16   59.39
   6  -4   0  674.76   51.82
   6  -4   0  778.39   57.58
   6  -3  -6  154.64   15.98
   6  -3  -6  132.03   37.20
   6  -3  -6  166.43   15.83
  -6   3   6  131.58   31.66
   6  -3  -6  168.41   23.95
   6  -3  -6  111.97   34.33
   6  -3  -6  178.66   22.21
  -4   8   5  105.51   35.92
  -4   8   5  159.57   30.63
   4  -8  -5  162.64   27.09
   4  -8  -5  158.79   14.17
  -4   8   5  174.96   32.17
   4  -8  -5  142.70   40.29
  -4   8   5   80.69   36.94
  -1   1 -12   73.60   29.50
   1  -1  12  134.29   24.29
  -1   1 -12  150.73   17.23
  -1   1 -12  160.91   30.36
   1  -1  12  162.01   33.97
   3   4 -11   50.18   12.48
  -3  -4  11   28.82   13.69
   3   4 -11   50.88   14.70
  -3   5  -9   -0.20    4.36
  -3   5  -9    5.95    4.71
   3  -5   9    2.21    1.75
   3  -5   9    1.17    2.36
   3  -5   9    1.87    2.17
   3  -5   9    6.01    4.42
   3   5   5    1.30    4.19
   3   5   5    8.72    2.81
   3   5   5   16.08    5.62
   3   5   5   11.10    4.56
   2  -1  11  113.80   34.45
   2  -1  11   89.21   30.38
   2  -1  11  108.03   29.03
  -2   1 -11  142.15   33.56
  -2   1 -11   99.74   14.90
   2  -1  11  122.86   24.82
   5  -4   5    4.90    2.14
   5  -4   5   -0.70    3.75
   5  -4   5    2.36    2.40
   4   2   6  179.41   37.35
   4   2   6  159.56   33.83
   4   2   6  174.85   30.09
   4   2   6  170.34   15.83
  -2  -6  10   48.94   23.39
   2   6 -10   87.54   17.32
  -2  -6  10   89.38   19.78
   2   6 -10   64.25   25.03
   2   6 -10  102.64   19.59
   2   6 -10  121.12   22.12
   4   2 -11   54.02   14.04
  -4  -2  11   43.26   23.70
   4   2 -11   86.75   18.39
   1   9  -2    5.31    2.88
   1   9  -2    0.79    2.83
   1   9  -2    0.50    1.79
  -1  -9   2    0.63    2.43
   1   9  -2    2.55    3.39
   1   9  -2    0.63    3.56
   3   5 -10   47.58   13.61
  -3  -5  10   35.90   20.19
   3   5 -10   65.01   11.81
   5  -1 -10  117.59   37.13
   5  -1 -10   97.00   22.92
   5  -1 -10  116.52   37.00
   5  -4  -9   10.64    3.39
   5  -4  -9    7.29    7.04
   5  -4  -9   12.08    3.08
   3  -8   6    2.39    1.88
  -3   8  -6    3.54    5.15
  -3   8  -6    4.73    2.60
   3  -8   6    1.65    2.78
   1   1 -13   44.43    9.94
  -1  -1  13   61.80   13.75
   1   1 -13   49.33   11.08
  -1  -1  13   60.71   14.28
   2  -3  11  184.67   27.79
  -2   3 -11  221.14   38.08
  -2   3 -11  122.77   49.52
   2  -3  11  220.03   49.59
   5  -1   5   81.00   24.59
   5  -1   5   73.39   21.01
   5  -1   5   68.87   14.38
   5  -1   5   26.25   14.21
   4   3   5  138.38   26.53
   4   3   5  132.40   19.75
   4   3   5  186.34   37.25
   4   3   5   88.76   41.84
   6   0  -1  204.53   35.63
   1   9  -3  225.48   36.23
   1   9  -3  313.75   49.53
   1   9  -3  164.17   42.40
   1   9  -3  265.69   41.10
   1   9  -3  237.36   19.93
   6  -5  -2   98.87   22.14
  -6   5   2   48.39   12.50
   6  -5  -2   66.94   19.37
   6  -5  -2   98.19   22.62
   6  -5  -2   91.49   12.07
   1   9  -1  176.25   15.59
   1   9  -1  223.52   34.65
   1   9  -1  195.21   33.19
   1   9  -1  185.26   29.94
   1   9  -1  157.65   27.93
   2   0 -13    4.48    3.50
  -2   0  13    7.20    2.61
  -2   0  13   10.84    3.75
   2   0 -13   12.64    4.38
   2   0 -13   -1.13    4.78
  -6   5   3   71.11   20.16
   6  -5  -3   87.85   17.70
   6  -5  -3   80.24   20.24
   6  -5  -3   94.50   11.59
   6  -5  -3   88.21   10.42
   1  -9   6   56.13   17.83
  -1   9  -6   51.01   13.34
  -1   9  -6   21.79   11.51
  -1   9  -6   52.96   12.32
   0   2  12   15.39    4.18
   0   2  12    7.02    3.12
   0   2  12   10.44    3.62
   0  -2 -12    1.50    3.26
   0   2  12    5.33    6.34
   5  -7   2   15.01    4.35
   5  -7   2    4.05    4.25
   5  -7   2    8.17    3.63
   5  -7   2    4.68    3.00
   5  -7   2   12.77    3.39
   5  -7   2    8.52    6.40
   1   7   6  139.59   22.43
   1   7   6   75.22   27.78
   1   7   6  129.99   24.91
   1   7   6  127.52   28.22
   1   7   6   75.28   31.41
   1   7   6  122.19   28.61
   1   7   6   92.65   30.62
   2   1 -13    3.41    1.93
  -2  -1  13    4.74    1.95
   2   1 -13    1.57    1.97
  -2  -1  13    2.86    3.15
   2   1 -13    3.28    4.82
   1   0 -13  193.82   20.24
   1   0 -13   44.08   35.50
  -1   0  13  193.09   42.59
   1   0 -13  103.41   32.50
  -1   0  13  192.03   27.34
   1   0 -13  217.65   38.01
   3   7   0   19.32    7.42
   3   7   0   15.64    4.10
   3   7   0   13.30    4.10
   3   7   0   11.36    5.25
   2   2  10  449.27   37.20
   2   2  10  415.20   33.39
   2   2  10  365.12   60.34
  -2  -2 -10  467.31   39.07
   2   2  10  445.88   38.17
   2   2  10  477.29   42.40
   2   2  10  459.90   35.06
   2   2  10  467.04   37.52
   5  -2 -10  313.93   38.69
   5  -2 -10  257.92   23.85
   5  -2 -10  314.20   23.49
   5   3   1   62.23   19.36
   5   3   1   63.27   17.60
   5   3   1   26.02   19.55
   1  -3 -12    5.64    4.41
  -1   3  12   17.75    5.26
  -1   3  12   20.25    7.82
  -1   3  12   17.30    6.63
  -1   3  12    5.28    4.28
   6  -3   1   93.94   26.48
   6  -3   1   77.86   24.81
   6  -3   1   91.09   23.79
   6  -3   1   79.96   19.71
   5  -6  -7   25.17    7.49
   5  -6  -7   25.96    8.09
   5  -6  -7   12.13    5.70
  -5   6   7   14.10    7.20
   5  -6  -7   19.81    5.22
   5  -7  -5  158.45   26.85
   5  -7  -5  135.91   28.62
   5  -7  -5   98.83   31.41
  -5   7   5   92.98   34.65
   2   4 -12   89.65   16.73
  -2  -4  12   84.87   22.70
   2   4 -12   76.72   27.21
   2   4 -12  135.72   28.01
   2   4 -12   73.81   28.78
  -1   9   4    3.86    2.11
  -1   9   4    5.30    3.30
  -1   9   4    4.52    5.01
  -1   9   4    1.96    4.55
   6  -2   1   37.13    9.38
   6  -2   1   29.82    9.50
   6  -2   1   35.44   11.76
   3   1   9   47.76   36.16
   3   1   9  105.55   28.81
   3   1   9   99.37   29.27
   3   1   9   94.69   27.56
   5   0 -10  352.08   25.24
   5   0 -10  336.64   34.89
  -1   3 -12  103.72   26.61
   1  -3  12  106.98   26.37
   1  -3  12   68.12   21.17
   1  -3  12   54.26   23.28
  -1   3 -12   57.04   22.15
  -1  -2  13   67.20   18.35
   1   2 -13   68.03   16.88
  -1  -2  13   58.86   15.62
   1   2 -13   35.02   11.14
   6  -5  -1  183.13   15.21
   6  -5  -1  158.43   36.12
   6  -5  -1  177.47   18.40
   6  -5  -1  195.95   27.04
   2   7   4   22.18    7.06
   2   7   4   14.10    4.32
   2   7   4   12.63    5.58
   2   7   4   10.61    9.03
   4  -2   8  111.95   28.30
   4  -2   8  108.11   29.64
   4  -2   8    0.65   10.16
   4  -2   8  116.14   29.62
   5   4  -3   19.68    8.25
   5   4  -3   16.99    7.14
   5   4  -3   33.06   10.68
  -5  -4   3    2.99    4.06
   5   4  -3   12.69    4.55
   4  -3   8   23.21    8.04
   4  -3   8   18.41    6.89
   4  -3   8   26.43    8.66
   5   4  -4  106.71   22.05
  -5  -4   4   62.56   33.96
   5   4  -4  125.69   23.18
   5   4  -4   89.57   21.75
  -1   0 -12   56.47   25.63
  -1   0 -12   95.47   20.39
   1   0  12  116.11   32.43
   1   0  12  113.00   29.91
  -1   0 -12  109.14   27.95
  -3   9   4  291.25   49.50
  -3   9   4  243.55   44.47
   3  -9  -4  180.68   47.20
  -3   9   4  136.40   41.96
   3  -9  -4  234.75   18.69
   6   0  -6   85.91   19.71
  -6   0   6   32.10   19.94
   6   0  -6   76.07   17.68
   6   0  -6   79.38   19.83
   6  -5  -4   57.48   13.90
   6  -5  -4   55.80   17.95
   6  -5  -4   60.00   16.65
  -1  -9   4   12.46    5.06
   1   9  -4    6.96    2.70
   1   9  -4   12.76    5.13
   1   9  -4   12.34    5.82
   1   9  -4   11.19    4.71
   3   7  -6   41.18    9.59
   3   7  -6   44.14   12.33
   3   7  -6   12.06    4.59
   2   6   6    0.39    1.94
   2   6   6    2.04    1.65
   2   6   6    1.62    3.58
   2   6   6    1.95    2.18
   2   6   6    1.67    3.19
   2   6   6    4.13    4.49
  -3   3  12   50.47   14.22
  -3   3  12   34.55   18.93
  -3   3  12   49.93   14.47
  -3   3  12   33.54   13.33
   3  -3 -12   16.90    9.97
   3  -3 -12   20.35   14.14
   0  -9   6   20.15    7.85
   0   9  -6   10.30    5.43
   0   9  -6   16.66    5.33
   0   9  -6   25.49    7.91
   4  -8   4  148.44   40.01
   4  -8   4  116.21   42.59
   4  -8   4  186.46   23.77
  -4   8  -4  165.90   27.43
   4  -8   4  167.85   32.83
   4  -8   4  156.99   40.97
  -4   8  -4   92.97   46.14
  -3   9  -4   58.73   19.28
  -3   9  -4   63.91   15.32
   3  -9   4   42.86   13.86
  -3   9  -4   11.53    8.62
   5   1   4   10.01    3.79
   5   1   4   10.49    4.96
   5   1   4    4.14    3.07
   5   1   4    4.82    2.29
   5   1   4   11.98    7.89
   5   1   4   12.27    4.67
   0   5  10   53.76   30.58
   0   5  10  124.86   22.27
   0   5  10  118.39   37.22
   0   5  10  149.83   32.47
   4   1   7    2.88    2.53
   4   1   7    1.76    2.32
   4   1   7   12.14    4.98
   4   1   7    4.04    3.55
   4   1   7    1.24    3.86
   1   8   4   79.64   19.13
   1   8   4   48.27   15.52
   1   8   4   32.19   18.04
   1   8   4   70.90   19.05
   1   8   4   71.64   22.70
   1   8   4   72.78   17.92
   1   8   4   35.31   15.48
   2   8   1  124.21   25.91
   2   8   1  169.36   30.93
   2   8   1  169.72   29.01
   0  -6  11  255.48   37.80
   0  -6  11  249.20   23.17
   0   6 -11  285.41   43.46
  -2   8   7  433.22   32.07
   2  -8  -7  309.97   26.45
  -2   8   7  377.79   28.21
   6  -2  -7  192.75   19.53
   6  -2  -7  214.39   28.42
   6  -2  -7  195.78   16.56
  -6   2   7  128.52   42.04
   5   2  -9   81.94   19.12
   5   2  -9   58.54   19.82
   5   2  -9   40.27   10.26
  -5  -2   9   45.41   17.84
   1   9   0   58.07   15.76
   1   9   0   39.97    8.70
   1   9   0   51.00   15.26
   1   9   0   44.48   10.89
   1   9   0   27.01   10.96
   4  -5 -10   -0.03    2.58
  -4   5  10    2.82    2.65
   4  -5 -10    0.98    2.02
  -4   5  10    5.67    3.63
   2   8  -6  409.44   41.39
   2   8  -6  392.14   33.70
  -2  -8   6  305.64   46.35
  -2  -8   6  455.81   32.37
   2   8  -6  328.61   48.32
  -2  -8   6  322.70   38.45
   4   6  -3  128.23   24.69
   4   6  -3  115.98   28.44
   4   6  -3  113.46   27.44
   4   6  -3  129.87   19.60
   2  -1 -13    4.01    5.64
   2  -1 -13   -0.36    5.09
  -2   1  13   18.18    7.39
   2  -1 -13    3.88    2.70
  -2   1  13   29.99    8.73
  -2   1  13   31.50   11.51
   5   4  -2   21.17    6.81
   5   4  -2   15.29    5.30
   5   4  -2   12.63    4.69
   5   4  -2   14.98    5.59
   5   4  -2   24.87    9.00
   2   0  11  112.46   37.15
  -2   0 -11  130.29   15.94
   2   0  11  109.61   29.42
   2   0  11  124.10   28.89
  -2   0 -11  115.08   38.87
   2   0  11  144.25   24.87
   5  -6   4  267.70   21.59
   5  -6   4  257.49   38.76
   5  -6   4  307.13   49.44
   5  -6   4  286.78   21.44
   1   5   9    7.31    4.24
   1   5   9    1.97    4.71
   1   5   9   19.79    6.37
   1   5   9    5.11    3.27
   1   5   9    4.57    3.46
  -1  -5  -9    3.14    5.32
   1   5   9    5.95    4.12
   1   5   9   19.07    6.31
   4  -6  -9    4.26    2.26
  -4   6   9   -2.64    4.04
   4  -6  -9    8.22    3.61
  -4   6   9   14.67    5.56
  -4   6   9   10.26    3.83
  -4   6   9    6.52    6.65
   4   5  -8   20.93    7.00
   4   5  -8   12.61    4.75
   4   5  -8   11.61    4.06
   4   5  -8   17.30    5.86
   6  -4  -6    2.28    2.38
   6  -4  -6   -0.95    2.54
   6  -4  -6    5.16    3.68
   6  -4  -6    1.71    2.46
   6  -4  -6    0.57    3.62
   0  -7  10   13.98    5.81
   0   7 -10   10.34    4.47
   0  -7  10    6.79    3.70
   0   9   3   58.69   12.01
   0   9   3   58.86   16.06
   0   9   3   18.45    8.38
   0   9   3   59.06   14.90
   5   2   3    0.88    2.12
   5   2   3    0.86    4.01
   5   2   3   -0.92    3.22
   5   2   3    4.76    3.69
   6  -4   1  794.24   52.78
   6  -4   1  859.55   56.61
   6  -4   1  725.06   49.96
   6  -4   1  751.19   51.92
   6  -4   1  731.40   50.45
   3   3 -12   94.16   19.82
   3   3 -12   70.41   21.20
   3   3 -12   86.17   21.00
  -3  -3  12   66.94   21.37
   2  -7   9  127.98   24.95
   2  -7   9  141.32   34.83
  -2   7  -9  134.03   21.88
   4   6  -4    2.65    3.63
   4   6  -4    3.38    2.24
   4   6  -4    4.39    2.32
   4   6  -4   -1.03    4.40
   2   2 -13   90.26   29.83
  -2  -2  13  158.11   28.66
   2   2 -13  174.59   30.20
  -2  -2  13  165.38   31.29
   4   5   2   10.07    4.26
   4   5   2    7.88    3.28
   4   5   2   10.38    4.62
   5   4  -5   15.99    6.01
   5   4  -5    5.89    3.24
   5   4  -5   11.84    4.98
   6  -1  -7  625.92   42.95
   6  -1  -7  683.43   48.73
   6  -1  -7  639.46   43.35
   6   1  -3   96.23   23.51
   1   4  10    6.22    5.61
   1   4  10   29.97    9.97
   1   4  10   33.43   10.64
   1   4  10   18.03   11.95
  -1  -8   8  575.76   40.04
  -1  -8   8  460.84   58.43
   1   8  -8  459.97   49.38
   1   8  -8  428.21   45.13
   1   8  -8  386.27   48.64
   6   1  -4   20.23    6.99
   6   1  -4   16.95    6.98
  -1  -6  11   11.09    4.68
   1   6 -11    4.08    2.83
  -1  -6  11    8.66    2.96
   4   4   4   33.62   10.09
   4   4   4   20.20    7.04
   4   4   4   35.03    5.81
   4   6  -2  441.16   47.34
   4   6  -2  337.02   24.84
   4   6  -2  397.94   34.81
   4   6  -2  430.27   51.43
   0   6   9    0.48    1.10
   0   6   9    2.40    2.33
   0   6   9   -1.72    3.90
   0   6   9    2.32    2.26
   0   6   9    5.81    6.44
   2  -4  11    2.65    2.04
   2  -4  11    5.74    3.93
   2  -4  11    6.37    3.54
  -2   4 -11   -0.06    3.55
   4  -9  -1    4.13    5.40
  -4   9   1    5.34    2.90
  -4   9   1    1.74    2.27
   4  -9  -1    1.58    2.77
   4  -9  -1    7.12    3.72
  -4   9   1    8.16    4.52
   6  -1   1    3.40    3.32
   6  -1   1    4.80    3.45
   6  -1   1    5.26    2.71
   6   0   0    9.12    3.48
   6   0   0   16.67    6.95
  -2   6  10   24.46    8.89
  -2   6  10   15.29    5.50
  -2   6  10   14.03    5.33
  -4   9   0  235.60   39.92
   4  -9   0  139.18   46.48
   4  -9   0  230.66   19.06
  -4   9   0  133.02   34.25
  -4   9   0  203.14   29.87
   4  -1   8   26.91    9.67
   4  -1   8    3.52    5.78
   4  -1   8   30.57    9.25
   4  -1   8   11.94    4.84
   6  -5   0  344.41   26.57
   6  -5   0  296.18   35.13
   6  -5   0  311.22   26.52
   6  -5   0  309.82   30.96
   1  -1 -13    9.21    3.72
   1  -1 -13    3.78    2.47
  -1   1  13    9.66    4.98
  -1   1  13   14.96    4.84
  -3   2 -10  423.45   34.94
   3  -2  10  444.32   33.20
   3  -2  10  434.04   35.96
   3  -2  10  466.16   32.82
  -2   5  11   46.53   18.20
  -2   5  11   41.41   14.04
  -2   5  11   45.54   15.06
   5  -5   5    2.01    3.04
   5  -5   5    6.51    3.76
   5  -5   5    4.82    2.64
   5  -3 -10   69.85   13.49
   5  -3 -10   70.21   16.96
   5  -3 -10   85.84   26.27
   5  -3 -10   83.73   18.02
   5  -3 -10   19.06   11.87
   0   4  11   30.20    9.71
   0   4  11   18.96    7.73
   0   4  11   24.90    8.18
   6  -3  -7   79.90   18.48
   6  -3  -7   83.97   23.91
   6  -3  -7   35.77   13.20
   6  -3  -7   87.12   23.30
   6  -3  -7   63.38   16.86
   4  -4   8   13.32    5.46
   4  -4   8   16.31    8.60
   4  -4   8   30.25    9.69
   5   3  -8   47.21   14.30
   5   3  -8   70.19   15.96
   5   3  -8   86.18   21.08
   5   3  -8   75.95   18.53
   3   6  -9  206.05   36.14
   3   6  -9  175.31   28.81
   3   6  -9  183.77   32.21
   2  -6  10   -0.19    3.49
  -2   6 -10   -2.01    3.32
   2  -6  10    4.35    3.51
   2  -6  10    0.95    2.42
   6   1  -2    6.87    3.25
  -3   3 -10   10.42    3.62
   3  -3  10    9.71    4.57
   3  -3  10   15.39    7.12
   3  -3  10   11.23    4.15
   4   0 -12  227.92   17.92
   4   0 -12  186.00   22.74
  -4   1  12   49.53   12.48
   4  -1 -12   50.11   15.60
   4  -1 -12   44.67   12.06
  -3   8   7 1372.65   38.96
  -3   8   7 1282.36   89.07
   5   0   5    2.30    3.71
   5   0   5   19.76    9.27
   5   0   5   21.81    7.42
   5   0   5   37.58   11.01
   5   0   5   37.66   10.01
   4   6  -5   23.83    7.43
   4   6  -5   19.99    5.83
   4   6  -5   21.00    7.22
   6  -5  -5  100.47   25.82
   6  -5  -5   82.71   23.17
   6  -5  -5   73.38   22.49
   6   1  -5  127.71   17.96
   6   1  -5   96.82   25.91
   4  -9  -2    7.19    4.66
  -4   9   2   21.39   10.48
   4  -9  -2   28.81    7.81
   4  -9  -2   29.43   11.31
  -4   9   2   41.38   10.88
  -4   9   2   29.33    8.36
   4  -6   7    6.04    3.28
  -4   6  -7    2.69    1.92
   4  -6   7    8.63    5.29
   4  -6   7    3.90    2.14
   4  -6   7    7.84    7.10
   4  -7   6    6.51    4.31
   4  -7   6    0.84    3.95
  -4   7  -6    3.61    2.87
   4  -7   6   12.66    5.24
   4  -7   6    9.36    4.23
   5   1 -10   75.83   18.71
   5   1 -10   54.38   16.93
   2   7  -9    2.85    1.97
   2   7  -9    3.86    2.54
   2   7  -9    3.16    3.25
  -2  -7   9    3.97    3.65
  -2  -7   9    1.89    2.03
   0  -1  13   49.10   11.30
   0   1 -13   45.38   13.09
   0  -1  13   36.69    9.63
   0   1 -13    7.17    4.39
  -2   9   5  211.58   33.78
  -2   9   5  175.05   32.29
   2  -9  -5   46.51   38.57
  -2   9  -6   82.99   20.07
   2  -9   6   65.28   18.18
   2  -9   6  101.36   25.59
   3   7   1   88.85   16.11
   3   7   1  135.53   29.21
   3   7   1  119.16   29.57
  -4   9  -1  142.88   24.38
   4  -9   1   67.37   24.72
   4  -9   1  108.80   25.97
  -4   9  -1   81.66   29.51
   4  -9   1   65.73   26.21
  -4   9  -1  145.01   21.95
   4  -9   1  115.33   30.53
   1   9  -5   31.38    9.15
   1   9  -5   25.42    7.64
  -1  -9   5   26.96   11.51
   1   9  -5   27.88    9.71
   1   9  -5   21.06    8.49
   1   9  -5   14.74    7.18
  -1  -3  13  383.40   31.12
  -1  -3  13  348.36   26.57
   1   3 -13  337.07   28.52
   5   4  -1    2.69    2.62
   5   4  -1    4.42    3.25
   5   4  -1    4.19    3.60
   1   5 -12  758.84   54.84
  -1  -5  12  723.93   52.98
  -2  10  -1  300.05   24.55
   2 -10   1  281.01   22.83
  -2  10  -1  248.47   22.05
  -4   8   6    9.28    3.58
   4  -8  -6   13.26    4.71
  -4   8   6    3.05    4.71
  -4   8   6   11.77    5.11
  -1  10  -1    8.80    3.06
   1 -10   1   12.01    4.47
  -1  10  -1   20.45    7.02
   0  -2  13  738.10   64.19
   0   2 -13  718.50   48.50
   0  -2  13  752.27   51.54
   4  -4 -11   11.09    4.44
  -4   4  11    3.75    3.68
  -4   4  11   12.03    6.48
   4  -4 -11   12.09    4.77
  -3   1 -10   58.65   17.56
   3  -1  10   85.95   23.47
   3  -1  10   86.07   24.55
   3  -1  10   64.13   22.84
   3  -1  10   48.63   22.57
   0   8   6   13.03    4.51
   0   8   6   25.27    9.16
   0   8   6   17.22    6.58
   0   8   6   21.03    6.97
   1   6   8    2.23    1.35
   1   6   8    3.66    3.18
   1   6   8    8.58    5.37
   1   6   8   -0.20    2.10
   1   6   8    0.66    1.53
   2 -10   0  214.86   49.11
  -2  10   0  232.29   34.81
  -2  10   0  289.19   35.67
  -1  -7  10  707.02   63.22
  -1  -7  10  861.31   57.79
   1   7 -10  777.94   52.03
   1   7 -10  769.29   71.64
   1  -4  12   24.44    9.08
   1  -4  12   25.82   10.60
   1  -4  12   34.14    9.78
  -1   4 -12   30.37    9.69
   5  -7   3  185.70   24.19
   5  -7   3  164.76   19.02
   5  -7   3  120.73   32.43
   5  -7   3  141.26   32.21
  -3   6  10    7.99    4.37
  -3   6  10    3.96    2.49
   4   6  -1  278.14   30.47
   4   6  -1  308.07   43.06
   4   6  -1  272.37   35.81
   4   6  -1  292.55   29.79
   1 -10   2  358.54   27.97
  -1  10  -2  383.21   29.12
  -1  10  -2  313.18   25.73
   5  -8  -1    5.59    2.74
   5  -8  -1   10.07    3.98
   3  -7   8   13.22    6.71
   3  -7   8    2.66    2.14
  -3   7  -8    7.78    3.62
   2  -8   8   10.98    4.27
   2  -8   8    4.89    3.30
  -2   8  -8    4.68    2.89
   0  -5  12    2.69    2.47
   0   5 -12    4.36    2.88
   0  -5  12    1.63    4.19
   5   4  -6    3.55    2.65
   5   4  -6    1.01    2.08
   5   4  -6    3.04    1.63
   1   9   1    1.54    2.26
   1   9   1    3.18    3.60
   1   9   1    2.58    2.39
   1   9   1    1.39    1.54
   5  -8  -2   69.13   18.82
   5  -8  -2   58.66   17.35
   1  -7  10   69.36   17.87
   1  -7  10   82.21   22.06
  -1   7 -10   74.86   17.62
  -1   8   7  221.65   29.53
  -1   8   7  199.93   23.80
   5  -7  -6   -0.01    2.55
   5  -7  -6    5.07    3.36
   6   0  -7  208.26   30.54
   6   0  -7  194.63   17.96
   6   0  -7  199.29   25.32
   3   0 -13   10.73    3.43
   3   0 -13    3.39    2.24
  -3   0  13    9.69    4.71
  -3   0  13    7.89    3.49
   3   0 -13    4.40    4.09
   3   0 -13    2.94    5.24
  -4   7   8    9.51    4.42
   4  -7  -8    3.82    3.13
  -4   7   8    8.64    2.71
  -3   5  11  158.38   40.51
  -3   5  11   90.22   35.30
   3  -5 -11   81.49   35.85
  -3   5  11  150.44   35.53
  -1  10   0   31.99    9.35
   1 -10   0   17.01    6.26
  -1  10   0   25.82    9.10
   6  -3   2   25.66   10.53
   6  -3   2   24.82    9.48
   6  -3   2   27.39    9.83
   6  -3   2   25.62    7.72
   4   4 -10    2.12    2.13
   4   4 -10   -2.40    3.51
   4   4 -10   -0.58    2.99
   2 -10   2   16.68    5.83
  -2  10  -2   21.04    7.71
  -2  10  -2   23.88    7.53
   3   3   8   96.69   29.67
   3   3   8   98.37   24.26
   3   3   8   87.96   20.16
   3   4   7  648.07   44.12
   3   4   7  647.20   44.26
   3   4   7  688.43   46.51
  -2   7   9   45.02   14.76
  -2   7   9   45.38   13.81
   1   1  12    3.72    1.70
   1   1  12    2.33    2.37
   1   1  12   -0.88    4.36
   0   0  13  113.25   28.95
   0   0 -13  114.42   30.21
   0   0  13   92.37   26.00
   4   1 -12   51.01   13.81
   4   1 -12   63.18   15.42
   6  -2   2    5.46    3.78
   6  -2   2    3.99    4.01
   6  -2   2    2.89    2.97
  -3  -7   7   27.30    9.79
   3   7  -7   35.72    6.89
   3   7  -7   44.87   11.10
   3   7  -7   40.12   10.64
   5  -8   0  174.10   22.67
   5  -8   0  173.41   22.04
   5  -8   0  177.34   23.75
   6   1  -1    6.72    3.07
   6   1  -1    1.34    2.05
   4   3 -11  282.39   31.14
   4   3 -11  330.10   24.37
   5   3   2   38.11   14.02
   5   3   2   48.90   13.88
   5   3   2   30.55    8.81
  -4   2  12   28.02   10.89
   4  -2 -12   43.38   17.59
   4  -2 -12   32.73   12.62
   3   6   4   32.93    8.78
   3   6   4   21.37    7.99
   3   6   4   24.28    8.15
   1   3  11  227.35   27.77
   1   3  11  227.55   25.73
   1   3  11  197.46   37.68
  -2  10   1    7.38    3.54
   2 -10  -1    2.03    2.88
  -2  10   1    1.93    4.01
  -2   2  13   -0.50    4.27
  -2   2  13    9.47    3.18
  -2   2  13    3.78    2.49
   1  -6  11    5.91    2.95
  -1   6 -11   20.25    6.54
   1  -6  11   16.81    6.42
   1  -6  11    6.70    3.50
   3  -6   9    8.06    4.31
   3  -6   9    4.58    4.23
   3  -6   9    5.24    4.55
   3  -6   9    1.72    2.13
  -3   6  -9    2.74    2.99
   5  -3   6   72.83   19.37
   5  -3   6   84.94   23.26
   5  -3   6   75.74   21.85
   4  -9  -3  144.24   31.04
  -4   9   3  156.26   27.94
   4  -9  -3  132.75   31.17
  -4   9   3  131.98   23.50
  -3  -1  13   35.57    9.64
   3   1 -13   17.36    8.32
   3   1 -13   30.08   12.18
   3   1 -13   42.90   10.99
  -2   4  12    3.27    3.45
  -2   4  12   -1.51    3.52
  -2   4  12    1.72    3.16
   3  -4  10   13.78    6.45
   3  -4  10    5.27    2.90
   3  -4  10    9.27    3.34
   3  -4  10   13.72    5.25
  -3   4 -10    6.82    4.32
  -1  10  -3  281.65   32.93
  -1  10  -3  223.39   27.61
   1 -10   3  227.88   18.16
   6  -5   1   43.04   11.17
   6  -5   1   38.63   11.55
   6  -5   1   47.53   12.55
   6  -5   1   23.97    8.93
   6  -5   1   12.09    5.13
   3  -1 -13   27.36   17.19
   3  -1 -13   37.22   16.73
  -3   1  13   60.06   13.84
  -3   1  13   47.87   18.16
  -3   1  13   55.58   14.32
   5  -5  -9   58.55   24.62
   5  -5  -9   66.15   20.64
   2   8   2  136.72   26.74
   2   8   2  151.60   25.38
   2   8   2  146.83   23.71
   0  -8   9    2.16    1.77
   0  -8   9    7.84    2.90
   0   8  -9    1.07    1.17
  -1   6  10    1.30    2.52
  -1   6  10    1.79    2.31
  -1   6  10    0.36    1.74
  -1   5  11    3.82    2.50
  -1   5  11   -1.05    4.46
  -1   5  11    2.54    1.56
   6   1  -6   89.70   24.12
   6   1  -6  103.47   23.54
   6   1  -6   95.67   29.94
   5  -2   6   24.15    7.76
   5  -2   6   22.64    9.60
   5  -2   6   26.31    7.46
  -3   9   5  118.43   30.19
  -3   9   5  131.04   24.22
   5  -8  -3   23.58    7.46
   1  -9   7   -0.12    3.72
  -1   9  -7    7.87    4.46
   1  -9   7    3.00    4.32
   6  -6  -2  160.89   24.24
   6  -6  -2  152.32   13.40
   6  -6  -2  152.30   21.13
   4   6  -6   86.34   22.50
   4   6  -6   76.91   18.42
   4   6  -6   94.95   22.15
   4  -9   2  645.09   45.37
   4  -9   2  552.63   40.08
  -4   9  -2  629.58   44.49
  -4   9  -2  516.08   46.85
   4  -9   2  602.63   47.76
   2   8  -7   77.01   17.67
   2   8  -7  102.94   21.69
  -2  -8   7  124.59   25.07
   2   8  -7   89.67   25.81
  -2  -8   7   73.13   17.13
   2   3 -13    5.76    3.48
  -2  -3  13    5.36    2.62
   6  -4  -7    2.24    2.48
   6  -4  -7    0.49    3.23
   6  -4  -7    9.62    3.76
   6  -4  -7    3.40    2.41
   0   7   8   25.96   11.81
   0   7   8   21.91    8.56
   0   7   8   24.77    8.92
   0   7   8   16.35    6.57
   0   7   8   34.99   11.99
  -3   9  -5  288.15   35.53
   3  -9   5  320.61   29.48
   6  -6  -3   16.43    6.59
   6  -6  -3   16.69    6.69
   6  -6  -3   16.56    4.88
  -1   9   5    3.19    5.02
  -1   9   5    2.05    4.20
  -1   9   5    6.91    3.70
   4   0   8   14.20    5.66
   4   0   8   11.95    5.36
   4   0   8   18.16    6.78
   4   0   8   10.30    3.70
   6  -4   2   87.06   23.63
   6  -4   2   81.18   21.04
   6  -4   2  101.81   29.13
   6  -4   2   80.55   26.17
   2   1  11  246.80   19.51
   2   1  11  252.64   39.95
   2   1  11  229.94   32.98
   2   1  11  276.02   27.87
   2   1  11  295.74   23.38
   0   3 -13   70.10   16.15
   0  -3  13   30.40   13.51
   0  -3  13   70.70   18.22
  -3   7   9   34.31   11.05
  -3   7   9   31.22   11.65
   2   4   9   11.51    4.23
   2   4   9    9.57    3.51
   2   4   9    6.34    3.40
   2   4   9    5.24    3.24
   2   4   9    2.88    4.73
   0  -9   7    6.17    4.20
   0   9  -7    3.07    3.25
   0   9  -7   -1.23    3.18
   0  -9   7    3.19    2.51
   6   0   1    2.35    2.86
   6   0   1    1.96    2.59
   6  -2  -8  796.86   52.68
   6  -2  -8  864.44   57.78
   6  -2  -8  804.24   55.27
   3  -8   7    3.67    2.44
  -3   8  -7    1.02    2.69
   3  -8   7    4.50    3.06
  -1  10   1   41.75    9.97
  -1  10   1   50.58   11.34
   1 -10  -1   41.09   11.49
   5  -6  -8   35.88   11.99
   5  -6  -8   45.64    9.50
   5  -6  -8   23.94   11.52
   6  -6  -1   37.11   10.47
   6  -6  -1   34.77    8.94
   6  -6  -1   31.94   10.33
  -2  10  -3  145.38   25.41
  -2  10  -3  155.31   27.50
   2 -10   3  142.85   34.65
   5   4   0  105.87   32.55
   5   4   0   90.36   25.41
   6  -5  -6    4.04    2.30
   6  -5  -6    7.19    3.39
   4  -5   8   48.17   14.16
   4  -5   8   66.13   16.86
   4  -5   8   61.29   17.00
   4  -8   5   10.32    5.02
   4  -8   5   11.49    5.06
   4  -8   5   17.48    6.54
   4  -8   5   14.55    5.18
  -4   8  -5   29.16   10.75
   6  -1  -8   25.98    7.58
   6  -1  -8   10.21    4.00
   6  -1  -8   22.32    7.28
  -1   8  -9   -3.42    3.91
   1  -8   9    4.49    2.14
   1  -8   9    2.75    4.30
   0   3  12   44.44   12.44
   0   3  12   34.83   10.04
   0   3  12   35.79    8.67
   5  -8   1   91.11   29.70
   5  -8   1  157.43   16.78
   5  -8   1  171.52   20.34
   5  -8   1  187.51   22.68
   5  -4   6   63.01   18.18
   5  -4   6   79.90   19.90
   5  -4   6   64.21   17.75
   2   5   8   66.81   28.48
   2   5   8   76.91   25.54
   2   5   8  130.78   29.63
   2   5   8  129.78   19.79
   2   5   8  149.19   16.64
   4   6   0  276.61   37.53
   4   6   0  332.47   24.24
   4   6   0  317.55   23.95
  -1   2  13    3.46    2.17
  -1   2  13    1.99    2.07
  -1   2  13    2.60    3.34
   3   0  10 1029.16   28.15
   3   0  10 1011.71   40.02
   3   0  10 1009.62   45.03
   0   9   4   35.72    9.65
   0   9   4   30.36    7.05
   0   9   4   41.12   10.74
   0   9   4   20.70    6.00
   1   9  -6   35.11   10.32
  -1  -9   6   58.41   16.04
   1   9  -6   45.16    9.18
   1   9  -6   36.61    8.52
   6  -1   2    6.83    3.64
   6  -1   2   13.38    6.04
   6  -1   2   15.91    7.28
   3   2   9    5.17    2.84
   3   2   9    3.80    3.05
   3   2   9    4.37    3.49
   5  -4 -10   16.10    4.43
   5  -4 -10   16.95    3.83
   2  -5  11    3.83    3.18
  -2   5 -11   -0.67    3.34
   2  -5  11    5.32    2.15
   2  -5  11    2.62    2.33
   3   5   6  286.15   34.64
   3   5   6  326.21   23.04
   3   5   6  362.68   38.23
   6  -6  -4   76.75   17.01
   6  -6  -4   74.87   14.09
   6  -6  -4   69.06   15.38
  -2  10   2  190.77   31.43
   2 -10  -2   91.95   29.15
  -2  10   2  250.81   41.64
   5   4  -7    1.45    1.19
   5   4  -7    1.35    1.79
   5   4  -7    2.79    1.31
   4   5  -9  133.61   21.26
   4   5  -9  152.53   25.24
   4   5  -9   77.90   20.67
   4   5  -9  118.87   20.39
   3  -4 -12    6.86    2.72
  -3   4  12    2.69    2.75
  -3   4  12    6.70    2.77
  -3   4  12   -0.14    1.51
   5  -1 -11   60.27   14.77
   5  -1 -11   52.45    8.87
   5  -1 -11   43.55   10.70
   3   5 -11    3.42    1.77
   3   5 -11    4.42    2.75
   4   5   3    6.82    2.21
   4   5   3    4.01    2.83
   4   5   3    7.26    3.98
   2   7   5    8.64    3.60
   2   7   5    6.79    2.73
   2   7   5    4.05    2.57
   2   7   5    5.47    2.13
   2   7   5   12.50    3.13
   5  -1   6   11.55    4.86
   5  -1   6   -1.74    2.44
   5  -1   6    9.63    3.15
   5  -1   6    3.01    1.85
   6  -3  -8  258.18   24.08
   6  -3  -8  290.75   35.05
   6  -3  -8  194.93   20.55
   6  -3  -8  227.54   25.26
   1 -10   4    6.46    3.32
  -1  10  -4    8.07    3.12
  -1  10  -4    2.16    2.14
   2   6 -11    7.74    3.49
   2   6 -11    7.99    2.80
  -2  -6  11    8.66    2.57
   2   6 -11   11.88    4.56
   5  -8  -4   90.01   21.60
   5  -8  -4   91.33   21.79
   4   3   6  161.91   13.76
   4   3   6  155.06   23.82
   4   3   6  209.09   32.89
   6   1   0    1.33    2.02
   6   1   0   -0.85    3.83
   1   9   2  168.10   34.56
   1   9   2  173.75   32.77
   1   9   2  171.59   26.51
   1   9   2  134.32   24.55
   3   7   2  671.27   27.81
   3   7   2  659.89   29.60
   3   7   2  649.85   28.40
   2   5 -12   47.94   14.84
   2   5 -12   77.35   19.21
  -2  -5  12   94.05   18.47
   2   5 -12  105.03   22.11
  -1   7   9   69.78   16.21
  -1   7   9   54.95   12.27
  -1   7   9   44.59   12.28
   1   8   5   64.57   11.15
   1   8   5   55.51   11.17
   1   8   5   59.01   10.37
   1   8   5   48.24   13.21
   1   8   5   42.55   12.18
  -1   4  12  139.20   25.74
  -1   4  12  119.50   18.57
  -1   4  12  115.72   30.47
   2   3  10   69.94   20.29
   2   3  10  110.57   22.32
   2   3  10   76.07   27.24
   2   3  10   79.07   23.00
   6  -6   0   50.18   11.93
   6  -6   0   23.19    6.47
   6  -6   0   44.07    8.49
   6  -6   0   48.46   10.74
   3   2 -13  225.23   40.30
   3   2 -13  210.13   26.96
  -3  -2  13  199.88   32.75
   3   2 -13  228.02   17.48
  -3  10   0   99.23   18.12
   3 -10   0   97.89   20.09
  -3  10   0  133.19   22.78
   5  -6   5   36.30   10.19
   5  -6   5   32.24    8.78
   5  -6   5   28.55    8.26
   0   1  13   78.04   18.39
   0   1  13   76.47   14.93
   5   2 -10   12.04    4.25
   5   2 -10   12.36    4.11
   3  -2 -13   21.75   11.91
  -3   2  13   49.42   12.71
  -3   2  13   49.66    9.56
  -3   2  13   54.98   12.20
   0 -10   2   16.99    5.16
   0  10  -2   24.71    5.74
   0  10  -2   25.40    5.56
   5   3  -9    3.44    3.06
   5   3  -9    4.54    2.71
   5   3  -9    3.92    1.52
   5   3  -9    2.99    2.27
   5   3  -9    5.01    2.97
   4  -9  -4   39.89   10.94
   4  -9  -4   35.13    9.19
  -4   9   4   29.44    6.99
  -4   9   4   47.77   12.59
   4   2   7   53.06   13.33
   4   2   7   52.16   14.99
   4   2   7   69.47   16.92
  -3  10  -1  106.06   15.76
  -3  10  -1   79.04   15.45
   3 -10   1   80.96   23.55
  -1  -4  13   78.80   15.02
   1   4 -13   84.52   13.20
  -1  -4  13   75.16   15.14
   3   4 -12    0.86    2.89
   3   4 -12   10.40    3.39
   1   7   7   -1.15    4.26
   1   7   7   -2.68    2.28
   1   7   7    4.97    2.83
   1   7   7    3.76    4.07
   1   7   7    3.67    2.19
   5   0 -11   31.55    8.67
   5   0 -11   52.13   11.05
  -5   2  11  890.30   36.07
   5  -2 -11 1057.96   22.43
   5  -2 -11  969.65   38.75
   5  -2 -11  889.90   42.12
   0  10  -1  107.60   14.29
   0 -10   1   81.36   17.96
   0  10  -1   73.67   13.42
   4   2 -12    2.86    1.75
   4   2 -12    2.07    1.51
   5   2   4  314.73   27.80
   5   2   4  301.39   16.70
   5   2   4  382.42   49.27
   4  -3 -12  112.22   19.41
  -4   3  12  110.42   21.72
   4  -3 -12  103.63   22.43
  -4   3  12   76.45   17.36
  -4   3  12   58.20   18.61
   6   1  -7  238.53   23.13
   6   1  -7  241.93   35.71
   6   1  -7  206.01   32.04
  -3  10   1  115.07   19.27
  -3  10   1  141.79   21.73
   6   2  -4   13.55    3.45
   6   2  -4    5.52    2.46
   4  -9   3    2.80    1.60
   4  -9   3    7.01    3.36
  -4   9  -3   10.87    3.70
   4  -9   3   14.12    4.34
  -4   9  -3   13.07    3.98
   6   2  -3   46.06    9.69
   6   2  -3   78.41   17.17
   6   0  -8  378.46   31.40
   6   0  -8  397.56   20.51
   6   0  -8  381.86   18.23
   5   1   5    6.73    4.52
   5   1   5    9.81    5.03
   5   1   5    2.86    2.26
   5   1   5    2.36    2.73
   5   1   5    6.79    4.44
   1   8  -9   60.73   15.73
  -1  -8   9  111.16   28.43
  -1  -8   9   97.93   18.57
   1   8  -9   78.47   16.91
   0  10  -3   75.88   12.22
   0 -10   3   76.43   16.78
   0  10  -3   56.61   10.54
   4   6  -7   17.79    3.77
   4   6  -7   12.35    3.90
   4   6  -7   14.27    3.59
  -1  10   2    2.85    2.58
   1 -10  -2    0.75    2.25
  -1  10   2    3.56    3.36
   5  -7   4  152.39   31.72
   5  -7   4  145.98   32.05
   5  -7   4  188.48   29.07
   5  -7   4  163.14   17.09
  -1   5 -12   40.35    9.35
   1  -5  12    9.46    6.99
   1  -5  12   36.54   10.17
   1  -5  12   38.68   11.36
   6  -5   2   29.23    7.66
   6  -5   2   28.40   10.22
   6  -5   2   11.56    4.44
   6  -5   2   25.13    7.47
   6  -5   2   16.55    8.75
  -2  10  -4   94.75   17.53
  -2  10  -4   77.66   17.63
   2 -10   4   68.54   16.66
  -2   8   8   38.47    8.95
  -2   8   8   31.87    9.30
   3  -5  10  374.92   22.89
   3  -5  10  402.94   19.67
  -3   5 -10  358.92   39.87
   3  -5  10  351.03   19.82
   3  -5  10  401.96   28.77
   5  -8   2   17.15    4.97
   5  -8   2   39.51   10.04
   5  -8   2   33.85    8.51
  -2   9   6  404.41   40.29
  -2   9   6  465.94   37.20
  -2   9  -7   33.42   10.00
   2  -9   7   22.81    5.79
   2  -9   7   27.50    8.81
   5  -7  -7  152.50   16.73
   5  -7  -7  140.19   29.81
   3   7  -8  432.48   20.18
   3   7  -8  472.82   21.53
  -3  -7   8  563.21   48.01
   3   7  -8  495.28   36.16
   4  -8  -7   19.93    7.41
  -4   8   7   27.76    7.87
  -4   8   7   24.11    8.19
   6  -6  -5   10.15    2.95
   6  -6  -5    1.52    3.06
   6   2  -5   10.71    3.18
   6   2  -5   10.01    3.43
   0  10   0   11.56    4.79
   0  10   0   18.20    5.73
   0  10   0   18.50    5.19
   3 -10   2   42.84   12.72
   3 -10   2   34.38   11.34
  -3  10  -2   60.94    9.88
  -3  10  -2   70.36   18.69
   4   4   5  161.70   29.33
   4   4   5  141.83   23.35
   4   4   5  167.11   21.81
   6  -3   3   25.02    8.14
   6  -3   3   17.64    7.50
   6  -3   3   28.76    9.29
   6   2  -2   97.69   25.31
   6   2  -2   66.20   22.35
   3   6 -10   83.69   14.26
   3   6 -10   63.62   12.82
   2   6   7   79.29   28.40
   2   6   7   62.40   30.17
   2   6   7  144.11   31.16
   2   6   7  139.32   23.13
   2   6   7  169.07   25.20
   5  -5   6    4.86    2.24
   5  -5   6   11.31    4.15
   5  -5   6    1.34    1.55
   0  -4  13   91.72   26.54
   0   4 -13  103.99   17.25
   0  -4  13  123.06   24.94
  -3  10   2   16.66    4.77
   3 -10  -2    4.86    1.79
  -3  10   2   16.25    4.48
  -4   6  10  292.15   30.11
   4  -6 -10  305.45   19.32
   4  -6 -10  289.12   18.61
  -4   6  10  272.08   34.65
   6  -2   3   55.26   18.02
   6  -2   3   59.89   14.85
   6  -2   3   55.43   11.87
   1   2  12   68.20   14.63
   1   2  12   65.08   19.87
   1   2  12   68.30   16.52
   5   4   1   83.18   24.14
   5   4   1   72.16   18.56
   2   8   3    4.34    2.18
   2   8   3    8.83    2.72
   2   8   3    6.75    2.60
  -2   3  13   68.57   17.09
  -2   3  13   70.49   18.10
  -2   3  13   65.24   16.52
   4   6   1  827.41   33.50
   4   6   1  852.53   35.09
   4   6   1  858.74   36.15
  -2  10   3   21.29    7.85
  -2  10   3   37.36    8.19
  -3   8   8   20.80    6.47
  -3   8   8   26.14    7.19
   6  -6   1  217.48   31.66
   6  -6   1  178.41   18.67
   6  -6   1  218.16   36.05
   6  -6   1  146.31   28.79
   5   3   3    4.95    2.06
   5   3   3    9.63    3.36
   5   3   3    6.98    3.64
   2   7 -10  581.14   33.81
   2   7 -10  542.76   32.78
   2   7 -10  625.00   35.10
  -2  -7  10  503.60   58.23
   6  -5  -7   50.27   10.91
   6  -5  -7   55.28    9.32
   0  10  -4  151.87   24.79
   0 -10   4  134.88   30.28
   0  10  -4  132.35   21.42
   2   8  -8   73.29   12.51
  -2  -8   8   95.10   21.73
   2   8  -8   85.48    7.19
  -2  -8   8   70.29   11.70
   2   8  -8   69.49   15.32
   2  -2  12    8.68    3.29
   2  -2  12    6.80    3.04
   2  -2  12    3.79    3.02
  -2   2 -12   11.89    3.46
   4  -7   7    3.92    2.45
  -4   7  -7    6.14    2.54
   4  -7   7   -2.52    3.13
   4  -7   7    5.47    2.73
   4  -7   7    1.66    1.34
   6  -4  -8   30.58    7.44
   6  -4  -8   19.53    5.45
   6  -4  -8   35.87    8.22
   4  -5 -11  112.78   28.67
  -4   5  11  127.40   34.01
   4  -5 -11  124.62   22.96
  -4   5  11  105.32   34.46
   6   0   2   58.52   16.41
   6   0   2   75.69   15.32
   1 -10   5  190.85   17.33
  -1  10  -5  248.62   39.61
  -1  10  -5   92.79   27.77
  -1  10  -5  176.44   23.94
   5  -8  -5  387.31   34.12
   5  -8  -5  346.61   31.74
  -3   9   6   19.14    5.67
  -3   9   6   31.11    9.21
   6  -4   3  266.91   54.10
   6  -4   3  217.77   27.82
   6  -4   3  266.79   25.03
   4  -3   9   55.46   13.38
   4  -3   9   61.64   12.47
   4  -3   9   62.96   17.49
   5   1 -11   73.10   15.59
   5   1 -11   47.23   10.10
   5  -3 -11   -0.75    2.66
   5  -3 -11    4.85    3.04
   5  -3 -11    2.79    2.49
   4  -2   9    9.85    3.48
   4  -2   9   12.95    3.90
   4  -2   9   12.89    4.78
   0   7 -11  250.45   32.26
   0  -7  11  186.67   32.14
   0  -7  11  211.37   32.60
  -2  -4  13   81.82   19.54
   2   4 -13   99.77   19.43
   4   1   8  232.65   26.66
   4   1   8  241.92   21.75
   4   1   8  201.84   36.90
   4   1   8  250.28   14.06
   3   8  -3   72.01   12.24
   3   8  -3   67.18   15.80
   3   8  -3   63.43   13.36
   2  -7  10    7.40    3.04
   2  -7  10   13.96    4.96
   2  -7  10    6.49    5.33
  -2   7 -10   -0.86    2.97
  -1  -9   7  102.28   26.19
   1   9  -7   84.32   13.02
   1   9  -7   58.39   15.53
  -1  -9   7   76.92   16.40
  -3   9  -6  384.44   30.90
   3  -9   6  324.80   22.66
   3  -9   6  389.97   38.46
   5   0   6   17.83    4.95
   5   0   6    8.23    3.56
   5   0   6    2.13    2.33
   5   0   6   24.98   15.84
   5   4  -8   11.78    2.70
   5   4  -8    4.47    1.45
   5   4  -8   10.35    3.10
   5   4  -8   18.83    4.73
   6   2  -6    3.23    3.99
   6   2  -6    3.27    2.51
   2  -3  12   39.65   12.70
   2  -3  12    4.95    3.44
   2  -3  12   35.53   10.28
  -2   3 -12   27.55    6.36
  -1   2 -13  388.02   30.49
   1  -2  13  388.29   34.04
   1  -2  13  392.96   28.68
   2  -1  12   99.62   22.35
   2  -1  12  114.52   25.90
  -2   1 -12  112.68   19.92
   2  -1  12   81.08   20.55
   6   1   1  153.52   37.62
   6   1   1  115.19   30.23
   2   9  -3    2.22    1.98
   2   9  -3    4.64    4.17
   2   9  -3    5.29    3.95
   0   8   7   83.39   29.34
   0   8   7   87.13   27.56
   0   8   7  114.08   30.01
   0   8   7  122.05   26.53
   3   8  -4  175.09   14.05
   3   8  -4  171.48   24.73
   3   8  -4  175.82   17.83
   3   8  -2    5.99    3.15
   3   8  -2    3.16    2.45
   3   8  -2    3.42    2.90
   3   1  10    3.34    2.70
   3   1  10   12.73    4.56
   3   1  10   12.38    4.76
   6  -2  -9  338.10   16.64
   6  -2  -9  325.53   17.43
   6  -2  -9  324.15   16.80
   2   9  -2    1.97    3.64
   2   9  -2    2.48    2.04
   6   2  -1   24.11    8.18
   6   2  -1   23.11    9.52
   0  10   1    2.98    2.80
   0  10   1   11.07    4.30
   0  10   1    7.02    3.02
   0  -6  12    2.81    2.27
   0  -6  12   11.59    3.82
   0  -6  12    8.79    3.37
   0   6 -12   13.88    4.34
   1  -1  13   76.83   16.78
   1  -1  13   45.36   13.69
  -1   1 -13   62.21    9.81
   4  -6   8    3.92    2.40
  -4   6  -8    2.36    2.73
   4  -6   8    2.82    4.21
   4  -6   8   -1.05    3.69
   4  -6   8    8.07    2.39
   1  -9   8    6.34    5.16
   1  -9   8    6.65    2.32
  -1   9  -8    1.22    3.92
   5   5  -4    3.50    3.87
   5   5  -4    2.62    2.00
   5   5  -4    1.36    2.12
  -3  10  -3    3.87    2.13
   3 -10   3   -0.28    4.29
  -3  10  -3    6.14    3.02
   6  -1  -9   53.01   11.20
   6  -1  -9   50.07   10.79
   6  -1  -9   48.86   10.78
  -4   7   9  188.61   42.20
   4  -7  -9  145.01   37.35
  -4   7   9  156.71   38.75
   5   5  -3    3.69    3.39
   5   5  -3    1.35    1.32
   5   5  -3    3.91    3.38
   0  -9   8   28.14    6.08
   0  -9   8   32.36    8.61
   0   9  -8   39.08    8.77
   2   2  11  422.26   23.52
   2   2  11  378.25   19.07
   2   2  11  446.68   48.80
   2   2  11  374.33   20.08
   3   6   5  165.27   13.20
   3   6   5  184.15   20.01
   3   6   5  166.12   23.31
   4  -9  -5   73.05   17.12
  -4   9   5  114.64   19.60
  -4   9   5   99.28   16.51
   4  -9  -5   79.85   20.49
   1   6 -12   67.22   13.82
  -1  -6  12   76.27   12.35
   4   4 -11   47.24    9.89
   4   4 -11   68.11   10.39
   4   4 -11   44.53    9.56
   1   1 -14   33.40   10.11
  -1  -1  14   73.81   15.00
   1   1 -14   70.28   13.96
  -1  -1  14   64.41   16.85
   2  -8   9   92.35   20.14
   2  -8   9  103.04   21.05
  -2   8  -9  105.73   17.64
   3   3 -13   22.25    7.17
   3   3 -13   40.36    8.86
  -3  -3  13   32.86    9.18
   3   3 -13   33.95    8.93
  -2  -1  14    4.28    2.18
   2   1 -14    4.27    2.55
   2   1 -14    3.21    2.59
  -2  -1  14    3.50    2.58
   2   0 -14  124.51   10.88
  -2   0  14  137.34   23.44
   2   0 -14   69.27   22.46
  -2   0  14  151.38   30.21
   1   9   3   16.59    4.74
   1   9   3    9.99    3.30
   1   9   3    6.21    3.42
   1   9   3    8.98    2.61
   1   9   3    6.98    3.42
  -1   9   6   57.79    6.86
  -1   9   6   52.95   10.99
  -1   9   6   59.46   12.39
   6  -1   3   77.50   21.51
   6  -1   3   53.32   13.28
   6  -1   3   64.37   18.62
   2   9  -4  525.37   25.24
   2   9  -4  543.35   42.13
   2   9  -4  507.58   25.86
   3  -3 -13   35.95   16.99
  -3   3  13  112.97   21.91
  -3   3  13   88.46   18.83
  -3   3  13  108.22   20.54
   1 -10  -3   11.48    3.34
  -1  10   3   16.76    6.03
  -1  10   3   13.29    4.58
   6   1  -8    7.40    2.22
   6   1  -8   12.89    3.90
   6   1  -8    8.30    3.20
  -1  -7  11  101.46   15.74
  -1  -7  11  101.28   20.33
   1   7 -11   56.33   17.39
   1   7 -11  122.09   20.98
  -1   8   8   17.03    6.31
  -1   8   8   10.03    3.11
  -1   8   8   10.45    3.52
   1   5  10    8.55    3.59
   1   5  10   15.60    4.23
   1   5  10    5.52    2.92
   1   5  10   13.59    5.57
   4  -8   6   81.49   17.57
  -4   8  -6   77.61   16.01
   4  -8   6   90.80   19.41
   4  -8   6   88.38   17.38
   0   5  11    3.34    2.63
   0   5  11    4.21    1.77
   0   5  11   -1.72    3.27
  -1   3  13  147.12   32.87
  -1   3  13  181.30   22.86
  -1   3  13  156.71   39.45
   4  -4   9   25.25    6.35
   4  -4   9   25.47    8.02
   4  -4   9   38.41    9.78
   4  -9   4  119.49   24.70
  -4   9  -4  108.32   19.78
   4  -9   4  118.72   23.28
   4  -9   4  102.32   25.21
   4  -9   4  105.92   24.40
  -3  10   3    8.11    2.77
  -3  10   3    7.35    2.70
   3 -10  -3    5.11    2.44
   6  -6  -6    2.36    1.74
   6  -6  -6    6.15    2.27
   0   2  13    1.22    1.75
   0   2  13    5.03    2.58
   0   2  13    6.79    2.87
  -2   6  11    2.48    2.84
  -2   6  11    9.10    3.48
  -2   6  11    4.97    2.40
   5   5  -5   16.59    3.93
   5   5  -5    9.55    4.06
   5   5  -5    9.93    3.39
   0   6  10   23.23    7.97
   0   6  10   26.42   10.08
   0   6  10   34.96    8.27
   0   6  10   26.18    9.57
   4  -1   9  160.21   30.84
   4  -1   9  143.24   25.88
   2   9  -1   65.48    7.19
   2   9  -1   67.57   10.12
  -3   7  -9  357.29   39.07
   3  -7   9  402.43   25.68
   3  -7   9  360.77   27.69
   3  -7   9  343.04   27.19
   0   9   5   12.82    3.89
   0   9   5   16.16    5.15
   0   9   5   32.60    7.25
   0   9   5   27.63   11.27
   2 -10   5    5.91    2.22
  -2  10  -5    2.67    2.15
  -2  10  -5   17.06    4.46
  -1   3 -13   15.54    3.97
   1  -3  13   13.17    5.37
   1  -3  13   29.75    6.72
   5  -6  -9  232.54   14.14
   5  -6  -9  347.12   22.13
   5  -6  -9  355.23   38.54
   5  -5 -10  278.93   17.23
   5  -5 -10  296.66   21.09
  -1   0  14    4.26    2.27
  -1   0  14    2.31    2.50
   1   0 -14    4.72    2.80
   1   0 -14    1.57    1.90
   6  -7  -2  104.03   12.12
   6  -7  -2  117.89   15.97
   6  -7  -2  110.26   10.05
   5   5  -2   33.50   10.42
   5   5  -2   35.30   13.82
   5   5  -2   23.83    8.28
   5   5  -2   55.22   15.87
   3   7   3   16.60    4.22
   3   7   3    7.40    2.64
   3   7   3   18.16    3.63
   5  -8   3  110.22   32.04
   5  -8   3  165.05   21.54
   5  -8   3  131.72   10.30
   5  -8   3  163.58   18.20
   4   6  -8   97.86   17.40
   4   6  -8   94.95   15.35
   4   6  -8   74.16   11.70
   1   2 -14   14.41    4.67
  -1  -2  14   17.13    5.26
  -1  -2  14   11.20    5.24
   3   8  -5   23.38    5.37
   3   8  -5   18.98    5.68
   3   8  -5    9.99    4.58
   3   8  -1  164.38   27.96
   3   8  -1  158.29   28.81
   3   8  -1  157.10   16.81
   0 -10   5   19.71    6.33
   0  10  -5   10.10    3.45
   0  10  -5   21.24    5.51
   0  10  -5    4.62    1.74
   6  -3  -9   20.54    4.90
   6  -3  -9   16.10    4.65
   6  -3  -9    4.45    2.89
   6  -3  -9   15.52    4.63
  -4   0  13   62.90   14.88
   4   0 -13   58.53   14.54
   4   0 -13   49.74   10.47
   2  -6  11   83.42   17.37
   2  -6  11   60.92   27.40
   2  -6  11   59.42   11.80
  -2   6 -11   56.37   14.12
   0  -8  10  193.20   31.65
   0  -8  10  170.89   31.31
   0   8 -10  185.39   30.44
   6  -7  -1    3.70    2.88
   6  -7  -1    3.19    2.03
   6  -7  -1    2.16    3.43
   6  -7  -1    2.44    2.06
   6  -7  -3    6.60    2.04
   6  -7  -3    6.83    2.62
   6  -7  -3    5.57    2.22
   4  -1 -13   26.49    8.91
   4  -1 -13   21.81    5.66
  -4   1  13   29.81    6.28
   4   3 -12   49.29   12.98
   4   3 -12   53.55   11.44
   4   5 -10  134.10   29.85
   4   5 -10  174.96   17.10
   4   5 -10  206.37   33.49
   5  -3   7   96.41   21.27
   5  -3   7   82.00   15.82
   5  -3   7   86.14   20.36
  -4   4  12    4.47    2.68
  -4   4  12    3.26    3.88
  -4   4  12    4.81    3.00
   4  -4 -12    8.87    3.13
   4  -4 -12   10.73    4.33
  -3   8  -8    6.44    2.88
   3  -8   8    1.54    3.13
   3  -8   8    1.43    5.18
   1   4  11   61.34   13.06
   1   4  11   38.03   10.04
   1   4  11   42.48   16.65
   1   6   9   -0.46    2.95
   1   6   9    3.03    2.45
   1   6   9    2.28    1.44
   1   6   9    4.96    5.16
   1   6   9    7.36    3.58
  -2   5  12   26.14    6.71
  -2   5  12   10.88    4.40
  -2   5  12   13.13    4.65
  -3   6  11   64.20   20.43
  -3   6  11   65.35   16.79
   6   0  -9  442.01   27.80
   6   0  -9  388.99   20.29
   6   0  -9  442.69   20.45
   4   5   4  519.27   40.94
   4   5   4  543.55   24.71
   4   5   4  533.30   25.70
  -1   0 -13   49.15   11.21
   1   0  13   77.80   10.62
   1   0  13   58.33   13.01
   6  -5   3  249.63   16.39
   6  -5   3  244.52   42.50
   6  -5   3  236.80   21.50
  -2  -2  14    4.34    2.30
   2   2 -14    1.17    2.43
  -2  -2  14    6.59    4.62
   2   2 -14    2.66    2.00
   1  -7  11    1.79    3.26
  -1   7 -11    6.84    3.53
   1  -7  11    0.45    3.30
   1  -7  11    4.73    4.85
   6  -6   2   42.72    9.34
   6  -6   2   36.72   11.38
   6  -6   2   23.73    9.53
   6  -6   2   39.59   11.84
  -2   4 -12   63.20   15.97
   2  -4  12   11.32    8.38
   2  -4  12   67.08   15.76
   2  -4  12   80.87   16.81
  -2   1  14   97.49   24.10
  -2   1  14   94.99   18.68
  -2   1  14   80.80   19.46
   2  -1 -14   38.19   16.47
   2   0  12  568.38   39.97
   2   0  12  622.65   29.82
   2   0  12  584.84   26.55
   3  -2  11   29.79    7.63
   3  -2  11   72.44   15.63
   3  -2  11    8.33    5.79
   3  -2  11   54.89   10.22
  -3   2 -11   33.78    7.09
   5  -2   7   33.57   10.25
   5  -2   7   41.56   11.06
   5  -2   7   38.30   10.28
  -2   7  10    4.46    2.61
  -2   7  10   -0.85    3.11
  -2  -9   5  429.70   21.28
   2   9  -5  384.21   37.07
   2   9  -5  315.35   24.63
   2   9  -5  310.95   42.77
   6   2  -7    3.41    1.89
   6   2  -7    3.62    2.56
   6   2  -7    3.75    2.77
   5   3 -10   39.33    9.92
   5   3 -10   17.60    4.41
   3   4   8  788.43   47.87
   3   4   8  790.51   35.64
   3   4   8  788.69   34.23
  -2  10   4  180.40   31.02
  -2  10   4  218.21   28.53
   3  -3  11  150.95   28.07
   3  -3  11  148.12   26.08
   3  -3  11  109.64   31.65
  -3   3 -11  100.85   27.02
   1   5 -13  422.15   35.01
  -1  -5  13  397.96   46.30
  -1  -5  13  354.06   14.71
   5   5  -6    5.35    3.19
   5   5  -6    4.86    1.74
   5   5  -6    2.42    2.44
   6   2   0    6.06    2.99
   6   2   0    9.87    3.82
   5  -7   5   77.39   15.12
   5  -7   5   72.49   20.64
   5  -7   5   88.17   15.35
   0   4  12    5.37    1.99
   0   4  12    3.95    2.32
   0   4  12    6.34    2.77
   4   1 -13   51.53   12.33
   4   1 -13   57.86   13.96
   5  -6   6   15.95    5.40
   5  -6   6   20.55    6.53
   5  -6   6   22.91    5.98
   6  -7   0  132.24   27.11
   6  -7   0   74.21   16.46
   6  -7   0  123.50   16.17
   6  -7   0  153.24   24.96
   6  -7  -4   75.18    7.38
   6  -7  -4   73.67    8.09
   6  -7  -4   65.59   15.22
   0  10   2  156.94   22.07
   0  10   2  132.79    9.59
   0  10   2  128.43   23.97
   2   9   0   -0.14    3.95
   2   9   0    2.42    1.56
   4   6   2   19.58    7.43
   4   6   2   30.71    7.80
   4   6   2   32.75    9.87
   4   6   2   26.86    4.89
   5   5  -1  399.25   14.77
   5   5  -1  343.26   42.28
   5   5  -1  450.57   14.91
   5  -8  -6    8.30    2.66
   5  -8  -6    8.55    2.36
   5  -4   7  167.98   32.32
   5  -4   7  144.62   29.23
   5  -4   7  182.20   28.82
  -3   7  10  641.95   39.64
  -3   7  10  541.16   46.18
   3   7  -9   37.86    8.33
   3   7  -9   41.59    5.44
   3   7  -9   47.21    7.23
  -3  -7   9   31.78   12.49
   1  -8  10    6.75    2.72
   1  -8  10    5.60    4.31
  -1   8 -10   12.27    4.16
   5   4   2    4.05    1.69
   5   4   2   15.00    5.27
   1 -10   6  239.93   34.26
  -1  10  -6  206.09   19.46
  -1  10  -6  234.71   16.96
  -3   5  12  191.78   38.47
  -3   5  12  268.75   29.12
  -3   5  12  274.08   34.22
   3  -5 -12  212.94   15.05
   3   3   9    3.86    2.71
   3   3   9    5.86    3.05
   3   3   9    6.47    3.48
   3  -6  10   19.38    5.31
   3  -6  10    7.49    3.42
  -3   6 -10   14.09    4.54
   3  -6  10   33.81    6.77
   3  -6  10   23.86    6.82
   1   8   6   32.68    7.30
   1   8   6   22.68    5.53
   1   8   6   36.82   10.84
   1   8   6   22.40    6.99
   1   8   6   30.78    7.32
   2   7   6   11.01    5.62
   2   7   6   10.51    2.88
   2   7   6    4.43    2.12
   2   7   6    1.81    2.58
   2   7   6    3.22    1.72
  -3  10  -4  109.06   17.78
   3 -10   4  100.86   22.50
  -3  10  -4  134.67   26.27
   5   2 -11   86.52   17.22
   5   2 -11  119.83   21.02
   5  -7  -8   54.94    6.52
   5  -7  -8   55.70    9.62
   5  -4 -11    8.49    3.26
   5  -4 -11    6.76    2.94
   0   7   9    7.17    2.55
   0   7   9    5.92    2.79
   0   7   9    6.38    2.44
   0   7   9    2.57    2.33
  -4   2  13    6.48    4.88
   4  -2 -13    3.62    1.69
  -4   2  13    5.51    2.82
  -4   2  13    6.05    2.60
  -1   1  14   32.94    9.77
  -1   1  14   39.67    9.74
  -1   1  14   32.82    9.26
   4   7  -3  849.13   60.60
   4   7  -3  745.19   36.61
   4   7  -3  776.36   77.07
   4   7  -3  810.87   20.53
   5  -9  -1    5.05    1.84
   5  -9  -1    2.05    1.75
   5  -9  -1    3.48    1.83
   3   8  -6  145.80   23.31
   3   8  -6  147.32   18.77
   3  -1  11    3.86    4.02
   3  -1  11   11.15    4.79
  -3   1 -11    3.31    3.53
   3  -1  11    5.02    1.97
   3  -1  11    3.20    2.48
   0  -5  13    3.75    3.02
   0  -5  13    5.34    4.70
   0   5 -13   -1.23    3.72
   3   8   0   96.58   18.90
   3   8   0  104.17   18.64
   3   8   0   91.52   17.99
   6  -5  -8   31.25    5.91
   6  -5  -8   21.51    6.93
   6  -5  -8   24.31    6.66
   4   7  -4  242.26   49.95
   4   7  -4  300.98   21.99
   4   7  -4  281.61   30.33
   4   7  -4  298.30   35.46
   6  -3   4   36.72   10.00
   6  -3   4   39.47   10.02
   6  -3   4   40.04   10.74
   5   2   5  385.50   14.90
   5   2   5  399.35   19.50
   1   3 -14  294.17   29.09
  -1  -3  14  278.12   39.72
  -1  -3  14  248.34   11.08
   5  -9  -2    4.49    1.89
   5  -9  -2    7.76    3.75
  -1   6 -12   -0.45    3.63
   1  -6  12   -1.30    3.05
   1  -6  12   -0.13    4.91
   3   5   7   79.45   15.67
   3   5   7  110.88   17.66
   3   5   7   82.91   21.49
   4  -5   9  115.24   21.32
   4  -5   9   75.46   16.69
   4  -5   9   82.13   20.11
  -4   8   8   28.03    7.29
  -4   8   8   27.78    7.18
   1  -4  13   77.52   14.10
   1  -4  13   22.50    6.46
   1  -4  13   51.31   12.81
  -1   4 -13   80.58   12.00
   3   0 -14   15.99    8.88
   3   0 -14   21.93    8.03
  -3   0  14   25.45    6.95
  -3   0  14   47.67    9.83
  -3   0  14   30.41    8.68
   2   8   4    2.25    1.70
   2   8   4   -0.02    2.53
   2   8   4    5.02    1.78
   5  -9   0   94.38   20.11
   5  -9   0   92.26   22.21
  -1  -8  10  121.79   25.85
   1   8 -10  113.11   15.57
  -1  -8  10  102.97   15.60
   1   8 -10   98.23   18.32
  -1   6  11   65.90   21.12
  -1   6  11   67.35   22.45
  -1   6  11   28.75    7.08
  -1   6  11   70.04   23.73
  -2   9   7  159.69   28.07
  -2   9   7  166.67   27.68
   2  -9   8    8.32    3.95
   2  -9   8    6.30    3.00
  -2   9  -8   11.25    3.84
   5  -1 -12   44.42   10.22
   5  -1 -12   61.10   15.96
  -5   1  12   44.83    9.55
   5  -1 -12   38.50    9.36
   3 -10  -4    4.11    1.54
  -3  10   4   23.99    6.00
  -4  10   0   13.64    3.78
  -4  10   0   14.17    4.58
   4 -10   0    4.38    3.38
   3   5 -12   21.39    6.74
   3   5 -12   30.20    6.50
   5   4  -9   -1.34    2.71
   5   4  -9    2.99    2.24
   5   4  -9    3.98    3.23
   5   4  -9    4.22    2.74
   6   1   2    7.01    3.23
   6   1   2   12.23    4.14
   6   1   2    4.03    2.75
   5  -1   7   10.28    3.50
   5  -1   7    9.39    3.25
   5  -1   7    3.67    1.98
   5  -1   7    7.52    2.66
   4 -10  -1    7.80    3.88
  -4  10   1   19.49    5.21
  -4  10   1   13.87    4.61
   6  -2   4    2.36    2.32
   6  -2   4   -0.37    3.07
   6  -2   4    2.48    2.95
   6   0   3   45.64   12.89
   6   0   3   66.95   15.64
   4   7  -2    2.64    2.93
   4   7  -2    8.70    3.30
   4   7  -2    4.92    2.66
   4   7  -2    3.82    5.54
   4   0   9   29.87    6.65
   4   0   9   19.36    6.06
   4   0   9    8.82    3.51
   4   0   9   21.93    7.78
  -2  -8   9  220.83   32.78
   2   8  -9  234.84   35.74
   2   8  -9  182.86   27.33
   2   8  -9  183.20   33.74
  -2  -8   9  174.38   28.60
  -3   4 -11    6.07    2.90
   3  -4  11    7.20    2.53
   3  -4  11    7.28    4.63
   3  -4  11    6.43    4.97
  -1  -9   8  116.96   26.33
  -1  -9   8   99.10   15.94
   1   9  -8  113.03   16.06
   1   9  -8   59.38   18.07
   1  10  -2   42.42   11.07
   1  10  -2   31.40    5.62
   1  10  -2   28.69    5.47
   1  10  -2   51.40   10.46
   0   1 -14   11.04    3.50
   0  -1  14    8.60    3.25
   0  -1  14    5.28    3.99
   6  -4  -9  124.69   25.07
   6  -4  -9  142.02   13.67
   6  -4  -9  161.50   23.15
   6   3  -4   84.95   26.88
   6   3  -4  141.94   26.15
   4   3   7  248.34   25.01
   4   3   7  212.73   11.46
   4   3   7  225.48   20.56
  -1 -10   3  397.55   27.67
   1  10  -3  275.96   37.05
   1  10  -3  346.25   36.47
   1  10  -3  426.79   59.42
   0  -2  14  124.28   26.44
   0   2 -14  106.44   22.17
   0  -2  14   84.96   21.92
   4   7  -5    4.86    3.67
   4   7  -5    5.91    2.75
   4   7  -5    5.52    3.53
   4   7  -5    2.17    2.30
   3   1 -14    1.61    1.43
  -3  -1  14    5.54    2.57
   3   1 -14    3.68    3.16
   3   1 -14   -1.61    2.46
  -3  -1  14    6.52    2.93
   6  -4   4  472.40   16.27
   6  -4   4  455.09   48.29
   6  -4   4  366.06   19.56
  -2  -6  12   16.45    3.62
   2   6 -12    8.89    3.43
   2   6 -12   18.14    6.25
   2   6 -12   20.86    6.83
   4  -9  -6    2.88    3.10
  -4   9   6    4.96    3.66
  -4   9   6   29.79   13.05
   4  -9  -6   10.30    4.20
   5   1   6    8.19    3.77
   5   1   6   18.31    5.64
   5   1   6   -0.63    2.88
   5   1   6   10.05    7.27
   6   3  -3    8.66    2.88
   6   3  -3   11.35    3.70
   0 -10   6  354.03   15.06
   0  10  -6  295.78   30.88
   0  10  -6  326.78   14.35
   0  10  -6  287.46   17.95
   2   5   9    0.91    3.16
   2   5   9    0.69    2.21
   2   5   9   -1.38    3.29
   2   5   9   -1.08    3.13
   2   5   9    1.48    2.01
   5   0 -12   -0.60    2.73
   5   0 -12    5.14    2.92
   6  -6  -7  108.54   21.91
   6  -6  -7  113.02   25.89
   2   9  -6   13.23    4.23
  -2  -9   6    3.06    2.75
   2   9  -6    8.02    2.70
  -2  -9   6   15.70    5.29
   2   9  -6   13.41    4.16
  -1   5  12   35.24   11.86
  -1   5  12   44.45   11.50
  -1   5  12   36.25    9.50
   5   3   4    4.05    3.42
   5   3   4    4.96    2.83
   5   3   4    4.53    2.96
   1 -10  -4   33.04    7.86
  -1  10   4   65.62   12.46
  -1  10   4   79.59   12.98
   2   4  10   33.49   11.51
   2   4  10   31.40   10.47
   2   4  10   27.48    6.17
   2   4  10   62.14   11.59
   2   4  10   54.28   13.43
  -4  10  -1   44.24    8.34
   4 -10   1   31.19    9.91
   4 -10   1   34.25   10.59
   4 -10   1   42.83   14.24
  -4  10  -1   36.44    6.17
  -3   9   7   20.36    5.83
  -3   9   7   38.96    8.55
  -2   4  13   10.90    2.34
  -2   4  13    3.51    2.93
  -2   4  13    8.49    2.99
  -3   1  14   75.49   20.30
  -3   1  14   91.07   20.38
  -3   1  14   68.28   13.82
   3  -1 -14   54.24   18.09
   5  -9  -3  287.45   13.91
   5  -9  -3  288.13   12.41
   1  10  -1   87.56   18.94
   1  10  -1   92.64   17.26
   1  10  -1   84.10    9.20
   5  -2 -12    3.84    2.11
  -5   2  12    5.00    2.50
   5  -2 -12    6.27    2.56
   5  -2 -12   -1.64    3.62
   6  -7   1    2.46    2.85
   6  -7   1    1.16    1.47
   6  -7   1    2.64    2.36
   6  -7   1    3.41    3.68
   1   3  12   -0.44    2.64
   1   3  12   -0.39    4.65
   1   3  12    4.12    2.35
   2   3 -14   44.78    8.65
  -2  -3  14   43.02   10.98
  -2  -3  14   44.40    7.74
   6  -7  -5   28.50    6.38
   6  -7  -5   30.06    6.58
   1   7   8   -0.04    2.46
   1   7   8    3.57    2.66
   1   7   8    4.99    2.75
   1   7   8    6.09    3.33
   1   7   8    1.26    2.48
   6   3  -5    9.34    3.07
   6   3  -5   14.80    3.56
   3   6 -11  209.20   31.10
   3   6 -11  181.20   32.57
   4 -10  -2  440.30   18.51
  -4  10   2  380.94   32.93
  -4  10   2  442.59   34.73
   6   1  -9   13.22    3.56
   6   1  -9   16.41    6.35
   6   1  -9   17.52    5.66
   5   5  -7   83.95   10.68
   5   5  -7   72.49   13.07
   5   5  -7   83.15   14.89
   4  -9   5   78.82   26.02
  -4   9  -5   89.10   17.01
   4  -9   5   86.34   20.26
   4  -9   5  105.20   18.11
   4  -9   5   86.71   20.43
   2 -10   6   81.12   21.18
  -2  10  -6   78.98   14.98
   2 -10   6   70.38   14.50
  -2   2  14    2.09    1.25
  -2   2  14    4.77    2.33
  -2   2  14    3.56    2.36
   3  -9   7   27.07   12.05
   3  -9   7   50.46   14.76
  -3   9  -7   45.25    9.89
   5  -9   1    5.70    2.96
   5  -9   1    9.22    3.30
   5  -9   1    9.06    3.07
   1   1  13   16.29    4.63
   1   1  13   12.41    4.02
   1   1  13   20.97    8.65
   5  -8   4  161.85   11.13
   5  -8   4  139.45   29.10
   5  -8   4  125.88   28.40
   5  -8   4  177.83   18.99
   4   4   6   -2.99    3.77
   4   4   6    4.42    3.23
   4   4   6    2.06    1.71
  -1   7  10   63.42   13.97
  -1   7  10   45.68   14.08
  -1   7  10   65.47   14.54
   1   9   4   52.67   11.84
   1   9   4   49.67   14.36
   1   9   4   61.02   12.30
   1   9   4   65.82    8.97
   1   9   4   51.86   12.67
  -2   8   9  186.62   29.07
  -2   8   9  200.87   37.35
   1  10  -4    2.67    2.48
   1  10  -4   -0.06    4.10
   1  10  -4    4.18    3.27
   1  10  -4    1.26    1.73
  -1 -10   4    4.77    3.04
   5   5   0   17.71    7.70
   5   5   0   34.78   13.01
   5   5   0   53.35   13.80
   4   2   8    1.68    1.80
   4   2   8    3.61    2.08
   4   2   8    2.41    1.96
   2   9   1    9.04    2.49
   2   9   1    4.10    3.30
   5  -5   7   78.74   17.36
   5  -5   7   63.56   14.38
   5  -5   7   68.03   12.07
   0   0  14   68.29   17.44
   0   0 -14   74.05    8.00
   0   0  14   82.31   16.42
   6   3  -2    5.80    2.45
   6   3  -2    6.19    3.64
   6   2  -8  144.93   20.30
   6   2  -8  120.53   23.66
   6   2  -8  129.01   27.18
   2   5 -13   20.60    4.72
  -2  -5  13   42.18    9.59
   4   2 -13    9.86    3.71
   4   2 -13   10.00    3.53
   3   2  10   80.58   12.90
   3   2  10   79.62   15.36
   6  -2 -10   83.36   17.73
   6  -2 -10   53.31   11.78
   6  -2 -10   71.69   11.48
   4   7  -1   10.08    5.62
   4   7  -1    6.62    3.16
   4   7  -1   11.79    4.10
   4   7  -1    2.92    3.66
   6  -1 -10   51.65   11.02
   6  -1 -10   61.47   10.24
   6  -1 -10   59.45   15.63
   4   6  -9    2.55    1.66
   4   6  -9   -1.16    2.74
   4   6  -9   -0.00    3.54
   4   6  -9    0.77    1.86
  -3  -4  13    3.17    2.47
   3   4 -13    1.52    1.30
   3   4 -13    5.20    2.36
   3   4 -13    5.35    2.63
   2  -5  12    1.39    2.89
   2  -5  12    4.07    2.05
   2  -5  12    8.75    7.71
  -2   5 -12    3.76    3.21
   2   1  12   22.26    6.73
   2   1  12   35.56    7.63
   2   1  12   24.09    5.37
   2   1  12    7.65    4.78
  -3   8   9   51.10   11.61
  -3   8   9   46.08   12.50
   2   7 -11   28.75    8.17
  -2  -7  11   19.96    5.56
   2   7 -11   41.48    9.24
   2   7 -11   31.70    8.59
  -3   4  13   41.74   15.61
  -3   4  13   74.96   20.80
   3  -4 -13   67.46   14.66
  -3   4  13   93.38   20.21
   6  -6   3  265.96   55.53
   6  -6   3  292.94   22.57
   6  -6   3  232.75   40.58
   6   2   1    7.37    5.96
   6   2   1   13.39    3.85
   0  -9   9  203.37   31.97
   0  -9   9  261.56   27.27
   0   9  -9  211.64   33.39
   0  -3  14  161.98   38.17
   0  -3  14  115.49   15.69
   0   3 -14  174.45   24.51
   3   0  11  320.49   15.01
   3   0  11  309.54   18.77
   3   0  11  290.23   13.46
   6  -1   4  106.75   23.47
   6  -1   4  116.70   36.55
   6  -1   4   77.50   19.75
   4   7  -6  266.26   17.37
   4   7  -6  246.82   25.57
   4   7  -6  258.03   20.54
   4  -7   8   80.12   20.10
   4  -7   8   63.87   13.21
   4  -7   8   39.65   10.89
  -4   7  -8   36.56   11.98
   4  -7   8   68.96   15.49
   3   8  -7   44.27    8.53
   3   8  -7   43.46    9.35
  -3  -8   7   52.24   13.61
   3   8  -7   54.25   10.83
   4 -10   2   81.28   16.33
  -4  10  -2  112.91   16.88
   4 -10   2   86.75   21.24
   4 -10   2   68.73   20.21
  -4  10  -2  102.09   24.67
   3   8   1   22.48    5.60
   3   8   1   27.99    8.77
   3   8   1   43.89   10.02
   1  10   0  144.32   20.64
   1  10   0  120.64   10.14
   1  10   0  120.86   23.05
   0  10   3    1.72    3.38
   0  10   3    9.22    2.72
   0  10   3    3.31    3.20
   6   3  -6   77.36   12.88
   6   3  -6   66.25   11.88
   7  -3  -3  162.21   19.26
   7  -3  -3  185.86   11.57
   7  -3  -3  159.33   33.08
   4  -3 -13    3.09    1.60
  -4   3  13   -0.67    2.57
   4  -3 -13    2.45    2.01
  -4   3  13   -1.09    2.33
  -4   3  13    2.99    3.25
   2   6   8   -0.99    3.09
   2   6   8    3.61    2.27
   2   6   8    2.20    3.06
   2   6   8    3.87    2.60
   2   6   8    0.22    1.68
   1  -9   9  130.42   27.00
  -1   9  -9  152.58   27.14
   1  -9   9  148.76   26.69
  -3  -2  14   57.22    7.72
   3   2 -14   39.78    8.36
  -3  -2  14   32.62    9.94
   3   2 -14   17.37    4.13
   3   2 -14   47.93   13.12
   3   7   4   83.39   12.49
   3   7   4   68.50   16.16
   3   7   4  103.23   16.07
   7  -2  -3  809.56   24.59
   7  -2  -3  842.77   19.53
   4  -6 -11   58.20   13.68
   4  -6 -11   70.00   13.64
  -4   6  11   56.23   17.13
  -4   6  11   71.92   14.11
   0   3  13    4.23    2.50
   0   3  13    5.73    2.39
   0   3  13    4.68    3.91
   7  -3  -4  358.53   15.01
   7  -3  -4  344.46   13.92
   7  -3  -4  385.26   31.81
   7  -2  -4  176.41   23.03
   7  -2  -4  180.51   19.30
   5   1 -12  206.41   14.47
   5   1 -12  167.61   17.88
  -3  10  -5  128.92   21.01
   3 -10   5   98.85   22.29
   3 -10   5  110.88   24.75
  -4  10   3  337.13   39.34
   4 -10  -3  258.50   33.64
  -4  10   3  280.90   39.20
  -2  10   5  167.43   26.55
  -2  10   5  143.32   25.67
   5  -9  -4    2.72    1.54
   5  -9  -4    1.29    2.17
   6  -5   4  286.47   44.11
   6  -5   4  237.13   12.12
   6  -5   4  241.58   18.51
   2   3  11    6.28    5.11
   2   3  11    5.60    3.58
   2   3  11    4.75    3.49
   2   3  11    0.43    5.40
   4  -8   7   32.45   10.89
   4  -8   7   21.50    7.45
  -4   8  -7   25.43    7.31
   4  -8   7   42.09    8.42
   4  -8   7   31.20    8.62
  -1   9   7   40.33   12.04
  -1   9   7   52.29   11.06
  -1   2  14   30.25    8.38
  -1   2  14   43.70   14.27
  -1   2  14   37.69    9.97
   0   9   6   -0.75    3.51
   0   9   6    4.36    2.78
   0   9   6    2.91    1.42
   0   9   6   -0.49    3.80
   7  -3  -2  268.11   28.94
   7  -3  -2  278.91   21.72
   6  -3 -10   59.83   14.81
   6  -3 -10   76.48   15.22
   6  -3 -10   74.48   19.58
   6  -3 -10   38.52   15.16
   3   6   6  309.16   16.57
   3   6   6  329.80   35.92
   3   6   6  303.93   28.29
   6   0 -10   41.15    9.54
   6   0 -10   42.52    8.81
   6   0 -10   48.13    8.12
  -3   2  14    2.20    2.64
  -3   2  14    4.49    3.04
  -3   2  14    5.22    2.52
   3  -2 -14    3.31    2.15
   5  -8  -7    9.17    4.33
   5  -8  -7    4.50    1.73
   5  -3 -12   32.21   10.06
   5  -3 -12   42.59   12.23
  -1 -10   5    2.34    2.84
   1  10  -5    1.11    2.70
   1  10  -5    1.50    1.89
   1  10  -5    3.89    2.84
   1  10  -5   -0.13    2.88
   7  -2  -2   33.14   12.76
   7  -2  -2   33.63   10.02
  -1  10  -7    1.57    2.70
   1 -10   7    2.68    3.83
   1 -10   7    4.93    2.31
  -1   4  13   29.21    7.75
  -1   4  13   21.41   10.41
  -1   4  13   27.84    5.65
   5  -9   2    2.40    2.71
   5  -9   2    5.55    2.98
   5  -9   2    0.87    1.59
   1   4 -14  426.20   19.30
  -1  -4  14  462.10   16.02
  -1  -4  14  460.00   18.39
   6   3  -1    3.49    3.41
   6   3  -1    2.17    2.97
   5   0   7   59.03   14.85
   5   0   7   17.67   10.53
   5   0   7   56.93   17.44
  -4   7  10   27.01    9.52
  -4   7  10   32.92    7.52
  -3   5 -11   33.77    9.87
   3  -5  11   54.69   11.31
   3  -5  11   70.02   18.18
   3  -5  11   42.79   13.90
   0   8   8   18.52    5.84
   0   8   8    7.47    2.95
   0   8   8   16.32    5.12
   0   8   8   17.24    4.20
   7  -2  -5    5.36    2.30
   7  -2  -5   10.64    3.58
   4   6   3  101.56   18.26
   4   6   3   97.74   15.74
   4   6   3   89.06   19.42
   4   4 -12   51.02   10.41
   4   4 -12   51.61   14.86
   2 -11   1    3.02    3.16
  -2  11  -1    1.43    2.07
  -2  11  -1    6.39    3.20
   7  -3  -5    6.15    2.98
   7  -3  -5    1.79    3.28
   7  -3  -5    4.68    1.78
   5  -6 -10    1.71    2.25
   5  -6 -10    4.14    1.81
   7  -4  -3   39.21    9.86
   7  -4  -3   34.74   12.77
   7  -4  -3   40.55   12.11
   6  -7   2   43.03    7.90
   6  -7   2   45.49   11.53
   6  -7   2    8.04    3.56
   6  -7   2   25.98    6.48
  -4   5  12   43.68    9.46
   4  -5 -12   46.45   11.30
  -4   5  12   41.96   11.93
   4  -5 -12   35.53   13.43
   5   4   3   52.44   11.99
   5   4   3   72.94   16.18
   5   4   3   52.87   13.17
   2   9  -7   16.09    4.43
  -2  -9   7    5.87    3.49
  -2  -9   7   11.79    3.10
   2   9  -7    2.40    2.81
   2   9  -7   11.33    2.73
  -3  10   5  374.68   25.89
   3 -10  -5  365.08   14.18
  -3  10   5  430.36   56.24
   6  -7  -6    3.30    1.73
   6  -7  -6    4.13    2.55
  -2  11   0    1.25    1.99
   2 -11   0   -0.84    5.28
  -2  11   0   -0.76    3.76
   4   5 -11    3.87    1.99
   4   5 -11    2.88    2.29
   4   5 -11    9.53    2.98
   4   7   0   44.84   12.71
   4   7   0   32.30    7.87
   4   7   0   48.15   10.84
   4   7   0   59.23   13.46
   1  -5  13   28.26    9.46
   1  -5  13   79.04   16.51
  -1   5 -13   78.54   11.68
   1  -5  13   12.46    9.79
   0   7 -12   40.06    9.16
   0  -7  12   15.13    4.18
   0  -7  12   47.81    9.54
   0  -7  12   26.50    8.09
   7  -4  -4  411.21   18.71
   7  -4  -4  424.44   23.21
   7  -4  -4  456.18   18.47
   2  -8  10  105.68   21.96
  -2   8 -10  117.90   20.13
   2  -8  10  102.44   18.25
   7  -1  -4   26.75    5.60
   2 -11   2   54.64   14.33
  -2  11  -2   66.41    9.93
  -2  11  -2   50.20    9.62
   7  -4  -2   52.27   13.14
   7  -4  -2   56.92   14.29
   7  -4  -2   84.27   11.19
   4  -6   9    2.68    1.73
   4  -6   9    2.97    2.63
   4  -6   9    3.27    2.98
   4  -6   9    4.54    2.02
  -4   6  -9    1.02    2.28
   4   5   5  409.45   23.46
   4   5   5  388.56   14.82
   4   5   5  389.75   27.04
  -1  11  -1   26.56    6.27
   1 -11   1   19.15    4.72
  -1  11  -1   21.85    6.18
   0   1  14   72.46   15.40
   0   1  14   71.47   11.59
   0   1  14   68.97   17.70
  -2   7 -11   22.05    6.97
   2  -7  11   14.24    4.77
   2  -7  11   18.89    6.65
   2  -7  11   19.16    5.06
  -1  11  -2   16.65    4.98
   1 -11   2    7.61    3.00
  -1  11  -2   12.00    3.66
   5   3 -11  107.84   20.64
   5   3 -11  131.62   22.42
   5  -5 -11   38.53    8.77
   5  -5 -11   38.04    6.52
   5   5  -8   86.41   12.76
   5   5  -8   70.26   14.78
   5   5  -8   80.24   18.34
   7  -3  -1   44.37   11.72
   7  -3  -1   49.40    9.19
   3   7 -10  119.32   17.88
   3   7 -10  155.39   21.33
   0 -10   7    2.64    2.85
   0  10  -7    1.82    2.33
   0  10  -7    4.22    3.47
   0 -10   7    8.04    2.73
   5  -7   6    2.36    2.25
   5  -7   6    3.20    2.19
   5  -7   6    5.54    2.65
   6  -5  -9  213.71   20.04
   6  -5  -9  185.27   30.62
   6  -5  -9  226.82   21.10
   4   1   9   63.18   19.91
   4   1   9   40.70   14.98
   4   1   9   70.30   13.55
   4   1   9   64.96   16.51
  -1   8   9   30.67    6.11
  -1   8   9   21.01    7.23
  -1   8   9   33.46    7.86
   1  10   1   18.07    5.38
   1  10   1   14.42    3.95
   1  10   1   17.00    4.71
   6   3  -7    6.52    3.01
   6   3  -7   11.75    3.40
   4  -3  10  112.61   20.84
   4  -3  10  116.84   22.61
   4 -10   3   49.47   13.46
  -4  10  -3   56.91   10.41
  -4  10  -3   69.54   18.00
   4 -10   3   55.94   14.77
   5   5   1    7.55    2.96
   5   5   1    2.81    1.80
  -4  -7   7  370.30   30.41
   4   7  -7  343.90   21.06
   4   7  -7  333.30   22.90
   4   7  -7  411.61   51.98
   6  -8  -2    4.08    2.46
   6  -8  -2    2.70    3.19
   6  -8  -2    7.41    3.37
   7  -2  -1  265.47   11.71
   4  -2  10   -0.66    2.81
   4  -2  10    5.69    3.03
   2   9   2   74.67   10.51
   2   9   2   69.78    9.69
   7  -1  -5   56.03    9.32
   7  -1  -5   70.68   16.34
  -1  -7  12   59.65   10.47
  -1  -7  12   44.25    9.81
   1   7 -12   73.22   11.46
   6   1   3   18.45    5.30
   6   1   3    7.15    3.45
   6   1   3    6.61    3.18
  -1  11   0    6.78    3.70
   1 -11   0    1.75    2.36
  -1  11   0    4.06    2.20
   2 -11  -1   87.17   26.24
  -2  11   1  153.54   23.76
   5  -7  -9   25.10   10.09
   5  -7  -9   34.37    6.51
   6  -6  -8    2.48    2.56
   6  -6  -8   -2.01    2.97
   0  -8  11   55.13   15.50
   0   8 -11   66.44   13.34
   0  -8  11   59.75    9.27
   3  -8   9   47.03   12.13
   3  -8   9   42.32   10.49
   3  -8   9   45.81   13.10
  -3   8  -9   29.05    7.76
   5   4 -10  122.00   29.17
   5   4 -10  169.92   12.68
   5   4 -10  175.10   30.44
   6  -8  -1    3.23    1.75
   6  -8  -1    5.76    2.16
   6  -8  -1    2.05    1.78
   6  -8  -1    4.44    2.47
   0   4 -14   39.12    8.25
   0  -4  14   24.86   10.96
   0  -4  14   22.61    7.56
  -1  11  -3   58.87   11.64
  -1  11  -3   47.55   11.98
   1 -11   3   55.69   14.42
  -2  -4  14   74.26   14.33
   2   4 -14   67.37   13.67
  -2  -4  14   56.68   13.82
   7  -4  -5    5.66    2.25
   7  -4  -5    2.90    1.83
   7  -4  -5    5.42    2.69
   7  -2  -6  390.18   21.10
   7  -2  -6  446.49   27.07
  -4  10   4    2.27    1.63
  -4  10   4    2.56    3.18
   4 -10  -4    6.50    2.67
   3  -7  10    7.63    3.93
  -3   7 -10    9.37    4.15
   3  -7  10    5.20    3.76
   3  -7  10    4.41    2.52
  -4   9   7    7.49    3.11
   4  -9  -7    6.81    3.22
  -4   9   7    7.34    4.04
  -1  10   5   39.14    8.50
  -1  10   5   41.14   12.69
   6  -8  -3  324.50   28.45
   6  -8  -3  337.05   24.14
   6  -8  -3  305.68   18.26
   7  -4  -1   19.60    7.15
   7  -4  -1   23.60    8.71
   6  -3   5    9.47    4.06
   6  -3   5   11.05    4.99
   6  -3   5    6.66    3.65
   1   6 -13    5.91    3.53
  -1  -6  13    6.38    3.26
   1   9  -9  164.75   29.25
  -1  -9   9  188.93   35.02
  -1  -9   9  189.31   30.69
   1   9  -9   99.66   30.60
   2 -11   3    9.12    4.74
  -2  11  -3   16.55    5.67
  -2  11  -3    9.87    3.57
   5  -6   7   61.16   16.32
   5  -6   7   71.99   14.79
   5  -6   7   72.35   17.94
   7  -3  -6   76.67   20.30
   7  -3  -6   93.90   16.08
   5  -9  -5    0.67    2.03
   5  -9  -5    4.42    2.70
  -5   9   5    6.53    3.36
   2   8   5    4.83    2.31
   2   8   5    4.90    2.28
   2   8   5    8.17    3.81
   2   8   5    9.95    3.55
   6   0   4   63.11   17.04
   6   0   4   45.15   13.89
   6   0   4   22.03   12.32
   6   2  -9   11.53    3.78
   6   2  -9    8.18    4.31
   6   2  -9    9.70    3.67
   0  -6  13    7.71    3.69
   0  -6  13    5.21    2.61
   0   6 -13    7.90    4.15
  -2   3  14    5.94    2.41
  -2   3  14   12.75    4.87
  -2   3  14    8.06    3.44
   5  -3   8  127.37   26.14
   5  -3   8  110.34   23.07
   5  -3   8  117.05   26.30
   4   3 -13  238.15   14.87
   4   3 -13  236.03   32.56
  -1 -10   6   13.60    4.91
   1  10  -6    9.15    4.15
  -1 -10   6   23.76    6.90
   1  10  -6    8.18    4.09
   1   2  13  145.44   32.23
   1   2  13  117.47   24.37
   1   2  13  118.32   30.99
   4  -4  10  172.41   28.58
   4  -4  10  159.32   33.02
   4  -4  10  149.50   11.90
   3   3 -14    4.65    3.50
   3   3 -14    4.88    2.05
   3   3 -14    0.98    1.73
  -3  -3  14    3.25    2.95
   2 -10   7    1.10    4.58
   2 -10   7    8.31    3.39
  -2  10  -7    5.10    2.63
   1   8   7   44.47   12.01
   1   8   7   58.30   12.88
   1   8   7   52.55   12.07
   1   8   7   46.27   11.98
   1   8   7   51.41   15.02
   3   8  -8  124.07   21.06
  -3  -8   8   78.08   19.54
   3   8  -8   92.08   14.61
   3   8  -8   98.33   21.47
  -2  -8  10  173.49   26.49
   2   8 -10  147.42   28.02
  -2  -8  10  129.44   24.74
   2   8 -10  137.59   21.49
   2   8 -10  107.47   24.44
   6  -4 -10  149.47   22.16
   6  -4 -10   98.64   29.35
   6  -4 -10  167.92   26.07
   5  -8   5  142.51   31.35
   5  -8   5  158.36   32.42
   5  -8   5  127.70   31.47
   3   8   2   82.25   17.22
   3   8   2   87.57   17.14
   3   8   2   67.00   12.22
   6   3   0   68.49   17.10
   6   3   0   60.47   16.14
   6   1 -10   48.90    9.20
   6   1 -10   44.39    9.53
   6   1 -10   39.67    9.18
   4  -9   6  126.51   29.81
   4  -9   6   92.11   22.67
  -4   9  -6  114.35   22.97
   2  -2  13    1.06    1.86
   2  -2  13    1.01    2.02
  -2   2 -13    3.76    2.03
   2  -2  13   12.90    5.53
   6  -2   5   17.75    8.08
   6  -2   5   14.69    4.95
   6  -2   5    8.60    3.66
   5   2 -12   71.24   15.06
   5   2 -12   95.52   19.93
   6  -8   0    5.19    3.73
   6  -8   0   15.62    6.08
   6  -8   0   21.78    7.17
   6  -8   0    8.62    2.97
   6  -4   5   21.58    7.81
   6  -4   5   24.12   10.84
   6  -4   5   28.35    6.75
  -4   8   9   34.39    8.07
  -4   8   9   34.52   12.26
   6   2   2    0.85    4.15
   6   2   2    0.41    2.81
   3   1  11   51.06   10.16
   3   1  11   43.18   13.61
   3   1  11   41.82   14.67
   2   7   7    5.85    2.64
   2   7   7   23.47    7.21
   2   7   7    8.11    3.32
   2   7   7   17.81    6.93
   2   7   7   15.75    6.19
   5  -2   8   56.75   12.80
   5  -2   8   45.42   15.36
   5  -2   8   50.07    7.17
   5  -9   3  199.32   14.27
   5  -9   3  241.92   19.00
   5  -9   3  274.16   30.16
   5  -9   3  203.32   47.21
   7  -1  -6  250.74   39.10
   7  -1  -6  277.64   32.00
   7  -5  -3   52.78   13.38
   7  -5  -3   50.75    9.94
   7  -5  -3   48.69    9.52
  -1  11   1   56.81   10.23
   1 -11  -1   33.01    8.80
  -1  11   1   68.63   12.51
  -2   6  12   34.90   14.30
  -2   6  12   61.77   19.29
  -2   6  12   84.16   24.96
   4  -1  10    8.10    4.26
   4  -1  10    2.24    2.00
   4  -1  10   10.05    4.95
  -2   9   8   12.68    4.81
  -2   9   8   16.33    7.17
   2  -9   9   23.87    8.81
  -2   9  -9    9.51    3.52
   2  -9   9   26.18    8.29
  -3  11   0  248.93   27.40
  -3  11   0  325.18   45.95
   3 -11   0  139.55   36.51
   0   6  11    2.65    2.27
   0   6  11    5.79    3.54
   0   6  11    1.18    1.39
   0   6  11    3.15    1.82
   5   2   6   -0.93    4.38
   5   2   6   -1.63    3.13
   5   2   6    2.60    3.23
   7  -3   0  227.81   30.65
   7  -3   0  225.92   36.59
   7  -3   0  278.30   25.95
   6  -6   4  109.69   12.55
   6  -6   4  111.15   28.94
   6  -6   4   96.51   21.22
   0  10   4    1.91    3.54
   0  10   4    4.78    3.45
   0  10   4    1.55    3.45
   1   5  11   86.50   23.56
   1   5  11  104.72   28.02
   1   5  11   89.02   28.85
   1   5  11  105.74   24.35
  -3  11  -1    9.15    4.37
   3 -11   1   13.35   15.58
  -3  11  -1    8.65    3.46
   1   9   5   23.23    8.90
   1   9   5   29.95   10.58
   1   9   5   31.47    9.51
   1   9   5   35.68    7.12
   1   9   5   35.44    5.96
  -2   3 -13   22.03    7.04
   2  -3  13   33.19    6.50
   2  -3  13   17.55    8.18
   2  -3  13    9.55    4.12
   5  -4   8   42.45   13.02
   5  -4   8   32.77    8.79
   5  -4   8   41.19   10.84
   7  -1  -1    4.01    2.89
   7  -5  -2   17.40    7.09
   7  -5  -2   15.92    5.54
   7  -5  -2   20.86    7.08
   6  -8  -4   73.98   15.00
   6  -8  -4   71.00   16.08
  -4   0  14   55.64    9.91
   4   0 -14   59.67   10.54
   4   0 -14   35.88    7.64
   5   6  -4  279.61   17.35
   5   6  -4  185.07   17.12
   5   6  -4  265.29   29.02
   5   6  -4  223.84   19.97
   4   6 -10    6.33    3.33
   4   6 -10    3.20    2.21
   4   6 -10    1.16    3.22
  -1   8 -11   33.04   10.66
   1  -8  11   50.43   12.48
   1  -8  11   41.52    9.47
  -3   9   8   21.53    8.48
  -3   9   8   29.46    6.28
  -2  11   2    5.66    3.46
   2 -11  -2    5.08    2.90
  -1  -8  11  519.64   25.68
   1   8 -11  462.28   35.55
  -1  -8  11  474.22   48.46
   1   8 -11  515.06   34.19
  -1   7 -12   15.28    6.09
   1  -7  12   11.73    4.07
   1  -7  12   -0.87    4.60
  -3   6  12   57.78   11.85
  -3   6  12   49.42   16.56
  -4   4  13    3.24    1.71
  -4   4  13    5.51    3.17
  -4   4  13   11.27    4.78
   4  -4 -13    7.09    2.66
   4  -4 -13    6.82    3.43
  -1  11  -4    3.87    4.33
   1 -11   4    7.01    3.89
  -1  11  -4    7.95    4.84
   7  -5  -4    4.81    3.63
   7  -5  -4    6.75    3.15
   7  -5  -4    1.95    3.30
  -2   7  11   95.79    8.01
  -2   6 -12    0.27    3.80
   2  -6  12    5.28    3.64
   2  -6  12    5.02    3.16
   2  -6  12   -0.20    3.30
  -2   1 -13  236.50   24.89
   2  -1  13  259.31   19.99
   2  -1  13  263.80   18.99
   2  -1  13  240.93   24.83
   5   3   5   47.29   10.69
   5   3   5   45.84    6.80
   5   3   5   53.36   11.99
   2   2  12    1.99    5.21
   2   2  12    0.15    2.17
   2   2  12    2.86    2.22
   1   6  10    1.90    1.73
   1   6  10    4.00    1.26
   1   6  10    3.06    1.83
   1   6  10    1.75    2.64
  -3   3  14   17.50    6.79
  -3   3  14   10.50    4.44
  -3   3  14   15.99    5.62
   3  -3 -14   11.23    3.68
   5  -4 -12   95.11   19.04
   5  -4 -12  100.09   17.78
   5   6  -3    4.30    2.18
   5   6  -3    1.13    2.93
   5   6  -3    1.48    2.73
   5   6  -3    3.93    3.23
   3 -10   6   63.24   13.82
   3 -10   6   47.22   10.67
  -3  10  -6   48.82   10.36
   0   5  12   68.35   15.14
   0   5  12   49.02   16.81
   0   5  12   58.83   15.62
  -4   1  14  266.36   26.03
   4  -1 -14  209.20   29.15
   4   7   1  340.19   38.42
   4   7   1  287.01   37.24
   4   7   1  314.94   19.38
  -3  11   1  428.79   56.61
  -3  11   1  335.95   37.90
   3   4   9   21.74    7.28
   3   4   9   28.60    7.52
   3   4   9   24.20    7.96
   1  -2  14    5.22    2.16
   1  -2  14    2.65    2.23
  -1   2 -14    5.87    3.06
   7  -2   0    4.40    3.35
   7  -2   0   11.91    4.13
  -3   7  11  195.43   23.36
  -3   7  11  172.21   32.78
   7  -4  -6  171.48   40.56
   7  -4  -6  206.91   20.19
   7  -4  -6  217.07   25.72
  -3   9  -8  132.13   25.20
   3  -9   8  148.86   35.51
   3  -9   8  138.90   28.76
   6  -7   3   51.89   14.43
   6  -7   3   44.39   13.29
   6  -7   3   51.73   13.02
   6  -7   3   45.11   11.60
   5   6  -5  121.47   21.33
   5   6  -5  115.94   21.40
   5   6  -5  132.48   18.08
  -2  -1  15   52.97   12.56
   2   1 -15   22.34    9.43
  -2  -1  15   52.75   14.52
   2   1 -15   60.22   16.37
   6  -7  -7   79.86   19.21
   6  -7  -7   73.50   21.52
   7  -4   0   64.56   17.04
   7  -4   0   94.22   13.09
   7  -4   0  100.74   26.02
   1  -1  14  207.17   28.11
  -1   1 -14  200.57   23.03
   1  -1  14  210.65   40.08
  -2  11  -4  333.82   33.50
   2 -11   4  353.06   22.59
  -2  11  -4  410.86   37.66
  -3  11  -2  156.08   24.93
  -3  11  -2  122.85   17.89
   3 -11   2  109.22   26.44
   7   0  -5    1.03    1.25
   7   0  -5    1.98    1.71
   2   0 -15    1.92    2.01
  -2   0  15    7.17    3.86
  -2   0  15    5.55    3.22
  -2   0  15    9.22    3.70
   1  10   2   52.03   11.97
   1  10   2   40.33   13.20
   1  10   2   51.72    6.86
   6   3  -8  181.75   26.28
   6   3  -8  123.62   28.77
   6   3  -8  171.61   34.31
   6  -1 -11   28.04    6.50
   6  -1 -11   21.93    7.71
   6  -1 -11   23.52    7.69
   2   9  -8    8.98    4.20
  -2  -9   8    5.52    1.96
  -2  -9   8    8.51    4.16
   2   9  -8    7.48    3.92
  -2  10   6   25.61    8.10
  -2  10   6   29.84    6.69
   7  -2  -7   61.92   10.61
   7  -2  -7   47.30   14.07
   1   1 -15    5.48    2.25
  -1  -1  15   -0.07    4.51
  -1  -1  15   -1.58    3.33
   1   1 -15    0.48    1.64
  -4  10  -4    7.31    3.28
   4 -10   4    7.98    4.58
   4 -10   4   16.62    6.38
   4 -10   4   18.26    6.73
   6  -2 -11   93.57   14.87
   6  -2 -11  125.52   25.95
   6  -2 -11  129.86   15.39
   7  -5  -1   14.55    4.84
   7  -5  -1   14.93    5.44
   7  -5  -1   10.76    4.17
   3   5   8    6.19    2.48
   3   5   8    8.51    4.85
   3   5   8   16.02    6.31
   4   1 -14  165.79   23.29
  -4  -1  14  233.17   31.28
   4   1 -14  185.75   12.80
  -1   3  14   15.54    5.62
  -1   3  14   12.68    4.32
  -1   3  14   10.64    5.68
  -2   5  13   30.63   11.85
  -2   5  13   48.19   12.38
  -2   5  13   44.50    9.54
   5   6  -2  135.61   36.54
   5   6  -2  243.20   20.49
   5   6  -2  192.33   21.20
   5   6  -2  221.02   29.70
   0   7  10   13.52    6.15
   0   7  10    9.17    5.32
   0   7  10   22.19    7.91
   0   7  10   20.59    6.23
   3  -6  11   20.71    8.33
   3  -6  11    6.63    2.63
  -3   6 -11   12.16    4.69
   3  -6  11   25.06    7.56
   6  -8   1   13.39    3.80
   6  -8   1   11.89    4.07
   6  -8   1    2.53    2.16
   4   7  -8   36.18    7.50
  -4  -7   8   10.95    4.50
   4   7  -8   35.65    6.33
   4   7  -8   27.95    8.07
   5   1   7    5.66    4.98
   5   1   7   22.82    9.05
   5   1   7   13.65    6.31
   5  -1 -13  130.02   18.64
   5  -1 -13  149.93   27.63
  -5   1  13  161.47   17.80
   5  -1 -13  165.33   19.34
   3   6 -12    3.42    1.39
   3   6 -12    4.50    2.55
   3   6 -12    4.34    2.72
   7  -3  -7   45.48   14.95
   7  -3  -7   37.84    8.51
   3   5 -13    5.11    1.99
   3   5 -13    9.93    4.02
   3   5 -13    4.01    2.24
   0 -11   2    2.65    1.93
   0  11  -2    6.57    2.93
   0  11  -2    3.86    2.70
   1  -3  14    5.68    3.13
   1  -3  14    9.31    5.72
  -1   3 -14    7.62    3.18
   5  -1   8   29.45    9.48
   5  -1   8   28.69    7.33
   5  -1   8    6.62    3.57
   6  -1   5    7.54    3.47
   6  -1   5    9.13    5.63
   6  -1   5   -0.27    4.08
   7  -5  -5   46.72    9.66
   7  -5  -5   36.04   11.50
   7  -5  -5   43.16    9.25
   5  -8  -8   65.22   15.09
   5  -8  -8   76.51   19.51
   1   4  12   11.58    4.00
   1   4  12   10.67    4.73
   1   4  12    7.17    3.67
   5   5  -9  158.33   24.48
   5   5  -9  198.88   28.98
   5   5  -9  200.80   22.43
   6  -5   5  379.88   22.91
   6  -5   5  346.09   24.43
   6  -5   5  337.67   20.74
   3 -10  -6   58.64    6.35
  -3  10   6   74.97   19.58
  -3  10   6   84.27   15.22
   0   2  14   41.22   11.23
   0   2  14   38.41    7.34
   0   2  14   39.14   11.29
  -1  10  -8   22.49    7.21
   1 -10   8   15.17    5.51
   1 -10   8   16.20    6.50
   3   7   5  106.99   14.21
   3   7   5   86.60   17.46
   3   7   5  117.66   16.76
   6   4  -4   80.84   15.13
   6   4  -4   58.71   12.89
   1   2 -15   95.92   19.61
  -1  -2  15  119.49   19.99
   1   2 -15  145.46   25.89
  -1  -2  15  146.46   31.12
   3   3  10  422.86   32.01
   3   3  10  459.32   30.27
   3   3  10  429.80   23.70
  -1  -5  14   29.41    7.18
   1   5 -14   19.50    7.13
  -1  -5  14   34.66    9.11
   0   9 -10   51.01   11.67
   0  -9  10   58.35   13.85
   0  -9  10   66.60   16.24
   0  11  -1   -0.71    3.48
   0 -11   1    3.62    2.55
   0  11  -1    3.19    2.64
  -4  10   5   41.61    9.28
  -4  10   5   69.47   11.90
   4 -10  -5   51.24   14.16
  -3   5  13   19.03    5.39
  -3   5  13   16.69    8.62
  -3   5  13   17.71   10.81
   5   0 -13    5.77    2.46
   5   0 -13    5.94    2.52
   4  -5  10    6.99    2.86
   4  -5  10   12.10    4.36
   4  -5  10    1.04    3.23
  -1   0  15    4.83    3.98
  -1   0  15    3.20    1.91
   3  -2  12   80.00   34.17
   3  -2  12  134.15   34.44
   3  -2  12  152.42   24.02
   3  -2  12   22.90   14.97
  -3   2 -12   99.71   31.72
  -3  11   2   13.20    4.50
  -3  11   2   12.41    4.08
   4   3   8   33.32    6.95
   4   3   8   32.27    9.61
   4   3   8   32.52   11.11
   0  11  -3    9.30    3.73
   0  11  -3   16.36    5.93
   0 -11   3   14.91    6.43
   2  -4  13    0.69    1.73
   2  -4  13   -0.35    4.59
  -2   4 -13    5.73    2.52
   2   2 -15   74.57   16.45
  -2  -2  15   83.15   19.51
   2   2 -15   96.23   20.52
  -2  -2  15  105.31   19.15
  -3   3 -12   19.30    6.48
   3  -3  12   12.69    5.17
   3  -3  12   43.85   10.32
   3  -3  12   15.93    6.89
   7  -1  -7  169.86   30.05
   7  -1  -7  158.60   27.09
   6   4  -3   28.58   12.78
   6   4  -3   55.29   16.17
   1 -11  -2   35.69   10.40
  -1  11   2   54.51   11.03
  -1  11   2   62.13   11.50
   5   5   2   70.86   18.08
   5   5   2   73.26   12.45
   4  -2 -14   72.60   19.37
  -4   2  14   50.00   12.71
  -4   2  14  103.00   23.23
  -4   2  14   40.83   20.36
   4   4   7    3.95    3.88
   4   4   7    5.59    3.23
   4   4   7    7.39    2.71
   5   6  -6    1.50    2.12
   5   6  -6    1.09    2.43
   5   6  -6    3.53    2.35
  -2  -6  13    2.55    2.23
   2   6 -13    2.46    3.58
   2   6 -13    1.63    2.04
   6  -8  -5   30.03    9.54
   6  -8  -5   39.43    9.36
   6   4  -5   -0.15    2.74
   6   4  -5   -0.00    3.39
   4   6   4  405.47   31.16
   4   6   4  422.77   26.91
   4   6   4  467.35   56.76
   2   9   3    4.12    2.11
   2   9   3   -2.38    3.34
   6   0 -11    2.39    1.88
   6   0 -11    1.76    2.57
   6   0 -11    2.50    1.66
   7   0  -6   18.76    7.05
   7   0  -6   14.70    6.14
   5  -5   8    0.88    2.17
   5  -5   8    4.46    1.49
   5  -5   8    5.49    2.60
   0 -10   8   17.29    5.66
   0  10  -8    8.71    4.76
   0 -10   8   30.22    7.69
   5  -9  -6  130.69   24.59
  -5   9   6  115.56   19.12
  -5   9   6  114.25   17.46
   5  -9  -6  140.13   27.93
   5  -2 -13  223.18   34.40
  -5   2  13  227.14   31.87
   5  -2 -13  198.10   20.07
   7  -1   0   17.86    5.91
   7  -1   0   13.92    6.58
   1  10  -7   33.72    7.27
   1  10  -7   30.12    8.37
  -1 -10   7   38.84   15.20
  -1 -10   7   34.57    7.45
   1   7   9    9.23    4.06
   1   7   9   12.12    4.92
   1   7   9    6.57    3.05
   1   7   9    2.26    2.26
   1   7   9    8.06    4.28
   2   0  13   29.70   12.51
   2   0  13    9.15    4.31
   2   0  13   40.48   10.82
  -2   1  15   18.86    8.44
  -2   1  15   28.26    7.60
  -2   1  15   21.83    8.47
   2  -1 -15    5.08    2.07
  -1   9 -10   13.57    6.18
   1  -9  10   18.25    6.62
   1  -9  10   31.24    8.02
   5   4   4    6.17    3.87
   5   4   4    2.13    2.60
   5   4   4    6.66    2.37
  -2   8  10  314.25   28.55
  -2   8  10  349.49   33.02
  -3  11  -3    6.81    2.94
   3 -11   3    3.63    3.22
  -3  11  -3    5.94    2.75
   6  -3 -11    4.93    4.07
   6  -3 -11    2.61    1.94
   6  -3 -11    2.83    1.86
   2   7 -12    2.43    1.86
  -2  -7  12    2.29    2.57
   2   7 -12    5.18    2.26
   2   7 -12    4.03    4.16
   6   3   1   16.89    5.74
   6   3   1   27.68   10.96
  -1  11  -5   37.36    9.45
   1 -11   5   36.19   10.52
  -1  11  -5   39.29    6.97
  -1  11  -5   19.53    5.58
   1   0  14   -3.91    3.88
   1   0  14   -0.46    3.31
   1   0  14    1.68    2.16
  -3   8  10   77.26   23.08
  -3   8  10   73.82   19.04
  -1   6 -13   85.59   15.76
   1  -6  13   78.65   14.56
   1  -6  13   51.89   13.69
   0   9   7    2.57    2.13
   0   9   7    5.84    4.43
   0   9   7    5.99    5.32
   0   9   7    7.14    3.41
   3   9  -3   86.09   17.20
   3   9  -3   70.86   13.55
   3   9  -3   60.68    7.82
   0   4  13   10.64    4.88
   0   4  13   23.07    7.92
   0   4  13    9.28    4.00
   4  -8   8   15.52    7.56
   4  -8   8   29.11    7.69
  -4   8  -8    5.29    2.19
   4  -8   8   17.98    7.37
   4  -8   8   18.11    7.44
  -2  11   3    7.17    3.39
  -2  11   3    6.22    3.19
   4   0  10   -0.99    3.33
   4   0  10    1.04    1.55
   4   0  10    2.37    2.23
   4   0  10   -2.03    2.92
   7  -3   1  265.43   27.91
   7  -3   1  220.36   38.76
   7  -3   1  287.41   25.17
   0 -11   0   13.73    5.09
   0  11   0   14.36    5.33
   0  11   0   17.39    6.06
   0  -5  14  111.88   23.17
   0  -5  14  110.27   23.13
   0   5 -14  116.44   21.01
  -1   6  12    3.72    2.29
  -1   6  12    2.70    2.44
  -1   6  12    3.00    2.01
   3   9  -4   35.28    9.36
   3   9  -4   34.80    5.63
   3   9  -4   41.17   10.19
   7  -5   0  117.12    9.82
   7  -5   0  119.57   11.21
   7  -5   0  157.44   22.31
   7  -5   0   90.36   19.29
   5   6  -1   23.01    8.37
   5   6  -1   18.06    8.24
   5   6  -1   34.22    7.70
  -1   9   8   72.73   16.70
  -1   9   8   79.62   17.38
   4  -7   9   18.02    6.91
   4  -7   9   38.70    7.57
   4  -7   9   19.48    9.43
   4  -7   9   43.64   11.77
  -4   7  -9   19.24    6.80
   2   5  10    8.61    3.21
   2   5  10    5.02    3.03
   2   5  10   13.91    6.51
   2   5  10    8.53    4.97
   2   5  10   10.03    3.78
   6   4  -2    1.35    1.49
   6   4  -2    2.26    1.71
   6   4  -2    1.77    1.54
   0  11  -4   21.28    8.40
   0  11  -4   10.46    3.94
   0 -11   4   16.71    5.94
   0  11  -4   23.65    7.94
   3  -1  12    3.75    3.03
   3  -1  12   14.64    5.30
   3  -1  12    4.38    3.07
   3  -1  12    5.93    3.11
   3  -1  12    4.36    2.48
   7  -4  -7  100.81   29.90
   7  -4  -7  149.27   15.80
   7  -4  -7  147.79   31.83
   5  -9   4   34.86    9.74
   5  -9   4   47.66    8.75
   5  -9   4   46.46    7.42
   5  -9   4   44.39   10.69
   3   9  -2   67.95    8.43
   3   9  -2   85.74   20.14
   6  -6  -9    3.32    3.58
   6  -6  -9    3.16    1.43
   6   4  -6    1.59    2.44
   6   4  -6    0.56    2.03
   6  -5 -10   16.80    6.98
   6  -5 -10    8.78    4.48
   6  -5 -10   15.36    7.69
  -3   4 -12    8.31    3.21
   3  -4  12   21.65    7.29
   3  -4  12   23.48    8.24
   3  -4  12    8.93    4.74
  -5  10   1    9.26    4.24
  -5  10   1    5.21    2.19
   5 -10  -1   13.60    5.46
   5 -10  -1   14.14    4.77
   7  -4   1  129.40   35.09
   7  -4   1  167.57   21.27
   7  -4   1  163.11   20.25
   7  -2   1    3.65    1.88
   7  -2   1    5.13    2.77
   7  -5  -6    1.39    3.06
   7  -5  -6    4.22    1.82
   7  -5  -6    1.45    1.63
  -1   7  11    4.08    3.07
  -1   7  11    2.21    2.53
  -3   0  15    6.20    2.56
  -3   0  15    1.54    1.56
   3   0 -15    6.00    2.38
  -3   0  15    4.79    2.76
   3   8  -9  228.62   34.03
  -3  -8   9  232.23   21.36
   3   8  -9  186.47   21.08
   4   2   9    9.14    4.25
   4   2   9    2.39    2.14
   4   2   9    2.14    3.22
   6   2 -10   15.97    5.13
   6   2 -10   13.02    4.10
   6   2 -10    7.63    3.57
   3   8   3    7.02    3.34
   3   8   3    1.97    1.90
   3   8   3    3.80    2.10
   3   8   3    1.29    2.48
   5   1 -13   86.63   20.85
   5   1 -13  118.16   21.03
   6   1   4   25.50    9.97
   6   1   4    4.60    3.53
   4   2 -14    7.13    3.04
   4   2 -14    2.93    2.35
   3   6   7  147.83   25.22
   3   6   7  188.19   32.21
   3   6   7  141.95   33.62
  -1  -3  15   31.35   11.27
  -1  -3  15   21.66    7.30
   1   3 -15   39.86    9.53
  -2  11  -5  169.39   27.56
  -2  11  -5  161.55   41.66
   2 -11   5  155.58   34.88
   7  -6  -3   54.45   13.38
   7  -6  -3   62.24   16.67
   7  -6  -3   70.21   17.30
   3   7 -11    0.35    1.75
   3   7 -11    3.81    3.34
   3   7 -11    2.28    2.17
   5 -10   0  297.71   14.08
  -5  10   0  217.14   35.93
  -5  10   0  261.11   28.71
   5 -10   0  292.13   26.44
   2  10  -3   43.45    8.59
   2  10  -3   42.64    6.44
   2  10  -3   39.64    6.42
   2   4  11    5.28    4.07
   2   4  11    7.62    4.70
   2   4  11    2.71    2.83
   2   4  11   10.96    6.34
   2   4  11    9.54    2.79
   1  -4  14   54.14   11.76
   1  -4  14   26.79    9.47
  -1   4 -14   42.44    7.51
   6  -8   2    5.45    1.82
   6  -8   2    3.79    2.35
   6  -8   2    5.02    3.74
   6  -8   2    3.03    1.49
   7  -6  -2   96.81   18.78
   7  -6  -2   94.03   10.62
   7  -6  -2   98.41   12.50
   3   1 -15    4.50    2.99
  -3  -1  15   -1.84    3.18
  -3  -1  15    7.23    2.61
  -3  -1  15    3.15    1.89
   3   4 -14    1.54    1.65
  -3  -4  14    2.95    2.77
   3   4 -14    4.43    3.61
   3   4 -14   -1.61    2.76
   5 -10  -2    4.20    4.16
  -5  10   2    1.67    1.64
  -5  10   2    3.04    1.86
   4   5 -12   97.86   17.97
   4   5 -12   87.83    8.06
   4   5 -12   73.79   22.28
  -1  10   6    8.26    4.28
  -1  10   6    7.75    4.36
   5   4 -11   14.32    4.42
   5   4 -11   24.94    5.52
   5   4 -11   15.00    5.18
   3   9  -5   59.18   12.45
   3   9  -5   59.30   13.92
   5  -6 -11   20.07    6.16
   5  -6 -11   23.35    9.01
  -1   1  15   31.05    6.81
  -1   1  15   32.44    7.69
  -1   1  15   26.24    8.10
   5  -7   7  151.46   32.61
   5  -7   7  123.68   28.34
   5  -7   7  144.45   16.22
  -3  11   3   68.21   11.69
  -3  11   3   41.76    9.65
  -4   9   8   56.21   19.71
  -4   9   8   65.85   13.02
   2  10  -2   13.00    3.79
   2  10  -2    5.18    1.86
   2  10  -2    0.72    4.62
   2   5 -14   95.23   15.20
  -2  -5  14   81.37   15.41
  -4   6  12   96.44   28.29
   4  -6 -12   87.52   22.92
  -4   6  12   92.94   28.57
   5   3 -12  112.55   28.41
   5   3 -12  138.51   20.10
   4   7   2  110.16   28.03
   4   7   2  156.44   14.88
   4   7   2  170.49   26.69
   2   6   9    3.38    2.73
   2   6   9    5.59    2.10
   2   6   9    3.55    2.18
   2   6   9    8.43    4.96
   2   6   9    5.63    2.11
   4   5   6    4.70    2.56
   4   5   6    9.64    5.59
   4   5   6    2.06    1.85
   7  -2  -8    2.45    3.26
   7  -2  -8    4.32    2.80
   7  -2  -8    2.66    2.49
  -1   5  13   90.68   26.50
  -1   5  13  107.53   20.27
  -1   5  13   95.93   23.25
   6   2   3   24.68    9.18
   6   2   3   18.80    8.78
   5   6  -7    4.81    1.94
   5   6  -7    6.51    4.94
   5   6  -7    4.89    2.70
  -4   7  11    0.10    1.92
  -4   7  11    3.65    2.33
   2  10  -4   59.90   12.50
  -2 -10   4   84.86   20.00
   2  10  -4   70.57   14.15
   7  -6  -4    4.81    2.86
   7  -6  -4    2.11    1.42
   7  -6  -4    1.67    2.73
   7   0  -7  339.23   28.32
   7   0  -7  379.33   23.03
  -2  -3  15   21.12    4.96
  -2  -3  15    6.37    2.86
   2   3 -15   13.67    5.77
   2   3 -15   10.85    4.17
   4   4 -13   46.73   12.50
   4   4 -13   48.03   11.64
   3  -1 -15   26.20   13.22
  -3   1  15   43.63   10.90
  -3   1  15   56.67   14.38
  -3   1  15   62.92   11.28
   3   9  -1  314.67   34.03
   3   9  -1  310.34   26.68
  -1  -9  10  154.56   26.77
   1   9 -10  113.49   26.08
  -1  -9  10  155.94   22.08
   1   9 -10  153.85   22.19
  -2  10  -8  103.46   17.71
   2 -10   8  110.14   19.43
   2 -10   8  104.97   22.59
   0   8   9   33.57   14.88
   0   8   9   32.50    8.99
   0   8   9   32.28    7.88
   5  -8   6   25.17    7.41
   5  -8   6   31.39    7.82
   5  -8   6   36.47    9.63
  -2   4  14   -0.92    1.74
  -2   4  14    8.63    3.99
  -2   4  14   13.30    4.71
   5  -7 -10  111.16   21.52
   5  -7 -10  111.56    8.85
   6   3  -9    3.07    3.05
   6   3  -9    4.57    3.08
   1  10   3   74.03    7.18
   1  10   3   89.91   19.93
   1  10   3   87.20   16.54
   5  -3 -13   39.49   12.41
   5  -3 -13   39.22   11.23
   5  -3 -13   15.64    5.49
   7  -3  -8  289.28   22.20
   7  -3  -8  302.40   13.41
   5   0   8   77.41   16.72
   5   0   8   29.88   15.91
   5   0   8   58.62   18.97
   0  11   1    8.21    2.85
   0 -11  -1   -0.43    3.63
   0  11   1   10.69    4.02
   0  10   5  169.29   38.65
   0  10   5   83.38    7.87
   0  10   5  164.10   28.15
   3   2  11    9.86    3.03
   3   2  11    6.26    3.09
   3   2  11    4.37    2.58
   7  -6  -1   10.80    4.38
   7  -6  -1   23.98    7.39
   7  -6  -1   13.73    4.24
  -4  10  -5   56.45   10.40
   4 -10   5   50.32   13.19
   4 -10   5   57.50   12.11
   4  -9   7  133.17   10.65
   4  -9   7  101.04   23.41
  -4   9  -7  106.06   22.56
   4  -9   7  155.37   28.61
   6   1 -11    6.24    1.76
   6   1 -11    4.26    2.06
   6   1 -11    6.22    2.40
   6   0   5    5.35    4.01
   6   0   5   35.38    6.72
   6   0   5   39.99    9.60
  -5  10  -1   13.86    7.05
  -5  10  -1   13.81    4.43
   5 -10   1   24.15    5.45
   5 -10   1   20.14    4.97
   7   1  -5   30.25    5.88
   6  -7   4   21.17    6.72
   6  -7   4   30.44    7.68
   6  -7   4   23.23    7.32
   0  -1  15   18.56    5.60
   0   1 -15   17.14    5.13
   0  -1  15   14.94    4.76
   6   4  -1    4.97    2.50
   6   4  -1   15.70    5.02
   6  -8  -6  141.15   31.42
   6  -8  -6  163.50   19.19
   6  -7  -8   94.72   15.53
   6  -7  -8  108.49   17.42
   1   3  13   19.74    6.99
   1   3  13   43.78   11.99
   1   3  13   16.21    4.71
   0  -2  15    9.01    3.05
   0  -2  15    2.38    3.74
   0   2 -15   -0.17    3.80
   0   2 -15    5.89    2.02
  -1  11   3   22.68    6.77
   1 -11  -3   17.29    4.55
  -1  11   3   15.90    4.65
   7  -1  -8   25.97    7.25
   7  -1  -8   20.83    4.52
   7  -1  -8   19.98    5.35
  -3  11  -4   16.57    4.67
   3 -11   4   14.55    4.89
  -3  11  -4   20.11    6.55
   2  10  -1   53.36   10.87
   2  10  -1   52.52    7.12
   2  10  -1   50.15    7.81
   6  -6   5   22.05    8.27
   6  -6   5   30.05    8.48
   6  -6   5   14.53    4.09
   2   8   6   10.07    3.19
   2   8   6   13.60    5.97
   2   8   6   13.44    3.19
   0  11  -5  285.94   51.46
   0  11  -5  211.46   24.01
   0 -11   5  259.33   14.38
   0  11  -5  231.86   30.66
  -4   3  14    5.20    3.84
   4  -3 -14    1.86    2.52
  -4   3  14    0.19    1.28
   4  -3 -14   -0.11    3.05
  -4   3  14    6.20    2.29
   6  -3   6  114.63   23.97
   6  -3   6  124.22   30.89
   6  -3   6  142.38   23.91
  -5  10   3   13.79    4.30
   5 -10  -3   21.90    4.25
   5 -10  -3   24.24    7.76
  -5  10   3   19.66    4.47
  -2   5 -13   32.85    7.47
   2  -5  13   30.75   12.18
   2  -5  13   44.74   10.34
   3 -10   7  222.29   37.21
   3 -10   7  248.32   44.06
  -3  10  -7  224.30   36.44
   5  -5 -12   63.29   19.63
   5  -5 -12   53.68   21.60
  -3   4  14   14.97    6.02
   3  -4 -14    5.64    3.92
  -3   4  14   10.29    4.52
  -3   4  14   12.78    5.95
   4   8  -4  405.86   33.85
   4   8  -4  361.54   15.32
   4   8  -4  391.11   14.96
   4   8  -4  435.78   35.24
   4   7  -9    9.80    3.56
   4   7  -9   20.62   11.95
   4   7  -9   15.99    4.72
   4   8  -3   11.63    3.97
   4   8  -3   15.84    6.32
   4   8  -3   19.32    3.82
   4   8  -3   19.56    4.99
   6   4  -7    2.87    2.15
   6   4  -7    7.43    3.49
   2  -8  11   13.55    4.44
   2  -8  11   21.28    7.41
   2  -8  11   25.94   10.43
  -2   8 -11   23.00    5.96
  -2   2  15   45.82    9.88
  -2   2  15   40.34   12.53
  -2   2  15   36.72   10.63
   5   6   0    5.15    2.30
   5   6   0    3.29    1.73
   5   6   0    4.79    2.57
   6  -4 -11   42.41   10.98
   6  -4 -11   36.74   10.90
   6  -4 -11   21.78    8.95
  -2  -8  11    7.88    3.15
   2   8 -11    6.31    3.69
  -2  -8  11   10.86    3.26
   2   8 -11    6.31    3.32
   2   8 -11   12.14    3.96
  -2  -9   9  117.29   16.43
   2   9  -9  163.78   24.62
  -2  -9   9  170.28   39.72
   2   9  -9  128.54   23.36
   2   9  -9  104.96   28.37
   7  -5   1    4.14    2.04
   7  -5   1    4.90    4.79
   7  -1   1    1.09    2.67
   7  -1   1    3.53    2.23
  -2 -10   5    9.95    2.86
   2  10  -5    8.87    4.21
   2  10  -5    4.38    2.67
   2  10  -5    7.01    2.82
   3   2 -15    4.47    3.58
  -3  -2  15    2.96    2.14
   3   2 -15    3.73    1.54
   3   2 -15    2.04    1.37
  -3  -2  15    1.54    2.89
   6  -4   6    5.08    2.50
   6  -4   6    1.94    2.37
   6  -4   6    5.64    4.31
   4 -10  -6   18.11    7.63
  -4  10   6   16.62    4.37
  -4  10   6   12.99    4.46
   7   0   0  205.13   19.65
   7  -6  -5   55.26   10.61
   7  -6  -5   71.69   17.23
   7  -6  -5   63.24   11.93
  -3  -9   6   -0.52    3.22
   3   9  -6   -1.49    3.82
   3   9  -6    1.09    2.02
   3   9  -6    0.85    2.34
   3   0  12   34.94   14.48
   3   0  12   93.13   28.54
   3   0  12  116.72   17.73
   3   0  12   29.06   15.04
   3   0  12  101.34   29.18
   4  -6  10  125.98   27.01
   4  -6  10   42.01   19.13
   4  -6  10  104.23    8.52
   4  -6  10   96.19   19.82
  -4   6 -10   43.98   16.71
   4   6 -11   17.50    4.42
   4   6 -11   19.18    3.65
   4   6 -11   17.17    4.28
   1   1  14   18.08    5.24
   1   1  14   11.74    3.72
   1   1  14   10.27    4.49
   1 -11   6    4.73    3.97
   1 -11   6   10.93    4.19
  -1  11  -6   10.99    3.73
   1   9   6   30.05    8.70
   1   9   6   39.73    9.99
   1   9   6   38.65    8.66
   1   9   6   30.33    9.69
   1   9   6   34.05   10.54
  -4  11   0    3.65    2.76
  -4  11   0    3.31    3.15
   4 -11   0    1.20    2.38
   4  -5 -13    1.46    2.32
   4  -5 -13    2.58    1.52
  -4   5  13    1.33    1.96
  -4   5  13    4.24    3.34
   6  -2   6   20.90    5.74
   6  -2   6   36.03    9.67
   6  -2   6   33.45    7.87
   5  -6   8   69.07   16.15
   5  -6   8   83.49   17.76
   5  -6   8   70.07   15.04
   3  -8  10    9.51    3.90
  -3   8 -10    5.54    3.42
   3  -8  10    7.79    2.65
   3  -8  10   14.00    4.99
  -1   8  10   -0.00    2.19
  -1   8  10    4.10    2.65
  -1   8  10   -0.65    4.19
   4   8  -5   -0.20    4.80
   4   8  -5    3.57    2.24
   4   8  -5    3.02    3.27
   4   8  -5    2.33    3.15
   2   1  13    6.88    3.23
   2   1  13    5.57    2.55
   2   1  13    4.16    2.98
  -4  11   1    4.73    2.41
   4 -11  -1    2.78    2.02
  -4  11   1    2.82    3.19
  -2  11   4   19.05    5.65
  -2  11   4   17.74    4.58
   4   8  -2  106.05   19.97
   4   8  -2  100.69   19.27
   4   8  -2  115.72   20.94
   4   8  -2   94.33   17.87
   7   1  -6   26.61    5.60
   5   5 -10   14.86    4.19
   5   5 -10   14.22    4.13
   5   5 -10    8.12    4.45
   0   7 -13  249.16   38.83
   0  -7  13  234.27   46.29
   0  -7  13  198.57   18.77
   0  -8  12   13.39    5.11
   0  -8  12   11.70    3.60
   0   8 -12   19.18    6.69
  -4   8  10    2.59    2.00
  -4   8  10    3.45    4.10
   0   0  15   -2.37    4.74
   0   0  15   -0.61    3.88
   0   0  15    2.51    2.20
   7  -5  -7   76.35   15.56
   7  -5  -7   52.85   14.00
   7  -5  -7   72.68   12.92
   3  -5  12    2.54    2.17
  -3   5 -12    2.77    2.11
   3  -5  12    5.36    3.48
   3  -5  12    1.54    1.72
   0  -3  15  162.65   24.65
   0  -3  15  174.55   35.02
   0   3 -15  220.11   35.89
   4 -11   1  243.11   25.43
  -4  11  -1  259.53   31.24
   4 -11   1  203.64   17.56
  -4  11  -1  314.80   44.12
   2  -7  12    4.27    3.38
   2  -7  12    2.30    1.62
  -2   7 -12    6.77    4.01
   2  -7  12    8.91    4.01
   7  -3   2   18.60    9.23
   7  -3   2   17.48    6.44
   7  -3   2   11.19    4.06
   1  10  -8    8.04    2.83
   1  10  -8   11.96    4.01
  -1 -10   8   23.02    6.87
  -1 -10   8   11.17    4.79
   2   3  12   31.35    6.23
   2   3  12   15.25    3.87
   2   3  12   15.00    6.92
  -5   9   7    7.85    3.19
   5  -9  -7    5.86    2.90
  -5   9   7   13.13    5.11
   5  -9  -7   11.82    2.76
   7  -6   0   93.40   20.70
   7  -6   0  103.49   22.85
   7  -6   0   80.19    8.34
   7  -6   0   55.04   14.39
   1   8   8   12.38    4.22
   1   8   8   25.30    4.95
   1   8   8    9.54    2.75
   1   8   8   15.99    4.09
   1   8   8   14.73    5.17
  -2  10   7   15.59    6.41
  -2  10   7   22.21    8.39
   1   7 -13  201.94   30.35
  -1  -7  13  147.81   34.80
  -1  -7  13  169.08   25.23
   3   9   0   98.16   17.68
   3   9   0  103.07   22.92
   3   9   0  104.78   16.54
   7  -4  -8    4.17    2.54
   7  -4  -8    0.41    2.67
   6   3   2    2.36    1.70
   6   3   2    1.53    2.17
  -3   9   9   -2.16    3.70
  -3   9   9   -0.69    3.22
   5   5   3   84.46   20.61
   5   5   3   64.42   12.72
  -3  10   7   38.73   11.77
  -3  10   7   40.69    9.65
  -2   9   9    2.99    2.72
  -2   9   9    3.49    2.58
   2  -9  10   92.18   24.41
   2  -9  10   73.79   19.75
  -2   9 -10   89.15   16.74
   5   2 -13   30.67    6.15
   5   2 -13   28.41    6.26
   5 -10   2   63.38   16.35
   5 -10   2  115.63   14.94
   5 -10   2  123.98   13.82
   5 -10   2   55.86   14.84
   6  -9  -2   37.66    7.99
   6  -9  -2   39.57    8.03
   6  -9  -2   41.86    8.74
   2  10   0    3.22    4.31
   2  10   0    3.90    2.13
   3  -2 -15    3.00    2.01
  -3   2  15    8.18    3.59
  -3   2  15    8.26    5.18
  -3   2  15    0.89    1.97
   6  -9  -1   15.40    4.33
   6  -9  -1   36.74    8.57
   6  -9  -1   47.77   11.52
   6  -9  -1   38.27    9.32
   0   3  14  149.68   42.77
   0   3  14  157.79   32.58
   0   3  14  189.45   24.44
   2   9   4    1.67    1.67
   2   9   4   -0.05    2.23
   2   9   4    1.21    2.95
   3 -11  -4    3.66    3.51
  -3  11   4   11.21    3.52
  -3  11   4    6.24    4.36
   5   3   6   42.13   13.15
   5   3   6   39.32   10.67
   5   3   6   26.76   10.82
   7  -4   2  102.78   20.30
   7  -4   2   60.45   30.83
   7  -4   2  126.62   28.64
   3  -7  11   22.78    7.24
   3  -7  11   15.95    6.25
   3  -7  11   15.74    5.90
  -3   7 -11   12.18    5.39
   5  -8  -9    3.50    2.45
   5  -8  -9    2.78    3.13
  -5   8   9    2.79    2.64
   1   4 -15  560.08   26.43
  -1  -4  15  581.34   26.10
  -1  -4  15  546.19   18.41
  -4  11   2    2.23    1.77
   4 -11  -2    7.24    2.52
  -4  11   2    6.29    3.49
   4   1  10   25.91    6.53
   4   1  10   35.40    7.27
   4   1  10   20.76    8.00
  -5  10   4   16.13    3.49
  -5  10   4   20.42    5.27
   5 -10  -4   19.70    4.38
   5 -10  -4   29.07    8.21
   5   6  -8    2.26    3.58
   5   6  -8    6.18    2.93
   5   6  -8    7.14    2.84
   2   7   8   41.35    7.00
   2   7   8   39.78   10.15
   2   7   8   24.68    5.49
   2   7   8   19.95    6.58
   2   7   8   32.93    9.54
   6  -8   3  192.42   14.35
   6  -8   3  185.01   11.02
   6  -8   3  136.62   26.79
   6  -8   3  131.94   27.93
   3  -9   9   26.45    8.78
   3  -9   9   33.74    8.62
   3  -9   9   22.75    5.44
  -3   9  -9   30.16    9.45
   5   2   7   15.93    4.91
   5   2   7   18.69    6.28
   5   2   7   11.15    3.37
   7   0  -8   38.99    9.07
   7   0  -8   30.12    7.40
   1 -10   9    7.33    4.02
  -1  10  -9   13.51    4.13
   1 -10   9   12.40    3.71
   7  -2   2  121.80   30.50
   7  -2   2  133.96   33.17
  -2  11  -6   29.83    6.64
   2 -11   6   29.41    7.54
   2 -11   6   13.54    3.31
   5  -3   9   91.08   22.92
   5  -3   9   68.76    7.04
   5  -3   9   76.44   17.04
  -1   4  14    2.45    1.81
  -1   4  14    3.01    1.82
  -1   4  14   -1.18    4.64
   0 -11  -2   66.48   17.12
   0  11   2   85.27   13.22
   0  11   2   80.15   15.00
   4  -3  11    3.72    2.67
   4  -3  11    3.71    2.02
   6  -9  -3   51.43   10.86
   6  -9  -3   58.92   11.18
   6  -9  -3   59.17    9.81
   5  -9   5  268.47   34.68
   5  -9   5  258.73   48.22
   5  -9   5  298.22   18.81
  -1   2  15    2.41    2.15
  -1   2  15    3.95    4.72
  -1   2  15    3.91    1.95
  -6   1  12    2.06    1.80
   6  -1 -12   14.18    3.69
   6  -1 -12    5.18    2.26
   6  -1 -12    4.38    2.29
   4   3 -14   27.88    6.84
   4   3 -14   28.00    6.21
   0 -10   9  232.57   42.18
   0  10  -9  245.22   36.40
   0 -10   9  237.90   26.26
   4   8  -6   88.12   14.82
   4   8  -6   85.72   16.92
   4   8  -6   92.65   16.76
   1   8 -12    3.67    2.37
  -1  -8  12    9.34    3.95
  -1  -8  12    2.38    1.67
  -1   5 -14   26.83    5.84
   1  -5  14    7.41    3.66
   1  -5  14   10.02    4.45
   1  -5  14   24.10    7.81
   6   4   0   12.00    5.31
   6   4   0    7.35    2.70
   6  -5   6    1.61    1.91
   6  -5   6    1.15    2.60
   6  -5   6    1.99    2.18
   4   8  -1  267.75   37.65
   4   8  -1  289.74   15.75
   4   8  -1  274.11   11.71
   4   8  -1  243.13   31.63
  -2 -10   6   84.17   22.65
   2  10  -6   69.17   16.26
   2  10  -6   54.61   10.26
   4  -2  11   66.88   17.43
   4  -2  11   68.39   14.31
  -4  11  -2    6.07    3.10
   4 -11   2    3.49    1.55
   4 -11   2    8.33    3.63
  -4  11  -2    8.59    3.59
   6  -2 -12    5.35    3.04
   6  -2 -12    5.79    3.43
   6  -2 -12    5.07    2.12
   7   1  -1   -1.11    2.22
   6  -9   0  192.53   23.98
   6  -9   0  178.10   11.84
   6  -9   0  105.65   20.85
   0 -11   6    6.12    4.24
   0 -11   6    6.51    3.35
   0  11  -6   -0.13    2.76
   0  11  -6    7.81    3.30
   7  -6  -6   62.73   16.99
   7  -6  -6   83.65    8.71
   7  -6  -6   85.58   20.59
   5  -2   9    6.14    3.17
   5  -2   9   17.12    4.96
   5  -2   9    2.35    1.53
  -1  -6  14    2.34    2.18
   1   6 -14    3.88    3.71
  -1  -6  14    5.89    3.59
   6  -1   6   20.98   11.22
   6  -1   6    9.22    6.37
   6  -1   6   16.50    5.38
   5  -4   9  232.49   17.85
   5  -4   9  201.81   19.92
   5  -4   9  217.92   11.55
   3   7   6   14.12    3.05
   3   7   6    8.73    3.14
   3   7   6    9.98    3.17
   7  -2  -9    0.84    1.54
   7  -2  -9   -1.84    3.75
   7  -2  -9    4.51    2.68
   7   1  -7    9.10    3.00
   7   1  -7    1.82    2.65
   6   4  -8   11.37    3.44
   6   4  -8   11.22    5.71
   4   6   5    2.43    3.19
   4   6   5    0.91    2.27
   4   6   5    3.84    2.05
  -3  11  -5   14.05    4.54
   3 -11   5   12.52    3.87
   3 -11   5   19.50    5.41
   3   9  -7    5.10    3.33
  -3  -9   7    4.98    2.78
   3   9  -7    5.89    2.48
   3   9  -7    0.93    1.85
  -1   8 -12  284.48   45.32
   1  -8  12  281.38   19.49
   1  -8  12  248.16   46.31
   5  -4 -13  128.51   22.93
   5  -4 -13  114.89   25.95
  -2  -4  15   -1.45    3.89
   2   4 -15    4.19    1.98
  -2  -4  15    1.54    2.02
   2   4 -15    5.79    2.24
   4  -4  11   12.94    3.87
   4  -4  11   15.30   12.17
   3   8 -10   43.13   10.84
   3   8 -10   58.60   11.11
   3   8 -10   24.47    6.89
   0  -6  14  155.22   29.65
   0  -6  14  120.21   25.22
   0   6 -14  178.91   27.14
   6  -8  -7   90.15   14.35
   6  -8  -7   86.12   16.31
   3   8   4   57.56    9.83
   3   8   4   56.62    8.23
   3   8   4   45.72    9.38
   3   8   4   34.55    9.87
   6   0 -12    2.77    2.86
   6   0 -12   -0.23    2.50
   6   0 -12    2.29    1.94
   5   4   5   89.99   18.48
   5   4   5   65.44   22.10
   5   4   5   84.89   17.30
   0   9 -11    5.62    2.61
   0  -9  11   19.75    8.41
   0  -9  11    6.14    2.80
   1  11  -2  123.73   19.63
   1  11  -2  112.99   25.16
  -1 -11   2  113.76   23.93
   1  11  -2  104.46   17.72
   4   7   3  134.43   28.08
   4   7   3  152.75   28.20
   1  11  -3   30.62    7.23
   1  11  -3   10.29    3.63
  -1 -11   3   26.68    8.04
   1  11  -3   26.35    6.05
   5   6   1    6.48    2.86
   5   6   1    7.64    1.91
   7  -3  -9  115.60    9.01
   7  -3  -9  125.79   21.82
  -1  11   4   47.38   10.90
  -1  11   4   40.40    9.17
   3   3 -15    3.17    1.41
   3   3 -15    4.70    2.28
  -3  -3  15    4.36    2.46
   3   3 -15    3.04    3.00
  -3  -3  15    4.75    2.52
  -4  11   3  119.63   15.27
  -4  11   3  115.04   17.76
   4 -11  -3  122.25   24.82
   7  -1  -9  334.36   20.69
   7  -1  -9  320.52   13.39
   7  -1  -9  305.92   12.13
   6  -9  -4    5.33    3.01
   6  -9  -4    1.09    1.86
   6  -9  -4    4.52    2.55
   6   2 -11    7.01    2.33
   6   2 -11    2.07    2.26
   6   2 -11    2.47    2.43
   6  -6 -10   51.20   10.04
   6  -6 -10   46.94   12.56
   7  -5   2    2.43    2.23
   7  -5   2   -1.54    3.95
   7  -5   2    2.08    2.09
   3   6 -13    3.66    2.11
   3   6 -13    7.42    3.04
   3   6 -13    2.72    2.35
   0   1  15    4.38    2.81
   0   1  15    6.04    4.22
   0   1  15    2.75    1.86
   7  -6   1   68.61   13.13
   7  -6   1   43.24   12.12
   7   0   1   19.20    6.16
   7   0   1    4.53    1.58
  -3   7  12    2.53    3.50
  -3   7  12    1.46    2.21
   6   3 -10    4.51    2.73
   6   3 -10    8.67    3.07
   1  10   4    4.44    2.76
   1  10   4    2.75    3.60
   1  10   4    0.96    3.53
   7  -7  -3  129.59   10.55
   7  -7  -3  132.56   12.40
   7  -7  -3  123.50   24.70
   7  -7  -2   53.29   11.96
   7  -7  -2   62.61   16.42
   7  -7  -2   70.56   16.22
   0   4 -15    0.42    2.49
   0  -4  15    4.95    4.03
   0  -4  15    3.17    2.87
  -2   7  12   14.62    4.87
  -2   7  12    9.33    3.83
  -2   7  12   12.26    3.08
  -1   7 -13   -0.89    3.76
   1  -7  13    2.33    4.55
   1  -7  13   -1.02    3.11
   5   1   8    1.49    1.91
   5   1   8   17.56    9.78
   6  -3 -12   92.55   22.52
   6  -3 -12   98.23   16.67
  -1 -11   1   17.93    6.29
   1  11  -1   10.51    3.94
   1  11  -1   12.73    4.87
  -4  10  -6  163.70   31.23
   4 -10   6  176.39   35.71
   4 -10   6  164.40   35.41
  -3   6  13    1.74    1.78
  -3   6  13    7.61    4.25
  -3   6  13    4.91    2.62
   3   9   1   39.88   10.21
   3   9   1   30.71    6.90
   3   9   1   27.91    7.31
  -2   6  13   22.00    7.54
  -2   6  13   39.22    9.70
  -2   6  13   35.44    8.64
   2  10   1    3.31    3.90
   2  10   1    1.72    1.34
   5 -10   3   32.86    8.68
   5 -10   3   54.79   14.05
  -5  10  -3   24.42    4.86
   5 -10   3   41.91   10.26
   5 -10   3   19.48    7.66
   4  -1  11    2.30    2.52
   4  -1  11    5.22    2.83
   4  -1  11   -0.14    1.98
   4  -1  11    3.64    2.10
   6  -9   1    8.24    3.39
   6  -9   1   19.79    4.25
   6  -9   1   17.14    5.44
   7  -1   2    1.02    2.06
   7  -1   2    2.55    2.48
   1  11  -4   13.85    3.95
   1  11  -4   10.47    4.14
   1  11  -4   16.47    4.92
  -1 -11   4    8.49    2.49
   4  -4 -14    8.61    3.02
  -4   4  14    1.92    1.21
  -4   4  14    8.05    3.15
  -4   4  14    4.61    3.03
   4  -4 -14    5.22    3.04
   0   6  12    6.46    3.36
   0   6  12    6.48    3.57
   0   6  12    1.96    1.70
   0   6  12    5.64    2.60
   3   4  10  152.48   33.85
   3   4  10  222.08   42.04
   3   4  10  211.92   33.95
   1   6  11    3.55    2.91
   1   6  11    3.72    3.15
   1   6  11    1.53    1.30
   1   6  11    1.41    1.37
   3   5   9   56.02   16.82
   3   5   9   48.91    9.27
   3   5   9   66.04   14.66
   4   0 -15  192.29   30.76
  -4   0  15  292.43   43.49
   6   2   4    5.03    3.23
   6   2   4    9.21    4.23
   0   9   8   15.15    5.23
   0   9   8    3.03    1.57
   0   9   8   10.94    3.93
   0   9   8    4.02    3.37
   6   1   5    6.87    3.95
   6   1   5    5.59    4.28
   6  -5 -11   47.04   17.72
   6  -5 -11   71.43   16.54
   6  -5 -11   82.96   19.42
  -2   3  15    4.04    3.40
  -2   3  15   -0.42    3.76
  -2   3  15    0.80    1.70
  -1  11  -7    4.29    2.47
   1 -11   7    7.36    2.86
   1 -11   7    8.83    3.05
   3   1  12    4.41    2.39
   3   1  12    4.36    2.01
   1  -9  11   24.36    6.48
  -1   9 -11   37.50    9.62
   1  -9  11   41.89   10.63
   4   8  -7  565.42   53.24
  -4  -8   7  658.78   18.59
   4   8  -7  687.52   45.45
   4   8  -7  598.81   45.59
   7  -7  -4    1.66    2.40
   7  -7  -4    2.67    2.02
   7  -7  -4    4.11    2.47
   5 -10  -5    1.32    2.38
  -5  10   5    1.21    0.99
   5 -10  -5    1.49    1.69
  -5  10   5   -1.01    2.58
  -4  11  -3    2.87    2.28
   4 -11   3    4.95    2.79
   5  -1 -14   -0.91    2.99
  -5   1  14    4.05    2.11
   5  -1 -14    1.42    1.78
   5  -1 -14    1.95    1.85
   7  -5  -8    8.10    4.20
   7  -5  -8    7.54    2.84
   7  -5  -8    4.85    4.07
  -1  10   7   88.57   18.51
  -1  10   7   92.92   19.46
   4  -8   9    6.23    2.92
   4  -8   9   11.12    3.91
   4  -8   9   18.63    8.80
   4  -8   9   18.01    6.30
  -4   8  -9    3.48    1.97
  -2   6 -13   23.31    4.71
   2  -6  13    8.84    3.92
   2  -6  13    9.57    4.98
   7  -7  -1   76.29   18.49
   7  -7  -1   82.20   13.99
   7  -7  -1   72.88   17.52
   1   5  12   36.13    8.03
   1   5  12   24.01    7.84
   1   5  12   17.63    5.27
   1   5  12   19.45    5.86
   6  -7   5   -1.92    3.93
   6  -7   5    0.87    2.87
   6  -7   5   -1.78    3.27
  -3  -5  14    7.22    3.79
   3   5 -14    1.95    1.58
   3   5 -14    6.12    2.48
   3   5 -14    4.63    2.41
   5  -1   9   24.82    6.20
   5  -1   9   16.42    5.27
   5  -1   9    2.42    2.57
   6  -7  -9   37.65   13.76
   6  -7  -9   44.90   12.41
   7   2  -4   42.25   10.50
   4   7 -10    2.81    2.33
   4   7 -10   -0.47    2.79
   4   7 -10    0.79    1.45
   4   8   0   -1.28    3.80
   4   8   0    1.00    2.43
   4   8   0    8.94    2.77
   4   8   0    4.50    3.92
   4  -1 -15   63.21   21.21
  -4   1  15   75.17   15.43
   4   4   8  137.36   23.36
   4   4   8  143.26   35.41
   4   4   8  143.17   26.97
   5   0 -14   19.72    4.96
  -5   0  14   26.23    5.88
   5   0 -14   21.06    4.45
   5   0 -14   25.34    8.93
  -4   9   9    4.26    2.48
  -4   9   9    0.67    2.54
   5  -5   9   64.96   17.02
   5  -5   9   95.94   18.89
   5  -5   9   84.03   17.89
   5   4 -12   10.31    3.72
   5   4 -12   11.51    5.02
  -2  11   5    5.38    4.68
  -2  11   5    7.02    3.35
   0   7  11   38.54   12.67
   0   7  11   47.95   16.01
   0   7  11   58.95   15.89
   0   7  11   56.68   18.66
   1   2  14    2.77    2.34
   1   2  14    6.45    2.99
   1   2  14    3.18    2.77
   7   2  -5    1.16    1.76
  -1   9   9   14.09    4.11
  -1   9   9    8.89    2.76
   0  10   6   83.29   10.45
   0  10   6   77.52   17.15
   0  10   6   76.13   15.41
   2  -2  14    4.62    2.96
   2  -2  14    0.21    2.52
  -2   2 -14    5.71    2.16
   7   1   0    5.76    3.31
  -4  10   7   20.04    4.36
  -4  10   7   19.96    5.50
   4 -10  -7    3.48    3.70
   3   7 -12   -2.36    3.10
   3   7 -12    3.27    2.45
   3   7 -12    2.04    2.00
   7   2  -3    1.94    1.60
   2   7 -13    5.01    1.96
   2   7 -13    5.44    3.41
  -2  -7  13    2.35    4.03
   4   3   9   17.37    7.72
   4   3   9   24.95    6.93
   4   3   9   16.13    5.26
   5  -8   7   48.69   12.68
   5  -8   7   52.20   10.54
   5  -8   7   48.72   12.35
   2  10  -7    3.90    1.56
   2  10  -7    3.49    3.00
  -2 -10   7    1.65    1.53
  -2 -10   7    6.65    2.71
   2 -10   9   65.68   20.27
  -2  10  -9   72.78   15.27
   2 -10   9   90.65   17.41
   3  -6  12    8.42    4.36
  -3   6 -12    6.36    7.29
   3  -6  12    8.26    3.31
   3  -6  12    3.70    2.18
   4   1 -15   28.90    8.83
   4   1 -15    9.63    4.69
  -4  -1  15   39.73    7.87
  -3   8  11    8.01    3.30
  -3   8  11   14.68    4.42
  -3   3  15    1.85    2.91
  -3   3  15    2.36    1.81
   3  -3 -15    4.56    2.47
  -3   3  15    3.48    4.31
   0   5  13   46.86   11.29
   0   5  13   30.36   11.78
   0   5  13   53.72   13.86
   0   5  13   42.46    8.57
   3 -11  -5    3.10    2.02
  -3  11   5    5.57    3.60
  -3  11   5    9.30    2.91
   0 -11  -3    2.87    2.99
   0  11   3    3.52    2.44
   0  11   3    3.47    2.62
   6   5  -4    2.26    3.50
   6   5  -4    0.83    3.17
   6   5  -4    3.46    2.32
   7  -4  -9   16.87    4.88
   7  -4  -9   11.11    5.06
   5   6  -9   19.19    3.94
   5   6  -9    7.91    4.38
   5   6  -9    7.93    2.52
   2   9 -10   41.63    9.62
   2   9 -10   96.72   22.29
  -2  -9  10   65.27   11.11
  -2  -9  10   80.12   22.33
   2   9 -10   54.05   11.81
   7  -6  -7  146.87   36.20
   7  -6  -7  124.13   15.66
   7  -6  -7  103.10   24.74
   2  -3  14    7.83    3.02
   2  -3  14   11.13    5.03
  -2   3 -14   11.05    3.87
   2  -3  14    4.23    2.74
   7  -3   3  119.87   15.93
   7  -3   3  131.15   29.53
   7  -3   3  139.62   32.27
   7   1  -8  120.95   30.63
   7   1  -8  173.78   23.82
   4  -5  11  170.43   29.95
   4  -5  11  159.35   34.93
  -2  -6  14   52.02   12.76
   2   6 -14   46.66    9.18
   1  11   0    4.09    2.16
   1  11   0    3.52    2.28
  -1 -11   0    2.26    2.94
   3 -10   8   46.21   12.69
   3 -10   8   62.24   16.57
  -3  10  -8   48.34   16.02
  -2   8  11    7.37    4.09
  -2   8  11    4.36    1.95
   5  -7   8   -1.05    3.89
   5  -7   8    0.50    4.36
   7   0  -9   19.33    5.42
   7   0  -9   20.32    4.82
   7   0  -9   17.53    3.76
  -5   2  14   78.96   19.91
   5  -2 -14   74.27   25.62
   5  -2 -14   76.60   21.11
   1   9 -11    5.70    2.94
   1   9 -11    2.26    2.61
  -1  -9  11   -0.42    3.57
  -1  -9  11    2.85    3.37
   6  -6   6  244.61   29.97
   6  -6   6  225.32   42.02
   6  -6   6  250.18   39.19
   6   4   1   14.43    4.52
   6   4   1   17.58    4.90
   2   2  13    5.27    4.09
   2   2  13   -0.27    3.03
   2   2  13    3.29    2.48
   1  11  -5   10.65    2.91
   1  11  -5    5.73    2.73
  -1 -11   5   22.43    8.15
  -1 -11   5    6.76    2.92
   4  -7  10    2.50    2.99
   4  -7  10    2.18    2.69
  -4   7 -10    0.92    1.88
   4  -7  10    4.95    2.90
   4  -7  10   -1.02    4.13
   6  -9  -5    2.00    1.78
   6  -9  -5    2.91    2.18
   4  -9   8    8.25    3.05
   4  -9   8    7.42    3.74
  -4   9  -8    7.16    3.12
   4  -9   8    7.80    3.58
   6   5  -5   86.83   17.40
   6   5  -5  110.54   23.29
   6   5  -5   93.73   11.70
   6   1 -12   34.69    7.80
   6   1 -12   32.73    8.83
   6   1 -12   24.71    7.49
   1   7  10    2.15    1.52
   1   7  10   -1.48    3.08
   1   7  10    0.66    1.81
   1   7  10    1.81    1.73
   6   5  -3    8.36    2.50
   6   5  -3    1.97    3.61
   4   5 -13   16.14    4.65
   4   5 -13   15.37    7.09
  -1 -10   9   30.36   12.32
  -1 -10   9   35.02    7.18
   1  10  -9   22.18    5.61
   1  10  -9   28.00    4.91
   1  10  -9   18.02    4.48
   7  -4   3    6.09    2.82
   7  -4   3    2.76    2.09
   7  -4   3   -1.58    4.01
   6  -8   4   35.01   11.32
   6  -8   4   41.01    8.14
   6  -8   4   56.39   14.01
   5   3 -13  148.17   31.35
   5   3 -13  184.21   23.38
   4 -11  -4   20.43    9.41
  -4  11   4   20.57    5.39
  -4  11   4   29.38    6.06
   7  -7  -5   29.63    6.98
   7  -7  -5   25.05    7.04
   7  -7  -5   22.07    6.21
   2  -1  14    1.90    2.51
   2  -1  14   -0.24    2.70
   2  -1  14    1.02    2.50
   0 -11   7   10.38    4.99
   0  11  -7    8.34    2.69
   0  11  -7   15.42    4.86
   0 -11   7   11.92    4.29
   5   7  -4    2.06    2.60
   5   7  -4    2.78    2.17
   5   7  -4    0.96    2.88
   5   7  -4    1.47    1.55
   7   2  -6    7.41    4.52
  -5   9   8   47.67    8.50
   5  -9  -8   40.21   10.11
   5  -9  -8   43.35   13.08
  -5   9   8   31.20   11.47
   3   3  11  327.84   26.11
   3   3  11  313.92   38.57
   3   3  11  317.14   27.19
   6   3   3    1.25    2.24
   6   3   3    2.18    3.19
   7  -7   0    4.99    2.09
   7  -7   0   32.20    9.01
   7  -7   0   36.20    9.52
   7  -7   0   34.95    8.22
  -2   5  14    4.68    4.48
  -2   5  14    4.11    3.27
  -2   5  14   10.48    3.58
   3   6   8   18.39    4.64
   3   6   8    4.08    2.29
   3   6   8   21.54    5.56
   4   5   7  369.46   33.87
   4   5   7  346.54   33.71
   4   5   7  403.88   30.95
   5   5 -11   40.81   13.72
   5   5 -11   74.17   16.65
   5  -7 -11    4.11    3.78
   5  -7 -11    3.23    1.61
   5  -6 -12   82.21   26.10
   5  -6 -12  111.02   22.85
   6   0   6   34.65   14.74
   6   0   6  115.40   25.88
  -2  12  -1   13.65    5.45
   2 -12   1    3.22    2.22
  -2  12  -1    5.96    3.21
   2 -11   7  134.09   31.96
   2 -11   7  168.41   29.37
  -2  11  -7  135.88   26.43
  -3  -9   8    3.66    3.22
   3   9  -8    6.40    4.63
   3   9  -8    6.72    3.14
   3   9  -8    5.34    3.08
  -3   5  14   19.95    9.20
  -3   5  14   26.48    9.36
  -3   5  14   27.44    9.30
   6   4  -9   23.43    5.24
   5   7  -3    7.84    3.29
   5   7  -3    9.91    3.96
   5   7  -3    8.70    2.64
   5   7  -3    1.60    2.40
   7   2  -2    1.65    1.49
   2   1 -16    4.43    3.37
  -2  -1  16   12.98    4.55
  -2  -1  16   20.56    4.88
  -2  -1  16   11.76    4.86
   5   1 -14   89.85   18.40
  -5  -1  14   89.34   17.59
   5   1 -14   84.85   21.39
   1  -2  15  278.50   62.01
   1  -2  15  261.26   27.14
  -1   2 -15  304.78   48.14
  -1  -5  15   41.47    7.64
   1   5 -15   51.20   10.14
  -1  -5  15   35.90    9.09
   7  -2   3   50.09   17.86
   7  -2   3   43.57   16.17
  -4   2  15   82.23   21.86
  -4   2  15  191.71   27.51
   4  -2 -15  107.76   21.85
  -4   2  15   86.41   21.17
   4  -2 -15  101.75   23.76
   5   7  -5    3.46    2.84
   5   7  -5    6.42    2.69
   5   7  -5    7.08    2.62
   6  -9   2    4.00    2.68
   6  -9   2    4.22    2.67
   6  -9   2    4.20    2.97
   2 -12   2  256.27   36.70
  -2  12  -2  337.75   36.72
  -2  12  -2  269.80   31.29
   2   8   7    0.87    2.00
   2   8   7    1.15    1.65
   2   8   7    1.70    2.25
   2 -12   0    5.66    3.29
  -2  12   0   -1.51    3.57
  -2  12   0    5.26    3.67
  -2   0  16   25.46    8.50
  -2   0  16   34.74    9.10
   2   0 -16   20.23    3.74
  -2   0  16   27.39    8.41
   1   4  13   18.17    4.17
   1   4  13   26.91    7.31
   1   4  13    9.55    3.94
   5   5   4  107.55   26.33
   5   5   4  137.51   22.14
   4   6 -12    6.52    2.93
   4   6 -12    4.65    2.49
   4   6 -12    4.73    3.41
   6   5  -6    1.62    2.66
   6   5  -6    3.36    2.34
   6   5  -6    3.81    3.43
   6  -3   7   48.56   14.17
   6  -3   7   48.31   13.67
   6  -3   7   44.38   16.22
   7  -6   2    6.23    3.67
   7  -6   2    7.49    3.29
   7  -6   2    1.88    2.39
   3 -11   6   98.30   23.21
   3 -11   6   96.36   21.59
  -3  11  -6  112.19   19.86
   1  -1  15   11.22    4.54
   1  -1  15    7.37    4.00
  -1   3  15    2.49    1.95
  -1   3  15    0.93    3.63
  -1   3  15    9.03    2.72
   6  -4 -12   56.18   14.31
   6  -4 -12   26.30   14.49
   6  -4 -12   66.81   15.18
  -4   7  12    3.32    2.36
  -4   7  12    3.88    2.24
   3  -3  13    2.88    2.71
   3  -3  13    8.38    4.36
   3  -3  13    6.12    3.39
  -3   3 -13    4.94    2.45
   2   8 -12    1.77    1.70
   2   8 -12    0.25    3.08
  -2  -8  12    6.63    2.59
   2   8 -12    3.22    2.52
   6   5  -2   18.40    8.16
   6   5  -2   10.13    2.51
   6   5  -2    7.72    3.48
   3  -2  13    3.44    1.34
   3  -2  13   -0.16    2.83
   3  -2  13    3.21    2.57
   3  -2  13    1.66    2.03
   2   9   5   11.38    2.76
   2   9   5    3.33    2.28
   2   9   5    5.47    2.97
   1   1 -16    6.05    2.05
  -1  -1  16   18.90    4.24
   1   1 -16    6.46    4.00
  -1  -1  16   20.21    6.22
   1   9   7   12.63    4.43
   1   9   7   24.46    5.12
   1   9   7   23.25    7.21
   1   9   7   16.75    9.31
   1   9   7   24.49    6.57
   4   0  11   38.15    9.12
   4   0  11    5.22    2.33
   4   0  11   25.93    6.73
   4   0  11    5.83    2.52
   5  -9   6   12.10    4.65
   5  -9   6   11.97    3.63
   5  -9   6   19.00    5.68
  -2   4 -14   -2.80    4.16
   2  -4  14    3.62    2.67
   2  -4  14    4.81    1.98
  -3  10   8   17.99    5.29
  -3  10   8   27.47    7.93
   6  -4   7    1.04    2.18
   6  -4   7   -3.53    3.99
   6  -4   7   -0.38    3.26
   2   5  11    3.99    2.18
   2   5  11    6.17    2.76
   2   5  11    2.38    1.81
   2   5  11    3.86    1.80
   2   5  11    8.22    4.64
   1  -3  15    3.89    3.71
   1  -3  15    4.25    4.02
  -1   3 -15    2.95    2.35
  -1   6 -14    1.42    1.74
   1  -6  14   -0.35    2.45
   1  -6  14    2.53    3.16
   4   4 -14   49.22   11.00
   4   4 -14   49.55   10.73
  -4  11  -4   14.92    3.92
   4 -11   4    8.68    3.04
   4 -11   4    9.63    4.83
   5   6   2   44.89   11.21
   5   6   2   31.62   10.09
   1 -12   2   41.35    8.60
  -1  12  -2   42.26    8.77
  -1  12  -2   54.14   10.04
   2  10   2    3.39    2.55
   2  10   2    4.15    2.72
  -2  -2  16    3.51    1.90
   2   2 -16    5.59    2.87
   2   2 -16    1.46    2.37
  -2  -2  16   15.60    3.94
   5   7  -2   31.87    8.31
   5   7  -2   13.19    3.15
   5   7  -2   12.01    3.33
   5   7  -2    8.81    3.85
   4   2  10    0.65    1.65
   4   2  10    0.11    1.17
   4   2  10    3.22    2.70
   1 -12   1  114.45   30.95
  -1  12  -1  158.20   24.77
  -1  12  -1  119.04   23.73
   7  -2 -10   34.92    8.26
   7  -2 -10   30.34   10.48
   7  -2 -10   30.67    7.67
  -2  10   8   47.27   12.12
  -2  10   8   47.29   10.81
   5 -10   4    2.33    4.31
   5 -10   4    3.75    4.28
   5 -10   4    2.43    1.43
   5 -10   4    4.04    2.33
   5 -10   4    4.05    2.45
   4   8  -8  137.87   23.35
   4   8  -8  177.26   32.01
  -4  -8   8  121.93   33.81
   4   8  -8  139.05   33.84
  -1   7  12   88.88   23.74
  -1   7  12   68.77   22.24
  -1   7  12   88.56   25.27
  -4  -2  15   22.22    4.92
   4   2 -15   14.43    3.47
   4   2 -15   19.60    7.93
  -4   6  13   50.98   26.78
   4  -6 -13   53.15   14.54
  -4   6  13   86.36   26.13
   0   8  10    4.26    4.00
   0   8  10    5.59    2.50
   0   8  10    2.60    2.19
  -1   6  13    5.56    3.36
  -1   6  13    2.84    2.81
  -1   6  13    1.24    2.17
   6  -8  -8   83.51   21.54
   6  -8  -8   96.36   19.79
   1   2 -16    1.81    1.34
  -1  -2  16    6.16    2.84
  -1  -2  16    1.48    2.64
   1   2 -16   -0.12    4.06
   3   9   2    4.60    2.58
   3   9   2    5.48    2.83
   3   9   2   -2.54    3.98
   7   0   2    0.60    2.50
   7   0   2    5.30    2.91
   0   2  15   87.63   21.21
   0   2  15   84.05   18.21
   0   2  15   97.28   21.93
   7  -5   3    0.83    1.68
   7  -5   3    2.96    3.17
   7  -5   3    4.27    3.66
   5   7  -6   18.04    6.85
   5   7  -6   21.90    4.77
   5   7  -6   12.71    3.99
   2   6  10    8.84    2.90
   2   6  10    7.46    3.67
   2   6  10   11.65    5.28
   2   6  10    6.33    2.63
   2   6  10    4.60    2.18
   6  -2   7  246.27   20.85
   6  -2   7  223.09   19.08
   6  -2   7  223.41   39.67
  -2  12  -3   36.61    7.44
   2 -12   3   15.46    4.11
  -2  12  -3   31.24    6.07
   4   8   1   -0.03    4.68
   4   8   1    6.60    2.63
   4   8   1    3.58    3.79
   1  11   1   24.36    6.01
   1  11   1    7.65    3.83
   1  11   1   10.73    4.19
  -2  12   1   39.21    8.70
  -2  12   1   53.47   12.09
   2 -12  -1   32.50    6.48
   7   2  -7   26.05    6.32
  -3  -4  15    9.21    3.75
  -3  -4  15   -0.55    2.48
   3   4 -15    4.09    1.91
   3   4 -15    4.16    2.01
  -1  11   5    1.67    2.19
  -1  11   5    4.20    3.00
   5   0   9    2.79    3.30
   5   0   9   -0.50    2.33
   5   0   9    8.45    3.48
   5 -10  -6   10.26    3.34
  -5  10   6    2.91    1.82
  -5  10   6    3.47    1.41
   5 -10  -6    4.74    2.15
  -1   0  16   42.55   12.33
  -1   0  16   43.84   10.98
  -1   0  16   63.06   13.28
   7  -1 -10  345.90   32.23
   7  -1 -10  325.87   25.31
   7  -1 -10  334.88   35.85
  -5   8  10    8.31    3.64
   5  -8 -10   19.66    4.42
   5  -8 -10   20.53    4.90
  -5   8  10    8.87    2.95
   0  -5  15   -1.61    4.77
   0  -5  15    1.98    2.21
   0   5 -15    1.93    2.63
   1  11  -6   42.74    8.80
   1  11  -6   38.98    9.11
  -1 -11   6   58.36   15.57
  -1 -11   6   45.13    9.85
   5  -3 -14   -0.38    2.45
   5  -3 -14    1.04    2.26
   5  -3 -14    2.00    2.76
   1 -12   3   17.55    4.84
  -1  12  -3   21.29    5.70
  -1  12  -3   22.94    6.98
   5  -5 -13   14.87    5.76
   5  -5 -13   13.98    5.58
   0  10 -10    2.32    1.37
   0 -10  10    7.69    4.05
   0  10 -10    6.99    3.77
   0 -10  10   13.28    4.64
   7  -3 -10    8.24    2.98
   7  -3 -10    1.37    1.54
   1 -12   0   50.79    9.23
  -1  12   0   62.12   12.80
  -1  12   0   46.13   11.07
   7  -7  -6  206.84   36.31
   7  -7  -6  180.84   31.86
   7  -7  -6  147.03   22.97
   0   4  14   39.56   15.22
   0   4  14   28.91   10.20
   0   4  14   24.06   12.80
   1 -10  10    5.13    3.50
   1 -10  10    9.26    5.57
  -1  10 -10   10.51    3.90
   2   0  14  118.52   34.23
   2   0  14  138.85   31.77
   2   0  14  127.93   27.61
   7   2  -1    3.42    2.14
   7   2  -1    0.30    1.47
   5  -6   9   50.14   12.22
   5  -6   9   48.36   10.13
   5  -6   9   68.98   15.75
  -2   1  16    2.16    2.96
  -2   1  16    3.73    2.63
  -2   1  16   -0.03    2.99
   2   5 -15   42.26   11.01
  -2  -5  15   50.98   10.73
  -2  -5  15   47.40   11.73
  -4   8  11   28.77    8.10
  -4   8  11   27.04    5.79
  -3   4 -13   29.26    7.52
   3  -4  13   47.75   10.03
   3  -4  13   22.69    9.91
   3  -4  13   18.08    4.94
   7  -7   1   80.14   19.16
   7  -7   1  157.80   14.36
   7  -7   1  150.24   21.83
   7   1   1   10.25    4.57
   3  -1  13   10.19    4.32
   3  -1  13    3.46    2.11
   3  -1  13    4.68    2.54
   3  -1  13    5.28    2.77
   3  -1  13    2.92    2.72
  -3  12   0    5.91    2.48
   3 -12   0    0.75    1.54
  -3  12   0    5.52    2.58
  -3  12  -1   60.31   12.92
   3 -12   1   41.58   11.11
  -3  12  -1   96.33   15.11
   4   7   4   75.87   16.79
   4   7   4   66.49   14.97
  -3   9  10   23.20    7.50
  -3   9  10   35.41    9.52
   2  -8  12    1.48    2.22
   2  -8  12    8.17    3.95
   2  -8  12    8.48    3.04
  -2   8 -12    7.42    3.54
   6   5  -7    9.14    4.95
   6   5  -7    4.14    2.21
   6  -9  -6    3.07    3.08
   6  -9  -6    2.49    3.41
   2   4  12    2.85    3.37
   2   4  12    3.96    2.49
   2   4  12    5.38    3.04
   2   4  12    5.71    3.61
  -2 -10   8    1.72    2.28
   2  10  -8    7.61    3.03
  -2 -10   8    2.76    3.34
   2  10  -8    2.62    1.43
   2  10  -8    2.03    2.45
   3  -8  11   11.05    4.34
  -3   8 -11   10.73    3.98
   3  -8  11   29.17    6.91
   3  -8  11   37.51   11.73
   7  -1   3    2.84    1.40
   7  -1   3    3.75    2.71
   7  -5  -9   16.07    3.53
   7  -5  -9    2.35    2.43
   7  -5  -9    5.91    2.97
  -3   0  16    6.90    3.67
   3   0 -16    4.64    2.45
  -3   0  16    1.43    2.00
  -3   0  16   -1.44    4.10
   1   0  15    6.61    2.77
   1   0  15    6.43    4.82
   1   0  15    2.33    2.73
   6   3 -11   10.42    3.32
   6   3 -11    4.60    1.53
   6   3 -11    7.67    2.78
   1  10   5   -0.70    3.57
   1  10   5   -0.10    3.12
   1  10   5    2.15    4.38
   3   8 -11    5.12    2.66
   3   8 -11    4.66    3.93
   3   8 -11    4.71    2.54
   3   8   5   11.14    3.42
   3   8   5   16.82    5.25
   3   8   5   24.62    4.48
   7   1  -9  110.26   10.34
   7   1  -9  117.06   13.44
   7   1  -9  110.61   22.95
   6   5  -1   26.71    9.48
   6   5  -1   21.96    5.63
   1 -11   8   -3.63    3.48
  -1  11  -8    1.21    1.57
   1 -11   8    2.91    2.09
   5   3   7    4.00    3.86
   5   3   7   -0.40    1.60
   5   3   7    2.51    3.09
   6  -5   7    3.49    2.50
   6  -5   7    2.36    1.72
   6  -5   7    5.86    2.68
  -3  -1  16  216.93   32.38
   3   1 -16  154.21   24.80
  -3  -1  16  149.63   31.79
  -3  -1  16  116.93   41.31
  -2   9  10   39.88    9.05
  -2   9  10   50.10   13.17
   2  -9  11  134.45   24.04
   2  -9  11  110.38   26.44
   2  -9  11  135.63   24.21
  -2   9 -11  135.86   29.94
   7  -6  -8   98.55   15.14
   7  -6  -8   88.02   17.95
   7  -6  -8   58.70   16.18
  -3   9 -10    3.55    2.44
   3  -9  10    1.16    2.25
   3  -9  10    5.58    2.34
   3  -9  10    2.02    2.81
   1   8   9   10.09    3.54
   1   8   9    5.64    2.54
   1   8   9   11.65    4.73
   1   8   9   14.98    5.19
   1   8   9    7.35    2.44
   5   7  -1    9.28    2.64
   5   7  -1    9.27    5.60
   5   7  -1   27.47    9.20
  -4  11   5   16.70    5.44
   4 -11  -5    7.95    3.79
  -4  11   5   19.27    6.67
   4  -6  11   14.79    5.14
  -4   6 -11    4.28    2.06
   4  -6  11    2.09    1.28
   4  -6  11   14.90    6.42
  -3  12   1   -2.72    3.16
  -3  12   1   -0.26    2.51
   4 -10   7    6.43    5.35
   4 -10   7    2.52    3.89
   4 -10   7    2.08    2.95
  -4  10  -7    4.81    3.42
  -1   8  11   56.52   18.12
  -1   8  11   23.05    9.18
  -1   8  11   67.82   14.35
   3 -12   2   50.95   13.92
  -3  12  -2   81.84   13.75
  -3  12  -2   81.73   14.96
   0  -8  13  254.72   39.35
   0   8 -13  300.75   32.61
   0  -8  13  299.83   54.28
  -6   1  13    2.88    1.87
   6  -1 -13    9.63    3.36
   6  -1 -13    5.02    2.14
   6  -1 -13    9.05    2.96
  -1  -3  16  197.14   41.59
   1   3 -16  199.70   36.35
  -1  -3  16  202.82   26.80
   1   3 -16  144.09   30.24
   4   6   6  156.55   28.67
   4   6   6  178.14   32.21
   4   6   6  162.99   33.06
   5   2 -14   27.39    6.98
   5   2 -14   32.27    8.70
  -1   5  14   62.47   17.97
  -1   5  14   65.08   16.33
  -1   5  14   66.91   19.19
  -1   4 -15    1.97    2.05
   1  -4  15    5.14    3.02
   1  -4  15    4.59    2.65
   0  11   4  134.69   24.82
   0  11   4  118.77   20.25
   0 -11  -4   76.71   26.37
  -1  12  -4   41.74   10.10
   1 -12   4   22.33    6.58
  -1  12  -4   17.11    6.72
  -1  12  -4   26.14    8.40
   6   2 -12   11.88    3.50
   6   2 -12    2.10    1.86
   6   2 -12    4.80    2.69
  -4   3  15   20.31    7.24
  -4   3  15   27.58    8.37
   4  -3 -15   23.96   11.09
  -4   3  15   15.16    5.85
   4  -3 -15   25.11    8.35
  -2  12  -4  129.60   21.06
  -2  12  -4  165.95   29.03
   2 -12   4  127.48   32.84
   6  -9   3   79.08   16.09
   6  -9   3  117.52   28.68
   6  -9   3  123.80   27.46
   6  -9   3   60.32   16.75
   5   7  -7    0.42    2.91
   5   7  -7   -0.41    2.70
   5   7  -7    4.44    2.19
  -2  11   6    5.25    2.15
  -2  11   6    5.90    3.05
   2 -12  -2   13.94    4.67
  -2  12   2   61.71   11.43
  -3  11   6   20.93    8.04
  -3  11   6   18.10    5.89
   3 -11  -6    8.76    5.03
   6   4   2   13.15    5.81
   6   4   2   12.18    6.50
   3   2  12   95.83   17.51
   3   2  12  116.78   26.77
   3   2  12  141.32   32.31
   6  -2 -13   81.47   17.45
   6  -2 -13   82.68   19.68
   1 -12  -1   36.63   11.38
  -1  12   1   71.19   13.97
  -1  12   1   51.72   13.26
  -2  -3  16   54.60   14.75
   2   3 -16   47.59   13.25
  -2  -3  16   67.08   14.57
   2   3 -16   43.49   13.44
  -5  11   1    5.18    2.55
   5 -11  -1    4.86    2.27
   5 -11  -1   11.51    6.02
  -5  11   1    2.31    2.00
   5   6 -10    2.77    1.59
   5   6 -10    6.26    2.65
   3   7   7    6.65    2.82
   3   7   7    3.17    2.68
   3   7   7    5.96    4.35
  -4   5  14   21.28    6.30
   4  -5 -14    5.74    2.94
  -4   5  14   15.72    6.13
   5   2   8    2.99    1.77
   5   2   8    5.14    2.66
   5   2   8    9.43    3.05
   6  -6 -11   -1.37    3.61
   6  -6 -11    1.33    1.59
  -3   1  16    9.69    4.68
  -3   1  16   11.00    3.83
   3  -1 -16    7.44    4.75
  -3   1  16   25.34    5.87
   7   0 -10    5.35    1.57
   7   0 -10    5.88    2.69
   7   0 -10    2.18    2.14
   5 -11   0   19.80    7.66
   5 -11   0   16.43    6.18
  -5  11   0   10.19    3.94
  -5  11   0    8.77    2.78
   6  -1   7   48.01   16.38
   6  -1   7   40.11   16.36
  -2   4  15   21.97    4.88
  -2   4  15   22.73    6.95
  -2   4  15   11.16    7.24
   2   7   9   20.28    6.52
   2   7   9   39.17    8.87
   2   7   9   49.60   13.15
   2   7   9   18.91    6.38
   2   7   9   17.17    5.63
   5   4   6   64.96   16.26
   5   4   6   48.26   16.29
   5   4   6   61.27   18.94
   4   7 -11   17.95    6.34
   4   7 -11   36.22    9.76
   4   7 -11   36.27    9.40
  -1  -7  14    3.04    3.49
  -1  -7  14    3.91    3.17
   1   7 -14    2.15    2.17
   0  -7  14   55.09   13.43
   0   7 -14   54.13   13.74
  -1   1  16   29.84    8.23
  -1   1  16   11.53    3.83
  -1   1  16   16.95    6.07
   0 -11   8  113.61   21.20
   0 -11   8   93.96   19.47
   0  11  -8   84.12   15.20
   6  -7   6   23.72    9.08
   6  -7   6   45.26   11.11
   6  -7   6   32.13   10.62
   7  -8  -2  164.88   25.93
   7  -8  -2  143.38   25.02
   7  -8  -2  157.80   26.27
  -1  -8  13   44.59   12.47
   1   8 -13   53.10   12.13
  -1  -8  13   31.80   11.04
   3   9  -9   26.33    7.32
   3   9  -9   13.31    4.17
  -3  -9   9   25.72    8.61
  -3   4  15   14.37    8.21
   3  -4 -15   13.67    5.31
  -3   4  15   30.54   10.87
  -3   4  15   36.11   10.57
   7  -4 -10    2.13    2.78
   7  -4 -10    1.26    2.06
   6   0 -13   89.89   12.20
   6   0 -13   78.96   14.60
  -6   0  13   61.93   18.83
   6   0 -13   69.96   17.64
   2  -5  14    4.42    3.41
  -2   5 -14   -0.15    3.60
   2  -5  14    2.66    1.75
  -5  11   2    4.36    1.93
  -5  11   2    7.58    2.97
   5 -11  -2   15.11    4.78
   5 -11  -2   12.59    6.28
   6  -7 -10   77.96   17.54
   6  -7 -10   68.16   18.35
   7  -8  -3    4.12    2.54
   7  -8  -3    2.13    1.45
   7  -8  -3    0.83    1.06
   6   2   5    5.01    1.52
   6   2   5   15.46    4.95
   7   2  -8   42.40   10.86
  -4  10   8    4.25    2.58
   4 -10  -8    1.84    2.45
  -4  10   8    1.30    1.97
  -2   7 -13    3.29    2.21
   2  -7  13   -0.42    3.62
   2  -7  13    3.74    3.39
   6   4 -10    8.77    2.85
   6   4 -10   17.43    4.98
   7  -3   4    5.39    3.91
   7  -3   4   14.27    5.96
   7  -3   4   21.51    7.13
   3   2 -16   21.43    6.61
  -3  -2  16   30.02    7.65
  -3  -2  16   15.76    5.88
  -3  -2  16   16.29    4.99
   6  -8   5   66.55   16.51
   6  -8   5   65.96   17.21
   6  -8   5  100.06   22.51
   3  -7  12    1.95    2.59
   3  -7  12    3.42    2.91
   3  -7  12    2.07    2.29
  -3   7 -12    3.30    2.31
   1   3  14   52.85   15.47
   1   3  14   56.46   14.32
   1   3  14   30.28   14.38
   1  11   2    5.02    2.11
   1  11   2    2.50    3.29
   1  11   2    3.62    2.29
   7  -6   3    1.68    2.97
   7  -6   3    2.55    1.79
   7  -6   3    3.75    2.48
  -3  12   2   65.38   18.16
  -3  12   2   83.90   15.65
   0  -9  12  361.33   44.83
   0   9 -12  424.42   29.94
   0  -9  12  333.79   30.26
  -3  12  -3   28.83    7.52
   3 -12   3   25.29    6.77
  -3  12  -3    9.91    4.41
   5  -3  10   49.36   15.23
   5  -3  10   55.86   11.80
   7  -4   4   -1.81    4.13
   7  -4   4    1.26    2.09
   7  -4   4    0.02    1.58
   4 -11   5    2.36    1.86
   4 -11   5    2.48    1.91
  -4  11  -5    4.80    2.72
   7  -8  -1   58.00    9.95
   7  -8  -1   54.86   17.60
   7  -8  -1   68.58   15.74
   5 -11   1   15.71    4.51
   5 -11   1    4.27    4.18
  -5  11  -1    5.43    3.25
   5 -11   1   20.20    7.38
   7   2   0    2.00    1.88
   7   2   0   -0.39    3.60
   3  -5  13    5.81    3.03
   3  -5  13    2.23    2.03
  -3   5 -13   13.61    4.63
   3  -5  13    6.14    2.83
   1  11  -7    1.58    2.42
  -1 -11   7   -0.06    3.34
   1  11  -7    3.26    2.00
  -1 -11   7    2.28    1.73
   6   1   6    7.66    3.76
   6   1   6   17.75    6.56
  -1  10   8   49.69   13.76
  -1  10   8   37.21   11.42
   4   3 -15    8.87    3.40
   4   3 -15   11.20    3.89
  -4  -3  15   20.52    5.55
   3   0  13  135.54   25.91
   6   5  -8   82.54   19.25
   6   5  -8   97.67   15.93
   0   2 -16  265.00   36.00
   0  -2  16  192.37   39.61
   0  -2  16  261.49   34.45
   6 -10  -1    2.58    2.52
   6 -10  -1    1.92    2.68
   4   8  -9   12.00    3.99
   4   8  -9   27.67    6.84
   7  -8  -4    0.20    2.07
   7  -8  -4    2.68    2.47
   7  -8  -4   -0.59    3.10
   7  -7  -7   14.62    6.05
   7  -7  -7   12.48    4.41
   7  -7  -7   11.35    5.26
   6 -10  -2    5.18    3.10
   6 -10  -2    5.19    3.35
   0  10   7    0.77    1.82
   0  10   7    4.08    2.82
   0  10   7    6.86    3.97
  -2  11  -8   45.39   14.46
   2 -11   8   65.62   12.60
   2 -11   8   33.18    9.80
   0  -1  16    6.61    3.42
   0  -1  16   14.67    5.98
   0  -1  16    7.61    3.92
   6  -5 -12   78.30   16.49
   6  -5 -12   68.35   16.65
   6  -5 -12   49.61   19.86
  -2   2  16    8.98    3.87
  -2   2  16   13.54    5.06
  -2   2  16   15.32    9.02
   1  10 -10    3.67    2.97
   1  10 -10    3.54    1.46
  -1 -10  10    2.80    2.42
  -1 -10  10   -0.05    1.96
   2  10   3    1.95    1.59
   2  10   3    7.68    4.14
   2   9 -11   91.60   23.72
  -2  -9  11  101.60   20.88
   2   9 -11  114.73   23.84
   2   9 -11  100.17   19.65
  -2  -9  11  103.64   26.39
   7   3  -4   57.49   14.42
   7  -7   2   18.81    6.34
   7  -7   2   45.81   12.08
   5  -4  10    1.46    1.63
   5  -4  10   12.54    4.62
   6  -3 -13   35.15   10.81
   6  -3 -13   30.88    9.21
   4   1  11    3.16    1.84
   4   1  11   13.54    5.05
   4   1  11   12.88    4.88
   0  12  -2   59.16   12.31
   0 -12   2   58.94   12.51
   0  12  -2   57.02   10.91
  -4   9  10   30.27    7.90
  -4   9  10   29.83   10.46
  -3  11  -7    9.92    3.85
   3 -11   7    6.35    2.78
   3 -11   7    9.55    5.48
   5 -10   5   10.10    4.34
   5 -10   5    6.89    3.87
   5 -10   5   11.71    4.73
   4   8   2  261.64   37.72
   4   8   2  139.40   39.33
   4   8   2  266.44   31.15
   6   3   4    7.38    3.58
   6   3   4    3.55    1.82
   5  -2  10    5.00    2.66
   5  -2  10    2.57    1.41
   5  -2  10    9.29    5.35
   7   3  -5   26.52    8.99
   7   3  -5   44.15   12.55
   3  10  -3    1.48    1.69
   3  10  -3    2.55    2.21
   3  10  -3    3.92    3.69
  -5   9   9   14.92    4.96
  -5   9   9    6.48    3.79
   5  -9  -9   23.08    7.02
  -5  11   3   10.26    4.61
  -5  11   3    9.86    3.50
   5 -11  -3   15.92    5.32
   7  -2   4   53.15   16.07
   7  -2   4   71.47   22.23
   3  10  -4   49.93   11.97
  -3 -10   4   57.44   15.18
   3  10  -4   39.26    9.50
   6   5   0   -0.93    3.43
   6   5   0    4.14    2.39
  -1  12  -5  110.12   25.89
  -1  12  -5  212.92   34.77
   1 -12   5  261.83   41.36
   1 -12   5  138.65   17.86
   5   4 -13   40.98   11.07
   5   4 -13   25.91    6.79
   5   4 -13   37.09    8.73
   5   7   0   24.40    6.35
   5   7   0   11.00    3.37
   5   7   0   21.72    6.58
   5  -4 -14    3.87    5.17
   5  -4 -14    1.02    1.69
   5  -4 -14    1.25    1.73
   5  -8   8   15.18    8.07
   5  -8   8   14.62    7.62
   5  -8   8   12.06    5.03
   1  -8  13    3.58    3.08
  -1   8 -13    7.63    3.71
   1  -8  13    4.28    2.95
   0  12  -3   28.18    8.71
   0  12  -3   28.95    9.06
   0 -12   3   46.25   11.94
   0  12  -3   41.37   12.26
   3   6 -14    0.88    3.83
   3   6 -14   -0.01    0.97
   2   3  13    5.68    2.86
   2   3  13    8.03    3.45
   2   3  13   13.03    5.69
   2   3  13   14.46    4.66
   3 -10   9   29.24   10.16
  -3  10  -9   20.43    8.23
   3 -10   9   12.75    5.50
   3 -10   9   22.77    6.37
   2 -10  10   -0.39    3.57
   2 -10  10    4.10    2.72
  -2  10 -10    3.13    2.71
   3   9   3    2.61    2.12
   3   9   3    7.64    3.45
   3   9   3   -0.94    3.57
   2   1  14    1.63    1.50
   2   1  14    3.16    2.09
   2   1  14    4.75    3.06
   6 -10   0    3.26    2.23
   6 -10   0    6.27    3.33
   6 -10   0    1.20    2.38
   0   9   9    3.61    4.24
   0   9   9    1.51    1.39
   0   9   9    5.12    3.43
   0  12  -1    6.60    3.12
   0 -12   1    5.03    4.51
   0  12  -1   -1.11    3.74
   7   3  -3  125.07   26.85
   6 -10  -3    3.10    1.98
   6 -10  -3   -2.06    2.92
   1   1  15   23.05   12.07
   1   1  15   20.22    7.89
   1   1  15   33.61    8.40
   4  -3  12   28.66    9.67
   4  -3  12   24.88    6.99
   5   6   3  135.91   26.93
   5   6   3  146.49   28.11
  -1  12   2    3.53    2.97
  -1  12   2    5.51    2.82
   1 -12  -2    8.13    4.17
   5   5 -12    6.66    2.16
   5   5 -12    2.19    1.76
   5 -10  -7    0.90    2.38
  -5  10   7    3.51    2.55
  -5  10   7    3.26    2.01
   6  -6   7   63.80   20.23
   6  -6   7   53.33   14.72
   6  -6   7   58.71   19.27
   2 -12   5   56.18   10.78
   2 -12   5   51.19   17.60
  -2  12  -5   49.41   12.35
   3  10  -2    1.23    4.30
   3  10  -2    2.27    1.94
   3  10  -2    5.43    2.92
   4  -8  10   25.41    7.35
   4  -8  10   41.79   11.94
   4  -8  10    7.28    5.11
  -4   8 -10   10.31    4.47
   6  -9  -7    6.28    3.23
   6  -9  -7    2.68    1.21
   7  -8   0    6.24    3.37
   7  -8   0    7.20    3.02
   5   7  -8   46.72   12.87
   5   7  -8   51.13   11.09
   5   7  -8   64.91   13.18
  -3   2  16   22.66    6.43
  -3   2  16   37.13   10.83
  -3   2  16   26.04    6.70
  -2  12   3   76.32   14.16
   1  -9  12   20.31    6.99
   1  -9  12   28.51    6.85
  -1   9 -12   13.63    6.24
   7   0   3   14.82    5.95
   3   7 -13   11.72    4.21
   3   7 -13   16.02    6.37
   3   7 -13    6.79    2.10
   1   6 -15    9.05    4.09
  -1  -6  15    5.85    3.75
  -1  -6  15    2.16    2.54
   0  -3  16   60.60   15.91
   0   3 -16   80.69   14.50
   0  -3  16   26.84    9.77
   0   3 -16   26.83    6.47
   4  -2  12    5.20    7.59
   4  -2  12   90.06   21.14
   7  -5   4    4.49    3.58
   7  -5   4   -1.54    3.44
   7  -5   4    9.57    3.81
   7   1   2    4.69    3.23
   7   3  -6  105.00   20.66
   7   3  -6  108.86   25.51
   1   4 -16   -1.21    4.12
   1   4 -16    6.16    3.47
  -1  -4  16    5.61    2.84
  -1  -4  16    8.03    3.89
   3  10  -5   26.51    6.97
   3  10  -5   24.37    6.80
   3  10  -5    9.49    3.09
  -3 -10   5   13.93    4.63
   4  -9   9    9.63    3.89
  -4   9  -9    1.67    1.99
   4  -9   9   10.64    3.57
   4  -9   9    4.40    4.39
   5   1   9    2.27    1.65
   5   1   9   11.85    5.00
   5   1   9    3.55    1.92
   6  -8  -9    5.28    1.80
   6  -8  -9    4.43    2.07
   5 -11   2   39.98   12.95
   5 -11   2   14.57    4.73
   5 -11   2   41.91   12.85
   5 -11   2   24.64    9.96
  -5  11  -2   31.19    7.70
   6   1 -13    1.21    4.27
   6   1 -13    0.03    1.07
   6   1 -13    2.89    2.68
   0   0  16   85.56   18.19
   0   0  16   76.10   20.93
   0   0  16   83.61   13.47
  -1  -9  12  136.14   20.37
   1   9 -12  174.65   25.44
  -1  -9  12  172.25   30.52
   7  -2 -11    1.03    4.70
   7  -2 -11   -1.06    3.28
   7  -2 -11   -0.80    3.74
   5   5   5    7.46    2.99
   5   5   5    4.32    4.89
   5   5   5   10.56    4.44
   7  -8  -5   36.10    8.22
   7  -8  -5   59.84   14.14
   7  -8  -5   49.15   12.88
  -3   7  13   43.04   12.06
  -3   7  13   33.42   12.05
   0  12  -4   16.74    5.77
   0  12  -4    9.05    3.48
   0  12  -4    7.28    3.35
   0 -12   4   16.24    5.45
   4  -4  12    7.61    3.15
   4  -4  12    5.51    3.18
   5  -9   7   20.31    8.37
   5  -9   7   41.35   12.24
   5  -9   7   30.92    9.69
  -1   9  10    1.19    2.42
  -1   9  10    4.27    2.52
   1  -5  15    6.10    3.56
  -1   5 -15    4.62    3.25
   1  -5  15    3.47    2.08
  -2 -10   9   27.45    9.54
   2  10  -9   19.87    7.14
  -2 -10   9   15.36    4.73
   2  10  -9   15.31    4.36
   2  10  -9    5.70    2.53
   0   3  15   21.45    8.20
   0   3  15   16.09    8.05
   0   3  15   17.32    6.54
  -3  12   3   68.28   14.62
  -3  12   3   42.51   11.04
   5  -7   9   45.89   11.84
   5  -7   9   50.96   13.87
   5  -7   9   38.04   11.49
  -1  11   6    6.83    2.76
  -1  11   6    7.94    3.94
   3 -12   4   39.68   11.88
   3 -12   4   34.79   11.36
  -3  12  -4   45.71   11.43
  -1   4  15    4.21    3.65
  -1   4  15    3.21    1.97
  -1   4  15    4.76    2.47
   7   1 -10   63.20   12.14
   7   1 -10   52.50   13.25
   7   1 -10   40.41   12.11
   0  12   0   21.28    7.30
   0 -12   0   16.88    5.18
   0  12   0   18.21    5.69
   4 -11  -6   18.51    7.29
  -4  11   6   25.97    8.87
  -4  11   6   21.43    7.71
   7  -1 -11   87.03   16.68
   7  -1 -11   87.68   19.61
   7  -1 -11  114.83   26.24
   4   9  -4  111.34   22.40
   4   9  -4  120.05   21.19
   4   9  -4  102.28   12.45
   4   9  -4   96.15   20.56
   2   9   6   -0.34    3.15
   2   9   6    2.24    2.76
   2   9   6    0.19    1.72
   4   4   9  117.41   24.81
   4   4   9  105.44   29.76
   4   4   9   99.42   19.12
   3   5  10   61.27   15.22
   3   5  10   66.93   13.09
   3   5  10   40.34   11.70
   7   3  -2   15.82    9.16
   4   9  -3    5.80    2.48
   4   9  -3    8.25    4.85
   4   9  -3    2.60    3.84
   4   9  -3    2.38    1.92
   5  -5  10   76.49   17.08
   5  -5  10  101.84   24.81
   0  -6  15    2.14    1.05
   0   6 -15    3.35    2.52
   0  -6  15    4.23    3.32
   6 -10   1    5.75    2.79
   6 -10   1    0.91    1.82
   6 -10   1    3.07    2.17
  -2   7  13    3.41    2.80
  -2   7  13    2.65    2.39
  -2   7  13    5.85    2.79
   7  -6  -9   21.64    6.70
   7  -6  -9   22.06    6.49
   7  -6  -9   12.74    5.83
  -2  -4  16   88.38   15.51
  -2  -4  16   48.34   13.99
   2   4 -16   65.67   10.85
   2   4 -16   81.50   17.60
  -2 -11   3   91.98   22.30
   2  11  -3   48.80   11.86
   2  11  -3   70.10   16.57
   6  -9   4    2.19    2.86
   6  -9   4    6.82    3.22
   6  -9   4    5.86    3.67
   6 -10  -4   46.06   12.10
   6 -10  -4   51.24   17.73
   6 -10  -4   44.10   13.53
  -3  -3  16    4.16    2.53
  -3  -3  16    3.38    2.43
   3   3 -16    3.49    1.71
   3   3 -16    0.78    3.13
  -2  -7  14    3.95    3.02
   2   7 -14    3.43    2.79
  -5   1  15   34.65   11.58
   5  -1 -15   36.81   10.84
   5  -1 -15   29.41   11.24
   6   0   7    9.27    8.55
   6   0   7  132.96   32.15
   8  -3  -4    2.64    2.02
   8  -3  -4    4.95    2.18
   3  10  -1    1.82    3.18
   3  10  -1    6.11    4.01
   3  10  -1    3.77    4.45
  -1   7 -14   55.28   15.10
   1  -7  14   41.20   13.34
   1  -7  14   64.16   14.09
   7  -3 -11    1.34    1.81
   7  -3 -11    3.19    2.31
  -3  -5  15    2.83    1.44
   3   5 -15    0.45    1.33
   3   5 -15    6.85    2.12
  -3  -5  15    2.54    2.32
   5  -1  10    8.07    2.70
   5  -1  10   12.37    4.26
   5  -1  10    2.76    3.02
  -5  11   4    8.39    2.75
  -5  11   4    6.59    2.89
   5 -11  -4    2.03    1.40
   7   2  -9    2.11    2.74
   7   2  -9    1.02    2.00
   5   3 -14    8.26    3.74
   5   3 -14    6.14    3.10
   5   0 -15   37.09   10.51
   5   0 -15   34.66   10.21
   5   0 -15   31.18   10.98
  -5   0  15   43.10   11.90
  -3  10   9   43.74   10.87
  -3  10   9   45.05   11.82
   5  -7 -12    1.14    1.31
   5  -7 -12    3.19    3.41
  -3   8  12    1.30    2.03
  -3   8  12    3.02    3.67
  -1   2  16   36.05    9.32
  -1   2  16   22.10    5.50
  -1   2  16   20.10    6.22
   7  -5 -10   13.26    6.16
   7  -5 -10   20.82    6.27
   4   5 -14   21.54    6.76
   4   5 -14   20.22    5.73
   4   6 -13    9.62    3.37
   4   6 -13   12.47    4.06
   4   9  -5  136.75   23.16
   4   9  -5  129.15   22.27
   4   9  -5  112.98   22.23
   8  -3  -3   19.17    5.95
   8  -3  -3   18.01    8.12
  -3   6  14   72.06   15.13
  -3   6  14   11.54    3.96
  -3   6  14   56.25   13.19
  -2 -11   2    0.85    1.25
   2  11  -2    2.58    1.60
   2  11  -2   -0.41    1.71
  -2 -11   4   10.70    4.17
   2  11  -4   10.03    4.67
   2  11  -4   11.52    3.60
  -4  12   0    8.96    3.42
   4 -12   0    4.50    2.13
  -4  12   0   15.98    5.09
   3   4  11  168.48   37.97
   3   4  11  244.47   35.54
   3   4  11  202.37   34.92
  -4   4  15    3.47    2.52
  -4   4  15    3.29    2.21
   4  -4 -15    4.09    2.48
  -4   4  15    5.61    2.18
   4   5   8  316.63   37.36
   4   5   8  308.96   32.00
   4   5   8  300.46   38.74
   7  -1   4   51.56    9.80
   7  -1   4   71.23   23.27
   1   6  12   15.51    8.10
   1   6  12   33.34   10.71
   1   6  12   15.71   11.67
   1   6  12   15.02    5.97
   2   8   8    3.58    2.51
   2   8   8    6.05    3.38
   2   8   8   22.62    4.70
   8  -3  -5    6.57    3.37
   8  -3  -5    2.48    3.38
   3  10  -6   28.10    8.23
   3  10  -6   42.68   11.39
   3  10  -6   33.60    9.68
  -3 -10   6   36.13   13.73
   7   3  -7   14.19    5.35
   7   3  -7   17.76    5.82
   8  -2  -4   25.55    8.02
   4 -12  -1    0.79    1.42
  -4  12   1    0.00    3.78
  -4  12   1    3.73    2.59
  -2   6  14   16.03    7.63
  -2   6  14    7.19    3.67
  -2   6  14    7.46    3.86
   4  -1  12   -0.65    3.60
   4  -1  12    1.69    2.49
   4  -1  12   -0.29    2.14
  -4  12  -1    8.40    3.14
   4 -12   1    7.13    2.94
   4 -12   1    1.78    1.49
  -4  12  -1   16.87    6.73
   4   9  -2  160.55   16.48
   4   9  -2  156.98   32.25
   4   9  -2  176.34   29.23
   4   9  -2  121.48   28.75
   4   3  10   20.19    5.66
   4   3  10   32.99   10.98
   4   3  10   25.13    9.67
   4  -7  11   22.11    7.20
   4  -7  11    7.85    2.53
   4  -7  11   30.49   10.43
  -4   7 -11    8.74    2.65
   1   9   8   92.86   12.14
   1   9   8   44.19   16.91
   1   9   8   72.13   19.89
   1   9   8   58.78   24.96
   1   9   8   69.85   16.38
   0 -11  -5    6.58    3.19
   0  11   5   -0.71    3.20
   0  11   5    2.09    1.79
  -2  10   9   60.40   17.69
  -2  10   9   67.42   13.64
  -4   0  16   12.90    5.45
   4   0 -16   10.51    5.20
   8  -4  -4    8.89    2.98
   8  -4  -4   10.42    3.06
  -1  11  -9    6.96    3.23
   1 -11   9    5.79    2.66
   1 -11   9    7.11    4.04
   5  -6 -13    6.97    3.16
   5  -6 -13   10.56    3.51
   0   6  13    7.35    2.29
   0   6  13    3.31    2.36
   0   6  13    3.32    1.89
   0   6  13    8.12    4.71
   7  -8   1   17.25    6.02
   7  -8   1    3.06    2.77
   7  -8   1   12.33    4.86
   8  -4  -3   51.49   15.26
   8  -4  -3   51.98   15.07
  -2   8  12    2.38    2.83
  -2   8  12    3.47    3.58
   7   2   1    3.47    3.04
   7   2   1    6.81    2.83
   4   7   5    9.08    3.00
   4   7   5    8.77    5.04
   4   7   5    4.74    3.88
   6  -3   8    1.35    2.78
   6  -3   8   -0.19    3.04
   6  -3   8    5.01    2.85
   1  11   3   12.51    5.12
   1  11   3   13.47    5.48
   1  11   3   13.01    5.98
   6   5  -9    4.75    3.17
   6  -4 -13    8.56    4.00
   6  -4 -13   18.53    5.90
   6  -4 -13   13.85    5.10
   3   6   9   88.68   21.02
   3   6   9   91.74   18.43
   3   6   9   61.91   16.24
   0   7  12   23.91    8.80
   0   7  12   27.93    9.06
   0   7  12   35.30   10.65
   0   7  12    4.26    2.53
   6   4   3   30.88   11.04
   6   4   3   35.27   10.90
   8  -2  -5    3.60    2.32
   2   8 -13    4.92    1.64
   2   8 -13    9.43    5.40
  -2  -8  13   12.70    4.01
   0 -10  11   11.01    6.17
   0  10 -11    5.60    3.01
   0 -10  11   10.18    4.58
   6   3 -12   35.95    9.25
   6   3 -12   28.05    6.40
   6   3 -12   17.12    5.21
   0  12  -5    4.09    2.31
   0 -12   5    5.08    2.51
   0 -12   5    4.98    4.98
   0  12  -5    2.95    2.73
   1 -12   6   22.00    5.93
  -1  12  -6   43.28   10.82
   1 -12   6   35.85   10.07
   1  10   6   58.22   16.83
   1  10   6   67.10   15.09
   1  10   6   83.92   11.60
   2  -6  14    4.31    2.07
   2  -6  14   -2.19    5.50
  -2   6 -14    0.46    1.69
   8  -3  -2    8.63    3.72
  -5   2  15   18.93    5.85
   5  -2 -15   14.62    5.48
   5  -2 -15   17.18    5.08
   6  -4   8   25.60    7.31
   6  -4   8   24.48    9.14
   6  -4   8   24.31    9.06
  -3  11   7  252.32   58.92
   3 -11  -7  197.92   32.49
  -1 -11   8   28.75    6.44
  -1 -11   8   42.86   13.27
   1  11  -8   20.08    6.15
   1  11  -8   12.95    3.60
   2   6 -15   11.54    4.11
  -2  -6  15    7.36    2.92
  -2  -6  15   11.33    2.79
   5   6 -11    2.04    1.66
   5   6 -11    0.67    2.52
  -4   1  16   -0.49    3.72
  -4   1  16   -1.73    2.06
  -4   1  16   -1.16    2.37
   4  -1 -16    0.91    3.49
  -5   8  11    6.21    2.29
  -5   8  11   10.40    3.31
   5  -8 -11   14.96    4.81
   7  -7  -8   46.26   10.93
   7  -7  -8   50.64   13.69
   7  -7  -8   29.65   10.68
   2  11  -1   24.98    6.74
  -2 -11   1   49.31   14.25
   2  11  -1   36.69    8.69
   7   0 -11  211.82   29.24
   7   0 -11  213.70   37.48
   7   0 -11  211.21   30.05
   2  11  -5    3.36    2.45
  -2 -11   5    3.40    2.11
   2  11  -5    0.51    2.20
   1   7  11    1.71    2.03
   1   7  11   -1.92    2.97
   1   7  11   -1.13    2.90
   1   7  11    0.60    1.70
   3   9 -10    3.26    2.92
  -3  -9  10    0.54    1.82
   3   9 -10    3.65    2.25
   0  -4  16   17.20    4.71
   0  -4  16   18.47    6.48
   0   4 -16   14.20    4.92
  -5  11  -3    3.35    2.15
   5 -11   3    1.35    2.16
   5 -11   3    2.46    1.35
   5 -11   3    5.04    5.79
   5 -11   3    5.99    2.68
   3  -6  13    0.75    3.11
  -3   6 -13    4.55    2.57
   3  -6  13   -0.32    1.81
   3  -6  13    2.08    2.06
   1   5  13    6.44    2.61
   1   5  13    6.81    3.11
   1   5  13    1.55    2.44
   1   5  13   -1.41    2.90
   8  -4  -5    4.02    2.15
   8  -4  -5    2.06    2.75
   5   7   1    4.25    2.52
   5   7   1   -0.57    4.34
   1 -12  -3    7.74    3.60
  -1  12   3   10.20    4.42
  -1  12   3    8.23    3.35
   0 -12  -1    4.01    2.29
   0  12   1   -0.15    3.18
   0  12   1    5.50    2.10
   4   9  -6    7.06    3.28
  -4  -9   6   -0.25    3.08
   4   9  -6    3.28    3.08
   4   9  -6    3.84    3.21
   4  -5  12   63.64   16.19
   4  -5  12   61.66   17.34
   4   1 -16   14.41    3.87
  -4  -1  16   31.53    7.45
   0  11  -9    5.68    2.00
   0  11  -9    3.80    2.65
   0 -11   9    2.58    3.22
   0 -11   9   13.96    4.87
   6   5   1   34.77   11.21
   6   5   1   34.36    9.58
   4 -11   6   11.26    5.48
  -4  11  -6    5.63    3.12
   4 -11   6    4.51    1.94
   5   1 -15   15.11    5.80
   5   1 -15   20.59    5.20
  -5  -1  15   18.51    5.57
   5   1 -15   19.41    6.00
   7  -8  -6   24.51    6.22
   7  -8  -6   25.36    7.94
   7  -8  -6   19.57    6.49
   3   1  13   10.73    3.63
   3   1  13   36.13   10.11
   3   1  13    4.75    2.07
   7  -7   3    2.98    1.94
   7  -7   3   25.69    8.18
   7  -7   3   16.61    9.22
  -2  11   7  133.40   34.17
  -2  11   7  135.68   25.64
   4 -10   8  115.55   28.28
  -4  10  -8   79.44   21.21
   4 -10   8   69.09   17.99
   4 -10   8  125.18   30.13
   1 -10  11   89.92   23.82
  -1  10 -11  108.19   20.03
   1 -10  11   95.09   20.77
   8  -4  -2   92.89   23.27
   8  -4  -2   81.57   23.79
   3   8 -12   26.57    6.61
   3   8 -12   27.29    6.73
   3   8 -12   31.61    6.58
  -4  12   2   18.94    5.62
  -4  12   2    8.24    3.55
   3   8   6    1.36    1.83
   3   8   6    4.26    3.04
   3   8   6   -0.16    3.60
   7   3  -1    5.62    4.71
   7   3  -1    3.81    2.06
   7  -6   4    8.23    4.30
   7  -6   4   40.54   11.28
   7  -6   4   18.37    9.54
  -4  12  -2   14.49    4.95
   4 -12   2    7.96    3.36
  -4  12  -2   14.59    5.50
   6   4 -11   28.63    6.82
   6   4 -11   10.18    3.29
   8  -3  -6    3.30    2.46
   0   1  16   48.00   13.58
   0   1  16   49.33   12.36
   0   1  16   63.42   13.93
   6  -2   8  128.67   31.14
   6  -2   8  161.57   29.72
   2 -12   6   78.31   21.44
   2 -12   6   97.78   19.27
  -2  12  -6   91.06   16.77
   8  -2  -2   15.83    5.34
   6   6  -4    7.31    4.40
   6   6  -4   18.32    5.71
   6 -10   2  116.76   21.54
   6 -10   2  119.90   28.12
   6 -10   2   78.03   15.79
  -2   3  16    2.16    2.82
  -2   3  16    1.97    2.31
  -2   3  16   -0.18    3.83
   4   8 -10   92.95   15.14
   4   8 -10  109.87   22.71
  -4   7  13    7.55    3.57
  -4   7  13    4.87    3.50
  -2  12   4    4.71    2.65
  -2  12   4    6.04    2.57
   3  10   0    1.85    1.63
   3  10   0    5.51    4.00
   3  10   0    2.26    3.98
   8  -2  -6  100.71   15.39
   5   7  -9   82.62   14.65
   5   7  -9   62.19   15.51
   6 -10  -5    1.44    1.91
   6 -10  -5    2.35    2.08
   6 -10  -5    4.23    2.96
   6   6  -5   70.73   14.81
   6   6  -5   86.62   20.84
   6   6  -5   64.58    9.74
   7  -4 -11   10.04    4.27
   7  -4 -11   23.05    6.53
   4   9  -1    5.19    3.70
   4   9  -1    5.02    5.73
   4   9  -1    8.18    3.69
   4   9  -1    7.25    3.19
  -3  12   4   79.93   16.09
  -3  12   4   81.34   13.99
   4   8   3   -1.80    3.61
   4   8   3    6.08    2.88
   4   4 -15   74.97   21.90
   4   4 -15  109.74   19.32
   3 -12   5    0.49    3.33
   3 -12   5    1.82    2.71
  -3  12  -5    1.04    1.80
   2  10   4   52.26   15.31
   2  10   4   62.05    9.36
   0   5  14    3.96    3.66
   0   5  14    3.38    1.76
   0   5  14    2.35    2.39
   0   5  14    4.11    3.75
  -3   3  16    3.38    2.19
  -3   3  16    0.90    2.11
   3  -3 -16    9.55    4.52
  -3   3  16    1.91    3.35
   4   7 -12   10.04    3.50
   4   7 -12    9.05    4.18
   4   7 -12    6.33    4.04
   6  -8   6   38.79   10.57
   6  -8   6    2.19    2.13
   6  -8   6   25.63    6.58
   6   6  -3  152.65   34.11
   6   6  -3   84.26   22.66
   6   2 -13    2.10    1.70
   6   2 -13    2.34    3.19
   6   2 -13    1.87    1.80
   3   3  12  133.69   23.45
   3   3  12  133.79   30.72
   3   3  12   58.26   25.65
   5 -10   6   15.81    6.02
   5 -10   6   21.53    6.82
   7  -3   5   44.03   18.85
   7  -3   5   41.55   10.82
   7  -3   5   -0.23    3.82
   8  -5  -3   16.46    4.08
   8  -5  -3   14.30    5.13
   6  -5   8   64.98   21.21
   6  -5   8   61.32   15.19
   6  -5   8   64.87   15.24
  -3   9  11    3.99    2.68
  -3   9  11    6.91    4.73
  -4   8  12    7.42    3.67
  -4   8  12    8.39    3.40
   8  -3  -1    3.18    3.43
   0   8  11   20.42    8.73
   0   8  11   28.14   10.92
   0   8  11   26.93    7.45
   8  -5  -4    8.33    3.30
   8  -5  -4    5.67    2.55
   8  -4  -6    3.82    1.53
   8  -4  -6    3.64    2.06
   5 -11  -5    3.63    2.59
  -5  11   5    1.42    1.12
  -5  11   5    6.18    2.19
   2  -2  15   -0.28    3.29
   2  -2  15    0.64    1.34
   2  -2  15    8.33    3.15
  -4  10   9    6.93    3.28
   4 -10  -9    4.33    4.67
  -4  10   9    4.79    2.75
   7  -4   5   18.82    8.84
   7  -4   5   34.70   10.17
   7  -4   5   44.37   12.89
   3  10  -7    1.86    3.37
  -3 -10   7    2.78    2.02
   3  10  -7    5.27    2.43
   3  10  -7    5.89    2.99
   1   2  15   14.26    5.85
   1   2  15   10.40    3.57
   1   2  15   23.46    7.17
   7   3  -8    2.53    2.46
   6  -7   7   59.28   17.95
   6  -7   7   70.89   16.69
   6  -7   7   69.30   19.06
  -3   5  15   46.83   14.00
  -3   5  15   72.46   21.79
  -3   5  15   60.15   23.32
   5  -6  10    3.90    2.44
   5  -6  10    5.95    3.48
   4   6   7   39.08   11.56
   4   6   7   47.43    9.07
   4   6   7   44.48   12.26
   6  -9  -8   20.64    5.38
   6  -9  -8    8.25    3.30
   6  -7 -11   15.82    8.06
   6  -7 -11   20.64    5.75
   6   6  -6   33.48   10.48
   6   6  -6   59.40   10.48
   6   6  -6   26.22    5.66
  -4   2  16   75.24   26.89
  -4   2  16   65.56   31.98
   4  -2 -16  148.37   35.32
  -4   2  16  160.77   28.21
   4  -2 -16  138.29   23.99
   2  -3  15    3.76    1.58
   2  -3  15    5.94    4.47
  -2   3 -15    8.10    3.77
   8  -4  -1   36.27   11.29
   2  11   0  189.50   26.01
   2  11   0  106.77   20.47
   2  11   0  138.45   15.77
  -4   6  14   66.55   14.04
  -4   6  14   38.00   18.64
   5  -5 -14   14.88    4.85
   5  -5 -14   20.03    6.34
   5  -5 -14   12.57    5.83
   2  11  -6    2.75    2.37
  -2 -11   6    1.36    2.61
   2   2  14  115.37   44.09
   2   2  14  205.01   29.22
   2   2  14  139.14   38.27
  -2   5  15    8.27    4.38
  -2   5  15    2.44    2.55
  -2   5  15    9.90    3.46
   6  -6 -12    2.59    2.53
   6  -6 -12    2.63    2.51
   3   9   4    4.89    3.33
   3   9   4    2.89    2.10
   3   9   4    1.04    1.80
   3 -11   8   28.22    8.41
  -3  11  -8   22.07    6.42
   3 -11   8   17.79    5.38
  -2  11  -9    3.28    2.57
   2 -11   9   -2.24    3.70
   2 -11   9    7.38    3.49
   3  -9  11    6.19    2.43
   3  -9  11    2.96    2.59
  -3   9 -11    0.41    1.83
   3  -9  11    5.16    3.34
   1   5 -16  103.67   20.43
  -1  -5  16  104.12   20.05
  -1  -5  16  101.75   23.00
   5   3   8   13.88    5.10
   5   3   8    2.10    2.06
   5   3   8   13.78    6.74
  -5  10   8    1.55    1.70
  -5  10   8    9.32    3.79
   5 -10  -8   -1.71    3.05
   5   0  10    1.93    2.97
   5   0  10    2.40    1.80
   8  -5  -2    1.56    1.81
   8  -5  -2    5.05    4.90
  -4  12   3   26.85    7.87
  -4  12   3   33.09    8.74
   4   2  11    7.21    2.76
   4   2  11   11.39    6.49
   4   2  11    7.93    3.64
   6   2   6   -0.77    3.06
   6   2   6    9.44    5.35
   2   6  11   -0.92    3.17
   2   6  11    1.55    2.35
   2   6  11    1.93    1.72
   2   6  11    1.20    1.66
   2   6  11    2.45    2.04
   6  -1 -14   96.10   21.80
   6  -1 -14  117.42   26.28
  -6   1  14   80.29   25.07
   4   9  -7    2.05    1.40
   4   9  -7    2.81    3.81
   4   9  -7    2.69    2.58
  -4  -9   7   -0.31    2.78
   0  12  -6    3.40    2.93
   0 -12   6    3.89    1.72
   0 -12   6    1.64    2.81
   0  12  -6    6.25    2.04
   4   2 -16  125.44   27.27
  -4  -2  16  173.60   31.55
   4   2 -16   88.84   10.63
   5  -3 -15   23.98    6.79
  -5   3  15    9.17    4.09
   5  -3 -15   14.83    4.89
   8  -5  -5    0.99    1.45
   8  -5  -5    1.86    1.87
   8  -5  -5    0.03    1.25
  -2   9  11    7.84    4.60
  -2   9  11    5.20    2.59
  -2   9 -12    5.07    2.74
   2  -9  12   -1.46    4.73
   2  -9  12    1.16    2.32
   2  -9  12   -0.25    4.16
   7   1   3    3.85    2.20
   7  -8   2   14.49    5.14
   7  -8   2   38.21   10.77
  -4  12  -3   31.01    8.09
   4 -12   3   29.15    7.95
   4 -12   3   19.92    6.54
   2   5  12   31.93    9.74
   2   5  12   16.71    5.48
   2   5  12   20.97    4.34
   2   5  12   39.82    8.99
   4   0  12   17.16    8.61
   4   0  12   18.85    6.65
   4   0  12    6.82    1.87
  -1   7  13   56.76   16.68
  -1   7  13   55.87   13.83
  -1   7  13   38.16    8.71
   8  -2  -1  300.25   28.46
   8  -1  -6   27.96    6.60
   5   4   7   64.54   16.00
   5   4   7   73.93   17.53
   5   4   7   61.38   17.56
   5   6   4   28.05    7.26
   5   6   4   33.95    8.20
   1  10 -11   -0.27    3.08
   1  10 -11    2.62    1.74
  -1 -10  11    1.63    1.55
  -1 -10  11    2.89    2.89
   8  -3  -7  128.08   15.12
   3  -8  12   10.07    3.96
  -3   8 -12    7.93    3.64
   3  -8  12   12.61    4.70
   3  -8  12    6.21    4.17
   6   6  -2    4.71    4.29
   6   6  -2    6.38    3.21
   6   6  -2   18.01    6.18
   2  -1  15    6.60    3.52
   2  -1  15    3.63    2.43
   2  -1  15    0.95    1.68
   7  -2   5   10.97    5.77
   7  -2   5    7.19    3.48
   3   7   8    1.57    1.96
   3   7   8    3.40    2.93
   3   7   8    6.45    2.90
   8  -2  -7    7.41    3.03
   6  -2 -14    6.09    1.68
   6  -2 -14    4.80    1.86
   2  -8  13    7.27    5.49
  -2   8 -13    5.21    3.57
   2  -8  13   15.31    5.58
   1   8  10    3.44    3.30
   1   8  10    5.46    2.17
   1   8  10    5.66    2.04
   1   8  10    8.05    4.10
   6   3   5    6.80    3.22
   6   3   5   -1.12    2.91
   7   2 -10    4.87    2.42
   7   2 -10    5.67    3.99
   7   0   4   15.37    9.39
   0  12   2    8.55    3.31
   0 -12  -2    4.50    2.95
   0  12   2    4.62    2.66
   2   1 -17    0.78    2.09
  -2  -1  17    4.99    2.18
  -2  -1  17    3.31    4.01
  -2  -1  17    2.51    1.88
  -1   6 -15    1.31    1.92
   1  -6  15    6.54    4.38
   3   4 -16    2.81    2.51
   3   4 -16    3.26    1.63
  -3  -4  16    4.18    2.64
  -3  -4  16    0.55    1.37
   1   4  14   36.81   12.57
   1   4  14   33.89    8.25
   1   4  14   50.76   13.01
   1   4  14   28.75    7.89
  -4  11   7   23.81    6.51
   4 -11  -7   15.99   10.04
  -4  11   7   27.08    5.94
   6  -1   8    4.74    2.49
  -5   9  10    4.38    3.17
   5  -9 -10    6.58    2.71
  -5   9  10    2.04    1.57
   7  -5   5    1.03    2.22
   7  -5   5   -0.65    4.11
   7  -5   5    2.31    3.87
   2  10 -10   23.12    7.04
  -2 -10  10   14.93    6.31
   2  10 -10   12.09    3.82
   2  10 -10    9.98    3.20
  -2 -10  10   24.11    9.50
   3  -3  14   23.95    7.50
   3  -3  14   12.10    3.91
  -3   3 -14    7.46    3.25
  -5  -2  15    1.37    2.46
   5   2 -15    2.32    2.21
   5   2 -15    3.81    1.96
   7  -9  -2  108.30   18.62
   7  -9  -2  106.79   21.63
  -2  -9  12    4.54    1.97
   2   9 -12    1.22    1.82
   2   9 -12    4.77    3.35
  -6   0  14    4.16    2.15
   6   0 -14   11.82    4.54
   6   0 -14    8.56    3.89
   6   0 -14   12.27    4.31
  -1   6  14   81.48   23.14
  -1   6  14  106.48   35.70
  -1   6  14  112.14   30.48
   6  -9   5   25.47    7.49
   6  -9   5    7.69    3.36
   6  -9   5   35.98   12.89
   7   1 -11  114.34   27.68
   7   1 -11  136.56   22.93
   7   1 -11  157.27   26.42
   3  -2  14   43.08   10.67
   0  10   8   53.05   11.34
   0  10   8   40.26   10.16
   1  -2  16   80.49   22.22
   1  -2  16   57.66   20.65
  -1   2 -16   91.65   12.37
   5 -11   4   63.70   16.80
  -5  11  -4   49.54   19.79
   5 -11   4   81.44   18.32
   5 -11   4  104.05   19.19
   7   3   0    3.50    1.69
   7   3   0   -1.53    3.37
  -2   0  17   15.39    4.51
  -2   0  17   11.05    5.05
  -2   0  17    5.09    2.97
   7  -9  -3   31.58    8.38
   7  -9  -3   17.18    4.27
   7  -9  -3   23.09    5.86
   7  -8  -7    3.97    3.43
   7  -8  -7    2.70    1.54
   7  -8  -7    5.42    1.94
   4   9   0    4.60    2.65
   4   9   0    0.17    1.93
   4   9   0    4.17    2.66
   6  -8 -10   14.50    6.88
   6  -8 -10   14.16    4.67
   5   8  -4   82.72   19.19
   5   8  -4   77.38   20.41
   5   8  -4   40.13   13.07
   5   8  -4   48.17    8.50
  -1  10   9   34.43    8.33
  -1  10   9   31.96    7.97
   1 -12   7  110.37   27.29
  -1  12  -7  109.67   19.15
   1 -12   7  123.64   25.28
   2  -4  15   40.21   15.07
  -2   4 -15   49.10   14.65
   0  -8  14    1.29    2.69
   0   8 -14    2.45    2.58
   6   6  -7   35.93    9.54
   6   6  -7   34.17   11.59
   6   1   7    2.10    1.93
   6   1   7    3.08    1.33
  -2  -5  16    5.58    4.15
   2   5 -16    1.77    3.22
  -2  -5  16    3.87    2.99
   2   5 -16    4.03    1.73
   7  -9  -1   17.86    5.20
   7  -9  -1    7.51    3.52
   7  -6 -10   50.31   27.52
   7  -6 -10  125.61   31.73
   7  -6 -10  156.21   26.39
   8  -5  -1   52.38   15.93
   5   2   9    6.35    3.21
   5   2   9    9.34    3.32
   5   2   9    3.91    4.16
   6   5 -10    2.02    2.09
  -1   8  12   95.39   30.41
  -1   8  12   68.14   14.34
  -1   8  12  109.06   27.22
   6 -10   3    0.45    1.75
   6 -10   3    1.90    1.39
   6 -10   3    3.45    2.49
   6 -10   3    0.97    3.51
  -1   3  16    2.51    1.85
  -1   3  16    6.22    3.95
  -1   3  16    6.62    3.03
   3  10   1    7.45    2.84
   3  10   1    8.74    4.00
   3  10   1    8.75    3.05
   7   2   2    2.52    1.85
   7   2   2    2.07    1.71
   5   8  -5  100.46   19.89
   5   8  -5   83.64   17.76
   5   8  -5   66.44   15.06
   8  -4  -7    0.99    1.56
   8  -4  -7    1.76    1.81
   2   2 -17    2.67    2.86
  -2  -2  17    7.85    3.78
  -2  -2  17    2.08    1.78
  -2  -2  17    3.97    2.80
   4  -6  12    7.94    3.73
   4  -6  12   -1.39    2.25
   4  -6  12    7.08    3.16
  -4   6 -12    1.96    1.59
   5   8  -3   96.84   22.79
   5   8  -3   83.92   11.03
   5   8  -3  124.81   28.75
   5   8  -3   62.62   18.49
   7  -2 -12   12.43    4.11
   7  -2 -12    4.80    3.26
   6 -10  -6    1.14    1.35
   6 -10  -6    1.52    1.27
   5   5 -13    9.04    3.18
   5   5 -13    4.90    2.47
   5   5 -13    9.38    3.95
   8  -5  -6    5.50    2.21
   8  -5  -6   11.43    4.86
   8  -5  -6    9.95    3.25
   2   7  10    1.12    3.60
   2   7  10   12.35   11.58
   2   7  10    7.61    2.61
   2   7  10    8.03    5.37
   1  -1  16   42.00   10.16
   1  -1  16   33.90   11.77
   1  -1  16   30.76    7.66
   3 -10  10   22.82    7.04
   3 -10  10   29.05   10.36
  -3  10 -10   28.65   10.51
   3 -10  10   27.11    8.74
  -1  12   4  119.31   23.04
  -1  12   4  119.53   22.08
   8  -3   0  230.80   24.90
   6  -5 -13   -1.22    2.74
   6  -5 -13    0.02    1.80
   6  -5 -13    6.13    2.62
  -1   3 -16   24.41    6.40
   1  -3  16   16.16    5.54
   1  -3  16    7.02    3.06
  -1  -8  14    2.79    1.95
   1   8 -14    7.94    3.73
  -1  -8  14    9.30    3.56
   1  11   4   -1.82    4.09
   1  11   4    3.10    4.80
   1  11   4    0.71    2.11
  -1  -1  17  186.26   22.37
  -1  -1  17  178.27   39.75
  -1  -1  17  176.12   31.75
   0   5 -16   11.26    3.57
   0  -5  16    9.47    5.39
   0  -5  16   26.11    8.57
  -4   9  11   -0.49    3.42
  -4   9  11    1.91    2.52
   1  12  -3   12.18    3.95
  -1 -12   3   21.89    7.59
   1  12  -3    3.60    3.22
   1  12  -3   13.69    6.28
  -1  11   7    5.09    2.13
  -1  11   7    6.44    3.22
   0  -9  13   22.25    9.36
   0   9 -13   20.76    6.03
   0  -9  13   31.50    8.98
   1  12  -2   66.83   12.16
  -1 -12   2   65.14   15.64
   1  12  -2   70.16   16.62
   1  12  -2   56.58   14.61
   5   7   2    6.87    3.27
   5   7   2    5.11    3.33
   7  -1 -12   95.97   13.76
   7  -1 -12   93.13   19.96
   7  -1 -12   93.60   16.09
   8  -4   0   76.60   11.24
   5  -8   9  149.44   32.64
   5  -8   9  151.64   34.13
   5  -8   9   89.81   20.28
   3  -4  14    4.73    2.20
   3  -4  14    2.81    1.66
  -3   4 -14    3.47    1.92
   8  -1  -7    1.29    1.45
   2 -10  11   14.38    4.21
   2 -10  11    0.17    2.97
   2 -10  11    5.11    3.13
  -2  10 -11    8.93    4.11
   7  -9  -4   20.69    5.92
   7  -9  -4   12.50    5.07
   7  -9  -4   25.92    6.94
  -1  -2  17    4.63    2.95
  -1  -2  17    2.83    3.08
   1   2 -17    2.55    1.10
   5   4 -14   33.94    9.21
   5   4 -14   32.25    6.96
   5   4 -14   22.98    7.67
   2   4  13   30.50    9.89
   2   4  13  101.16   24.81
   2   4  13   27.57   14.01
   2   4  13   83.02   21.81
   6   5   2    9.65    4.78
   6   5   2    9.82    5.75
   1  11  -9   18.05    5.73
  -1 -11   9   45.67   14.87
   1  11  -9   30.10    7.31
  -1 -11   9   33.14    6.71
   1  11  -9   13.39    5.49
   5  -9   8   33.49    9.52
   5  -9   8   15.54    7.48
   5  -9   8   39.49   11.02
   6  -6   8    2.91    2.06
   6  -6   8    2.29    4.55
   6  -6   8    5.57    3.27
   7  -7  -9    4.59    3.30
   7  -7  -9    6.21    3.13
   7  -7  -9    2.31    1.52
   2  11   1    1.67    1.46
   2  11   1    3.14    3.59
   2  11   1    0.44    3.26
   7  -5 -11   -0.47    2.36
   7  -5 -11    1.44    1.49
   7   4  -4   26.31    7.38
  -2 -11   7    8.30    3.70
   2  11  -7   -0.71    3.59
   2  11  -7    2.65    2.15
   7   4  -5   28.46    8.90
   7   4  -5   39.29    7.53
   6  -3 -14   10.31    2.99
   6  -3 -14   10.83    4.09
   0   2  16   -1.14    4.38
   0   2  16    4.84    2.63
   0   2  16    4.08    3.64
   6   6  -1   16.28    8.90
   6   6  -1   33.42    8.74
   5   5   6   35.89    8.14
   5   5   6   40.94   12.49
   5   5   6   22.51    6.51
   3  10  -8   22.96    6.78
  -3 -10   8    9.73    3.20
   3  10  -8   16.32    5.53
   1  12  -4    2.12    2.26
  -1 -12   4    0.55    1.68
  -1 -12   4    5.84    3.45
   1  12  -4    4.83    2.17
   0   4  15   91.31   23.80
   0   4  15   86.44   26.11
   0   4  15   95.05   20.33
   3  -1  14    8.42    3.82
   3  -1  14    5.07    3.13
   3  -1  14   12.99    3.98
   3  -1  14   17.06    5.49
   2 -12   7  309.00   42.83
  -2  12  -7  291.08   50.25
   2 -12   7  341.60   46.09
  -4  12   4   27.37    7.89
   4 -12  -4   11.16    5.89
  -4  12   4   21.05    6.54
   1   7 -15  135.05   21.51
  -1  -7  15  118.57   23.60
  -1  -7  15   36.16   15.93
   7  -7   4    8.31    3.48
   7  -7   4   36.41   10.28
   7  -7   4   21.41    5.82
   8  -6  -3   -0.09    2.97
   8  -6  -3    0.99    2.02
  -5  -8   6  350.87   33.39
   5   8  -6  434.36   13.55
   5   8  -6  384.92   48.73
   5   8  -6  456.94   45.42
  -3  12   5    5.65    4.03
  -3  12   5   -1.64    3.99
   7   3  -9    5.35    2.77
   7  -9   0   19.08    6.66
   7  -9   0   18.93    5.32
   4  -5 -15   15.15    5.17
  -4   5  15   11.01    3.78
  -4   5  15   20.08    9.36
   7  -3 -12    7.42    3.38
   7  -3 -12    3.60    2.61
  -3  12  -6   16.97    5.57
   3 -12   6   13.29    5.31
   3 -12   6   16.65    6.05
  -2  12   5  109.62   19.89
  -2  12   5   94.62   18.40
   0  11   6   -0.39    3.27
   0  11   6    2.00    1.31
   8  -6  -4    6.49    4.19
   8  -6  -4    5.00    2.34
   8  -6  -4    5.55    2.42
   1  12  -1   16.26    5.31
   1  12  -1   16.04    4.98
   1  12  -1   10.40    4.21
  -1 -12   1   26.19    6.29
  -1   0  17    6.60    2.76
  -1   0  17    8.31    3.67
  -1   0  17    2.42    2.67
   5   8  -2    4.55    3.22
   5   8  -2   13.32    5.40
   5   8  -2    5.01    3.28
  -3   0  17   54.19   19.71
  -3   0  17  123.04   21.63
   3   0 -17   49.71   17.91
  -3   0  17   81.83   18.22
   2   0  15   -0.09    2.99
   2   0  15    2.09    1.81
   2   0  15    3.86    2.94
   5   7 -10    1.57    2.14
   5   7 -10    1.97    1.74
   8  -2   0  266.84   25.72
   4  -3 -16   35.40   17.04
  -4   3  16   33.91   11.89
  -4   3  16   30.65   12.06
  -4   3  16   24.26   11.33
   4  -3 -16   21.47   13.37
   4 -12   4    8.30    3.01
  -4  12  -4   10.23    3.01
   4 -12   4   10.38    3.71
  -2   1  17   35.34    9.86
  -2   1  17   31.31   12.99
  -2   1  17   29.03   10.38
   5 -11  -6    6.61    2.21
  -5  11   6    4.99    2.52
  -5  11   6   11.02    3.35
  -4  -9   8   13.48    3.84
   4   9  -8   17.48    4.42
   4   9  -8   25.04    7.88
   4   9  -8   16.94    4.43
   2   9   7    1.43    2.69
   2   9   7    2.23    1.50
   2   9   7    4.74    3.49
  -3  -1  17    4.89    2.28
   3   1 -17   11.39    3.54
  -3  -1  17    4.12    2.45
  -3  -1  17    8.67    3.84
   6   4   4   19.82    9.25
   6   4   4   23.34    9.72
   7  -1   5   83.13   25.75
   4  -9  10   11.67    4.50
  -4   9 -10    5.33    3.33
   4  -9  10    6.65    3.09
   4  -9  10   10.80    4.22
   0   7 -15   11.70    5.23
   0  -7  15   11.15    4.82
   7   4  -3    4.60    2.22
   6   1 -14    4.10    2.37
   6   1 -14   11.28    4.42
   6   1 -14   12.45    3.78
  -6  -1  14    7.60    3.27
  -4  11  -7    4.93    2.52
   4 -11   7    6.27    5.09
   4 -11   7    7.59    5.19
   4 -11   7    1.29    2.04
   0   9  10   -1.98    4.05
   0   9  10    1.46    1.16
   0   9  10    6.18    2.82
   8  -6  -2   77.80   10.64
   8  -6  -2   87.23   18.18
   7   4  -6    3.33    2.34
   7   4  -6    1.41    2.17
   8  -3  -8   50.74   17.14
   5  -3  11    4.86    3.71
   5  -3  11    6.88    3.64
   8  -2  -8   44.02    9.89
   3   7 -14    6.21    2.89
   3   7 -14    9.25    3.18
   3  -7  13    7.91    2.75
   3  -7  13   17.15    4.17
   3  -7  13   11.69    4.46
  -3   7 -13    4.80    4.09
   1 -11  10   96.31   23.72
   1 -11  10  115.41   21.18
  -1  11 -10  112.02   17.55
  -1  -9  13   10.95    5.50
  -1  -9  13   24.73    5.32
   1   9 -13   27.98    7.24
   2  -7  14    4.72    1.99
   2  -7  14   10.91    4.61
  -2   7 -14   12.02    4.89
   3   9 -11   22.08    7.75
   3   9 -11   23.12    6.06
   0 -12   7   31.20    6.68
   0  12  -7    7.31    2.15
   0  12  -7   25.04    6.43
   0 -12   7   40.87   10.74
  -1   5  15   28.69    7.99
  -1   5  15   22.20    6.77
  -1   5  15    8.35    2.66
  -1   5  15   18.60    8.66
   3   2  13   88.47   24.29
   3   2  13  116.04   19.19
   3 -11  -8    9.47    3.69
  -3  11   8   16.33    6.87
  -3  11   8   19.30    5.24
   4  -8  11    5.26    2.50
  -4   8 -11    3.87    1.94
   4  -8  11   -0.07    3.21
   4  -8  11    5.61    4.69
   5   6 -12   86.23   21.59
   5   6 -12   45.35   15.20
   3   6 -15    4.58    2.99
  -3  -6  15    2.50    1.71
   8  -5   0   45.52   14.05
   4   3 -16   23.64   10.74
  -4  -3  16   66.11   10.52
   4   3 -16   47.07    9.98
   7   0 -12   26.37    8.36
   7   0 -12   22.37    6.57
   7   0 -12   22.29    5.46
   5  -4  11    4.80    2.44
   5  -4  11    2.76    2.52
   7  -6   5   -0.44    3.63
   7  -6   5   -1.53    2.83
   7  -6   5    3.75    2.29
   6   6  -8    3.87    2.16
   6   6  -8    2.88    3.53
   1   0  16    5.20    4.16
   1   0  16    6.34    4.21
   1   0  16    5.91    4.12
   0  11 -10    1.90    1.87
   0 -11  10    2.61    2.33
   0 -11  10    5.85    3.08
   0  11 -10    3.54    3.50
   8  -6  -5    9.34    4.04
   8  -6  -5    8.36    3.91
   8  -6  -5    5.76    3.38
   4   8 -11    3.14    2.76
   4   8 -11    0.99    1.45
   2   3 -17   82.33   17.57
   2   3 -17   96.37    9.17
  -2  -3  17  113.21   20.84
  -2  -3  17   93.19   22.75
  -1   9 -13   11.23    3.98
   1  -9  13   10.13    3.75
   1  -9  13    3.02    2.73
  -3  10  10    5.74    2.19
  -3  10  10    1.97    2.48
   1  -4  16   13.76    4.89
   1  -4  16   51.89   11.44
  -1   4 -16   45.35   10.55
   7  -8   3    3.34    1.83
   7  -8   3    8.51    3.35
   1   3 -17    1.65    2.31
   1   3 -17   -1.57    4.61
  -1  -3  17    4.31    3.11
  -1  -3  17    5.21    3.56
   7  -9  -5   27.26    8.11
   7  -9  -5   33.48    7.42
   7  -9  -5   20.14    7.20
  -1 -12   5    3.41    2.20
   1  12  -5    3.13    1.86
  -1 -12   5    5.70    2.90
   1  12  -5    3.92    2.07
   4   7   6   11.20    4.17
   4   7   6   13.01    4.68
   4   7   6    7.15    2.48
   6   4 -12    4.58    3.09
   6   4 -12    2.78    1.75
   5  -4 -15   28.80    7.68
   5  -4 -15   15.22    4.04
   5  -4 -15   39.57   10.84
   8  -5  -7    5.95    2.61
   8  -5  -7    5.97    1.86
   8  -5  -7    5.14    2.19
   5  -2  11    8.73    3.52
   5  -2  11   31.71    9.44
   5  -2  11   33.37    9.38
   3  -1 -17   45.66   18.36
  -3   1  17  125.65   27.22
  -3   1  17   82.25   23.81
  -3   1  17   60.78   20.82
  -3   4  16  125.89   19.73
  -3   4  16  115.51   33.89
  -3   4  16  113.60   15.56
   6   3 -13    4.10    1.66
   6   3 -13    1.24    1.83
   6   3 -13    0.25    1.67
   0 -12  -3   59.18   13.71
   0  12   3   71.16   13.89
   0  12   3   79.17   14.69
   5  -7  10    8.49    4.00
   5  -7  10   12.91    5.38
   1  -8  14    6.46    2.34
  -1   8 -14    9.47    4.69
   1  -8  14    7.44    3.20
   1  10   7    8.15    4.36
   1  10   7    4.76    2.59
   1  10   7    2.95    1.83
   1  10   7    4.04    3.19
  -2   4  16    1.12    2.05
  -2   4  16    4.76    3.87
  -2   4  16    2.48    2.23
   2  -5  15   -1.63    4.81
  -2   5 -15   -0.47    3.90
   2  -5  15    4.03    1.95
   4   8   4    5.83    5.15
   4   8   4    7.90    4.11
  -2  11   8   29.41    6.90
   2 -11  -8    2.32    2.51
  -2  11   8   18.71    5.39
   4   9   1    9.48    4.63
   4   9   1   11.89    5.36
   4   9   1   14.95    4.21
   4   6 -14  100.13   14.79
   4   6 -14   61.76   17.57
   3   2 -17    1.58    1.90
  -3  -2  17    8.09    3.25
  -3  -2  17    4.15    1.57
  -3  -2  17    5.30    2.08
   1  12   0   36.48   10.22
   1  12   0   27.87    6.65
  -1 -12   0   42.19    9.30
   1  12   0   38.86    9.84
   5   8  -7  120.11   25.44
   5   8  -7  122.20   27.29
   5   8  -7  120.52   25.06
   8  -6  -1    1.03    3.59
  -1   9  11    3.83    2.35
  -1   9  11    4.31    2.90
   2  10   5    1.54    3.88
   2  10   5    2.13    2.27
   2  10   5    2.52    2.97
   6   0   8   27.73    9.10
   6   0   8   11.46    3.83
   8  -4  -8   16.26    4.73
   8  -4  -8    1.98    1.74
   7   4  -2  136.06   20.62
  -3   5 -14    2.13    2.11
   3  -5  14    5.49    4.21
   3  -5  14    4.94    3.57
   8  -1  -8    4.70    2.66
   8  -1  -8    7.16    3.92
  -2  13  -1    0.76    1.59
  -2  13  -1    1.80    2.39
   2 -13   1    1.33    1.77
   7  -9   1   14.69    4.93
   7  -9   1    3.96    2.02
   7  -9   1    4.93    2.23
   6  -9  -9   41.30   11.04
   6  -9  -9   55.76   11.91
   7   3   1   10.21    4.62
   7   3   1   15.16    6.04
   7   4  -7   41.93   11.37
   7   4  -7   38.35   11.87
   5   1  10   11.01    4.67
   5   1  10   20.86    5.47
   5   1  10    4.52    1.58
   4   1  12    6.02    1.85
   4   1  12    2.21    1.71
   4   1  12    0.95    1.38
   4 -10   9   66.50   14.15
   4 -10   9   49.75   18.55
   4 -10   9   68.54   16.31
  -4  10  -9   49.40   12.73
   5   8  -1   87.60   26.74
   5   8  -1   77.48   19.55
   5   8  -1  135.08   22.62
   5 -10   7    2.44    1.87
   5 -10   7    5.17    2.47
   0  10 -12   55.80    9.46
   0 -10  12   43.42   13.18
   0 -10  12   59.52   12.83
  -2  10  10   55.25   14.28
  -2  10  10   51.76   13.10
  -2  13  -2    8.46    4.09
   2 -13   2    5.45    4.47
  -2  13  -2    1.90    1.98
   5  -7 -13   26.41    5.68
   6 -11  -1   11.21    3.37
   6 -11  -1   15.98    5.02
   8   0  -7    3.71    2.05
   8  -3   1    1.63    2.95
   8  -3   1    2.62    2.91
   7  -8  -8    7.25    3.16
   7  -8  -8    7.73    4.03
   7  -8  -8   14.97    4.29
  -5  -3  15   26.93    6.01
   5   3 -15   26.00    7.56
   5   3 -15   35.30    8.21
   5   3 -15   33.26    7.60
   5 -11   5    1.92    1.59
   5 -11   5    3.79    2.01
   5 -11   5    1.59    1.98
  -5  11  -5   -1.33    2.34
   8  -4   1    2.71    2.11
   8  -4   1   21.52    6.92
   7  -4 -12   28.79    6.13
   7  -4 -12   19.45    4.88
   6 -11  -2    1.76    2.22
   6 -11  -2   -0.21    2.90
   1   9   9    0.67    2.01
   1   9   9    2.56    2.58
   1   9   9    6.32    3.22
   1   9   9    1.88    1.52
   1   9   9    0.29    2.44
   3  10   2    3.37    5.20
   3  10   2    3.29    3.30
   3  10   2    2.29    1.60
  -1   1  17    5.10    3.78
  -1   1  17    4.06    3.13
  -1   1  17    3.06    2.24
  -2  13   0    6.59    2.92
   2 -13   0   -0.10    3.01
  -2  13   0    6.94    4.59
   6 -10   4    2.47    4.62
   6 -10   4    1.42    1.98
   6 -10   4    7.11    2.41
   2   8   9   14.47    3.60
   2   8   9   21.77    6.30
   2   8   9   10.22    3.68
   4   5 -15   14.69    3.18
   4   5 -15    9.55    2.72
   3   8 -13   13.05    3.38
   3   8 -13    7.91    3.30
   3   8 -13    8.41    3.29
   1   3  15   25.75    8.13
   1   3  15   15.32    4.55
   1   3  15   31.20    8.76
   6  -8   7    0.78    2.12
   6  -8   7    1.86    1.62
   6  -8   7   -0.83    3.85
   6   6   0   27.75    7.80
   6   6   0   14.23    3.87
   3   8   7   40.98    7.35
   3   8   7   28.80    8.33
   3   8   7   22.64    7.68
   3   0  14    3.03    2.12
   3   0  14    3.45    2.04
   3   0  14    0.40    1.69
   4   4  10    2.57    2.45
   4   4  10   -0.05    2.72
   4   4  10    0.12    2.36
  -5  12   1    4.02    3.11
   5 -12  -1    5.03    2.83
   5 -12  -1    6.08    3.51
  -5  12   1    3.31    2.09
   7   2 -11    3.78    1.55
   7   2 -11    2.88    1.96
   8  -6  -6   -0.29    1.76
   8  -6  -6    0.43    1.74
   8  -6  -6    2.52    1.88
  -5   8  12    3.36    3.06
  -5   8  12   -0.11    2.50
   5  -8 -12    0.71    1.22
   5 -12   0    0.20    1.55
  -5  12   0    1.63    1.73
   6 -10  -7    6.64    2.41
   6 -10  -7    8.45    3.29
   4  -3  13   45.40    9.74
   4  -3  13    6.26    4.88
   4  -3  13   37.88   10.00
   5  -5  11    7.41    3.01
   5  -5  11    4.07    2.79
   3   9   5   19.63    5.92
   3   9   5   30.50    6.98
   6 -11   0    1.21    3.77
   6 -11   0    6.45    1.91
   6 -11   0    1.76    1.86
   4   5   9    3.91    2.17
   4   5   9    0.21    2.78
   4   5   9    5.06    2.29
  -3   7  14    4.12    2.21
  -3   7  14    2.88    4.77
   2   7 -15   64.82   12.84
   2   7 -15   88.01   13.35
  -2  -7  15   63.59   15.42
  -2  -7  15   81.12   20.87
   6  -4 -14    4.39    2.42
   6  -4 -14    0.76    3.41
   6  -4 -14    5.87    2.53
   5 -10  -9   10.01    4.64
  -5  10   9   11.17    3.88
  -5  10   9    6.00    2.44
   2  11   2    1.23    3.28
   2  11   2   -0.46    2.94
   2  11   2   -0.24    2.05
   1 -12   8   57.09   11.62
  -1  12  -8   54.51   10.70
   1 -12   8   46.88   11.74
  -1  -6  16    3.40    3.15
   1   6 -16    2.42    1.67
  -1  -6  16    4.96    3.50
  -2 -11   8   14.36    4.37
   2  11  -8   13.32    4.53
   2  11  -8   15.02    4.73
   6  -3   9   62.22   14.10
   6  -3   9   61.70   14.98
  -2  -8  14    7.70    3.17
  -2  -8  14    5.43    2.21
   2   8 -14    2.25    2.17
   7   1   4    5.25    2.45
   7  -3   6   66.40    7.75
   7  -3   6   67.49   19.64
   7  -3   6   61.83   16.67
   7  -4   6    4.75    4.12
   7  -4   6    2.68    1.82
   7  -4   6   -0.11    4.03
   1 -10  12    9.43    3.71
   1 -10  12   22.12    8.27
  -1  10 -12   19.71    5.98
  -3   8  13   33.28   10.14
  -3   8  13   23.76   11.17
  -2  13  -3   40.69    7.11
   2 -13   3   26.14    6.67
  -2  13  -3   33.29    7.11
   4   7 -13   30.10    8.32
   4   7 -13   39.29   12.93
   3   5  11   -0.16    2.37
   3   5  11   -1.27    3.10
   3   5  11    1.59    2.46
   6  -4   9   24.83    7.19
   6  -4   9   22.10    8.34
  -4  12   5    4.83    2.76
  -4  12   5    3.14    3.18
   4 -12  -5    2.08    1.48
   3 -11   9    9.38    5.25
   3 -11   9   18.37    5.13
  -3  11  -9   19.41    7.18
   3 -11   9   22.70    6.98
   6 -11  -3    6.06    2.66
   6 -11  -3    4.24    3.07
   2  -2 -17    7.01    3.71
  -2   2  17   25.23    6.38
  -2   2  17   33.20    8.25
  -2   2  17   27.22   10.07
   2   3  14    0.45    1.76
   2   3  14   -0.18    2.98
   2   3  14    0.97    1.98
   2   3  14    2.13    2.65
   4  -2  13    3.83    1.94
   4  -2  13   -1.72    3.10
   4  -2  13    0.98    2.05
   1  12  -6    4.86    2.23
   1  12  -6   -1.65    2.84
  -1 -12   6    4.06    2.62
  -1 -12   6   -0.22    3.34
   5 -12  -2   29.64    8.93
  -5  12   2   39.55   10.83
   5 -12  -2   32.68   12.09
  -5  12   2   41.33    8.42
   5  -6 -14    7.11    3.24
   5  -6 -14    8.69    3.49
  -1  13  -2  117.35   16.27
   1 -13   2  105.23   19.34
  -1  13  -2   80.37   19.55
  -1  13  -2   93.08   15.19
   0  -2  17   37.37   11.68
   0  -2  17   78.68   12.34
   0  -2  17   70.15   15.74
  -5   1  16   51.57   10.92
   5  -1 -16   55.97   18.18
   5  -1 -16   52.58   12.60
  -5   0  16    6.27    3.17
   5   0 -16    1.93    1.71
   5   0 -16    3.23    2.27
   8  -2   1    2.08    6.78
   8  -2   1   22.23   16.73
   4 -11  -8    3.17    2.84
  -4  11   8    8.53    4.33
  -4  11   8    3.18    2.61
  -4  10  10   12.69    5.03
   4 -10 -10   15.75    4.48
  -4  10  10   11.75    3.96
   6   5 -11   20.33    5.29
   4  -4  13   38.04   13.58
   4  -4  13   46.43    8.77
   5 -12   1   13.90    5.53
   5 -12   1   10.21    3.68
  -5  12  -1   22.78    4.78
  -3  -5  16   20.18    4.37
   3   5 -16   11.78    3.93
   5  -1  11    0.33    1.63
   5  -1  11    5.46    4.00
   5  -1  11    2.74    3.97
  -4  12  -5   44.91    9.41
   4 -12   5   42.14   11.27
   4 -12   5   41.95    8.57
  -1  12   5    4.84    2.75
  -1  12   5    1.11    2.59
   6  -9   6    5.60    3.46
   6  -9   6    7.22    2.85
   6  -9   6    6.42    2.95
  -1  13  -1    6.45    2.72
  -1  13  -1    3.17    2.49
   1 -13   1   11.60    4.89
   7  -9  -6   53.88    9.40
   7  -9  -6   45.60   10.46
   7  -9  -6   41.32    8.12
   3  10  -9    6.64    2.74
   3  10  -9    3.74    2.19
  -3 -10   9    3.52    1.95
  -2  11 -10    6.06    3.45
   2 -11  10    4.98    2.45
   2 -11  10    3.42    3.21
   3 -13   1   58.72   21.22
  -3  13  -1  142.99   21.37
  -3  13  -1  181.09   24.32
   0  -1  17  114.91   27.33
   0  -1  17  112.84   18.65
   0  -1  17   84.41   12.39
  -2  13   1   11.45    3.34
   2 -13  -1    5.97    2.96
  -2  13   1   13.81    4.04
   7   2   3    3.76    1.93
   7   2   3    6.91    3.82
   5   6   5    4.06    2.04
   5   6   5    3.45    2.76
  -3  13   0    5.24    3.07
  -3  13   0    7.30    2.70
  -4   7 -12   -0.18    2.42
   4  -7  12    3.37    2.49
   4  -7  12    8.33    3.18
   4  -7  12    6.55    3.34
   3   6  10   16.98    5.16
   3   6  10   10.75    4.02
   3   6  10    7.36    2.82
   4   9  -9   37.41    9.01
   4   9  -9   41.26    7.95
   8  -6   0   10.29    4.04
   8  -5   1   34.21    9.92
  -2   7  14    1.75    1.14
  -2   7  14    5.89    2.87
  -2   7  14    2.42    2.40
   7   3 -10   10.05    4.22
   6   2 -14   35.87    7.64
   6   2 -14   20.59    6.16
   6   2 -14   32.54    8.89
   2   1  15   17.15    4.29
   2   1  15   24.33    5.70
   2   1  15   36.23    7.83
   6  -7   8    7.59    3.36
   6  -7   8    6.09    2.64
   6  -7   8    3.97    2.55
   7   1 -12   78.75   17.37
   7   1 -12  127.08   20.87
   7   1 -12  109.42   17.37
   2  10 -11    9.89    5.25
   2  10 -11   10.51    3.18
  -2 -10  11   13.06    6.85
   2  10 -11   10.03    3.92
  -2 -10  11   13.74    6.64
   2  10 -11   21.08    5.03
  -3   2  17    1.10    1.90
  -3   2  17    2.58    2.15
  -3   2  17    0.92    2.08
   3  -2 -17    2.65    1.39
   8  -2  -9   87.76   18.69
   6  -7 -12    3.27    2.67
   6  -7 -12    5.13    2.23
   7   4  -1    1.28    2.22
   7   4  -1    6.92    2.66
  -1  13  -3    7.41    2.42
   1 -13   3    7.02    3.53
  -1  13  -3    7.23    3.39
  -1  13  -3    6.64    3.33
   8  -3  -9    4.02    2.92
   1  12   1   45.21    8.83
   1  12   1   53.80   12.89
   1  12   1   42.27   10.23
  -1 -12  -1   30.56    9.35
   5   7   3   58.71   12.01
   5   7   3   60.08   16.15
   1   4 -17  181.84   33.92
   1   4 -17  112.52   22.30
  -1  -4  17  160.25   31.03
  -1  -4  17  138.09   34.73
   7   0   5    5.91    3.30
  -1   7 -15   34.76    9.20
   1  -7  15   36.71    7.75
   6 -11   1    4.81    2.61
   6 -11   1   10.33    4.21
   6 -11   1    6.62    2.37
   6   6  -9   21.69    6.98
   6  -2   9    7.93    4.32
   6  -2   9    8.61    3.40
  -2   8  13   12.68    4.77
  -2   8  13   16.61    4.85
   5   8  -8    2.50    1.91
   5   8  -8    2.58    2.68
   5   8  -8    2.97    2.32
   7   4  -8    7.67    3.11
  -3  13  -2   12.32    4.66
  -3  13  -2   16.23    5.14
   3 -13   2    3.37    5.64
   4   3  11    6.53    2.76
   4   3  11    3.18    2.40
   4   3  11    0.74    3.46
   1   1  16   -0.44    3.28
   1   1  16    2.89    2.80
   1   1  16    4.11    3.47
   1  11   5   75.64   25.90
   1  11   5  114.00   11.20
  -1 -11  -5   64.62   24.42
   1  11   5   85.98   18.19
   8  -5  -8    1.59    1.97
   8  -5  -8   -0.08    2.38
   0  -6  16    6.66    3.34
   0  -6  16    1.75    1.60
   0   6 -16    5.71    2.82
  -3  12   6   27.10    8.54
  -3  12   6   18.67    5.52
   3   4  12    2.81    1.87
   3   4  12    0.97    1.08
   3   4  12   -1.49    3.23
   7  -2   6   62.71   19.93
  -3   6  15   48.12   14.24
  -3   6  15   51.02   11.02
  -3   6  15   12.68    7.91
   7  -5   6   -1.45    4.12
   7  -5   6    3.66    1.93
   7  -5   6    3.97    2.30
   6   5   3    0.73    2.34
   6   5   3    3.65    3.48
  -3  -3  17   17.11    4.05
  -3  -3  17    6.82    3.20
   3   3 -17   11.24    3.63
  -3  -3  17    2.03    1.62
   1  -5  16   24.64    6.81
  -1   5 -16   15.76    4.74
  -5  11   7   35.01   12.58
   5 -11  -7   39.53   10.93
  -5  11   7   33.68    8.09
   3 -12   7   28.99    8.59
  -3  12  -7    9.42    3.99
   3 -12   7   14.66    5.36
   7  -6 -11   28.54    5.96
   7  -6 -11   12.82    5.76
   8  -7  -3    4.25    3.27
   8  -7  -3   -0.63    2.80
   8  -7  -3    2.23    2.08
  -1  13   0    1.05    2.21
   1 -13   0    3.89    1.91
  -1  13   0    1.08    1.91
  -1 -10  12   37.09    5.81
   1  10 -12   38.03   10.10
  -1 -10  12   28.64   11.19
   0  -3  17   66.27   11.64
   0   3 -17   69.71   13.58
   0  -3  17   44.49   13.62
   8   0  -8    2.54    2.42
   8   0  -8    3.18    2.18
  -3  13   1    6.69    4.07
  -3  13   1    3.31    4.08
  -2  -4  17    6.86    2.76
   2   4 -17    8.09    2.94
   2   4 -17    7.24    3.33
  -2  -4  17   12.81    4.46
   2 -12   8  280.46   32.53
   2 -12   8  234.65   28.16
  -2  12  -8  277.40   29.86
   7  -9   2   42.33   10.46
   7  -9   2    4.19    2.54
   4  -4 -16   23.12    8.21
  -4   4  16   23.68    7.49
  -4   4  16   21.53    9.46
  -4   4  16   26.64    8.70
   6  -5   9   12.18    4.48
   6  -5   9   23.86    5.87
   5   8   0   11.70    4.27
   5   8   0    1.35    1.62
   5   8   0    8.34    4.25
   0  12  -8   64.69   13.25
   0 -12   8   57.25    9.57
   0 -12   8   44.53   14.09
   5  -2 -16   21.69    5.68
   5  -2 -16   18.99    6.90
  -5   2  16    9.32    5.32
   6  -6 -13    2.62    1.24
   6  -6 -13    2.68    1.83
   5 -12  -3    4.07    4.44
  -5  12   3    7.18    3.70
   5 -12  -3    5.90    2.09
  -5  12   3    5.21    2.51
  -1 -11  10   11.46    3.17
   1  11 -10    5.98    3.05
  -1 -11  10    5.08    2.29
   1  11 -10    6.47    2.70
   7  -7 -10    1.09    1.07
   7  -7 -10    0.61    2.65
   7  -7 -10    0.59    1.93
   6   3   6    8.00    3.53
   6   3   6    3.92    1.66
   5   1 -16   15.45    3.98
  -5  -1  16   19.49    4.76
   5   1 -16   11.77    4.31
   1   6  13    2.67    2.03
   1   6  13   16.05    6.87
   1   6  13   15.94    4.37
   1   6  13   16.20    5.13
   4   6   8   28.34    5.84
   4   6   8   23.79    5.33
   4   6   8   27.16    7.44
  -2  13  -4   44.47    8.25
   2 -13   4   37.63    8.55
   2 -13   4   27.79    8.43
   8  -7  -4    3.78    1.59
   8  -7  -4    0.71    2.28
   8  -7  -4    5.28    2.14
   6   2   7   53.98   20.27
   6   2   7  100.43   20.87
  -2  12   6   70.22   14.92
  -2  12   6   68.63   13.35
   6 -11  -4    8.78    3.92
   6 -11  -4    3.87    1.98
   8  -7  -2    6.31    3.21
   8  -7  -2    2.06    1.87
   0   7  13    5.89    3.68
   0   7  13   14.04    5.85
   0   7  13   13.22    4.45
   0   7  13   14.19    4.90
  -1   4  16    1.75    1.66
  -1   4  16    2.03    2.80
  -1   4  16    1.89    1.91
   6  -8 -11   16.15    6.42
   6  -8 -11   13.74    6.78
   2   6 -16    9.90    3.86
   2   6 -16   12.00    3.78
  -2  -6  16   19.34    5.59
  -2  -6  16    5.17    3.00
   5   7 -11   52.84    9.62
   1   7  12    4.07    3.12
   1   7  12    3.94    1.49
   1   7  12    3.13    2.27
   1   7  12    6.51    2.41
  -5   9  11    2.38    2.08
   5  -9 -11    3.77    1.52
  -5   9  11    2.89    2.49
   5 -12   2    6.38    2.62
   5 -12   2    0.91    1.25
  -5  12  -2    4.04    2.85
   5 -12   2    5.15    4.21
   7  -7   5   50.12   14.34
   7  -7   5   13.75    4.58
   7  -7   5   33.31    9.81
   8  -6  -7   10.71    4.13
   8  -6  -7    1.02    2.46
   8  -6  -7    3.82    2.02
   0   3  16    2.36    2.13
   0   3  16   11.84    4.26
   0   3  16    6.59    4.86
  -3   9  12    2.51    2.91
  -3   9  12    4.77    2.48
   8  -1  -9    2.24    2.64
   0   0  17    8.64    3.66
   0   0  17    2.29    1.90
   0   0  17   10.36    3.26
  -2   6  15   34.75   12.22
  -2   6  15   43.36    9.26
  -2   6  15   22.69    9.54
   4  -1  13   -1.09    2.59
   4  -1  13    3.43    1.70
  -4   0  17  289.43   33.99
   4   0 -17  237.55   13.38
  -4   7  14    2.46    3.10
  -4   7  14    5.48    2.59
  -1  13  -4   25.81    6.18
  -1  13  -4   12.48    5.13
   1 -13   4   27.74    7.09
   1 -13   4   32.93    9.53
  -4   8  13    4.63    2.36
  -4   8  13    7.43    2.45
   8  -4  -9   43.63    7.64
   0   6  14    4.18    3.22
   0   6  14    1.63    1.93
   0   6  14   11.33    4.39
   0   6  14    4.76    3.39
   7  -8   4   -0.57    2.77
   7  -8   4    4.49    2.08
   7  -8   4    0.84    1.51
  -2  -9  13   18.99    6.66
   2   9 -13    5.88    2.76
   2   9 -13    4.76    3.06
   2   9 -13    9.04    3.47
   4   9   2   11.55    2.95
   4   9   2   21.99    5.53
   4   9   2   15.01    4.87
   0  12   4   27.97    8.35
   0 -12  -4    8.64    2.98
   0  12   4   27.49    6.75
   4  -5  13   29.49    7.38
   4  -5  13   27.12    6.43
  -3  13  -3    3.38    2.66
   3 -13   3    4.01    3.57
   3 -13   3   -0.38    4.08
  -4  -4  16    3.55    1.29
   4   4 -16    1.91    1.94
   4   4 -16    1.38    1.12
   5   4   8   41.27    9.83
   5   4   8   45.25   13.31
   5   4   8   48.77    7.74
   3  -6  14   52.28   20.07
   3  -6  14   78.95   19.69
  -3   6 -14   43.20   15.24
  -2  13   2   -1.86    3.43
  -2  13   2    3.18    1.87
   2  -6  15    4.66    3.70
   2  -6  15    1.33    1.33
  -2   6 -15    6.05    2.82
  -1  11   8    6.61    2.42
  -1  11   8    9.17    3.48
   3  -9  12    5.34    3.28
   3  -9  12    4.32    2.31
   3  -9  12    1.72    4.68
  -3   9 -12    2.53    2.73
   5  -6  11   31.39    8.89
   5  -6  11   41.30   11.79
  -4  -1  17   43.45   10.68
   4   1 -17   28.16   10.16
   8  -7  -5   21.43    6.09
   8  -7  -5   13.33    4.70
   8  -7  -5   17.73    5.28
   4  -1 -17    6.53    2.14
   4  -1 -17    6.26    2.70
  -4   1  17   12.78    4.91
  -6   1  15    7.40    2.50
   6  -1 -15    3.26    2.06
   6  -1 -15    2.66    1.76
   7  -1 -13  151.94   29.69
   7  -1 -13  152.78   16.36
   5   3   9   32.93   12.07
   5   3   9   22.48    9.10
   5   3   9   45.88   10.13
   0  10   9    3.26    3.56
   0  10   9    0.46    1.94
   8  -1   1    4.50    2.69
   7  -5 -12   10.97    3.37
   7  -5 -12    3.77    2.09
  -1   2  17    3.92    2.67
  -1   2  17   -0.27    3.55
  -1   2  17   -1.50    2.80
   8  -7  -1    3.82    1.50
   6   6   1    2.25    1.89
   6   6   1    7.24    3.34
   4 -11   8    3.92    3.11
  -4  11  -8    5.80    2.48
   4 -11   8    7.12    3.26
   4 -11   8    7.74    2.84
   8  -4   2    1.80    2.11
   8  -4   2    0.82    2.15
   8  -3   2   16.42    5.59
   8  -3   2    2.97    2.57
  -1  13   1    1.38    1.90
  -1  13   1    5.93    2.83
   1 -13  -1    3.75    3.33
   3   7   9   63.37   22.28
   3   7   9   77.61   23.40
   3   7   9  109.67   19.29
   1  12  -7   -0.15    2.17
  -1 -12   7    4.79    2.12
  -1 -12   7    3.69    2.10
   1  12  -7    1.44    1.34
   6 -11   2   56.93   17.28
   6 -11   2   35.27    6.76
   6 -11   2   55.40   13.70
  -3  13   2    8.01    3.05
  -3  13   2    7.84    4.52
   0   8  12    9.25    3.72
   0   8  12    6.77    3.31
   0   8  12    7.60    3.22
   7   3   2   10.19    4.78
   7   3   2   21.35    9.10
   0  11   7    3.49    2.35
   0  11   7    1.52    2.12
   1   5  14    7.39    3.19
   1   5  14   -0.17    2.71
   1   5  14    3.95    2.01
   1   5  14    5.38    2.32
   8   1  -7    4.80    2.92
  -2   9  12    5.30    2.64
  -2   9  12    7.43    3.56
   2  -9  13   39.04   10.76
   2  -9  13   27.24    8.86
  -2   9 -13   34.84   13.04
   5   5 -14   37.71   18.08
   5   5 -14  139.04   26.00
   5   5 -14  130.75   26.69
   5  -5 -15    2.51    1.27
   5  -5 -15    1.47    1.49
   5  -5 -15    2.65    2.41
   6   4   5    2.39    2.87
   6   4   5    4.36    2.60
  -1  10  10   10.36    3.46
  -1  10  10   13.04    4.89
   6  -2 -15    2.01    1.66
   6  -2 -15    0.92    1.75
   8  -6   1   16.73    5.75
  -6   0  15   19.80    6.85
   6   0 -15   21.18    7.59
   6  -1   9   16.81    6.19
   5  -9   9   70.98   15.06
   5  -9   9   66.67   18.27
  -3  10 -11    2.04    3.37
   3 -10  11    5.62    2.95
   3 -10  11    6.57    3.70
   3 -10  11   16.18    6.72
   6   1   8    1.38    2.47
   6   1   8   23.52    7.56
   3   1  14  136.05   25.91
   3   1  14  179.03   12.37
   3  10   3   57.19    7.44
   3  10   3   54.58   12.15
   3  10   3   63.46   13.42
   7  -9  -7   17.07    5.37
   7  -9  -7   24.26    9.42
   7  -9  -7   27.10    8.30
   3   9 -12   10.49    4.12
   3   9 -12    5.46    2.74
   3   9 -12    3.34    1.53
   7  -8  -9   20.70    8.48
   7  -8  -9   34.24   10.48
   7  -8  -9   38.01   11.68
   7  -3 -13    6.42    2.06
   7  -3 -13   16.55    4.97
   6 -10   5  169.07   26.62
   6 -10   5  211.53   29.73
   7   4   0    2.15    2.20
   7   4   0    1.96    2.16
   5 -12  -4   12.23    5.89
  -5  12   4    1.85    1.84
  -5  12   4   11.38    2.88
   5 -12  -4    9.72    4.25
   4   8 -12   54.60   14.08
   4   8 -12   71.30    7.98
   5 -11   6    2.30    1.65
   5 -11   6    2.37    2.65
   0   4 -17   22.64    6.85
   0   4 -17    5.14    2.13
   0  -4  17    4.30    2.12
   0  -4  17   28.64    8.53
  -4   6  15    7.10    2.39
  -4   6  15    2.32    3.09
   3  11  -4    2.33    3.21
   3  11  -4    0.48    2.33
  -3 -11   4    2.01    1.58
   3  11  -4    4.58    1.95
   7  -1   6    8.22    3.52
  -3 -11   3   12.39    4.78
   3  11  -3   13.59    6.60
   3  11  -3    7.30    4.32
   3  11  -3   11.49    4.06
   2  11   3   64.68    7.86
   2  11   3   89.46   14.76
   5   0  11    8.19    3.12
   5   0  11    2.05    1.34
   7  -6   6   71.05   18.63
   7  -6   6   29.53   11.09
   7  -6   6   79.61   18.71
   1  12   2  165.04   22.53
  -1 -12  -2  205.44   33.59
   1  12   2  144.61   29.84
  -2 -11   9   -0.94    2.82
   2  11  -9    2.38    2.86
   2  11  -9    1.53    1.33
   1   8  11   14.40    4.54
   1   8  11   10.88    3.56
   1   8  11   18.15    6.99
   1   8  11    9.75    3.37
  -3   8 -13    3.49    3.06
   3  -8  13   12.48    9.23
   3  -8  13    4.70    2.46
   3  -8  13    2.33    2.18
   7 -10  -2    9.67    2.89
   7 -10  -2   13.09    4.28
   6 -10  -8    0.73    1.53
   6 -10  -8    5.12    2.21
   4 -12  -6    1.29    1.68
  -4  12   6    4.88    2.87
  -4  12   6    3.63    3.82
   5   5   7    6.58    2.78
   5   5   7    1.39    1.14
   6   7  -4    5.91    2.49
   6   7  -4    6.36    2.26
   7   4  -9   88.31   12.93
  -4   9  12    2.19    1.87
  -4   9  12    4.07    1.79
  -2  13  -5   44.15    8.60
   2 -13   5   49.57   10.37
   2 -13   5   45.32   12.30
   6 -11  -5   24.51    7.41
   6 -11  -5   15.93    5.58
   6   7  -5   72.18   22.99
   6   7  -5  105.70   23.21
   5  -8  10   59.88   17.64
   5  -8  10   60.90   14.81
   1 -13   5    6.49    4.14
  -1  13  -5    2.89    2.42
   1 -13   5    1.95    2.87
   6  -5 -14    0.17    1.17
   6  -5 -14    0.50    1.23
   6  -5 -14   -0.00    2.76
   5 -12   3   10.58    3.82
   5 -12   3    6.38    3.11
  -5  12  -3   14.78    5.66
   5 -12   3   14.71    5.68
   0 -11  11  202.69   34.77
   0  11 -11  192.24   32.07
   0 -11  11  203.62   19.51
   3   3  13    2.38    1.96
   3   3  13    3.09    1.93
   5   6 -13   60.82   14.33
   5   6 -13   34.77   12.41
   5  -3 -16   49.21   10.36
   5  -3 -16   26.48    8.32
   1 -11  11    5.35    3.41
  -1  11 -11    3.26    3.00
   1 -11  11    2.95    2.72
   1 -11  11    0.23    2.62
  -3  11   9    4.94    3.48
   3 -11  -9    4.36    2.91
  -3  11   9   12.34    4.89
   7   0 -13  191.36   36.45
   7   0 -13  238.62   15.49
   7   0 -13  238.05   24.04
   2 -10  12    2.82    2.28
   2 -10  12    5.81    3.26
  -2  10 -12    8.50    3.11
   2 -10  12   10.60    5.14
   8  -5   2    8.95    2.69
   8  -5   2   29.07   11.61
   5   2 -16   56.87   19.03
  -5  -2  16   83.75   12.30
   5   2 -16   74.88   16.41
   5   2 -16   69.88   14.90
   4   8   5    1.58    1.99
   4   8   5    2.87    2.47
   8  -2   2    8.73    2.98
   8  -2   2    5.76    6.78
   2   6  12   65.02   14.72
   2   6  12   44.51   13.79
   6  -6   9    9.43    2.48
   6  -6   9    8.18    2.97
   6  -6   9   10.86    4.60
   5   8  -9   65.82   12.27
   5   8  -9   66.20   11.65
   7 -10  -3   17.93    5.84
   7 -10  -3   15.88    5.16
   7 -10  -1   53.16   12.86
   7 -10  -1   47.53   11.54
   6   4 -13   11.60    2.78
   6   4 -13    8.24    3.10
   4 -12   6   40.93    8.76
   4 -12   6   34.60    9.75
  -4  12  -6   37.67    8.14
   2  -8  14    2.68    3.50
   2  -8  14    3.45    2.69
  -2   8 -14    1.53    2.04
   8  -7  -6   10.46    4.12
   8  -7  -6    8.32    3.27
   8  -7  -6   14.88    5.42
   4  10  -4    3.12    2.66
   4  10  -4    6.12    3.31
  -4 -10   4    3.80    2.14
   4  10  -4    2.98    1.90
  -2   3  17   -0.44    3.17
  -2   3  17    0.84    1.44
  -2   3  17    0.17    2.87
   3  11  -5   41.18   10.44
   3  11  -5   34.42   10.52
  -3 -11   5   40.78    9.92
   3  11  -5   22.45    8.64
   8   0  -9    0.65    1.08
   8   0  -9    2.41    2.66
   3 -13   4    3.64    2.06
   3 -13   4    6.19    2.33
  -3  13  -4    5.62    2.67
   4   2  12    6.79    2.23
   4   2  12    2.11    1.84
   4   2  12    3.78    1.89
   0   5  15    0.05    2.12
   0   5  15   51.14   15.94
   2   9   8    5.61    2.16
   2   9   8    4.43    2.50
   2   9   8    7.26    2.28
   5   4 -15   58.37   13.39
   5   4 -15   74.71   16.97
   5   4 -15   77.88   14.31
  -3   3  17    2.41    1.66
  -3   3  17    2.64    2.15
   3  -3 -17    1.99    1.75
  -3   3  17    3.97    2.15
  -3   5  16    1.20    1.68
  -3   5  16    5.72    2.73
  -3   5  16    0.01    4.09
  -3 -11   2    8.91    2.73
   3  11  -2    6.08    2.42
   3  11  -2    2.16    1.94
   3  11  -2    5.69    3.42
   6  -9 -10    3.02    2.11
   6  -9 -10    8.79    3.05
   4   2 -17    1.48    1.61
  -4  -2  17   -1.78    2.94
  -4   2  17   12.81    5.17
  -4   2  17   10.93    3.27
   4  -2 -17   18.70    7.69
  -4   2  17   28.67   14.27
   4  -2 -17   12.88    5.04
   2  10   6    4.96    2.53
   2  10   6    4.96    3.74
   2  10   6    4.39    2.10
   6   7  -3   17.73    6.14
   6   7  -3   29.51    8.56
   8  -7   0   94.11    9.34
   4  10  -3    4.33    2.61
   4  10  -3    1.37    1.26
   4  10  -3    2.86    1.86
   5   2  10    3.45    1.63
   5   2  10    5.08    2.58
   5   2  10    9.36    3.96
   6   6 -10   93.94   20.33
   8  -2 -10   24.10   10.39
   0  -9  14    5.31    1.92
   0  -9  14   -0.32    2.03
   0   9 -14    2.13    2.69
   0   1  17    1.06    2.21
   0   1  17    8.49    4.20
   0   1  17    1.39    1.47
   4   9 -10   25.34    8.51
   4   9 -10   20.77    5.75
   6   7  -6    6.29    3.33
   6   7  -6   -0.07    2.58
   0  13  -2    8.38    3.04
   0  13  -2    5.98    2.19
   0  13  -2    8.49    3.85
   0 -13   2    9.67    3.69
   5   8   1   -1.50    2.85
   5   8   1    0.87    2.52
   8  -5  -9   21.60    7.18
   8  -5  -9   14.89    5.95
   1 -12   9    9.43    2.80
  -1  12  -9    3.89    3.09
   1 -12   9    4.80    2.65
  -1   7  14   41.90   10.18
  -1   7  14   25.35    9.17
  -1   7  14   33.84   13.86
   7  -9   3    6.34    3.35
   7  -9   3    6.98    3.09
  -4 -10   5    1.42    1.81
   4  10  -5    4.83    2.37
   4  10  -5   13.24    9.63
   4  10  -5    9.35    3.89
   7   2 -12   44.40   10.17
   7   2 -12   55.01   10.46
   7   2 -12   28.37    9.06
  -3 -10  10   13.62    4.93
   3  10 -10   12.78    4.02
   3  10 -10   11.11    3.55
   8  -3 -10    2.05    2.23
   0 -13   3   95.50   23.26
   0  13  -3   84.57   13.28
   0  13  -3   69.40   14.15
   2   5  13    0.16    1.69
   2   5  13    4.45    2.28
   2   5  13    2.74    2.11
   2   5  13    4.75    3.14
   8  -6  -8   40.25    9.75
   8  -6  -8   15.31    7.42
   8  -6  -8   28.84    9.77
   0   8 -15    1.83    2.14
   0  -8  15    1.48    1.40
   5 -10   8  100.68   21.85
   5 -10   8   80.07   15.52
   7   3 -11    4.16    2.45
   7   3 -11    8.75    3.11
   1   5 -17   22.02    6.70
  -1  -5  17    5.29    2.42
   1   5 -17   32.46    9.45
  -1  -5  17   29.58    8.77
  -2   5  16    3.92    3.42
  -2   5  16   12.89    5.48
  -2   5  16    6.11    3.24
  -1  -8  15    1.56    1.23
   1   8 -15    3.42    2.67
  -1  -8  15    1.42    2.83
   4   0  13    0.48    1.99
   4   0  13    1.70    2.09
   4   0  13    1.09    1.78
  -2  13   3    2.99    2.42
  -2  13   3   -1.08    3.33
  -4  13   0  161.28   23.92
  -4  13   0  133.37   17.49
   6  -3 -15    2.17    2.14
   6  -3 -15    1.60    1.44
   4  -9  11    3.72    2.33
   4  -9  11    9.54    4.10
  -4   9 -11    3.29    2.37
   4  -9  11    0.37    2.10
  -3  -4  17   17.98    5.52
   3   4 -17   41.43    8.11
  -3  -4  17   17.40    6.33
  -3  -4  17   52.35    8.53
   2   7  11    4.94    2.25
   2   7  11    2.05    1.45
  -2  11   9   32.49   10.36
   2 -11  -9   22.20    5.86
  -2  11   9   33.99    8.35
  -1  13   2   83.81   14.47
   1 -13  -2   26.76   10.07
  -1  13   2   70.73   13.24
  -3  13   3    5.75    2.23
  -3  13   3    8.10    2.52
   4   7   7    0.17    2.97
   4   7   7   -0.94    3.05
   4   7   7    4.48    2.66
  -6  -1  15   58.07   11.31
   6   1 -15   62.76   13.02
   6   1 -15   73.51   18.17
   6   1 -15   56.90   14.21
   8   1  -8   14.60    5.17
   6   3 -14   28.38   10.49
   6   3 -14   25.69    9.64
   6   3 -14   50.91    7.71
   0 -13   1   53.50   12.08
   0  13  -1   55.34   10.29
   0  13  -1   80.31   15.12
   7 -10  -4   -0.82    2.59
   7 -10  -4    3.93    2.61
  -1   8  13    2.33    2.09
  -1   8  13    5.57    4.68
  -1   8  13    7.09    2.75
   7 -10   0   25.22    7.06
   7 -10   0   25.37    7.25
   1  10   8    3.41    2.98
   1  10   8    4.64    2.66
   1  10   8    7.19    4.56
   1  10   8    7.05    3.52
  -4  13  -1   35.65    8.68
  -4  13  -1   34.39    8.91
   2  -2  16    0.76    1.70
   2  -2  16    1.39    1.13
   2  -2  16   -0.89    3.39
  -1  12   6   28.65    8.17
  -1  12   6   26.67    8.14
   7   5  -5   10.91    2.86
   7   5  -5   21.67    6.86
   2   2  15    7.75    2.82
   2   2  15    4.93    2.98
   2   2  15    5.81    3.81
   2   2  15   13.16    8.05
   2  -3  16    4.16    2.73
   2  -3  16    1.24    2.47
   1   2  16   -0.20    1.75
   1   2  16    5.46    3.61
   1   2  16    2.84    3.15
  -4  13   1    4.54    1.96
  -4  13   1   -0.09    3.04
   7   5  -4   27.12   10.66
   4  -6  13   40.57    9.60
   4  -6  13   55.78   16.56
   6   5 -12    5.55    3.64
   6   5 -12   11.32    2.78
  -3  10  11    3.41    2.46
  -3  10  11    7.57    3.41
   6 -11   3   15.44    6.17
   6 -11   3   15.74    4.87
   4  10  -2    3.37    2.08
   4  10  -2    3.86    3.11
   4  10  -2    2.74    1.78
   4  10  -2    5.08    2.69
   1   9 -14   33.62    9.75
  -1  -9  14   26.63    9.30
   1  -6  16    6.01    2.83
  -1   6 -16    8.53    3.34
   8  -1 -10    1.26    1.57
   0  13  -4    4.59    2.02
   0  13  -4    2.21    1.22
   0 -13   4    2.82    3.36
   0 -13   4    1.25    4.02
   3  11  -6   21.03    6.22
   3  11  -6   14.62    4.73
  -3 -11   6   15.93    7.79
  -3  -7  15   12.36    5.30
   3   7 -15   16.20    6.02
  -5  10  10    1.57    1.95
   5 -10 -10    9.26    2.85
  -5  10  10    2.98    2.03
   3   9   6    7.56    3.08
   3   9   6    6.77    2.79
   7   1   5    2.34    2.15
   3  11  -1   73.98   13.69
   3  11  -1  104.41   21.23
   3  11  -1   66.30   19.53
  -3 -11   1   91.04   21.29
  -4 -10   6    3.65    1.52
   4  10  -6    9.29    3.39
   4  10  -6    3.90    2.66
   4  10  -6    3.82    2.73
   7  -4 -13   -0.09    2.18
   0   9  11    3.82    2.51
   0   9  11    1.43    1.68
   0   9  11    1.17    1.71
   7   2   4   62.78   15.01
   7   2   4   13.95    9.19
   6   7  -2  171.77   22.32
   6   7  -2   95.47    8.47
   6   7  -2   33.96   18.32
   4 -10  10    7.07    2.95
  -4  10 -10    1.64    1.82
   4 -10  10    9.91    3.54
   4 -10  10    3.78    2.90
  -1   6  15    1.35    1.95
  -1   6  15    2.40    1.72
  -1   6  15    5.46    2.37
   0  12  -9   -0.18    2.35
   0 -12   9    5.70    3.26
   0 -12   9    2.25    2.37
   0  12  -9    4.11    3.56
   6  -8   8   16.81    5.87
   6  -8   8    5.56    4.97
   6  -8   8   24.78    8.66
  -5  11   8    1.94    1.42
   5 -11  -8    0.97    1.19
  -5  11   8    3.32    3.15
  -2  -5  17  247.90   17.96
  -2  -5  17  225.26   35.12
   2   5 -17  232.47   35.93
   2   5 -17  175.89   40.97
   7   5  -6   22.40    7.30
   7   5  -6   34.53   12.46
   5   7   4  477.52   15.24
   5   7   4  474.24   24.53
  -3  12   7   16.21    6.75
  -3  12   7   11.54    3.61
   6   7  -7    8.85    3.26
   6   7  -7   16.40    6.07
  -4  11   9    1.69    1.79
  -4  11   9    4.21    2.33
   4 -11  -9   12.30    3.51
   6  -9   7    7.25    3.40
   6  -9   7   -0.07    3.22
   6  -9   7    0.75    2.79
  -2 -12   3   22.56    7.56
   2  12  -3   13.23    4.59
   1   4  15    2.70    1.27
   1   4  15   -2.32    2.94
   1   4  15    2.40    1.71
   1   4  15    1.77    2.68
  -3  12  -8    0.37    0.95
   3 -12   8    6.04    3.06
   3 -12   8    3.31    2.34
   4 -13   2    1.17    2.23
  -4  13  -2    3.58    2.49
   4 -13   2    4.18    2.39
   3  -3  15    5.14    1.96
   3  -3  15    1.46    1.75
   3  -3  15    3.34    2.44
   7   5  -3   20.03    8.03
   8  -4 -10    5.60    2.82
  -1 -12   8   53.58   17.69
  -1 -12   8   19.20    7.36
   1  12  -8   35.09    9.67
   1  12  -8   27.01    9.22
   1  12  -8   17.41    5.39
   5 -12  -5   23.46    8.98
  -5  12   5   22.80    9.81
  -5  12   5   25.61    7.71
   8   0   1    4.52    2.11
   2  12  -4   29.74    8.56
  -2 -12   4   34.29    9.87
   2  -1  16    6.50    2.56
   2  -1  16    2.99    1.69
   2  -1  16    6.27    2.16
   4  -8  12  114.12   28.24
  -4   8 -12   23.86    8.31
   4  -8  12   25.94   16.48
   4  -8  12   88.23   17.45
   0 -13   0    6.76    2.96
   0  13   0    8.01    3.90
   0  13   0    7.03    2.80
   3 -11  10   -0.35    2.73
  -3  11 -10    1.16    2.07
   3 -11  10    1.84    3.06
   3 -11  10    4.54    3.35
   3  -2  15    2.70    2.74
   3  -2  15    3.74    2.40
   6   5   4   20.29    6.81
   6   5   4   26.69   11.21
   2   1 -18    4.06    2.53
  -2  -1  18   28.45    9.12
   4   6 -15    1.20    2.05
   4   6 -15    2.73    2.69
   8  -6   2    1.17    1.93
   8  -6   2    0.83    1.23
  -1  -7  16    2.28    3.66
   1   7 -16   26.96    8.00
  -1  -7  16   16.78    5.54
   0 -10  13    4.52    3.13
   0 -10  13    0.90    2.63
   0  10 -13    2.85    3.15
  -4  13   2   35.83    7.59
  -4  13   2   39.09    8.75
   4 -13  -2   14.48    8.90
   4   9   3  234.63   37.66
   4   9   3  297.31   20.53
   1 -13   6    2.10    3.74
  -1  13  -6    1.47    2.11
   1 -13   6    6.69    2.93
   2  12  -2    0.57    1.58
  -2 -12   2    3.58    2.30
   8  -1   2    3.53    2.77
   7  -4   7    4.69    2.60
   7  -4   7    4.26    2.79
   7  -4   7    1.16    2.01
   2 -12   9    4.43    2.11
  -2  12  -9    3.09    2.38
   2 -12   9    6.61    2.97
   1  11   6    1.18    1.04
   1  11   6    1.45    1.61
  -1 -11  -6    3.66    3.73
   8  -7  -7    3.07    1.70
   8  -7  -7   -0.47    2.30
   8  -7  -7    0.32    1.87
   7   1 -13    3.55    2.65
   7   1 -13    3.42    2.46
   7   1 -13    2.00    1.89
  -7  -1  13    3.47    1.82
   7  -3   7    9.46    5.20
   5  -7  11   49.34   12.63
   5  -7  11   61.63   18.78
   3   8 -14   11.37    3.97
   2  10 -12    1.58    1.21
   2  10 -12   -0.01    1.76
   1  -9  14    2.25    2.97
   1  -9  14    5.49    3.03
  -1   9 -14    3.73    1.87
   2  -4  16   13.29    5.75
  -2   4 -16    6.05    2.88
   6   6   2    2.74    2.64
   6   6   2    5.23    4.36
  -5  12  -4   12.34    3.64
   5 -12   4   12.69    4.78
   5 -12   4    4.90    1.97
   5 -12   4    4.65    3.20
   6 -11  -6    7.43    2.17
   6 -11  -6    3.67    2.63
   3   8   8    9.62    2.40
   3   8   8    4.68    2.48
   3   8   8    5.46    2.66
  -3  -6  16   -2.02    3.23
   3   6 -16   -0.16    2.52
  -2  10  11   36.63    7.75
  -2  10  11   34.17   15.20
   8  -8  -3   66.34   13.43
   8  -8  -3   57.92   14.85
   8  -8  -3   67.92   12.74
   6   0   9   15.15    7.09
   6   0   9    1.21    2.20
   0  12   5    1.69    2.55
   0  12   5    4.24    2.34
  -2  13  -6   55.51   11.65
   2 -13   6   49.31   10.11
   2 -13   6   39.35   10.39
  -2  12   7   21.99    6.38
  -2  12   7   25.22    7.25
  -4   5  16    2.17    2.71
  -4   5  16    1.71    1.57
   7 -10  -5    3.81    3.16
   7 -10  -5    8.42    2.34
   7  -8   5   30.39   11.98
   7  -8   5   40.82   11.38
   7  -8   5    5.74    3.00
   7 -10   1    1.82    1.71
   7 -10   1    1.28    2.96
   7 -10   1    1.70    2.87
  -3  13  -5   -0.67    3.07
   3 -13   5    1.61    2.09
   3 -13   5    2.39    2.94
   7   4   1    4.17    1.82
   7   4   1    3.51    2.20
   5   6   6   26.87    9.22
   5   6   6   19.15    5.22
   5  -3  12    3.23    2.42
   5  -3  12    0.62    2.11
  -2   0  18   33.13    8.64
  -2   0  18   27.14   12.29
  -2   0  18   24.89    7.85
   8  -7   1   48.26   11.81
   8  -4   3    6.11    4.01
   8  -4   3   33.99   10.17
   4   7 -14   11.58    3.24
   4   7 -14   14.92    5.60
   5   7 -12   23.14    7.48
   7  -7 -11   29.15    8.68
   7  -7 -11   11.01    5.58
   7  -7 -11   24.80    7.81
   8  -8  -2    6.15    4.42
   8  -8  -2    9.83    3.28
   1  11 -11    4.72    2.49
  -1 -11  11    9.03    2.84
  -1 -11  11    6.25    3.59
   1  11 -11    8.09    2.38
   0  -5  17    2.89    2.14
   0   5 -17    3.30    2.56
   0  -5  17    5.96    1.68
   0   5 -17    4.05    2.04
   7  -9  -8    0.57    1.06
   7  -9  -8    2.59    2.66
   7  -9  -8    1.97    1.64
   1  -2  17   14.68    5.83
   1  -2  17    6.37    3.45
   1  -2  17    3.69    2.78
  -2  11 -11    2.40    2.12
   2 -11  11    6.70    2.66
   2 -11  11    3.68    3.50
   2 -11  11    7.35    3.21
   8  -3   3   30.76   15.65
   3  -4  15   11.11    6.68
   3  -4  15   15.03    4.71
   3  -4  15    8.77    3.38
   4  10  -1    3.14    3.28
   4  10  -1    2.42    3.34
   4  10  -1    2.59    2.13
   4  10  -1    3.35    3.48
  -2  -2  18    2.11    2.53
  -2  -2  18    1.65    2.06
   2   2 -18   -0.05    2.34
  -2  -2  18    2.23    2.00
   0 -13   5    5.44    2.25
   0  13  -5    8.12    4.10
   0  13  -5    4.98    1.78
   0 -13   5    8.09    3.62
   3  -7  14   -0.06    2.55
  -3   7 -14    1.75    1.56
   3  -7  14    2.85    3.49
   2   4  14    2.28    2.16
   2   4  14    6.44    3.62
   2   4  14    3.84    3.66
   2   4  14    7.91    4.05
   8  -8  -4    3.13    1.88
   8  -8  -4   -0.48    2.41
   8  -8  -4    1.35    1.53
   7   5  -7   34.92   13.10
   7   5  -7   57.12    6.67
   1  12   3    3.10    1.81
   1  12   3    2.81    2.57
  -1 -12  -3    4.40    2.42
   2  12  -5   64.46   12.64
  -2 -12   5   60.87   15.66
   0  -7  16   -1.13    3.44
   0   7 -16    1.09    2.15
   5  -4  12   65.30   17.33
   5  -4  12   55.37   16.03
  -4  10  11    5.72    3.07
  -4  10  11    3.67    2.18
   4 -10 -11    2.07    1.70
   7   0   6    2.70    2.54
   7   4 -10   94.98   18.48
   7  -6 -12    2.01    1.70
   7  -6 -12    1.08    1.82
   1   9  10   11.34    4.20
   1   9  10    4.74    2.84
   1   9  10    8.49    2.35
   5  -8 -13   25.05   11.92
  -1   9  12    4.32    3.23
  -1   9  12   -3.28    3.12
  -1   3  17   -0.18    2.68
  -1   3  17    6.07    1.91
  -1   3  17    5.76    3.34
   7  -7   6   -0.31    2.43
   7  -7   6    2.13    2.25
   7  -7   6    2.75    1.69
   5  -7 -14    9.77    3.51
  -4  -3  17    6.03    3.02
   4   3 -17    3.19    2.39
  -4   3  17    2.37    2.25
   4  -3 -17    4.30    2.21
  -4   3  17    0.09    1.88
  -4   3  17    2.18    1.03
   7   3   3   11.72    6.83
   7   3   3    3.88    2.84
  -4 -10   7   12.49    3.73
   4  10  -7   10.85    4.14
   4  10  -7   11.42    5.11
   2  -7  15    1.91    1.33
   2  -7  15   21.77    8.19
  -2   7 -15    6.33    2.94
   5  -4 -16    2.36    1.73
   5  -4 -16   -0.31    1.95
   5  -4 -16    1.21    1.34
   1  -3  17    5.83    2.87
   1  -3  17   21.45    7.13
   1  -3  17   26.52    8.86
   7   5  -2   68.60   19.31
   7  -5   7   56.87   20.09
   7  -5   7   87.29   15.02
   7  -5   7   88.85   26.15
   2   8  10    2.09    2.05
   2   8  10    3.04    2.15
   2   8  10    3.57    2.31
  -3 -11   7    7.26    2.85
   3  11  -7    2.48    1.83
   3  11  -7    3.04    1.97
  -2 -12   1    3.05    1.85
   2  12  -1    4.23    3.22
   5   3 -16   63.22   19.50
  -5  -3  16   93.74   19.43
   5   3 -16   69.49   19.65
   5   3 -16   84.50   19.77
   1 -10  13   16.91    7.99
   1 -10  13   21.37    6.38
  -1  10 -13    9.99    3.64
   4 -13   3   75.23   12.64
   4 -13   3   16.89    8.35
  -4  13  -3   64.57   10.06
   3  11   0    3.46    2.19
   3  11   0    0.00    3.22
   3  11   0    2.45    1.65
   3  11   0    1.01    2.37
   5   8 -10    2.59    1.83
   5   8 -10    1.47    3.09
   1  -1  17    6.80    2.34
   1  -1  17   15.58    6.34
   1  -1  17   18.48    7.33
   6   7  -1   20.74    7.12
   6   7  -1   39.74   13.09
   1  -8  15  110.37   25.41
  -1   8 -15   93.82   24.42
  -1  -1  18    0.85    1.86
  -1  -1  18   -0.23    2.28
  -1  -1  18    2.03    3.15
   8   0 -10   29.60    8.59
   8   0 -10   23.75    7.16
   5  -2  12    8.36    3.30
   5  -2  12   20.09    7.24
   8   1  -9   28.97    8.89
   3  -1  15    5.06    2.87
   3  -1  15    1.50    1.30
   6  -7   9   32.01   11.47
   6  -7   9   43.18   11.86
   6  -7   9   37.57    5.74
  -3  13   4   13.45    5.24
  -3  13   4    9.47    4.13
  -1  13   3   47.37   11.81
  -1  13   3   44.10   10.38
   7  -2   7   60.16   21.04
   8  -8  -1    1.44    1.63
   6  -7 -13   15.74    6.35
   6  -7 -13   20.67    9.75
   6  -4 -15   49.13   13.31
   6  -4 -15   52.10   16.38
   4   5 -16    1.44    2.00
   4   5 -16   -0.02    2.51
  -4  -5  16    0.70    1.84
  -1  -2  18   10.25    5.52
  -1  -2  18    5.01    2.95
  -1  -2  18   14.60    5.83
   8  -5   3    1.53    1.94
   8  -5   3    4.17    2.92
   0   4  16   71.28   23.94
   0   4  16   71.10   19.65
   0   4  16   78.46   26.26
   2  11   4    7.27    4.23
   2  11   4    5.48    2.53
   3  10   4   45.58   11.60
   3  10   4   41.75   12.58
   3  10   4   54.36   10.64
   6   7  -8    4.29    2.55
   5   1  11   -0.53    3.08
   5   1  11    2.23    1.97
  -3  -1  18    2.24    2.29
  -3  -1  18    3.35    2.30
   3   1 -18    4.77    2.41
  -3  -1  18    2.25    2.28
   2  11 -10    1.69    2.39
  -2 -11  10    2.00    1.66
   2  11 -10    2.83    1.85
  -3   0  18  233.79   40.57
   3   0 -18   75.78   30.88
  -3   0  18  153.95   30.20
  -3   0  18  159.04   33.95
  -2  13   4   81.25   17.60
  -2  13   4   75.56   19.59
  -2  -8  15    9.14    3.22
   2   8 -15   21.43    8.49
  -2  -8  15   14.84    5.32
   2   8 -15   15.00    5.11
  -6  -2  15   13.44    5.01
   6   2 -15    8.56    2.67
   6   2 -15    9.77    4.50
   6   2 -15    6.47    2.40
   4 -12  -7    2.06    1.66
  -4  12   7    4.83    2.67
  -4  12   7    2.54    2.98
   0 -13  -1    0.62    2.26
   0  13   1    7.14    2.61
   0  13   1    4.88    1.98
   5   9  -4    1.71    1.49
  -5  -9   4   -0.58    2.41
   5   9  -4    3.43    2.58
   5   9  -4    4.43    2.93
   6  -3  10   21.32   10.42
   6  -3  10   10.32    5.04
   4 -13  -3    4.94    2.17
  -4  13   3    3.87    2.74
  -4  13   3    6.14    2.13
   8  -8  -5    6.25    2.45
   8  -8  -5    4.42    2.06
   8  -8  -5    4.26    1.83
   6 -10   6    1.17    1.81
   6 -10   6    3.48    2.67
   6 -10   6    5.24    3.32
   6  -4  10   13.91    5.80
   6  -4  10    9.00    2.91
   4   5  10   72.52   20.20
   4   5  10   84.83   20.84
   4   5  10   52.79   19.07
  -1 -10  13   -0.31    1.89
   1  10 -13    2.67    2.06
  -1 -10  13    3.52    1.62
   6  -8 -12    4.04    1.61
   6  -8 -12   -0.42    2.41
   7  -8 -10    1.40    0.99
   7  -8 -10    0.31    1.10
   7  -8 -10   -1.62    2.29
   8  -6  -9   20.09    7.13
   8  -6  -9   14.03    6.19
   3   2  14   -0.15    1.41
   3   2  14    3.73    1.70
   5   9  -5    7.18    3.63
   5   9  -5    2.08    2.23
   5   9  -5    3.77    2.70
  -5  -9   5    3.93    2.52
   5   8   2   25.72    6.68
   5   8   2   27.45    9.37
   0   2  17   11.05    4.86
   0   2  17    9.32    3.62
   0   2  17   13.04    5.61
   8  -2   3    7.17    3.87
   8  -2   3    5.04    2.22
   5 -11   7   32.80   12.05
   7  -9   4   16.51    6.76
   7  -9   4    3.73    2.31
   6   3   7   32.58    7.68
   6   3   7   18.68   10.04
   6 -10  -9   54.67   12.52
   2   0  16    0.70    2.21
   2   0  16    5.80    2.59
   2   0  16    4.62    1.74
  -1   5  16    1.81    2.25
  -1   5  16   -0.19    2.70
  -1   5  16    2.22    1.46
  -1   5  16    1.80    1.34
   4 -12   7    4.65    2.79
   4 -12   7    4.76    2.77
   4 -12   7   -0.89    3.11
  -4  12  -7    0.72    1.45
  -2   1  18    4.24    3.11
  -2   1  18    3.12    1.62
  -2   1  18   -0.20    1.35
   2  -1 -18    3.18    1.60
   4   4  11   20.26    8.03
   4   4  11   19.35    8.56
   4   4  11   16.40    5.62
   6 -11   4   20.00    8.61
   6 -11   4   25.35    9.45
   6 -11   4    5.85    2.08
  -4  11  -9    3.17    2.62
   4 -11   9    2.98    2.66
   4 -11   9    8.46    3.13
   4 -11   9    1.44    1.48
   5   9  -3    3.61    2.21
   5   9  -3    1.65    1.98
   5   9  -3    1.90    1.87
   5   9  -3    1.89    1.33
   5  -5  12    0.90    3.41
   5  -5  12    7.95    3.09
   2  12  -6   54.87   14.73
   2  12  -6   61.38   15.72
  -2 -12   6   59.49   18.69
   8  -5 -10   53.06   14.22
  -2  -7  16    6.70    3.18
   2   7 -16   27.95    8.52
   2   7 -16   11.35    5.64
  -2  -7  16   18.53    7.27
   6   6 -11   -0.57    2.81
  -1   0  18   10.13    4.10
  -1   0  18    2.67    1.43
  -1   0  18   11.25    4.76
  -5   9  12    2.03    2.29
   5  -9 -12    2.54    1.36
  -5   9  12    3.56    2.28
  -2  -3  18    5.48    2.51
  -2  -3  18    4.37    1.65
  -2  -3  18    4.69    2.45
   2   3 -18    3.22    2.34
   8  -2 -11   85.05   22.46
  -3   8  14    2.19    1.99
  -3   8  14    2.17    2.39
  -3   4  17    4.43    2.42
  -3   4  17   20.54   10.34
  -3   4  17   16.90    7.54
   5  -6 -15    2.32    2.11
   4   1  13   17.42    7.32
   4   1  13    2.76    1.68
   4   1  13    1.83    1.54
   7   5  -8    1.43    2.67
   6   2   8    5.09    7.19
   6   2   8   93.86   25.85
   4   9 -11   29.47   10.05
   4   9 -11   31.72    9.92
  -1  11   9    7.47    3.32
  -1  11   9   21.63    7.65
   7 -10  -6   28.62    8.63
   7 -10  -6   31.79    9.56
   7 -10  -6   24.30    6.53
   5   9  -6    6.19    2.68
   5   9  -6   15.74    6.20
   5   9  -6   11.57    5.64
  -5  -9   6    3.67    1.36
  -2   5 -16   20.25    7.92
   2  -5  16    7.68    3.91
   7 -10   2    3.41    4.76
   7 -10   2   63.53   17.39
   6  -6 -14   -0.04    1.76
   6  -6 -14    1.34    1.49
   7  -5 -13    3.74    1.67
   7  -5 -13    1.16    1.23
  -3   5 -15    6.69    2.85
   3  -5  15    2.21    1.42
   3  -5  15    8.05    2.71
   0 -13   6    0.06    3.22
   0 -13   6    7.47    2.68
   0  13  -6    2.74    2.77
   0  13  -6    1.16    1.17
   3   2 -18   21.32    9.43
  -3  -2  18   13.01    5.99
  -3  -2  18   14.91    5.19
  -3  -2  18   42.24   10.73
  -1   4 -17   77.03   18.09
   1  -4  17    4.00    4.36
   1  -4  17   65.19   17.12
   7  -2 -14    0.30    2.83
   7  -2 -14    2.30    1.63
   8  -3 -11   14.77    5.48
   3  -1 -18    3.32    1.46
  -3   1  18    1.58    2.36
  -3   1  18    6.21    2.92
  -3   1  18    8.30    2.63
   7  -1 -14    7.22    3.56
   7  -1 -14   11.67    4.47
   0  11   8    4.85    1.72
   0  11   8    3.00    2.28
  -3   7  15   -0.08    3.46
  -3   7  15    3.83    1.89
   4  10   0   18.08    7.66
   4  10   0   10.84    4.36
   4  10   0   22.33    8.47
  -1  -3  18   35.87   12.83
   1   3 -18   12.30    6.71
  -1  -3  18   47.21   13.07
  -1  -3  18   42.27   10.32
   6  -2  10  136.77   34.25
  -2 -12   0   11.74    4.75
   2  12   0   10.29    4.40
  -2   4  17    7.51    2.50
  -2   4  17    3.15    1.82
  -2   4  17    4.88    2.75
   6  -5  10    5.39    5.07
   6  -5  10    7.31    3.84
   4   6   9  101.20   26.19
   4   6   9  118.25   25.81
   4   6   9   80.72   18.94
  -5  12   6    0.68    2.58
   5 -12  -6    0.64    2.01
  -5  12   6    4.21    2.13
   3  10 -11    2.35    1.75
   3  10 -11    1.02    2.06
   6   4   6    4.23    2.78
   6   4   6    6.42    2.04
   8  -8   0  111.21   20.69
   3   6  11    2.65    1.88
   3   6  11    2.29    1.90
   3   6  11    0.91    1.74
   8  -7  -8    3.36    2.04
   8  -7  -8    1.81    0.86
   8  -7  -8    1.73    2.02
   3   5  12   17.42    6.45
   3   5  12   12.22    6.69
  -2  -9  14   10.28    4.02
  -2  -9  14    6.52    2.93
   2   9 -14    3.83    1.78
   2   9 -14    4.68    3.30
   4   8 -13    9.00    2.73
   4   8 -13    1.91    2.19
   1   0  17    6.85    2.15
   1   0  17    2.22    2.63
   1   0  17    5.46    3.44
   7   5  -1    3.79    1.94
   7   5  -1   11.29    4.71
  -1  13  -7   32.87    9.92
   1 -13   7   40.32   11.14
   1 -13   7   45.04   13.39
  -5   0  17   -0.80    2.53
   5   0 -17    1.53    1.58
   5   0 -17    2.53    1.98
   4  -7  13   19.70   10.11
   4  -7  13   27.25    8.48
   3   9 -13    1.66    1.42
   3   9 -13    2.55    1.42
   7   3 -12   13.52    4.74
   7   3 -12    8.10    2.66
   5  -1 -17    1.88    2.31
   5  -1 -17    1.34    1.22
  -5   1  17    1.01    1.88
   5   9  -2    3.49    3.43
   5   9  -2    0.00    2.31
   5   9  -2   -1.06    2.62
   8  -1 -11    2.75    1.76
   7  -6   7    5.95    2.92
   7  -6   7    5.75    2.54
   7  -6   7    9.41    3.94
   5  -1  12   -0.48    1.56
   5  -1  12    1.65    1.66
  -3  -5  17    4.98    3.03
   3   5 -17    3.57    1.33
   4  -3  14    1.21    1.00
   4  -3  14   -0.27    1.86
   4  -3  14    4.70    2.66
   4  10  -8   45.02   12.32
  -4 -10   8   15.03    7.16
   4  10  -8   52.03   12.61
   8   2  -8    3.91    1.84
   8  -8  -6    0.42    1.13
   8  -8  -6    3.25    1.60
   8  -8  -6    5.26    2.89
   4 -13   4    4.31    3.30
   4 -13   4    4.80    3.08
  -4  13  -4    1.03    1.03
   1 -12  10  102.44   22.46
   1 -12  10   75.84   21.81
  -1  12 -10   92.97   24.89
   8  -7   2    1.33    1.47
   8  -7   2   32.62   10.91
  -1  -6  17  219.26   38.76
   1   6 -17  161.86   38.85
   1   6 -17  216.17   47.33
  -1  -6  17   31.30   22.55
   8   0   2    1.17    1.11
   3 -13   6    3.66    3.28
   3 -13   6    3.26    2.20
  -3  13  -6    2.44    2.45
  -1 -12   9    4.03    2.34
  -1 -12   9    2.72    2.28
   1  12  -9    2.41    1.23
   1  12  -9   -0.12    2.09
   5 -12   5   -1.13    2.57
   5 -12   5    3.49    2.42
   5 -12   5    2.80    2.22
  -5  12  -5   -0.32    1.89
   4   8   6   50.33   14.09
   4   8   6   61.75   17.54
   6 -11  -7   19.30    7.77
   6 -11  -7   29.50   10.00
   6 -12  -1    9.18    4.14
   6 -12  -1   11.33    6.15
   0  10  10   22.16    7.68
   0  10  10   19.24    7.11
   8  -6   3   23.62    7.80
   8  -6   3    7.55    2.83
   3  11  -8    1.40    2.76
  -3 -11   8   -0.70    2.53
   3  11  -8    1.51    1.33
   6  -9 -11    3.75    2.30
  -3   9  13    5.29    2.53
  -3   9  13    5.98    2.55
   2 -13   7   52.17   15.16
   2 -13   7   83.07   20.44
  -2  13  -7   75.82   17.91
   7   2 -13   28.91    6.61
   7   2 -13   17.90    6.02
   7   2 -13    7.36    3.07
  -2   8  14    2.78    1.90
  -2   8  14    4.61    2.01
   0 -11  12    0.01    2.83
   0  11 -12    6.86    4.30
   0 -11  12    2.88    2.40
   6   7   0   11.54    7.17
   6   7   0    4.89    2.64
   7  -1   7   51.30   17.14
   5   4   9    0.43    1.64
   5   4   9   -1.04    2.36
   5   4   9    4.21    2.58
   7  -3 -14    0.02    2.42
   7  -3 -14    1.55    1.15
   3  11   1    3.58    3.09
   3  11   1    1.88    2.02
   3  11   1    5.96    3.12
   5   5 -15   59.67   14.36
   5   5 -15   24.94   10.01
   5   5 -15   44.38   14.88
   5  -9  10   87.26   19.11
   5  -9  10   82.56   23.28
   6 -12  -2    0.37    1.24
   6 -12  -2    1.15    1.34
   3   0  15    3.46    2.58
   3   0  15    2.85    1.64
   4  -4  14    5.76    2.35
   4  -4  14    4.29    3.08
   5   6 -14    7.22    2.43
   5   6 -14    2.29    1.58
   7   0 -14  523.55   81.14
   7   0 -14  548.00   28.97
   4  -2  14   31.70   14.13
  -2   7  15    7.06    6.87
  -2   7  15    3.33    2.57
  -2   7  15    9.04    2.97
  -3  11  10    5.54    2.71
   3 -11 -10    3.25    3.00
  -3  11  10    4.41    3.02
   6 -12   0   14.77    6.65
   6 -12   0   12.78    6.29
   6   4 -14   16.92    5.97
   6   4 -14   21.97    7.25
   4 -13  -4    2.26    1.59
  -4  13   4    0.23    1.96
  -4  13   4    1.12    2.01
  -1  12   7   53.30   13.89
  -1  12   7   47.40   13.65
   4   3  12   -0.17    2.26
   4   3  12   -0.72    2.54
   4   3  12    2.52    1.42
   5   9  -7  256.80   65.46
   5   9  -7  375.44   57.93
   5   9  -7  344.14   62.44
   0  13   2    9.94    4.25
   0 -13  -2    3.91    2.03
   0  13   2    6.13    2.77
   2  10   7    1.01    0.98
   2  10   7    3.28    2.75
  -4   8  14    1.00    1.87
  -4   8  14    4.42    3.71
   1   3  16   11.07    4.22
   1   3  16   13.81    5.19
   1   3  16   14.88    6.41
   1   3  16    8.80    3.79
   6   7  -9   31.82    8.77
   1 -11  12    2.06    2.74
   1 -11  12    2.72    1.98
  -1  11 -12    4.49    2.07
   8  -4 -11    4.12    1.75
   5   1 -17  121.79   25.68
   5   1 -17   95.65   29.21
  -5  -1  17  132.31   33.63
   0 -12  10   51.42   12.94
   0 -12  10   46.87   15.20
   0  12 -10   44.15   11.56
   7   4   2    3.26    1.73
   7   4   2    1.97    1.27
   8   1   1    2.22    1.58
   8  -1   3   -0.31    2.68
  -3   9 -13    7.50    2.90
   3  -9  13   13.61    7.34
   3  -9  13    3.89    1.94
   3  -9  13    5.18    1.86
  -2 -12   7   21.65   11.48
   2  12  -7   19.53    8.21
   2  12  -7   17.92    7.96
  -1   7 -16    7.91    3.32
   1  -7  16    9.41    4.30
   6  -1 -16    2.78    2.17
   6  -1 -16   -0.51    2.24
  -1   1  18   45.91   17.44
  -1   1  18   46.89   14.76
  -1   1  18   50.26   13.95
   3 -10  12    5.13    3.21
   3 -10  12    4.96    3.03
   3 -10  12   12.76    5.62
  -3  10 -12    9.68    5.57
  -1  10  11   12.06    4.92
  -1  10  11   14.02    5.23
   5 -11  -9    1.28    1.42
  -5  11   9    5.52    2.21
  -5  11   9    3.79    1.46
   6   5 -13   36.28   17.23
   6   5 -13   94.04   22.35
   2   3  15    2.17    1.60
   2   3  15    0.84    1.75
   2   3  15    1.32    1.45
   2   3  15    0.67    1.58
   5  -2 -17    1.58    1.13
  -5   2  17    1.97    1.63
   5  -2 -17    2.16    1.60
   3   7  10   46.53   11.10
   3   7  10   31.02   10.25
   3   7  10   14.61    5.60
  -4   7  15   26.11    8.92
  -4   7  15   14.07    7.60
   5 -10   9    7.78    2.71
   5 -10   9    7.96    2.87
   3   4  13    1.19    1.13
   3   4  13    1.07    1.81
   8   1 -10    1.84    2.05
   5   3  10    2.25    2.11
   5   3  10    2.11    1.54
   5   3  10    5.25    2.44
   6   6   3   20.66    7.50
   6   6   3   -0.66    3.61
  -1 -12  -4    2.99    2.44
   1  12   4    4.16    2.09
   1  12   4    4.87    2.73
   1  12   4    4.19    1.71
   5   5   8    3.71    2.76
   5   5   8   11.50    4.53
   7  -9  -9    3.17    1.94
   7  -9  -9    1.64    1.58
   7  -9  -9    3.34    1.48
  -3  12   8    5.03    2.90
  -3  12   8    3.26    2.50
   7   4 -11   10.78    4.45
  -3  13   5    3.38    2.03
  -3  13   5    2.89    1.33
  -3   6  16    2.40    2.31
  -3   6  16    7.15    3.17
   4   9   4   19.35   12.11
   4   9   4   33.96    7.76
   6   1   9    5.98    6.15
   6   1   9   58.53   17.18
   6 -12  -3   11.42    5.80
   6 -12  -3   10.09    4.20
  -1  13   4    6.25    2.83
  -1  13   4    8.93    3.47
   5  -6  12    5.92    2.48
   5  -6  12    3.34    2.20
   3 -12   9   23.70    5.32
   3 -12   9   30.51    9.22
  -3  12  -9   17.11    7.85
   3 -12   9   21.69    7.77
   1   7  13    0.58    1.15
   1   7  13    2.48    1.81
   1   7  13    2.75    1.28
   1   7  13   -0.80    2.36
   2   6 -17   34.88    8.16
  -2  -6  17   16.88    8.30
  -2  -6  17   17.94    6.86
   2   6 -17   17.26    9.44
   6   0 -16   25.14    6.99
   6   0 -16   29.75    8.01
  -6   0  16    0.22    3.43
  -2   2  18    3.34    1.59
  -2   2  18    1.30    1.38
  -2   2  18    6.27    2.55
   7   2   5    0.19    1.38
   7   2   5    2.25    1.69
   5   7   5   95.82   28.94
   5   7   5   92.90   28.20
   4   4 -17   40.90   11.57
  -4  -4  17   61.19   13.58
   0   6 -17    5.87    2.60
   0  -6  17   12.05    4.64
   0   6 -17    3.64    2.55
  -4   4  17    3.11    2.02
   4  -4 -17    0.07    1.34
  -3  -3  18   16.45    6.86
  -3  -3  18   94.10   22.75
   3   3 -18   50.49   14.94
  -3  -3  18   26.18    9.08
   0   7  14   32.81   14.98
   0   7  14   32.19   12.68
   0   7  14   39.82   12.89
   7   5  -9    1.01    1.94
   1  13  -3   62.35   16.23
  -1 -13   3   24.55    5.91
   1  13  -3   24.00    6.07
  -1 -13   3   61.53   16.57
   8  -4   4    2.55    3.35
   8  -4   4    5.67    2.05
   6  -2 -16    1.74    0.94
   6  -2 -16   -0.19    2.15
   5   9  -1   -1.44    2.23
   5   9  -1    1.03    1.56
   5   9  -1    0.61    2.46
   6  -1  10   22.05    7.58
  -3   2  18   94.47   27.00
  -3   2  18   58.67   23.41
  -3   2  18   47.79   27.50
   3  -2 -18   30.72   14.21
   6 -12   1    6.30    2.79
   6 -12   1    1.86    1.62
   6 -12   1    1.33    1.80
   1   6  14    2.04    1.81
   1   6  14    3.28    2.08
   1   6  14    1.36    1.50
   1   6  14   -2.30    2.16
   2   9   9    1.84    2.12
   2   9   9    7.66    3.21
   2   9   9    0.12    1.14
  -2   9  13    6.29    2.67
  -2   9  13    6.96    3.66
   8  -8   1   29.13    8.12
   2  -9  14   32.67    9.20
  -2   9 -14   26.96    9.17
   2  -9  14   15.95    7.00
   5  -8  11    1.99    1.38
   5  -8  11    2.33    2.35
   0  12   6   21.31    8.77
   0  12   6   16.11    8.14
   2  12   1    1.87    1.91
  -2 -12  -1   -0.23    3.26
   4  -9 -13    2.45    2.01
  -4   9  13    3.53    3.45
  -4   9  13    4.29    2.32
  -1 -13   2   -0.02    1.88
   1  13  -2    4.26    2.44
  -1 -13   2    3.83    1.74
   1  13  -2    2.76    1.54
   6  -6  10   -0.26    2.79
   6  -6  10    2.75    2.12
   0  -2  18   51.72   11.82
   0  -2  18   56.44   17.82
   0  -2  18   50.42   13.07
  -2  13   5    1.35    1.35
  -2  13   5   -0.82    2.78
   1   4 -18   98.21   22.56
   1   4 -18  153.97   25.07
  -1  -4  18  109.95   22.76
  -1  -4  18  151.16   42.56
   8  -3   4   10.38    4.69
   8  -3   4    7.34    3.05
   8   0 -11    2.21    1.66
   8   0 -11    2.66    1.50
   2 -10  13    4.06    2.71
  -2  10 -13    6.68    2.87
   2 -10  13   13.13    4.85
   2 -11 -10   -0.68    1.63
  -2  11  10    0.05    1.66
  -2  11  10    2.64    3.07
   7   1   6    3.61    1.62
   2   1  16    4.66    2.17
   2   1  16   12.97    5.88
   2   1  16    9.95    4.36
   2   1  16   14.14    6.28
   2   4 -18    3.17    1.49
  -2  -4  18    6.02    2.58
  -2  -4  18    6.41    2.78
  -2  -4  18    5.36    2.32
   5   8 -11    2.13    2.12
   5 -10 -11    1.48    1.21
  -5  10  11    2.13    1.63
  -5  10  11    1.99    2.69
   0 -13   7    8.93    2.56
   0  13  -7    6.82    2.45
   0 -13   7   11.44    4.42
   0  13  -7    6.50    2.72
   7  -8   6    2.06    1.71
   7  -8   6   16.06    7.68
   7  -8   6   28.28    9.90
   6  -5 -15    1.56    1.80
   6  -5 -15    2.92    1.46
   6  -9   8    4.75    2.82
   6  -9   8   14.39    5.04
   6  -9   8    6.54    3.35
   1  13  -4   10.98    4.19
   1  13  -4   20.32    7.72
  -1 -13   4   32.78   10.45
  -1 -13   4   16.10    6.39
   6   5   5    6.84    2.02
   6   5   5    1.38    2.39
   3   9   7   26.20    8.97
   3   9   7   29.06    9.50
  -1   5 -17    4.09    1.81
  -1   5 -17    2.26    1.81
   1  -5  17    7.17    3.16
   7 -10  -7    3.84    1.11
   7 -10  -7    5.53    2.67
   7 -10  -7    0.41    1.80
   2 -12  10   37.96   10.49
   2 -12  10   31.43   10.66
   2 -12  10   17.61    7.53
  -2  12 -10   29.73    9.66
  -4  11  10    3.26    2.17
  -4  11  10    3.71    2.27
   4 -11 -10    0.00    2.38
   7 -10   3   28.52   11.60
   7 -10   3    5.01    2.77
   0  -1  18   18.25    9.47
   0  -1  18   19.85    7.99
   0  -1  18   23.72    5.53
   4  -5  14    5.70    1.82
   4  -5  14    2.33    1.61
   5 -13   0    8.34    4.66
   5 -13   0   10.85    5.50
   5 -13   0   14.13    6.10
  -5  13   0   20.06    6.21
   0   8  13   25.58    7.34
   0   8  13   25.99    7.26
   0   8  13   12.02    7.10
   4  10   1    3.38    1.60
   4  10   1    3.87    3.43
   4  10   1    6.91    2.17
   5 -13  -1    1.35    2.24
   5 -13  -1    1.90    2.01
  -5  13   1    6.94    2.84
   6   3 -15    3.95    3.22
   6   3 -15    5.26    2.12
  -6  -3  15    4.16    2.36
   6   3 -15    3.04    2.35
   4   0 -18   11.94    4.41
  -4   0  18   26.74    6.78
   4   0 -18    4.81    1.75
   5  -5 -16    0.41    1.55
   5  -5 -16   -0.54    1.41
   4   7   8   -0.07    2.71
   4   7   8    3.85    2.23
  -2   6  16    3.92    2.75
  -2   6  16    0.71    1.03
  -2   6  16    5.27    2.39
   4  -1  14    2.23    1.35
   8  -8  -7   10.22    4.87
   8  -8  -7   16.21    5.51
   8  -8  -7   13.38    5.03
   1  10   9    1.69    1.59
   1  10   9    1.39    1.27
   7   5   0    1.30    2.21
   7   5   0   -1.16    2.24
   5   4 -16   11.79    4.73
   5   4 -16   17.36    6.74
   5   4 -16   17.74    6.41
  -5  -4  16   22.90    7.58
  -2  12   8   18.54    7.84
  -2  12   8   22.02    8.28
   8  -6 -10    5.24    1.63
   8  -6 -10    2.50    1.51
   1  11   7    1.45    1.05
   1  11   7    4.41    2.04
   8   2  -9   14.67    5.96
  -3   6 -15    0.78    2.08
   3  -6  15    4.38    2.52
   3  -6  15    1.03    1.02
   6 -11   5    2.22    2.95
   6 -11   5    0.56    1.55
   8  -5   4    3.12    2.27
   8  -5   4    2.85    2.19
   0   6  15    3.10    2.38
   0   6  15   -0.17    1.70
   0   6  15    3.29    1.97
   0   6  15    1.24    2.02
   7   3   4    3.75    2.13
   7   3   4    4.19    3.19
   1   1  17    0.85    1.79
   1   1  17    2.76    3.00
   1   1  17    4.32    2.82
   5   7 -13    3.31    3.29
  -1 -13   1    1.94    2.19
   1  13  -1   15.97    5.53
   1  13  -1    7.02    2.89
  -1 -13   1   12.55    5.23
   1   8  12    0.60    1.36
   1   8  12   -0.12    2.10
   1   8  12    2.71    2.30
   1   8  12    2.88    1.31
   5   8   3   20.06    7.86
   5   8   3   34.33    9.51
   7  -4 -14    0.92    1.43
   6  -8   9   55.67   19.31
   6  -8   9   58.47   17.81
   0  -3  18   50.29   12.33
   0  -3  18   11.89    5.01
   0  -3  18   50.03   11.41
   4   1 -18    1.93    1.48
  -4  -1  18    2.15    1.36
   4   1 -18    2.40    1.07
  -5  13  -1    7.03    2.23
   5 -13   1    5.22    1.70
   5 -13   1    4.34    2.60
   5   9  -8   14.13   13.21
   5   9  -8   36.74   11.38
   2  -6  16    5.32    2.99
  -2   6 -16    3.79    3.26
  -4  13  -5    5.29    2.98
   4 -13   5    1.89    1.64
   4 -13   5    0.72    1.88
   7  -9   5   33.31   15.55
   7  -9   5    2.98    4.67
   7  -9   5    2.83    1.57
   3  -8  14   -0.75    2.83
  -3   8 -14    1.51    1.57
   3  -8  14    2.27    1.39
  -1   4  17    2.14    1.57
  -1   4  17    7.86    4.29
  -1   4  17   13.93    6.80
  -1   4  17    5.02    2.46
   7  -7 -12    3.57    1.94
   7  -7 -12    3.60    2.37
   7   1 -14    1.70    1.81
   7   1 -14    2.61    1.27
   7   1 -14    2.43    1.09
   6 -12  -4    0.16    1.94
   6 -12  -4    1.78    1.92
   4  10  -9   40.94   11.83
   4  10  -9   35.83    7.06
   2  11   5    3.64    2.66
   2  11   5    1.60    1.36
   4  -1 -18    1.67    1.45
  -4   1  18    2.80    1.75
   4  -1 -18    1.76    1.18
   5 -13  -2    3.19    1.67
  -5  13   2    4.27    1.94
  -5  13   2    7.92    3.22
  -1 -11  12    2.38    1.88
   1  11 -12    0.80    1.63
  -1 -11  12    2.86    1.49
  -5  -2  17    3.31    1.84
   5   2 -17    1.26    1.68
   5   2 -17    1.95    1.59
  -4   9 -12    1.55    2.01
   4  -9  12    2.33    2.46
   4  -9  12    3.05    1.68
   4  -9  12    1.70    1.36
   4 -10  11    9.43    4.46
   4 -10  11    3.52    1.61
  -4  10 -11    4.68    2.54
   4 -10  11    4.95    2.18
  -2 -11  11    3.35    1.70
   2  11 -11    3.10    1.69
   2  10 -13    4.43    1.35
   7 -11  -2    1.91    1.97
   7 -11  -2    1.33    1.72
  -4  12   8   16.82    8.19
  -4  12   8   16.04    5.19
   4 -12  -8    5.67    2.80
   8  -7  -9   21.35    8.69
   8  -7  -9   29.58   11.19
   8  -7  -9    8.49    5.86
   5   0  12    7.61    2.56
   5   0  12    2.52    1.37
  -3  11 -11    3.56    2.04
   3 -11  11    2.47    1.90
   3 -11  11    3.30    2.65
   3 -11  11    5.13    1.96
   6   1 -16    2.91    2.08
  -6  -1  16   -0.72    2.31
   6   1 -16    1.08    1.32
   0   9 -15    1.02    2.60
   0  -9  15    0.67    1.65
  -3  10  12    4.92    3.55
  -3  10  12    3.39    1.86
  -1 -13   5    2.02    1.57
   1  13  -5    2.07    1.38
   1  13  -5    6.36    2.22
  -1 -13   5    1.69    1.36
  -4   6  16    3.93    1.82
  -4   6  16   -0.37    1.99
   8  -9  -3    2.51    1.49
   8  -9  -3    1.12    1.12
   3  10   5   -0.36    2.08
   3  10   5    1.65    2.96
   7  -7   7    0.63    1.46
   7  -7   7    1.10    1.67
   7  -7   7    4.14    2.79
   0   3  17   48.35   18.14
   0   3  17   61.37   22.93
   0   3  17   31.73   13.14
   0   3  17   57.10   20.62
   7 -11  -1   25.62   11.14
   7 -11  -1   26.84    9.81
   8  -2   4   19.17   10.98
   8  -9  -2   25.51    9.27
   8  -9  -2   19.26    5.41
  -5  12   7    8.89    4.38
  -5  12   7   12.27    4.32
   5 -12  -7    5.98    2.35
   6 -12   2    3.34    2.22
   8  -5 -11   16.36    5.87
   1 -13   8    6.35    2.53
   1 -13   8    5.93    2.42
  -1  13  -8   14.55    5.17
   7  -4   8    2.23    4.04
   7  -4   8    0.78    1.34
   6  -3 -16   11.25    4.53
   6  -3 -16   10.97    4.03
   6 -10   7    1.50    1.25
   6 -10   7    3.50    2.18
   6   6 -12   10.29    4.06
   3  11  -9   11.20    4.66
   3  11  -9    5.63    1.85
  -3 -11   9    6.11    2.45
   7 -11  -3   33.00   13.26
   7 -11  -3   38.42   12.99
   5  -3 -17    1.88    1.20
   5  -3 -17    3.20    2.22
   5   2  11    1.97    1.44
   5   2  11    1.53    1.14
   5   2  11    3.16    1.90
   4 -12   8    9.94    4.48
   4 -12   8    3.68    1.83
   4 -12   8    5.21    1.93
  -4  12  -8    2.26    1.48
   1   5  15    3.91    1.77
   1   5  15    3.01    1.54
   1   5  15    1.80    1.27
   1   5  15    1.76    1.08
   6   7   1    2.68    1.86
   6   7   1    1.29    2.16
   8  -7   3    2.21    2.32
   8  -7   3    4.25    3.31
   0   0  18   14.08    5.17
   0   0  18    9.05    4.52
   0   0  18   13.32    4.87
   5   6   7  109.64   36.64
   5   6   7  141.79   49.21
  -4  13   5   22.27    8.40
  -4  13   5   20.11    5.75
   7  -8 -11    2.52    2.25
   7  -8 -11    2.48    2.26
   7  -8 -11    5.57    2.26
  -2   8 -15   11.00    5.26
   2  -8  15   10.22    3.91
   2  -8  15    3.61    2.22
   7  -3   8   40.21   17.63
   3  11   2   18.82    8.47
   3  11   2   37.86   11.30
   3  11   2   30.39   12.16
   8  -9  -4    9.40    3.98
   8  -9  -4    5.98    3.11
   7  -6 -13    4.49    2.35
   7  -6 -13    2.38    2.79
  -1  -9  15   37.41   13.43
   1   9 -15   22.54    8.26
   2  12  -8    6.81    2.05
  -2 -12   8    3.15    1.67
   2  12  -8    5.71    3.73
   2   6  13    1.27    1.14
   2   6  13   -0.04    1.10
   0 -13  -3    3.05    2.16
   0  13   3    5.32    2.54
   0  13   3    6.84    2.68
   6 -10 -10    1.65    1.39
   5 -11   8   89.35   28.96
   5 -11   8   52.32   20.83
   3 -13   7    3.15    2.82
   3 -13   7    2.43    2.21
  -3  13  -7    3.56    1.89
   1   8 -16    4.35    2.67
  -1  -8  16   21.15    7.01
   1   8 -16   12.72    5.16
   8  -2 -12   34.00   11.77
   7   0   7   -2.17    2.91
  -2  14  -1   35.58   12.34
  -2  14  -1   30.38    9.60
   2 -14   1   12.03    5.25
  -2  14  -1   20.24    4.46
   3   7 -16   27.23    9.65
  -3  -7  16   36.84   12.56
  -5  13  -2    3.80    1.68
   5 -13   2    4.25    2.37
   5 -13   2    4.03    1.93
   6   7 -10    6.05    2.72
  -2  14  -2    6.04    3.25
   2 -14   2    3.33    1.53
   5 -12   6    3.31    1.71
   5 -12   6    4.08    2.13
   2 -11  12   54.11   18.93
   2 -11  12   46.37   20.05
  -2  11 -12   43.21   17.78
   2 -11  12   15.83    6.75
   5   9   0    3.13    3.05
   5   9   0    1.42    1.43
   8  -9  -1   19.09    6.69
   7 -11   0   32.87   14.13
   7 -11   0   32.07   12.23
   2   7  12    0.07    1.68
   2   7  12   10.62    5.30
   0  -8  16   15.81    6.29
   0   8 -16   11.61    4.79
  -1 -13   0   11.56    4.50
   1  13   0   20.96    8.45
   0 -10  14   57.06   17.96
   0  10 -14   30.45   11.97
   3   1  15   41.90   16.47
   3   8 -15   15.07    5.54
  -3  -8  15   15.24    5.51
   4   2  13   16.46    7.10
   4   2  13    6.85    2.46
   4   2  13    4.31    1.78
   6 -11  -8    2.53    2.00
   4   9 -12   29.90   13.38
  -1   2  18   19.61    7.96
  -1   2  18   17.00    6.28
  -1   2  18   19.54    6.25
   4   7 -15    0.35    1.83
   4   7 -15    3.01    1.71
   3   8   9    1.58    1.47
   3   8   9   -0.29    1.20
   3   8   9    1.32    1.22
   5 -13  -3    9.87    9.15
  -5  13   3   13.23    4.44
  -5  13   3   17.88    6.22
   3   3  14   26.02   10.49
   3   3  14   31.15   11.46
   8  -3 -12    2.06    1.35
   4   2 -18    7.77    2.89
  -4  -2  18    3.91    1.37
   0   9  12    5.65    2.23
   0   9  12    5.09    2.53
   0   9  12    0.64    1.18
   7  -5   8   12.89    9.17
   7  -5   8    7.28    2.82
   2 -13   8   58.86   20.41
   2 -13   8   41.41   14.95
  -2  13  -8   57.16   19.77
  -4  -6  16   41.78   14.69
   4   6 -16   34.00   12.48
   8   0   3    0.35    2.23
  -4  10  12    2.52    2.12
  -4  10  12    2.61    1.82
   4 -10 -12   -0.12    1.75
  -2  14   0    2.94    2.10
  -2  14   0    1.57    1.71
  -2  14   0    3.50    3.09
  -1 -12  10    1.39    1.84
   1  12 -10    4.22    2.51
  -1 -12  10    5.57    2.55
   1  12 -10    5.22    2.42
   7 -11  -4   28.51   14.60
   7 -11  -4   28.58    9.61
   8  -8   2    2.68    2.15
   8  -6   4    1.84    1.04
   8  -6   4    3.99    1.77
  -1   8  14    1.77    1.29
  -1   8  14   15.95    6.63
  -1   8  14   16.03    6.32
   7   6  -5    1.77    1.97
   7   6  -5    1.20    1.67
   8  -1 -12   28.37   13.04
  -1   7  15   14.13    6.01
  -1   7  15   12.32    4.50
  -1   7  15    2.74    1.51
  -2  10  12   -0.55    2.72
  -2  10  12    4.20    2.69
   0  -4  18    4.35    2.64
   0  -4  18    0.95    0.86
  -3   5  17    1.74    2.07
  -3   5  17    2.64    2.00
  -3   5  17    3.40    1.68
   8   1   2    2.79    2.53
   7   5 -10    0.61    1.79
   2 -14   3    3.04    1.68
   2 -14   3    3.11    2.54
  -2  14  -3    1.19    1.32
   3  10 -12    2.02    1.15
   3  10 -12    0.80    1.64
  -4   2  18    1.75    0.95
   4  -2 -18    0.41    1.58
  -2 -12  -2   11.28    4.21
   2  12   2    4.50    2.27
   7   6  -4   34.39   14.16
   8  -9  -5    5.94    2.84
   8  -9  -5    5.77    2.86
   1  13  -6    3.74    2.58
  -1 -13   6   15.29    5.44
   1  13  -6    9.71    4.02
   1  13  -6    8.06    3.93
  -1 -13   6    4.46    2.50
   2   5  14    1.45    1.38
   2   5  14   13.41    6.12
  -3  14  -1   32.15   10.89
   4  -8  13   33.62   14.96
   4  -8  13   28.15   11.12
   4 -11  10    5.18    2.32
  -4  11 -10    2.46    1.56
   4 -11  10    7.12    4.69
   4 -11  10    4.62    2.96
   3   4 -18    5.98    2.56
  -3  -4  18    7.48    2.30
   7  -2   8    2.55    2.64
   4  -6  14    4.16    2.08
   4  -6  14    1.53    1.65
   8   1 -11    3.68    2.19
   8   1 -11   14.10    4.92
   7   6  -6   13.24    5.56
   7   6  -6    7.57    2.06
   9  -4  -5    1.57    1.20
   6 -12  -5    8.59    3.31
   6 -12  -5   11.97    5.06
   6   0  10    6.77    2.58
   6   8  -5    2.38    1.90
   6   8  -5    0.97    1.17
   0   5  16   16.48    8.23
   0   5  16    3.57    2.70
   0   5  16   10.50    4.40
   0   5  16   13.39    5.21
   7   3 -13   93.24   30.38
   7   3 -13   32.60   20.43
   5  -7  12   22.33   11.30
   5  -7  12   32.32   15.11
  -3   3  18    5.92    3.25
  -3   3  18   11.80    4.20
  -3   3  18   12.69    8.27
   6   8  -4   16.32    7.24
   6   8  -4   26.59   12.28
  -6  -8   4   10.29    5.36
  -3  14   0   43.20   13.87
   4   0  14   29.91   14.76
  -3  13   6    9.21    3.59
  -3  13   6   13.18    4.41
   6  -8 -13    6.07    3.04
   5  -8 -14    2.39    1.84
   8  -8  -8    2.12    1.04
   8  -8  -8    1.17    1.18
   8  -8  -8    2.89    1.80
   7   4   3   40.87   14.87
   7   4   3   53.51   16.15
   6  -7  10   40.73   18.01
   6  -7  10   72.49   25.66
  -1  13   5  148.11   54.52
  -1  13   5  135.49   44.07
   0 -13   8    9.23    4.05
   0 -13   8    5.12    2.34
   0  13  -8    3.52    1.52
   0  13  -8    6.81    2.41
  -3  14  -2    3.18    2.80
   3 -14   2   -0.18    1.27
   3 -14   2    1.70    1.93
  -2   3  18   -0.73    2.36
  -2   3  18    1.22    2.22
  -2   3  18    3.66    1.76
   6  -7 -14   -0.10    2.24
  -1   9 -15   37.03   14.21
   1  -9  15   37.96   16.07
   1   5 -18   16.46    6.61
   1   5 -18   18.57    7.46
  -1  -5  18    4.76    2.20
  -1  -5  18   17.12    8.78
   5   9  -9  214.79   10.17
   5   9  -9  165.01   56.10
   1   9  11    0.90    1.06
   1   9  11    3.58    1.74
   1   9  11    2.14    1.25
   8  -9   0    4.83    2.27
   1  10 -14    9.92    5.15
  -1 -10  14   17.92    5.76
   8   2 -10    2.31    1.62
   7 -11   1    3.00    1.54
  -1  14  -2    3.61    2.79
   1 -14   2    1.31    2.72
   1 -14   2    0.15    1.56
  -1  14  -2    1.77    1.10
  -2   5  17   -0.28    2.39
  -2   5  17    1.76    1.48
  -2   5  17    2.67    2.21
   7   6  -3   11.39    4.37
   7 -10  -8   18.36    9.69
   7 -10  -8   29.39   10.03
   7   5   1    5.04    1.92
   7   5   1    1.03    1.58
   6   8  -6    5.44    4.31
   6   8  -6    5.23    2.16
  -1  10 -14  104.12   36.91
   1 -10  14   58.19   21.78
   1 -10  14   36.31   17.01
   4  10   2    7.12    2.85
   4  10   2   -0.41    1.74
   4  10   2    4.88    3.06
   6 -12   3    0.58    1.16
   7 -10   4    0.81    1.40
   7 -10   4   12.56    5.37
  -2  14   1    9.26    3.82
  -2  14   1    6.45    2.22
   8   3  -8   11.37    4.51
  -1  12 -11   11.21    4.16
   1 -12  11    0.56    1.42
   1 -12  11    8.08    3.01
   1 -12  11    9.40    3.51
   3   6 -17   35.68   13.38
  -3  -6  17   39.49   15.58
   7   4 -12   11.82    4.73
   8  -1   4   31.60   13.42
   6   3   8    2.77    2.21
   6   3   8    4.25    1.86
   1  12   5    2.26    1.43
   5  -7 -15    3.68    2.81
   8  -4 -12    2.91    1.29
   6   8  -3   -0.99    2.14
   6   8  -3    0.38    1.05
   5 -13   3    0.96    2.41
   5 -13   3    0.61    1.17
  -5  13  -3    3.32    2.44
  -6  -2  16    1.62    2.14
   6   2 -16    1.36    1.31
   6   2 -16   -0.07    1.75
  -1  14  -1    5.01    2.53
  -1  14  -1    7.22    5.12
  -1  14  -1   10.66    4.33
   1 -14   1    1.58    1.63
   7  -9 -10    1.39    1.95
   7  -9 -10    2.96    2.45
   7  -9 -10    1.24    0.72
   9  -4  -6    1.08    1.29
  -1  14  -3    2.40    2.19
  -1  14  -3   -0.02    1.67
   1 -14   3    1.43    2.04
   1 -14   3    3.34    1.72
  -1   6 -17    0.47    1.08
  -1   6 -17    9.78    4.96
   1  -6  17   12.01    4.84
  -3  14   1    2.75    1.83
  -3  14   1    3.19    1.91
   4   8 -14    5.05    2.37
   4   8 -14    6.36    2.33
   2   8  11   -1.10    1.79
   2   8  11    0.71    0.89
  -1  -7  17   56.47   21.43
   1   7 -17   43.49   16.80
   1   7 -17   71.86   23.76
  -2  -5  18  195.00   28.87
   2   5 -18  190.81   26.39
  -2  -5  18   87.65   41.10
  -2  -5  18   82.32   31.98
   0  11   9    1.44    2.67
   0  11   9    4.76    2.23
   7  -5 -14    0.57    1.08
  -1   9  13   25.28   10.47
  -1   9  13   27.84   10.09
   2 -14   4   39.94   16.76
   2 -14   4   76.91   23.74
  -2  14  -4   71.29   21.89
   9  -5  -4    1.36    1.02
   7   6  -7    6.77    2.76
  -2  13   6    9.89    3.61
  -2  13   6    5.19    2.42
   6   6   4    6.39    2.08
   6   6   4    3.28    2.64
   0   1  18    2.11    1.77
   0   1  18    3.71    2.05
   0   1  18    0.64    2.48
  -1  11  10    0.77    4.00
  -1  11  10    2.39    1.93
   0  12 -11   30.55   11.50
   0 -12  11   29.45   10.46
   6   4   7    0.43    1.63
   6   4   7   -0.23    2.79
   5  -9 -13    0.96    0.82
   7 -11  -5    2.44    1.26
   7 -11  -5    1.10    1.40
   4 -13   6    2.43    2.58
   4 -13   6    5.72    1.88
   4 -13   6    2.81    2.21
  -4  13  -6    0.09    1.19
   9  -4  -2    1.78    2.01
   1  13   1    3.03    2.27
  -1 -13  -1    4.03    2.09
  -5  13   4    5.98    2.59
   5 -13  -4    2.49    1.25
  -5  13   4    2.34    1.20
  -1   6  16    1.41    1.31
  -1   6  16    6.78    3.09
  -1   6  16   12.53    5.10
   5   3 -17   -0.12    2.04
  -5  -3  17   -0.83    2.18
   5   3 -17    4.45    3.77
  -7  -2  14    1.62    1.24
   7   2 -14   -0.18    2.21
   7   2 -14    2.28    2.01
   7   2 -14    0.89    1.01
   7  -1 -15    9.98    4.43
   7  -1 -15    7.76    3.95
   6  -4 -16    6.08    3.04
   6  -4 -16    2.27    1.86
   3   9 -14   11.77    4.88
  -3  -9  14    2.61    5.16
   2   2  16    3.58    1.54
   2   2  16   -0.08    1.88
   2   2  16    0.63    1.70
   2   2  16   10.16    3.32
   7  -2 -15    0.56    1.01
   7  -2 -15    1.12    1.33
   7  -6   8   -0.24    1.97
   7  -6   8    1.35    1.49
  -3  14  -3    8.13    3.51
   3 -14   3   10.09    4.20
   3 -14   3    1.40    1.44
  -1  12   8    0.79    1.69
  -1  12   8    4.14    2.98
   5  -3  13   10.72    3.83
   5  -3  13   12.57    4.73
   9  -5  -5    5.01    3.67
   9  -5  -5    9.67    4.28
   2  -2  17    1.13    1.48
   2  -2  17    1.80    1.40
   2  -2  17    0.99    1.84
   2  -3  17   19.21    6.36
   2  -3  17   11.04    5.57
   8   0 -12   83.35   26.53
   4  10 -10   17.86    5.88
   4  10 -10   24.82    8.48
   4   9   5    1.10    0.98
   4   9   5    2.64    1.83
   2   8 -16    7.35    3.12
  -2  -8  16   24.63    7.83
   2   8 -16   38.41   15.70
  -2  -8  16    5.77    6.13
   4   8   7   15.46    5.57
   4   8   7   14.97    6.14
   8  -9  -6    1.70    1.70
   8  -9  -6   -0.56    2.09
   8  -9  -6    1.72    1.75
   6  -9 -12    6.00    2.61
   5 -11 -10    1.72    1.61
  -5  11  10    0.98    1.52
  -5  11  10    1.72    1.77
   5  -4  13   28.97   12.18
   5  -4  13    5.45    2.14
   6  -4  11    2.16    2.46
   6  -4  11    5.55    2.41
  -4  -5  17    7.46    4.29
   4   5 -17    3.98    1.85
   1   2  17   29.49   11.22
   1   2  17   24.25    7.35
   1   2  17   31.79   13.02
   1   2  17   29.99   11.22
  -4   5  17  116.31   31.76
   5   8 -12   14.85    5.62
   6  -3  11   37.07   13.18
  -1  14   0    7.16    3.68
   1 -14   0    4.22    2.30
  -1  14   0    8.53    3.72
  -1  14   0    4.86    2.70
   3  -7  15   -1.30    2.32
   3  -7  15   -0.23    1.74
  -3   7 -15    3.09    1.78
   8  -4   5    4.51    2.18
   8  -4   5   24.26    8.08
   6 -11   6    3.06    1.13
   6 -11   6    6.08    2.87
   6   8  -7   40.11   15.39
   6   2   9    0.19    1.11
   6   2   9    1.81    1.41
   9  -3  -7    2.69    2.60
   3  -3  16    8.72    3.73
   3  -3  16    2.52    4.59
   3  -3  16    6.21    2.88
   1   4  16   25.28   11.92
   1   4  16   19.29   12.42
   1   4  16   25.62    9.13
   1   4  16   15.57    5.63
   5  -4 -17    7.21    3.61
   1 -14   4   49.80   18.08
  -1  14  -4   45.51   15.44
   1 -14   4   62.36   19.98
   4   5  11    4.15    2.21
   4   5  11    2.52    1.34
   4   5  11    2.87    1.87
  -3  12   9    1.44    1.49
  -3  12   9    2.01    2.46
   4   3 -18   13.21    4.27
  -4  -3  18   21.61    7.53
   6   5 -14   15.24    5.41
   6   5 -14    5.19    2.01
   8  -6 -11    7.77    3.17
   8  -6 -11    1.53    1.66
   7   6  -2    6.59    3.03
   0  -7  17   38.66   14.80
   0   7 -17   36.50   12.07
   0   7 -17   14.18    5.18
   5   9   1   15.51    5.17
   5   9   1    5.80    3.56
   2  12  -9    8.73    3.47
   2  12  -9   -0.14    2.08
  -2 -12   9    9.60    4.08
   6  -6 -15    2.71    1.81
   8  -3   5    0.81    1.60
   3 -12  10    5.95    3.30
   3 -12  10    2.26    1.75
  -3  12 -10    7.55    3.05
   3 -12  10    3.25    1.60
   0  11 -13    2.54    2.36
   0 -11  13    2.64    1.56
   0 -11  13    2.08    1.62
   8  -7 -10    0.86    1.51
   8  -7 -10    4.18    2.48
   6   8  -2    1.64    1.95
   6   8  -2    8.89    4.37
   2   9 -15    2.06    1.98
  -4  13   6    1.08    1.28
  -4  13   6    1.10    1.38
   1  13  -7    1.35    1.14
  -1 -13   7    3.30    2.33
   1  13  -7    3.10    1.46
  -1 -13   7   -0.01    2.46
   1  13  -7    2.53    1.45
  -1   8 -16    8.56    3.77
   1  -8  16   10.99    3.72
  -3 -11  10    2.04    1.65
   3  11 -10    2.71    1.12
   3  11 -10    0.15    2.13
   0  12   7    1.96    1.91
   0  12   7    1.99    1.48
   3  -2  16   11.54    5.98
   2  10   8    3.23    2.84
   9  -5  -2    0.96    0.96
   5   1  12    1.33    1.52
   5   1  12    3.21    1.41
   6   7   2   29.20   12.70
   6   7   2   12.46   11.77
   6   4 -15    0.81    1.48
  -6  -4  15    4.33    1.55
   6   4 -15    1.19    1.20
   5  -2  13    3.48    1.70
   5   6 -15    2.73    1.66
   5   6 -15    1.98    1.92
   7   0 -15   53.01   22.62
   7   0 -15   48.36   17.91
   0  13   4   54.75   21.76
   0  13   4   56.66   19.11
   9  -4  -7   -0.24    1.46
   9  -5  -6   14.26    7.04
  -3  11  11    0.41    1.16
  -3  11  11    2.16    1.54
   3 -11 -11    0.15    1.66
  -2   7 -16    2.05    1.45
   2  -7  16    0.18    1.92
   7  -1   8    5.00    2.20
  -3  14   2   34.71   11.27
  -3  14   2   30.89    9.67
   3  11   3    0.33    0.88
   3  11   3    0.51    1.47
   3  11   3    1.08    2.33
   5   8   4   20.36    5.67
   5   8   4   11.44    4.59
   5   7   6   -0.25    2.29
   5   7   6    3.01    2.47
  -2  14   2    8.43    4.09
  -2  14   2    6.51    1.95
   8  -9   1   32.38   12.40
   8  -5   5    0.65    2.42
   8  -5   5    1.90    1.68
   2  -1  17    2.78    1.61
   2  -1  17    3.29    1.61
   2  -1  17    0.71    1.14
  -2  -1  19    1.60    1.86
  -2  -1  19    4.06    1.95
  -2  -1  19    4.09    2.37
   2  -4  17   14.65    7.42
   2  -4  17   18.11    5.81
   7  -3 -15    9.85    3.59
   7  -3 -15    6.97    2.52
   7   2   6    1.67    2.32
   4   6  10   12.41    4.92
   4   6  10   10.78    3.81
   4   6  10    4.28    2.03
   2   4  15   28.04   13.71
   2   4  15   36.88   17.32
   7  -8   7   23.13   12.18
   7  -8   7   14.49    6.48
   7  -8   7   24.34    9.06
   7 -11   2    0.97    1.01
   7 -11   2    4.51    1.94
   1 -13   9    3.62    1.97
  -1  13  -9    7.28    4.21
   1 -13   9    8.29    4.75
   3  -4  16    2.38    1.48
   3  -4  16    1.72    1.55
   4  -3 -18    0.89    2.43
  -4   3  18    3.16    2.47
   6  -5  11    3.98    2.03
   6  -5  11    1.23    1.28
   5 -12  -8    6.03    3.55
  -5  12   8    5.38    2.48
  -5  12   8    2.32    2.37
   7  -9   6    8.01    4.07
   7  -9   6    2.98    1.51
   7  -9   6    5.64    3.01
   8  -7   4    4.55    5.00
   8  -7   4   29.03   12.55
   0  -5  18    1.32    1.31
   0   5 -18    1.11    3.71
   0   5 -18   -0.14    1.50
   0  -5  18    4.29    2.59
   5 -10  10    5.12    2.37
   5 -10  10   -0.12    2.77
   6 -12  -6    1.76    1.75
   6 -12  -6    2.02    1.48
   7   6  -8   10.98    3.90
  -1  11 -13    5.35    3.46
   1 -11  13    3.10    1.40
   1 -11  13   13.76    4.83
   6   7 -11    3.53    2.14
   5  -9  11    6.58    2.21
   5  -9  11   18.21    7.46
  -2  -7  17   13.80    7.93
   2   7 -17   48.70   17.00
   2   7 -17   21.90    7.64
  -2  -7  17    8.81    6.94
   4   4  12    2.68    1.54
   4   4  12    1.00    1.44
   4   4  12    1.10    1.13
   9  -4  -1   -0.09    1.80
   5  -5  13    2.14    1.73
   5  -5  13    3.82    1.52
   5  -6 -16    7.48    4.10
   6  -2  11    7.30    2.75
   8  -8   3    0.76    1.43
   8  -8   3    9.29    3.49
   4  11  -4   16.43    5.59
   4  11  -4   17.26    7.57
  -4 -11   4   23.78    8.55
   4  11  -4   11.75    4.64
   3  12  -4    2.53    3.82
   3  12  -4   -0.92    2.38
  -3 -12   4   -1.09    2.33
   0  10  11    7.01    2.59
   0  10  11    3.75    2.29
   8   3  -9    3.98    1.93
  -5  -5  16    4.13    1.47
   5   5 -16    1.86    1.12
   5   5 -16    1.50    1.61
   5   5 -16    1.64    1.06
   2 -14   5    4.28    1.74
  -2  14  -5    3.40    2.95
   2 -14   5    0.82    1.71
  -3  14  -4    9.14    3.84
   3 -14   4   32.44   10.53
   3 -14   4    2.75    1.40
  -2  -2  19   16.18   11.51
  -2  -2  19   57.00   21.88
  -2  -2  19   33.35   15.35
   2 -12  11   11.26    5.08
  -2  12 -11   35.45   16.76
   2 -12  11   39.45   16.65
   2 -12  11   29.79   12.03
   3  12  -3   30.77   11.45
  -3 -12   3   26.87   10.43
   3  12  -3   10.38    4.19
   6   5   6    9.97    4.57
   6   5   6    9.73    3.63
  -3   8  15    2.09    1.04
  -3   8  15   -0.05    2.13
   2   0 -19    2.87    1.77
  -2   0  19    1.80    1.71
  -2   0  19    7.62    1.64
  -2   0  19   12.24    6.41
  -3  13  -8    2.02    1.41
   3 -13   8    1.37    1.53
   3 -13   8    1.62    2.97
   3 -13   8    1.38    1.90
   7   3   5    0.98    1.86
   7   3   5    2.51    2.40
   4  11  -5    9.94    5.57
   4  11  -5    8.58    3.31
  -4 -11   5    8.06    3.17
  -1  14   1   56.05   21.72
  -1  14   1   81.10   25.71
  -1  14   1   62.23   21.10
   5 -13   4    0.74    3.03
  -2 -11  -6    1.49    1.11
   2  11   6    1.35    0.81
   4  11  -3    0.47    1.22
  -4 -11   3    2.51    1.32
   4  11  -3   -0.14    1.74
   4  11  -3    0.28    1.98
  -2 -12  -3   12.60    4.05
   2  12   3   29.40   10.67
   2  11 -12    2.78    1.69
   4 -12  -9    0.71    1.29
  -4  12   9    3.50    1.77
  -4  12   9    1.83    2.51
  -2  12   9    0.74    1.22
  -2  12   9    4.19    1.86
   7   5 -11    9.34    3.92
   8  -5 -12    9.66    3.87
   1  -2  18   11.18    4.31
   1  -2  18   10.33    4.20
   1  -2  18    2.63    2.77
   6  -9   9  108.97   36.26
   6  -9   9   51.57   24.28
   5 -12   7    0.49    1.76
   5 -12   7    2.79    2.49
  -3 -12   5   60.92   20.66
   3  12  -5   77.46   28.05
   3  12  -5   82.06   28.54
   7 -11  -6   31.43   11.68
   7 -11  -6   18.80   11.27
   9  -6  -4    1.12    1.14
   7   1   7   39.36   16.95
   6 -12   4    2.34    1.83
  -1   3  18    1.27    1.43
  -1   3  18   -0.18    2.37
  -1   3  18    3.08    1.76
  -1   3  18    1.18    1.11
   3   6  12    7.64    3.12
   3   6  12    6.80    3.82
  -1  14  -5    2.95    2.89
   1 -14   5    1.21    1.58
   1 -14   5    6.39    2.66
   8  -2   5    0.60    1.94
   5   4  10   -0.03    1.75
   5   4  10    1.73    1.40
   6   8  -8    2.45    1.55
  -4  11  11    0.65    1.52
  -4  11  11    1.84    1.46
   4 -11 -11    1.66    1.19
   6   6 -13   34.36   12.26
   4 -14   0    7.11    2.69
  -4  14   0   11.69    3.96
   5 -10 -12   -0.30    1.24
   9  -6  -3    3.54    1.59
   6 -11  -9    5.65    3.56
   6 -11  -9   13.73    7.07
   3  -1  16    3.93    2.15
   1  11   8    3.71    1.63
   3  10   6   14.02    4.79
   3  10   6    8.41    2.82
   5   9 -10  323.16   31.14
   8  -8  -9    5.99    2.75
   8  -8  -9    3.22    1.75
   8  -8  -9    1.06    1.01
  -4  14  -1   23.15    7.67
   4 -14   1   13.62    4.77
   5 -13  -5    8.57    5.51
  -5  13   5   14.07    7.29
  -5  13   5    5.26    1.85
   3   1 -19    7.25    2.27
  -3  -1  19   69.21   26.00
  -3  -1  19   10.08    4.25
  -3  -1  19   14.54    5.68
   3 -10  13    8.37    3.98
   3 -10  13    3.52    1.61
  -3  10 -13    2.36    1.96
   3 -10  13    5.57    2.04
   1  -3  18    9.44    3.64
   1  -3  18    3.96    2.74
   1  -3  18    1.58    1.71
   9  -5  -1    3.00    1.28
   3   9   8   23.53   11.67
   3   9   8   26.38    8.23
  -3   9  14    4.61    1.83
  -3   9  14    4.14    2.28
   5   5   9   29.27   11.34
   5   5   9   21.22    8.57
   3   2  15    8.03    3.58
   3   2  15    4.18    2.02
   4  -7  14    2.59    1.27
   3  12  -2    1.23    0.96
   3  12  -2   -0.06    2.18
  -3 -12   2    2.20    1.15
   9  -3  -8   23.70   12.23
   1  13   2   -0.79    3.06
  -1 -13  -2   -0.64    1.65
   4 -12   9    5.59    1.69
   4 -12   9    7.23    3.73
   4 -12   9    4.99    2.57
  -4  12  -9    4.60    2.38
  -3   0  19    0.49    1.04
  -3   0  19    1.09    1.08
  -3   0  19    1.34    2.08
   3   0 -19    1.95    1.42
   8  -9  -7    4.60    1.96
   8  -9  -7    9.67    3.64
   8  -9  -7    7.26    3.19
  -2  13  -9    1.72    1.94
   2 -13   9   -1.30    2.05
   2 -13   9    1.10    2.12
   2 -13   9   -0.97    2.90
   9  -6  -5    7.72    3.19
   9  -6  -5    9.76    4.68
  -3   7  16    0.62    1.10
  -3   7  16    4.67    2.26
   9  -5  -7   32.50   15.85
   0   4  17    6.37    3.99
   0   4  17   -0.36    1.60
   0   4  17    7.43    3.20
   0   4  17    6.00    3.73
  -1  10  12   22.88    8.07
  -1  10  12   23.49    6.85
   8   1   3    2.35    1.29
   2 -11 -11    1.53    1.16
  -2  11  11    9.40    3.56
  -2  11  11   14.20    4.48
   6 -10   8    7.67    3.73
   6 -10   8    1.89    4.10
   3   5  13   33.82   15.04
   3   5  13   35.38   14.17
   6   8  -1    4.61    2.84
   6   8  -1   -0.45    2.03
   7   6  -1   13.23    7.37
   4  11  -6   52.06   20.92
  -4 -11   6   46.50   16.28
   4  11  -6   69.50   24.07
   5   0 -18   12.90    5.68
  -5   0  18   23.28    6.65
   5   0 -18   17.59    5.52
   4   1  14    3.91    1.60
   4   1  14    1.32    1.72
   7  -7 -13    2.83    2.10
   7  -7 -13    1.09    0.92
  -4  14   1   24.81    5.29
  -4  14   1   39.12    8.70
  -1  -1  19    1.39    2.13
  -1  -1  19    8.70    3.15
  -1  -1  19    5.83    2.43
   8   2 -11   13.67    5.65
   1  -1  18    0.93    1.19
   1  -1  18    4.31    2.59
   1  -1  18    1.52    2.42
   0  13  -9    3.72    1.77
   0 -13   9    1.69    1.32
   0 -13   9    1.48    1.85
   0  13  -9    0.40    1.35
  -1  -2  19    1.16    1.27
  -1  -2  19    1.10    2.12
  -1  -2  19    1.99    1.52
   8  -2 -13    1.51    1.71
   4  11  -2    2.24    1.32
  -4 -11   2    9.28    3.65
   4  11  -2    3.30    1.51
   4  11  -2    2.43    1.54
   1  11 -13    0.84    1.36
   1  11 -13    0.86    1.08
  -1 -11  13    3.66    2.12
   5  -1 -18    1.10    1.03
  -5   1  18    2.32    1.92
   5  -1 -18    4.88    1.89
  -1   5  17    4.07    2.11
  -1   5  17    4.00    1.67
  -1   5  17   -0.57    1.75
   8   0   4   11.09    6.57
   7  -8 -12   -0.31    1.63
   7  -8 -12    7.05    2.60
   7  -8 -12    5.16    2.82
  -4   8  15   15.28    4.68
   4  -8 -15   27.10    5.02
   2   9  10    0.98    1.69
   2   9  10    0.62    1.15
   8   1 -12    4.48    2.85
   8   1 -12    8.39    4.54
   8  -6   5    1.15    1.61
   8  -6   5    3.50    2.05
   5  -1  13    1.23    1.18
   5  -1  13   -0.47    1.81
   7   5   2    1.57    1.22
   7   5   2    4.13    2.35
   6 -10 -11   19.78    6.54
  -3  -5  18   69.36   21.19
   3   5 -18   51.01   13.68
  -1 -12  11    3.80    2.83
  -1 -12  11    0.61    1.37
   1  12 -11    1.20    1.54
   3  -9  14    0.62    2.76
   3  -9  14    1.28    1.55
  -3   9 -14    1.51    2.41
   6  -1 -17    3.50    1.63
   6  -1 -17    4.55    1.81
   9  -6  -2    8.18    3.17
   6   1  10    1.29    1.19
   6   1  10    0.90    1.30
   9  -4  -8    3.19    2.58
  -4  14  -2   11.91    4.39
   4 -14   2   22.11    6.48
   7   1 -15    6.57    2.82
   7   1 -15    7.17    3.37
  -3  14   3  132.18   27.01
  -3  14   3  106.40   20.71
   7  -7   8    1.37    1.46
   7  -7   8   -0.81    2.67
   3   7  11    1.00    1.28
   3   7  11    0.60    1.69
   3  -5  16    2.32    1.54
   3  -5  16    1.45    2.43
  -3   4  18    0.56    1.04
  -3   4  18    2.59    1.60
  -3   4  18    4.49    2.08
  -3 -12   6    1.42    2.37
   3  12  -6    0.97    2.68
   3  12  -6    1.89    1.56
   4  10   3   -0.11    2.38
   4  10   3    0.47    1.06
   6   3 -16    6.52    2.45
  -6  -3  16   17.79    3.99
   6   3 -16   12.41    3.76
   6   3 -16   10.86    4.54
   5 -11   9    4.18    2.58
   5 -11   9    4.15    1.66
   7 -10  -9    7.85    2.70
   7 -10  -9    2.39    2.14
  -3  13   7   29.94    6.70
  -3  13   7   26.03    8.16
   4   9 -13    1.24    1.33
   7 -10   5    0.10    1.34
   7 -10   5    1.05    0.97
  -2  -3  19   29.27    7.20
  -2  -3  19   47.80   15.18
  -2  -3  19   27.26    8.38
   2   3 -19   15.41    7.45
   2  10 -14    4.87    2.31
  -2   8  15    2.55    2.22
  -2   8  15    2.48    1.22
   4   7   9    1.68    1.27
   4   7   9    0.53    1.15
   8  -3 -13   24.91    9.69
   2   0  17    2.44    1.97
   2   0  17    3.14    1.97
   2   0  17    4.35    1.82
   2   0  17    1.70    1.26
   0   2  18    7.47    4.74
   0   2  18    6.36    2.78
   0   2  18    3.57    2.66
  -3  -2  19   19.95    6.90
  -3  -2  19    2.32    3.13
   3   2 -19    5.21    2.60
  -3  -2  19    7.82    3.22
   6  -8  10   12.45    4.68
   6  -8  10    3.75    2.75
   2  -5  17    3.14    2.26
   2  -5  17   12.09    3.02
   5   3  11    2.40    2.30
   5   3  11    1.37    1.38
   5  -8  12    3.83    1.57
   5  -8  12    0.83    1.22
   6  -6  11    2.22    1.18
   6  -6  11    2.64    1.25
   6   0 -17    1.17    1.10
  -6   0  17   -0.08    1.47
   6   0 -17    0.58    1.31
  -2   1  19    5.72    3.51
  -2   1  19    6.85    4.00
  -2   1  19   10.14    3.84
  -1  13   6   41.56   10.47
  -1  13   6   41.97   11.48
   8  -1 -13   11.90    7.07
   7  -4 -15    1.57    1.51
  -2  14   3    3.53    2.60
  -2  14   3    2.48    2.21
   4  -9 -14   -0.88    1.64
  -4   9  14    1.58    1.21
  -4   9  14    0.71    1.60
   0  14  -2    5.83    2.02
   0  14  -2    0.92    1.02
   0 -14   2    2.37    2.08
   0 -14   2    2.55    1.47
  -2  10 -14   44.32   17.76
   2 -10  14   29.85   10.85
   2 -10  14   50.01   16.12
   0  14  -3    1.52    0.98
   0 -14   3    5.39    3.18
   0 -14   3    3.01    1.88
   0  14  -3    2.87    1.18
   5   1 -18    8.36    3.98
   5   1 -18   11.00    3.62
  -5  -1  18    4.81    4.18
   9  -6  -6    1.46    0.84
   9  -6  -6    6.90    2.92
   7   6  -9    0.71    1.51
  -1  -6  18   27.56    6.70
  -1  -6  18    3.07    2.82
   1   6 -18   21.39    4.86
   1   6 -18   12.16    3.76
   3 -11  12    2.39    1.41
  -3  11 -12    1.06    2.09
   3 -11  12   -0.22    2.69
   3 -11  12    2.28    1.01
   9  -4   0    3.43    1.75
   1  13  -8    4.05    2.29
   8  -9   2   18.31    6.87
  -3   1  19    1.50    2.13
   3  -1 -19    1.11    1.31
  -3   1  19    1.16    3.06
  -3   1  19    1.04    1.04
   4 -13   7    6.08    2.22
  -4  13  -7    3.83    2.30
   4 -13   7   28.77   11.50
   4 -13   7    6.52    2.97
   6  -1  11    4.03    1.44
   6  -2 -17    7.39    3.17
   6  -2 -17    2.71    1.52
  -1   0  19   10.43    6.25
  -1   0  19   16.17    6.05
  -1   0  19   15.77    4.34
   4   3  13    2.10    1.78
   4   3  13    1.38    1.34
   3  12  -1    0.60    1.52
  -3 -12   1    0.92    0.85
   3  12  -1    0.43    1.15
   7   4   4    1.58    1.58
   7   4   4    1.44    1.32
  -4  14   2    3.83    1.54
  -4  14   2    5.73    3.02
   5  -6  13   -0.08    1.82
   5  -6  13    1.93    1.33
   1  -4  18    3.94    2.57
   1  -4  18   -0.40    2.87
   8   2   2    4.05    1.70
  -2   4  18    3.72    1.26
  -2   4  18   -0.26    1.23
  -2   4  18    5.39    2.27
  -4   7  16   17.67    9.75
  -4   7  16   29.61    9.60
   3 -14   5    8.30    3.88
  -3  14  -5    9.01    3.01
   3 -14   5    1.05    1.53
  -1  14   2    3.90    2.36
  -1  14   2    4.02    2.22
  -1  14   2    1.82    1.59
   7 -11   3    3.94    1.95
   7 -11   3    1.08    1.06
  -1  -3  19   36.83    8.18
  -1  -3  19   25.84    9.85
   8 -10  -3   15.95    4.82
   8 -10  -3    9.44    4.48
  -2   7  16    4.37    1.78
  -2   7  16    2.39    1.27
   4 -10  12   -0.41    1.87
   4 -10  12   -0.44    1.81
  -4  10 -12    0.87    1.47
   4 -10  12   -1.17    2.15
   8 -10  -2    1.00    0.79
   7  -6 -14    0.08    0.76
  -3 -10  13    4.97    3.74
   0  14  -1    0.66    1.57
   0  14  -1    2.11    1.84
   0 -14   1    0.61    1.84
   0 -14   1    1.87    1.59
   4  -4  15    1.77    1.91
  -2   9  14    2.07    1.29
  -2   9  14   -0.05    1.99
   2  -9  15    8.07    3.22
   2  -9  15    0.78    1.40
  -2   9 -15    4.39    1.67
   4  10 -11   73.13    9.58
   4  10 -11   43.57   12.40
   2 -14   6   34.99    7.53
  -2  14  -6   25.67    5.56
   2 -14   6    7.90    5.88
   5   4 -17    0.20    1.12
   5   4 -17    3.18    1.93
  -5  -4  17   -0.74    1.72
  -4 -11   7   16.87    8.30
   4  11  -7   43.58   10.83
   4  11  -7   34.74   10.09
   5   9   2    1.85    3.26
   5   9   2    3.02    1.48
   5  -2 -18    0.81    0.88
   5  -2 -18    1.13    0.81
   5   6   8   23.14    6.93
   5   6   8   23.87    6.25
   0  14  -4    2.73    1.42
   0  14  -4    6.42    3.52
   0 -14   4   10.27    2.84
   0 -14   4    6.86    3.29
   7  -4   9   -1.19    1.47
   7   4 -13    0.65    1.23
  -4  -4  18    4.69    1.83
  -1  14  -6   19.11    5.60
   1 -14   6   63.53   12.13
   1 -14   6   40.17   14.39
  -1  14  -6   48.39   12.14
  -7  -3  14    0.47    0.81
   7   3 -14    2.11    1.97
   7   3 -14    2.85    1.33
   4  -2  15   13.03    3.91
   1  12   6    1.83    1.11
   4  11  -1    1.68    0.81
  -4 -11   1    1.21    1.07
   4  11  -1    2.00    1.50
   9  -6  -1    3.09    1.41
  -4  14  -3    0.53    1.29
   4 -14   3    0.84    1.34
  -1   7 -17    0.36    1.09
   1  -7  17    1.02    2.30
  -1   7 -17    0.70    2.32
  -2  13   7    2.38    1.34
  -2  13   7    3.36    1.44
   5  10  -4    0.32    0.90
  -5 -10   4    1.02    1.55
   5  10  -4    2.35    1.55
   5  10  -4    1.62    1.37
   8   3 -10    6.53    2.63
   9  -5   0    0.73    0.64
   5  10  -5    2.20    2.14
  -5 -10   5    0.51    0.96
   5  10  -5    1.92    2.51
   5  10  -5    5.15    3.54
   7   0   8    1.07    1.05
  -2 -13   3    5.89    2.72
   2  13  -3    2.66    3.00
   2  13  -3    5.30    2.10
   7  -3   9   19.00    6.93
   2  12 -10    3.74    2.25
  -2 -12  10    1.29    1.40
   6   8  -9    1.32    1.67
   1   7  14    2.08    3.00
   1   7  14    1.41    1.78
   1   7  14    1.30    1.08
   1   7  14    1.01    1.43
   8 -10  -4    2.07    1.11
   8 -10  -4    3.04    1.29
  -3  10  13    2.77    1.30
  -3  10  13    3.39    2.36
   3 -10 -13    1.33    2.25
   1   0  18    1.66    1.34
   1   0  18   -2.20    2.25
   1   0  18    1.04    1.70
   7  -9 -11    0.73    2.30
   7  -9 -11    2.60    1.18
   7  -9 -11    1.63    1.44
   2  13  -4    4.10    2.81
  -2 -13   4    1.13    1.10
   2  13  -4    1.09    1.65
   8 -10  -1   32.20   10.96
   3   4  14    2.69    0.93
   3   4  14    8.13    4.26
   2   6 -18   29.40    8.04
  -2  -6  18    5.39    4.15
  -2  -6  18   14.04    4.24
  -2  -6  18   14.02    4.47
   6 -12  -7    1.16    1.49
   6 -12  -7   -1.86    1.64
   8  -1   5    7.07    3.58
   4  -9  13   -0.16    1.08
   4  -9  13   -1.34    1.67
   9  -5  -8    5.03    2.19
  -4  13   7    8.06    3.20
  -4  13   7    2.47    1.82
  -3   6  17   10.07    3.37
  -3   6  17    5.48    2.86
   6   1 -17    4.82    2.69
   6   1 -17    9.26    4.12
  -6  -1  17    3.38    1.56
   5 -13   5    4.07    2.87
   5 -13   5    1.10    2.03
   2 -11  13    4.51    2.44
  -2  11 -13    2.66    1.67
   2 -11  13    7.16    3.64
  -3 -12   7    1.99    1.61
   3  12  -7    2.64    1.42
   3  12  -7    2.58    1.78
   8  -4 -13    1.69    0.90
   7 -11  -7    2.42    1.95
   7 -11  -7   -0.07    1.77
   7  -5   9   -0.47    2.32
   7  -5   9    1.55    2.32
   0   7  15    0.87    1.08
   0   7  15    0.83    1.10
   0   7  15    2.12    1.77
   9  -3  -9    5.20    4.32
   5  10  -3    1.91    1.28
   5  10  -3    0.70    0.79
  -5 -10   3    0.78    1.35
   2  13  -2   35.43    9.96
   2  13  -2   21.40    7.41
  -2 -13   2   24.15    6.92
   0   8  14    2.31    1.41
   0   8  14    3.77    1.49
   0   8  14    3.04    1.80
   3  11 -11    2.14    1.25
   3  11 -11    3.33    1.59
   8   0 -13  218.20   26.82
   6   6   5   -0.02    1.83
   6   6   5    1.04    1.92
   0  13   5   20.87    9.32
   0  13   5   17.08    5.68
   6 -13  -1    2.05    1.23
   6   7   3   20.74    8.29
   6   7   3   15.91    5.11
   5  10  -6    4.53    2.09
   5  10  -6    1.85    2.20
  -5 -10   6    1.59    1.05
   6 -11   7    0.42    1.71
   6 -11   7   -0.67    1.64
   6   8   0    1.44    1.10
   6   8   0   -0.43    1.89
   4 -11  11    9.49    4.83
  -4  11 -11    1.49    1.33
   4 -11  11    8.92    4.09
   4 -11  11    3.83    1.43
   9  -6  -7    3.87    1.69
   9  -6  -7    7.37    3.97
   1   8  13    0.57    0.87
   1   8  13    1.19    1.11
   1   8  13    1.68    0.81
   8  -7 -11    4.61    2.49
   8  -7 -11   15.97    6.32
   0  14   0   14.33    3.89
   0 -14   0    4.34    2.64
   0 -14   0    8.50    3.74
   0  14   0    8.03    3.99
   1   3  17   13.09    4.49
   1   3  17    1.95    1.31
   1   3  17   15.09    5.90
   1   3  17   11.08    3.46
   7   6   0   12.26    5.14
   2  13  -5    2.29    1.26
  -2 -13   5    1.41    1.23
   2  13  -5    1.74    1.93
   1   6  15    4.00    1.12
   1   6  15    3.34    3.42
   1   6  15    7.95    4.01
   1   6  15    1.47    1.72
   2   3  16   28.42   11.30
   2   3  16   24.89   10.02
   4   7 -16    5.95    2.62
  -4  -7  16    7.44    3.41
   3  11   4    4.37    1.87
  -3 -11  -4    2.27    1.39
   0  -9  16   14.60    3.64
   0   9 -16    5.09    2.71
  -3  -3  19   56.86   14.27
   3   3 -19   15.33    6.55
   8  -9  -8    9.59    5.20
   8  -9  -8   11.97    4.44
   8  -9  -8    6.25    3.48
   1 -12  12    3.63    2.06
   1 -12  12    7.70    8.22
  -1  12 -12    1.55    1.80
   0   6 -18    7.56    3.40
   0   6 -18    1.82    1.25
   0  -6  18    1.51    1.34
   8  -8   4    2.00    1.09
   8  -8   4    1.07    0.98
   0 -14   5    6.09    3.36
   0  14  -5    2.08    1.32
   0 -14   5    9.22    3.57
   5   8 -13   58.56   23.58
   5 -13  -6   35.27   17.22
   6 -13  -2    4.98    2.71
  -3  -8  16    0.99    0.88
   3   8 -16    1.80    1.46
  -4  14   3   23.77    8.54
  -4  14   3   21.27    7.21
   9  -7  -4    9.02    3.54
   0 -12  12    5.94    2.60
   0 -12  12    2.70    1.77
   0  12 -12    2.65    1.64
   6 -12   5    3.75    1.92
   5   2 -18   21.82    7.46
   5   2 -18   14.14    7.46
  -5  -2  18   26.82    8.24
  -4  10  13    2.34    1.58
   4 -10 -13   -1.01    1.40
  -4  10  13    2.68    1.34
   3   8  10    2.24    1.69
   3   8  10    0.20    1.77
   9  -7  -3   17.66    6.56
   6  -3 -17    1.92    1.21
   6  -3 -17    3.67    1.32
  -3   8 -15    0.83    1.00
   3  -8  15   -0.51    2.11
   3  -8  15    0.83    0.87
   4  -5  15    7.88    2.85
  -1  -9  16    4.71    2.74
   1   9 -16    4.65    1.78
   1   9 -16    3.67    1.96
   0 -10  15    3.31    1.49
   0  10 -15    0.33    1.86
   8  -6 -12   37.86   12.99
   6   7 -12   47.65   14.02
   9  -4  -9    5.72    2.96
   1  13   3    4.51    2.57
  -1 -13  -3    2.40    1.20
  -3  14   4    0.59    1.36
  -3  14   4    0.88    1.12
   4   9   6    1.59    0.99
   4   9   6    2.39    2.70
   3  12   0   10.52    2.46
  -3 -12   0    2.48    1.80
   8 -10  -5    0.63    1.55
   8 -10  -5    2.31    1.67
   8 -10   0   25.57    8.29
  -1   1  19    3.06    1.66
  -1   1  19   -0.87    1.23
  -1   1  19    2.27    1.35
   8  -7   5    2.00    1.06
   8  -7   5    2.96    1.61
   7  -2   9   15.98    7.33
   8  -4   6    2.16    1.49
  -2 -12  -4    3.36    2.03
   2  12   4   10.54    2.90
  -2  -4  19    4.38    1.61
  -2  -4  19    3.48    1.55
   2   4 -19    2.23    1.39
  -2  -4  19    3.72    2.93
  -3  -7  17   -0.00    1.71
   3   7 -17    1.27    1.69
  -3   2  19    7.70    3.46
  -3   2  19    8.24    5.03
  -3   2  19   11.46    5.23
  -1  13 -10   14.33    6.23
   1 -13  10   16.12    5.73
   1 -13  10    3.19    2.11
   6  -8 -14    2.60    1.86
   4   0 -19    1.07    1.12
   4   0 -19    1.13    0.83
  -4   0  19    1.87    1.31
   3  -6  16    1.72    2.37
   3  -6  16    2.21    2.48
   9  -7  -5   12.98    4.29
   5   2  12    3.15    1.60
   5   2  12    2.71    1.17
   5   0  13    2.00    1.19
   5   0  13    0.98    1.11
   5 -12  -9    1.91    1.29
   5   9 -11  129.97   28.94
   4  -1  15    5.22    2.66
  -2   6  17    2.72    1.59
  -2   6  17    2.42    1.45
  -2 -13   1   11.90    4.54
   2  13  -1   12.00    3.21
   2  13  -1    8.68    6.28
   5 -11 -11    1.37    1.25
  -2   2  19    5.61    2.55
  -2   2  19   10.44    2.88
  -2   2  19   11.95    5.62
  -1  12   9   16.11    5.84
  -1  12   9   10.49    3.83
   5  10  -2    7.59    3.43
  -5 -10   2   13.16    4.19
   5  10  -2    2.67    1.71
   7   5 -12    4.53    2.55
  -1  -4  19    0.46    1.13
  -1  -4  19    3.07    1.61
  -1  -4  19   -0.27    2.04
   4  11  -8    5.85    2.60
   4  11  -8    2.90    1.78
   9  -7  -2    5.40    4.31
  -4  -6  17    0.63    1.41
   4   6 -17    1.55    1.30
   4   6 -17    2.32    1.78
   7   2 -15   16.07    9.27
   5   8   5    2.47    2.00
   5   8   5    2.00    2.11
   4  -6 -17    1.99    1.49
   4   8 -15   10.26    4.41
  -4  -8  15   26.20    8.53
   4   1 -19    4.96    2.50
   4   1 -19    2.38    1.38
  -4  -1  19    6.82    3.18
   8  -8 -10    2.64    1.08
   8  -8 -10    1.42    1.26
   1  -5  18    4.10    2.77
   1  -5  18    3.92    2.17
   7 -12  -2    3.33    1.44
   7 -12  -2    1.49    1.14
   8  -3   6    0.48    2.12
  -4  14  -4    9.96    3.36
   4 -14   4   10.43    4.13
   4 -14   4    9.54    4.60
  -2  10  13   -0.62    2.21
  -2  10  13    2.42    1.17
   0   6  16    9.25    4.12
   0   6  16   15.75    4.49
   0   6  16    2.91    1.89
   5  10  -7   19.61    4.40
   5  10  -7   13.31    4.16
  -2  14   4    9.06    4.15
  -2  14   4    9.23    3.48
   9  -6   0    2.57    1.47
   6 -13  -3    0.36    1.05
   7 -12  -1    1.95    0.81
   7 -12  -1    4.85    3.03
   1   8 -17   13.18    3.67
   1   8 -17   28.39    5.77
  -1  -8  17   11.37    5.19
   9  -4   1    3.23    1.76
   7   6 -10    6.11    3.41
   3 -13   9    6.87    2.73
   3 -13   9    6.25    2.94
  -3  13  -9    6.46    3.27
   3 -13   9   16.20    5.09
   5  -3 -18    0.29    0.77
  -4 -11   0   19.33    5.51
   4  11   0    9.14    3.38
   4  11   0   16.40    7.16
   8  -5   6    1.56    1.56
  -1  14   3    1.61    1.75
  -1  14   3   -0.12    1.78
   2   1  17    2.37    1.46
   2   1  17    0.10    0.75
   6  -7  11    3.69    1.99
   6  -7  11   -0.86    1.85
   7  -9   7    3.67    2.32
   7  -9   7    3.59    1.52
   7  -9   7    3.00    1.93
   2  -8  16    5.18    3.61
  -2   8 -16    2.16    2.12
  -1 -10  15    5.36    2.35
   1  10 -15    2.80    2.11
   1  10 -15    2.24    1.58
   0   9  13   10.48    3.94
   0   9  13    8.82    3.67
   2  13  -6    3.97    2.02
   2  13  -6    7.53    3.10
  -2 -13   6    4.57    2.09
   0  11  10    0.84    1.58
   0  11  10    2.12    1.86
   2  -6  17    1.32    1.16
  -2   6 -17    0.03    2.20
  -3  12  10   16.42    7.57
  -3  12  10   16.11    3.64
   6  -7 -15    1.33    1.05
   0  12   8    1.49    1.45
   0  12   8    0.27    0.94
   0  -2  19   -0.12    2.49
   0  -2  19   -0.67    1.30
   0  -2  19    2.36    1.84
   3 -14   6    4.63    1.67
   3 -14   6    7.14    2.69
  -3  14  -6    8.31    3.70
   7  -5 -15    5.69    3.94
   4  -1 -19    0.47    0.79
  -4   1  19    0.41    0.83
   6   4   8   60.12   16.86
   6   4   8   63.59   15.58
   6  -9 -13    4.95    2.83
   2   7  13    0.62    1.05
   2   7  13    2.95    1.45
   3 -12  11    0.37    1.63
   3 -12  11    3.15    2.50
  -3  12 -11    2.17    2.15
   3 -12  11    3.56    1.78
   8  -9   3   -0.22    1.50
   7  -6   9   10.23    3.59
   7  -6   9   16.98    9.50
   6   3   9    4.14    1.68
   6   3   9    1.25    0.94
   7 -12  -3    7.39    4.08
   7 -12  -3    5.90    4.39
   3   9 -15    1.63    1.29
  -3  -9  15    0.49    1.68
   4   8   8    1.06    1.75
   4   8   8   -0.35    2.22
   8   2 -12   10.48    4.84
   5  -8 -15    0.14    1.27
   2   6  14   14.15    5.81
   2   6  14    2.61    1.59
   5 -12   8    5.33    3.34
   5 -12   8    2.56    2.14
  -6  -5  15    8.60    3.62
   6   5 -15    6.85    3.67
   6   5 -15    5.49    2.01
   0   8 -17    0.75    1.40
   0  -8  17    6.19    2.94
   0   8 -17    3.83    2.48
  -1  11  11   -0.48    2.05
  -1  11  11    6.53    5.68
   0  14   1   24.18   11.52
   0  14   1   59.17   14.98
   0  14   1   18.26    6.66
   6   0  11   17.57    5.00
   0  -1  19   14.29    6.21
   0  -1  19   13.21    4.30
   0  -1  19   10.20    2.80
  -1  14  -7   34.63   10.38
   1 -14   7   27.01    8.26
   1 -14   7   11.80    7.85
   1  13  -9    1.13    1.03
  -1 -13   9    0.26    1.56
   7 -11   4    2.86    1.38
   7 -12   0   -0.29    1.26
  -3 -12   8    3.52    1.32
   3  12  -8    3.45    2.04
   3  12  -8    1.52    1.08
   9  -5   1    1.35    1.21
   0  13 -10    7.00    2.91
   0 -13  10    4.99    1.92
   0 -13  10    4.38    1.91
   7  -1 -16    4.19    1.96
   7  -1 -16    8.15    3.35
   9  -7  -6   38.23   13.33
   9  -7  -6   16.22    7.93
   7  -8   8    2.04    1.12
   7  -8   8    1.33    2.08
   5  -7  13    3.09    1.45
   5  -7  13    1.36    1.45
  -2  14  -7    2.32    1.40
   2 -14   7    1.09    1.70
   2 -14   7    4.66    1.93
   6 -11 -10    1.62    1.24
   6 -11 -10    1.36    1.33
   0  14  -6    1.22    1.44
   0 -14   6    2.77    1.92
   0  14  -6    2.94    1.44
   0 -14   6    1.30    1.35
   4  -8  14    2.33    1.60
   7   5   3    2.55    1.64
   7   5   3    0.31    1.21
   6   2 -17    5.80    3.19
   6   2 -17   16.67    5.43
  -6  -2  17    8.62    3.60
   5  -9 -14    1.59    1.33
  -1  10 -15    2.45    1.16
   1 -10  15   -0.30    2.67
  -1   4  18    0.18    1.32
  -1   4  18    1.49    1.55
  -1   4  18    4.79    2.36
   7  -2 -16    1.25    1.48
   7  -2 -16    1.17    1.79
   5   7   7   40.73   14.65
   5   7   7   36.19   11.76
   0  -3  19    8.62    3.32
   0  -3  19   -0.04    1.46
   0  -3  19    4.01    2.12
   1   9  12    0.31    0.63
   8   1   4    0.94    2.18
   1   1  18    4.26    1.78
   1   1  18   10.55    3.85
   1   1  18    6.75    3.19
   1   1  18   11.38    4.75
   9  -5  -9    6.07    4.48
   9  -6  -8    1.19    1.44
   6   8 -10   -0.26    2.21
   9  -7  -1    3.66    1.44
   8 -10  -6    0.83    1.10
   8 -10  -6    2.54    0.91
   8  -5 -13   24.39   10.21
  -2  13 -10   13.31    4.95
   2 -13  10    1.17    0.93
   2 -13  10    2.73    1.75
   2 -13  10   16.01    4.85
   1   5  16    1.76    0.88
   1   5  16    0.68    0.84
   1   5  16    1.45    1.64
   1   5  16    2.42    1.53
   4   2  14    1.22    0.89
  -1   8  15    5.31    3.25
  -1   8  15    6.83    2.90
   7   2   7    5.93    3.25
   4  10   4   10.63    4.53
   4  10   4    8.45    3.21
   7   3   6    1.56    1.45
   4 -12 -10    2.02    0.69
  -4  12  10    4.70    1.57
  -4  12  10    2.29    1.28
   8 -10   1   -0.20    1.63
   4   2 -19    0.78    1.17
   4   2 -19    1.47    0.93
  -4  -2  19    1.22    1.09
   7 -10 -10    8.02    6.18
   7 -10 -10   20.21    7.78
   0 -11  14    7.15    2.78
   0  11 -14    7.50    3.28
   7 -10   6    1.85    1.89
  -4  14   4    8.49    3.34
  -4  14   4    5.07    2.23
   6   6 -14    2.64    2.31
   2  13   0   -0.71    2.42
  -2 -13   0   -0.21    1.82
   2  13   0    0.64    1.17
   8  -2   6    1.37    1.10
   1  -9  16    1.92    1.93
  -1   9 -16    1.85    1.72
   8   3 -11   21.95    8.04
  -5 -10   1    1.93    1.70
   5  10  -1    0.82    0.76
   6 -13  -4    1.93    1.64
   7   7  -5    2.10    1.89
   7 -12  -4    5.01    3.19
   7 -12  -4    6.64    2.66
   2 -12  12    3.14    1.94
   2 -12  12    5.59    3.49
  -2  12 -12    2.28    2.01
   6   5   7    2.59    1.69
   6   5   7   -0.82    1.80
   8   2   3    0.73    1.53
   8   0   5    5.43    3.34
;
_shelx_hkl_checksum              66202
_olex2_submission_special_instructions 'No special instructions were received'
loop_
_space_group_symop_operation_xyz
'x, y, z'
'-x, -y, -z'
loop_
_atom_site_label
_atom_site_type_symbol
_atom_site_fract_x
_atom_site_fract_y
_atom_site_fract_z
_atom_site_U_iso_or_equiv
_atom_site_adp_type
_atom_site_occupancy
_atom_site_site_symmetry_order
_atom_site_calc_flag
Si1 Si -0.12796(18) 0.61383(11) 0.79299(9) 0.0482(5) Uani 1 1 d
O3 O 0.7571(5) 0.7841(3) 0.4230(3) 0.0609(10) Uani 1 1 d
O11 O 0.6861(6) 0.9402(4) 0.4697(3) 0.0756(13) Uani 1 1 d
O13 O -0.0918(5) 0.7531(3) 0.8151(2) 0.0502(9) Uani 1 1 d
N4 N -0.1275(6) 1.2428(4) 0.9538(3) 0.0555(11) Uani 1 1 d
C5 C -0.4750(6) 1.1493(4) 0.9062(3) 0.0425(10) Uani 1 1 d
C6 C -0.5863(7) 1.2207(4) 0.9171(3) 0.0474(11) Uani 1 1 d
C7 C -0.4295(6) 0.9617(4) 0.8518(3) 0.0412(10) Uani 1 1 d
C8 C -0.7728(7) 1.1812(4) 0.8878(3) 0.0500(12) Uani 1 1 d
C9 C -0.7346(6) 0.9979(4) 0.8342(3) 0.0464(11) Uani 1 1 d
C10 C -0.5473(6) 1.0371(4) 0.8637(3) 0.0411(10) Uani 1 1 d
C12 C -0.2100(6) 0.8177(4) 0.8256(3) 0.0422(10) Uani 1 1 d
C14 C -0.2828(6) 1.1981(4) 0.9328(3) 0.0445(11) Uani 1 1 d
C15 C -0.2930(6) 0.9465(4) 0.9183(3) 0.0430(10) Uani 1 1 d
C16 C 0.0823(8) 0.5848(4) 0.8562(3) 0.0535(12) Uani 1 1 d
C17 C -0.8483(7) 1.0702(4) 0.8459(3) 0.0497(12) Uani 1 1 d
C18 C -0.4541(7) 0.9033(4) 0.7714(3) 0.0510(12) Uani 1 1 d
C19 C -0.3432(7) 0.8310(4) 0.7585(3) 0.0507(12) Uani 1 1 d
C20 C -0.3076(7) 0.5481(4) 0.9215(3) 0.0545(12) Uani 1 1 d
C21 C -0.1684(8) 0.5748(5) 0.6735(4) 0.0603(14) Uani 1 1 d
C22 C 0.6629(8) 0.8386(5) 0.4615(4) 0.0609(14) Uani 1 1 d
C23 C -0.0166(8) 0.6327(5) 0.6365(4) 0.0596(14) Uani 1 1 d
C24 C 0.2596(7) 0.6732(4) 0.8519(4) 0.0536(12) Uani 1 1 d
C25 C 1.0040(8) 0.7951(5) 0.3545(4) 0.0614(14) Uani 1 1 d
C26 C -0.3433(7) 0.5446(5) 0.8247(4) 0.0585(13) Uani 1 1 d
C27 C 0.2698(8) 0.7361(5) 0.5680(3) 0.0553(13) Uani 1 1 d
C28 C 0.1579(8) 0.8009(5) 0.5930(4) 0.0615(14) Uani 1 1 d
C29 C 0.5261(8) 0.7561(5) 0.4959(4) 0.0597(14) Uani 1 1 d
C30 C 0.2384(9) 0.6213(5) 0.5758(4) 0.0664(15) Uani 1 1 d
C31 C 0.4175(8) 0.8013(5) 0.5321(4) 0.0617(14) Uani 1 1 d
C32 C 0.0115(8) 0.7472(5) 0.6274(4) 0.0644(15) Uani 1 1 d
C33 C 1.1762(9) 0.8736(5) 0.3384(4) 0.0659(15) Uani 1 1 d
C34 C 0.0987(9) 0.4625(5) 0.8344(4) 0.0681(16) Uani 1 1 d
C35 C -0.4419(9) 0.4252(5) 0.7797(5) 0.0732(17) Uani 1 1 d
C36 C 0.8984(9) 0.8641(5) 0.3920(4) 0.0689(16) Uani 1 1 d
C37 C 0.0984(9) 0.5695(5) 0.6098(4) 0.0683(16) Uani 1 1 d
C38 C 1.2759(10) 0.8099(6) 0.2923(4) 0.0727(17) Uani 1 1 d
C39 C -0.1845(6) 0.8742(4) 0.9066(3) 0.0441(10) Uani 1 1 d
loop_
_atom_site_aniso_label
_atom_site_aniso_U_11
_atom_site_aniso_U_22
_atom_site_aniso_U_33
_atom_site_aniso_U_23
_atom_site_aniso_U_13
_atom_site_aniso_U_12
Si1 0.0444(9) 0.0427(8) 0.0580(9) 0.0114(6) 0.0175(6) 0.0063(6)
O3 0.055(2) 0.062(2) 0.068(2) 0.0103(17) 0.0217(18) 0.0133(18)
O11 0.072(3) 0.062(3) 0.098(3) 0.011(2) 0.036(2) 0.012(2)
O13 0.0426(19) 0.0473(18) 0.065(2) 0.0103(15) 0.0194(15) 0.0126(14)
N4 0.051(3) 0.049(2) 0.068(3) 0.0101(19) 0.019(2) 0.011(2)
C5 0.035(2) 0.042(2) 0.054(3) 0.0158(19) 0.0161(19) 0.0116(18)
C6 0.042(3) 0.050(3) 0.058(3) 0.018(2) 0.019(2) 0.016(2)
C7 0.036(2) 0.044(2) 0.045(2) 0.0138(17) 0.0108(18) 0.0106(18)
C8 0.042(3) 0.053(3) 0.062(3) 0.025(2) 0.018(2) 0.016(2)
C9 0.039(3) 0.047(2) 0.055(3) 0.017(2) 0.013(2) 0.0110(19)
C10 0.036(2) 0.043(2) 0.048(2) 0.0152(17) 0.0150(18) 0.0119(18)
C12 0.035(2) 0.043(2) 0.051(2) 0.0117(18) 0.0133(18) 0.0088(18)
C14 0.033(3) 0.043(2) 0.059(3) 0.0182(19) 0.013(2) 0.0084(19)
C15 0.038(2) 0.040(2) 0.050(2) 0.0105(18) 0.0105(19) 0.0080(18)
C16 0.058(3) 0.042(2) 0.062(3) 0.011(2) 0.020(2) 0.010(2)
C17 0.042(3) 0.051(3) 0.060(3) 0.022(2) 0.015(2) 0.015(2)
C18 0.040(3) 0.051(3) 0.061(3) 0.007(2) 0.011(2) 0.013(2)
C19 0.043(3) 0.057(3) 0.050(3) 0.008(2) 0.006(2) 0.012(2)
C20 0.051(3) 0.056(3) 0.060(3) 0.015(2) 0.023(2) 0.008(2)
C21 0.052(3) 0.062(3) 0.062(3) 0.010(2) 0.021(2) -0.001(2)
C22 0.063(4) 0.057(3) 0.059(3) 0.010(2) 0.016(3) 0.008(3)
C23 0.056(3) 0.058(3) 0.057(3) 0.005(2) 0.015(2) 0.000(2)
C24 0.045(3) 0.051(3) 0.071(3) 0.018(2) 0.022(2) 0.014(2)
C25 0.055(3) 0.067(3) 0.063(3) 0.017(3) 0.019(3) 0.013(3)
C26 0.042(3) 0.064(3) 0.064(3) 0.010(2) 0.012(2) 0.003(2)
C27 0.055(3) 0.057(3) 0.048(3) 0.009(2) 0.009(2) 0.006(2)
C28 0.052(3) 0.068(3) 0.058(3) 0.010(2) 0.012(2) 0.005(3)
C29 0.057(3) 0.059(3) 0.059(3) 0.009(2) 0.016(2) 0.006(3)
C30 0.063(4) 0.068(4) 0.063(3) 0.011(3) 0.016(3) 0.004(3)
C31 0.058(3) 0.070(3) 0.054(3) 0.010(2) 0.017(2) 0.007(3)
C32 0.059(4) 0.071(3) 0.051(3) 0.014(2) 0.008(2) -0.004(3)
C33 0.073(4) 0.064(3) 0.065(3) 0.014(3) 0.020(3) 0.022(3)
C34 0.079(4) 0.043(3) 0.088(4) 0.013(3) 0.028(3) 0.017(3)
C35 0.066(4) 0.063(3) 0.082(4) 0.012(3) 0.023(3) -0.005(3)
C36 0.068(4) 0.065(3) 0.076(4) 0.019(3) 0.031(3) 0.007(3)
C37 0.077(4) 0.066(3) 0.060(3) 0.004(3) 0.024(3) 0.011(3)
C38 0.071(4) 0.083(4) 0.070(4) 0.018(3) 0.030(3) 0.017(3)
C39 0.037(2) 0.041(2) 0.055(3) 0.0127(19) 0.0131(19) 0.0079(18)
loop_
_atom_type_symbol
_atom_type_description
_atom_type_scat_dispersion_real
_atom_type_scat_dispersion_imag
_atom_type_scat_source
C C 0.0181 0.0091 'International Tables Vol C Tables 4.2.6.8 and 6.1.1.4'
H H 0.0000 0.0000 'International Tables Vol C Tables 4.2.6.8 and 6.1.1.4'
N N 0.0311 0.0180 'International Tables Vol C Tables 4.2.6.8 and 6.1.1.4'
O O 0.0492 0.0322 'International Tables Vol C Tables 4.2.6.8 and 6.1.1.4'
Si Si 0.2541 0.3302 'International Tables Vol C Tables 4.2.6.8 and 6.1.1.4'
loop_
_geom_angle_atom_site_label_1
_geom_angle_atom_site_label_2
_geom_angle_atom_site_label_3
_geom_angle
O13 Si1 C16 103.5(2)
O13 Si1 C21 109.4(2)
O13 Si1 C26 107.2(2)
C16 Si1 C21 113.5(3)
C16 Si1 C26 114.8(3)
C26 Si1 C21 108.1(3)
C22 O3 C36 112.1(4)
C12 O13 Si1 130.5(3)
C6 C5 C10 121.9(4)
C6 C5 C14 117.0(4)
C10 C5 C14 120.9(4)
C8 C6 C5 120.0(5)
C15 C7 C10 122.4(4)
C18 C7 C10 119.5(4)
C18 C7 C15 118.1(4)
C6 C8 C17 119.4(5)
C10 C9 C17 120.3(4)
C5 C10 C7 121.9(4)
C9 C10 C5 117.9(4)
C9 C10 C7 120.2(4)
O13 C12 C19 121.9(4)
O13 C12 C39 117.4(4)
C19 C12 C39 120.6(5)
N4 C14 C5 176.8(5)
C39 C15 C7 121.9(4)
C24 C16 Si1 113.3(3)
C34 C16 Si1 113.9(4)
C34 C16 C24 109.8(5)
C8 C17 C9 120.6(5)
C7 C18 C19 120.4(5)
C12 C19 C18 119.9(5)
C23 C21 Si1 114.8(4)
O3 C22 C29 111.1(5)
O11 C22 O3 124.2(5)
O11 C22 C29 124.7(6)
C32 C23 C21 120.1(6)
C32 C23 C37 119.8(5)
C37 C23 C21 120.1(5)
C36 C25 C33 110.4(5)
C20 C26 Si1 111.0(4)
C35 C26 Si1 115.3(4)
C35 C26 C20 111.2(5)
C28 C27 C31 114.6(5)
C30 C27 C28 120.9(5)
C30 C27 C31 124.4(6)
C27 C28 C32 119.5(5)
C31 C29 C22 116.1(5)
C27 C30 C37 119.7(6)
C29 C31 C27 125.3(5)
C23 C32 C28 119.2(6)
C38 C33 C25 112.5(5)
C25 C36 O3 107.9(5)
C30 C37 C23 120.9(6)
C15 C39 C12 119.0(4)
loop_
_geom_bond_atom_site_label_1
_geom_bond_atom_site_label_2
_geom_bond_distance
Si1 O13 1.654(4)
Si1 C16 1.857(6)
Si1 C21 1.904(6)
Si1 C26 1.897(6)
O3 C22 1.326(7)
O3 C36 1.496(7)
O11 C22 1.203(7)
O13 C12 1.380(6)
N4 C14 1.168(6)
C5 C6 1.398(6)
C5 C10 1.413(7)
C5 C14 1.430(7)
C6 C8 1.381(7)
C7 C10 1.480(6)
C7 C15 1.393(6)
C7 C18 1.395(7)
C8 C17 1.399(7)
C9 C10 1.387(7)
C9 C17 1.424(7)
C12 C19 1.375(7)
C12 C39 1.392(7)
C15 C39 1.391(6)
C16 C24 1.561(7)
C16 C34 1.551(7)
C18 C19 1.412(7)
C20 C26 1.531(8)
C21 C23 1.503(8)
C22 C29 1.520(8)
C23 C32 1.386(8)
C23 C37 1.432(9)
C25 C33 1.543(8)
C25 C36 1.500(9)
C26 C35 1.523(8)
C27 C28 1.414(8)
C27 C30 1.384(8)
C27 C31 1.499(8)
C28 C32 1.429(8)
C29 C31 1.333(8)
C30 C37 1.379(9)
C33 C38 1.498(9)
loop_
_geom_torsion_atom_site_label_1
_geom_torsion_atom_site_label_2
_geom_torsion_atom_site_label_3
_geom_torsion_atom_site_label_4
_geom_torsion
Si1 O13 C12 C19 -69.8(6)
Si1 O13 C12 C39 113.2(4)
Si1 C21 C23 C32 -73.1(7)
Si1 C21 C23 C37 107.5(6)
O3 C22 C29 C31 -176.7(5)
O11 C22 C29 C31 4.8(9)
O13 Si1 C16 C24 -43.2(4)
O13 Si1 C16 C34 -169.6(4)
O13 Si1 C26 C20 -75.7(4)
O13 Si1 C26 C35 156.8(4)
O13 C12 C19 C18 -176.3(4)
O13 C12 C39 C15 175.6(4)
C5 C6 C8 C17 -1.2(7)
C6 C5 C10 C7 179.7(4)
C6 C5 C10 C9 -1.4(6)
C6 C8 C17 C9 0.7(7)
C7 C15 C39 C12 1.7(7)
C7 C18 C19 C12 0.0(7)
C10 C5 C6 C8 1.6(7)
C10 C7 C15 C39 179.2(4)
C10 C7 C18 C19 179.9(4)
C10 C9 C17 C8 -0.5(7)
C14 C5 C6 C8 175.9(4)
C14 C5 C10 C7 5.6(6)
C14 C5 C10 C9 -175.5(4)
C15 C7 C10 C5 48.6(6)
C15 C7 C10 C9 -130.3(5)
C15 C7 C18 C19 0.1(7)
C16 Si1 O13 C12 -143.4(4)
C16 Si1 C26 C20 38.7(5)
C16 Si1 C26 C35 -88.9(5)
C17 C9 C10 C5 0.8(6)
C17 C9 C10 C7 179.8(4)
C18 C7 C10 C5 -131.2(5)
C18 C7 C10 C9 49.9(6)
C18 C7 C15 C39 -1.0(7)
C19 C12 C39 C15 -1.5(7)
C21 Si1 O13 C12 95.3(4)
C21 Si1 C16 C24 75.3(4)
C21 Si1 C16 C34 -51.1(5)
C21 Si1 C26 C20 166.5(4)
C21 Si1 C26 C35 38.9(5)
C21 C23 C32 C28 179.3(5)
C21 C23 C37 C30 180.0(5)
C22 O3 C36 C25 176.6(5)
C22 C29 C31 C27 178.3(5)
C26 Si1 O13 C12 -21.7(5)
C26 Si1 C16 C24 -159.7(4)
C26 Si1 C16 C34 73.9(5)
C27 C28 C32 C23 0.7(8)
C27 C30 C37 C23 0.7(9)
C28 C27 C30 C37 -1.3(9)
C28 C27 C31 C29 -172.2(6)
C30 C27 C28 C32 0.6(8)
C30 C27 C31 C29 6.6(9)
C31 C27 C28 C32 179.4(5)
C31 C27 C30 C37 -180.0(5)
C32 C23 C37 C30 0.6(9)
C33 C25 C36 O3 -168.2(4)
C36 O3 C22 O11 1.0(8)
C36 O3 C22 C29 -177.5(4)
C36 C25 C33 C38 -173.9(5)
C37 C23 C32 C28 -1.3(8)
C39 C12 C19 C18 0.6(7)
