#------------------------------------------------------------------------------
#$Date: 2019-11-25 15:29:36 +0200 (Mon, 25 Nov 2019) $
#$Revision: 241203 $
#$URL: file:///home/coder/svn-repositories/cod/cif/4/13/08/4130844.cif $
#------------------------------------------------------------------------------
#
# This file is available in the Crystallography Open Database (COD),
# http://www.crystallography.net/
#
# All data on this site have been placed in the public domain by the
# contributors.
#
data_4130844
loop_
_publ_author_name
'Karothu, Durga Prasad'
'Weston, James'
'Desta, Israel Tilahun'
'Naumov, Pan\<ce'
_publ_section_title
;
 Shape-Memory and Self-Healing Effects in Mechanosalient Molecular
 Crystals.
;
_journal_issue                   40
_journal_name_full               'Journal of the American Chemical Society'
_journal_page_first              13298
_journal_page_last               13306
_journal_paper_doi               10.1021/jacs.6b07406
_journal_volume                  138
_journal_year                    2016
_chemical_formula_moiety         'C8 H6 O4'
_chemical_formula_sum            'C8 H6 O4'
_chemical_formula_weight         166.13
_space_group_crystal_system      triclinic
_space_group_IT_number           2
_space_group_name_Hall           '-P 1'
_space_group_name_H-M_alt        'P -1'
_atom_sites_solution_hydrogens   mixed
_atom_sites_solution_primary     iterative
_audit_creation_date             2016-07-03
_audit_creation_method
;
Olex2 1.2
(compiled 2016.02.19 svn.r3266 for OlexSys, GUI svn.r5155)
;
_cell_angle_alpha                82.942(2)
_cell_angle_beta                 81.006(2)
_cell_angle_gamma                88.982(2)
_cell_formula_units_Z            1
_cell_length_a                   3.7793(6)
_cell_length_b                   6.4791(10)
_cell_length_c                   7.4040(11)
_cell_measurement_reflns_used    4967
_cell_measurement_temperature    390(2)
_cell_measurement_theta_max      26.0
_cell_measurement_theta_min      2.8
_cell_volume                     177.71(5)
_computing_cell_refinement       'SAINT v8.34A (Bruker, 2013)'
_computing_data_reduction        'SAINT v8.34A (Bruker, 2013)'
_computing_molecular_graphics    'Olex2 (Dolomanov et al., 2009)'
_computing_publication_material  'Olex2 (Dolomanov et al., 2009)'
_computing_structure_refinement  'ShelXL (Sheldrick, 2015)'
_computing_structure_solution    'olex2.solve (Bourhis et al., 2015)'
_diffrn_ambient_temperature      389.99
_diffrn_measured_fraction_theta_full 0.998
_diffrn_measured_fraction_theta_max 0.999
_diffrn_measurement_device_type  'Bruker APEX-II CCD'
_diffrn_measurement_method       '\f and \w scans'
_diffrn_radiation_type           MoK\a
_diffrn_radiation_wavelength     0.71073
_diffrn_reflns_av_R_equivalents  0.0189
_diffrn_reflns_av_unetI/netI     0.0102
_diffrn_reflns_Laue_measured_fraction_full 0.998
_diffrn_reflns_Laue_measured_fraction_max 0.999
_diffrn_reflns_limit_h_max       4
_diffrn_reflns_limit_h_min       -4
_diffrn_reflns_limit_k_max       7
_diffrn_reflns_limit_k_min       -7
_diffrn_reflns_limit_l_max       9
_diffrn_reflns_limit_l_min       -9
_diffrn_reflns_number            4915
_diffrn_reflns_point_group_measured_fraction_full 0.998
_diffrn_reflns_point_group_measured_fraction_max 0.999
_diffrn_reflns_theta_full        25.242
_diffrn_reflns_theta_max         25.995
_diffrn_reflns_theta_min         2.806
_diffrn_standards_number         0
_exptl_absorpt_coefficient_mu    0.127
_exptl_absorpt_correction_T_max  0.7461
_exptl_absorpt_correction_T_min  0.6481
_exptl_absorpt_correction_type   multi-scan
_exptl_absorpt_process_details
;
SADABS-2014/5 (Bruker,2014/5) was used for absorption correction.
wR2(int) was 0.0705 before and 0.0461 after correction.
The Ratio of minimum to maximum transmission is 0.8687.
The \l/2 correction factor is 0.00150.
;
_exptl_crystal_colour            Colorless
_exptl_crystal_density_diffrn    1.552
_exptl_crystal_description       cuboid
_exptl_crystal_F_000             86
_exptl_crystal_size_max          0.3
_exptl_crystal_size_mid          0.2
_exptl_crystal_size_min          0.2
_refine_diff_density_max         0.194
_refine_diff_density_min         -0.189
_refine_diff_density_rms         0.039
_refine_ls_extinction_method     none
_refine_ls_goodness_of_fit_ref   1.147
_refine_ls_hydrogen_treatment    mixed
_refine_ls_matrix_type           full
_refine_ls_number_parameters     59
_refine_ls_number_reflns         697
_refine_ls_number_restraints     0
_refine_ls_restrained_S_all      1.147
_refine_ls_R_factor_all          0.0430
_refine_ls_R_factor_gt           0.0395
_refine_ls_shift/su_max          0.000
_refine_ls_shift/su_mean         0.000
_refine_ls_structure_factor_coef Fsqd
_refine_ls_weighting_details
'w=1/[\s^2^(Fo^2^)+(0.0590P)^2^+0.0480P] where P=(Fo^2^+2Fc^2^)/3'
_refine_ls_weighting_scheme      calc
_refine_ls_wR_factor_gt          0.1142
_refine_ls_wR_factor_ref         0.1174
_reflns_Friedel_coverage         0.000
_reflns_number_gt                629
_reflns_number_total             697
_reflns_threshold_expression     'I > 2\s(I)'
_cod_data_source_file            ja6b07406_si_020.cif
_cod_data_source_block           TA_Form1
_cod_depositor_comments
;
The following automatic conversions were performed:

data item '_exptl_absorpt_correction_type' value 'MULTI-SCAN' was
changed to 'multi-scan' in accordance with the
/home/saulius/struct/COD-crude-data/automatic-downloads/DataCite-retrospective/ACS/depositions/lib/dictionaries/cif_core.dic
dictionary named 'cif_core.dic' version 2.4.2 last updated on
2011-04-26.

Automatic conversion script
Id: cif_fix_values 6909 2019-04-08 15:41:33Z antanas 
;
_cod_database_code               4130844
_shelx_space_group_comment
;
The symmetry employed for this shelxl refinement is uniquely defined
by the following loop, which should always be used as a source of
symmetry information in preference to the above space-group names.
They are only intended as comments.
;
_shelx_estimated_absorpt_t_max   0.975
_shelx_estimated_absorpt_t_min   0.963
_olex2_refinement_description
;
1. Fixed Uiso
 At 1.2 times of:
  All C(H) groups
2.a Aromatic/amide H refined with riding coordinates:
 C4(H4), C3(H3)
;
_shelx_res_file
;
    mo_ta_cycle_390k_0m.res created by SHELXL-2014/7

TITL
CELL 0.71073 3.7793 6.4791 7.404 82.942 81.006 88.982
ZERR 1 0.0006 0.001 0.0011 0.002 0.002 0.002
LATT 1
SFAC C H O
UNIT 8 6 4

L.S. 15
PLAN  -9 0 0
SIZE 0.2 0.2 0.3
TEMP 116.84
CONF
fmap 2
acta
MORE -1
BOND $H
OMIT 0 52
REM <olex2.extras>
REM <HklSrc "%.\\mo_TA_Cycle_390k_0m.hkl">
REM </olex2.extras>

WGHT    0.059000    0.048000
FVAR       0.87359
O2    3    0.434043    0.963084    0.733945    11.00000    0.08205    0.04330 =
         0.03855    0.00238   -0.00395   -0.02795
O1    3    0.280553    0.761539    0.537394    11.00000    0.09699    0.05680 =
         0.03040    0.00195   -0.00509   -0.03503
C2    1    0.141182    0.644879    0.855172    11.00000    0.03261    0.03210 =
         0.03127    0.00111   -0.00333   -0.00282
C4    1    0.011791    0.456935    0.819910    11.00000    0.04739    0.03647 =
         0.02748   -0.00212   -0.00405   -0.00799
AFIX  43
H4    2    0.020046    0.428726    0.699160    11.00000   -1.20000
AFIX   0
C3    1    0.129503    0.688236    1.034808    11.00000    0.04474    0.03009 =
         0.03412   -0.00235   -0.00459   -0.00970
AFIX  43
H3    2    0.216285    0.814391    1.057606    11.00000   -1.20000
AFIX   0
C1    1    0.295460    0.800743    0.699894    11.00000    0.04092    0.03422 =
         0.03243    0.00087   -0.00282   -0.00707
H1    2    0.426692    0.887368    0.409347    11.00000    0.15463
HKLF 4

REM
REM R1 =  0.0395 for     629 Fo > 4sig(Fo)  and  0.0430 for all     697 data
REM     59 parameters refined using      0 restraints

END

WGHT      0.0570      0.0494

REM Highest difference peak  0.194,  deepest hole -0.189,  1-sigma level  0.039
Q1    1   0.2504  0.9738  0.7013  11.00000  0.05    0.19
Q2    1   0.3661  0.8308  0.4585  11.00000  0.05    0.19
Q3    1   0.4573  0.7371  0.5860  11.00000  0.05    0.19
Q4    1   0.1969  0.7261  0.7900  11.00000  0.05    0.18
Q5    1   0.5352  1.0392  0.6633  11.00000  0.05    0.17
Q6    1   0.5061  0.8728  0.7153  11.00000  0.05    0.16
Q7    1   0.0541  0.3636  0.9019  11.00000  0.05    0.15
Q8    1   0.1398  0.8321  0.5919  11.00000  0.05    0.14
Q9    1   0.1780  0.5406  0.8305  11.00000  0.05    0.14
;
_shelx_res_checksum              11747
_shelx_hkl_file
;
  -1   0   0   18.12    0.42
  -1   0   0   17.50    0.40
  -1   0   0   17.66    0.41
  -1   0   0   17.87    0.41
  -1   0   0   17.79    0.42
  -1   0   0   18.18    0.40
  -1   0   0   17.41    0.40
  -1   0   0   18.33    0.42
  -1   0   0   17.79    0.41
   1   0   0   16.65    0.41
   1   0   0   17.45    0.40
  -2   0   0    1.75    0.06
  -2   0   0    1.72    0.09
  -2   0   0    1.66    0.07
  -2   0   0    1.57    0.06
  -2   0   0    1.65    0.08
  -2   0   0    1.71    0.09
  -2   0   0    1.61    0.05
  -2   0   0    1.67    0.08
  -2   0   0    1.73    0.10
   2   0   0    1.74    0.06
   2   0   0    1.51    0.08
   2   0   0    1.39    0.09
   2   0   0    1.58    0.07
  -3   0   0    0.00    0.03
  -3   0   0    0.01    0.03
  -3   0   0   -0.04    0.04
  -3   0   0    0.01    0.03
  -3   0   0    0.03    0.02
  -3   0   0    0.04    0.02
   3   0   0   -0.03    0.03
   3   0   0    0.10    0.04
   3   0   0    0.03    0.02
   3   0   0    0.01    0.02
  -4   0   0    0.14    0.07
  -4   0   0    0.10    0.06
  -4   0   0    0.08    0.06
  -4   0   0    0.07    0.06
   4   0   0    0.01    0.05
   4   0   0    0.09    0.05
   4   0   0    0.12    0.07
  -5   0   0    0.23    0.11
  -5   0   0    0.27    0.10
   5   0   0    0.20    0.11
   5  -1   0    0.43    0.13
   4  -1   0   -0.04    0.04
   4  -1   0    0.05    0.07
   4  -1   0   -0.04    0.06
  -4   1   0   -0.04    0.06
  -4   1   0    0.01    0.07
  -4   1   0   -0.01    0.04
  -4   1   0    0.02    0.06
   3  -1   0   -0.01    0.03
   3  -1   0   -0.01    0.04
   3  -1   0    0.03    0.02
   3  -1   0    0.01    0.03
   3  -1   0    0.00    0.04
  -3   1   0    0.05    0.05
  -3   1   0    0.01    0.02
  -3   1   0   -0.01    0.04
  -3   1   0    0.02    0.05
   2  -1   0   11.77    0.29
   2  -1   0   11.66    0.31
   2  -1   0   12.05    0.28
   2  -1   0   11.28    0.32
  -2   1   0   11.64    0.32
  -2   1   0   12.15    0.33
  -2   1   0   11.45    0.27
  -2   1   0   11.61    0.31
  -2   1   0   11.56    0.29
  -2   1   0   11.42    0.27
   0  -1   0    1.84    0.05
   0  -1   0    1.87    0.06
   0  -1   0    1.90    0.05
   0  -1   0    1.89    0.05
   0   1   0    1.92    0.05
   0   1   0    1.88    0.05
   0   1   0    1.91    0.05
   0   1   0    1.96    0.05
  -1  -1   0   19.61    0.47
  -1  -1   0   19.53    0.46
  -1  -1   0   19.82    0.46
  -1  -1   0   19.83    0.46
  -1  -1   0   20.54    0.45
  -1  -1   0   19.31    0.47
   1   1   0   19.54    0.46
   1   1   0   20.16    0.45
   1   1   0   19.82    0.45
   1   1   0   19.84    0.45
  -2  -1   0    0.24    0.03
  -2  -1   0    0.15    0.03
  -2  -1   0    0.25    0.06
  -2  -1   0    0.22    0.03
  -2  -1   0    0.24    0.05
  -2  -1   0    0.22    0.05
   2   1   0    0.17    0.02
   2   1   0    0.15    0.02
   2   1   0    0.21    0.03
   2   1   0    0.16    0.02
   2   1   0    0.27    0.05
  -3  -1   0    0.71    0.10
  -3  -1   0    0.60    0.08
  -3  -1   0    0.70    0.09
  -3  -1   0    0.72    0.09
  -3  -1   0    0.77    0.06
  -3  -1   0    0.81    0.10
  -3  -1   0    0.72    0.06
   3   1   0    0.72    0.06
   3   1   0    0.74    0.09
   3   1   0    0.65    0.06
   3   1   0    0.70    0.05
   3   1   0    0.71    0.09
  -4  -1   0    0.57    0.14
  -4  -1   0    0.60    0.15
  -4  -1   0    0.74    0.14
  -4  -1   0    0.69    0.13
   4   1   0    0.86    0.12
   4   1   0    0.77    0.13
   4   1   0    0.74    0.16
  -5  -1   0    1.61    0.24
  -5  -1   0    1.55    0.20
  -5  -1   0    1.68    0.23
   5   1   0    1.82    0.20
   5   1   0    2.23    0.26
   5  -2   0    0.05    0.12
  -5   2   0   -0.11    0.09
  -5   2   0    0.06    0.09
   4  -2   0   -0.06    0.07
   4  -2   0    0.04    0.08
  -4   2   0   -0.09    0.05
  -4   2   0   -0.04    0.06
  -4   2   0    0.01    0.07
  -4   2   0   -0.07    0.07
   3  -2   0    5.50    0.18
   3  -2   0    5.61    0.22
   3  -2   0    5.49    0.23
  -3   2   0    5.88    0.23
  -3   2   0    5.51    0.22
  -3   2   0    5.30    0.21
  -3   2   0    5.36    0.15
  -3   2   0    5.30    0.18
   2  -2   0  293.66    6.63
   2  -2   0  286.26    6.69
   2  -2   0  299.28    6.51
  -2   2   0  289.25    6.64
  -2   2   0  284.47    6.44
  -2   2   0  294.72    6.54
  -2   2   0  295.06    6.65
  -2   2   0  281.78    6.45
   1  -2   0    2.79    0.10
   1  -2   0    2.75    0.08
   1  -2   0    2.73    0.11
   1  -2   0    2.89    0.11
  -1   2   0    2.99    0.10
  -1   2   0    3.22    0.11
  -1   2   0    2.97    0.08
  -1   2   0    2.98    0.08
  -1   2   0    2.94    0.09
   0  -2   0   45.19    1.06
   0  -2   0   44.77    1.04
   0  -2   0   45.31    1.09
   0  -2   0   46.23    1.10
   0  -2   0   44.99    1.04
   0   2   0   46.17    1.06
   0   2   0   45.69    1.04
   0   2   0   47.14    1.07
   0   2   0   46.01    1.25
  -1  -2   0    9.36    0.25
  -1  -2   0    9.78    0.25
  -1  -2   0   10.04    0.26
  -1  -2   0    9.50    0.24
  -1  -2   0    9.82    0.25
   1   2   0    9.65    0.25
   1   2   0   10.11    0.23
   1   2   0    9.89    0.23
   1   2   0    9.78    0.23
  -2  -2   0   21.61    0.49
  -2  -2   0   20.76    0.51
  -2  -2   0   20.52    0.53
  -2  -2   0   20.32    0.53
  -2  -2   0   21.24    0.51
  -2  -2   0   21.24    0.52
   2   2   0   21.49    0.48
   2   2   0   20.49    0.51
   2   2   0   21.03    0.49
   2   2   0   20.89    0.48
  -3  -2   0    1.55    0.13
  -3  -2   0    1.60    0.11
  -3  -2   0    1.68    0.13
  -3  -2   0    1.66    0.12
  -3  -2   0    1.68    0.11
  -3  -2   0    1.58    0.11
   3   2   0    1.72    0.07
   3   2   0    1.73    0.11
   3   2   0    1.67    0.11
   3   2   0    1.70    0.08
   3   2   0    1.66    0.07
  -4  -2   0    4.80    0.24
  -4  -2   0    4.61    0.25
  -4  -2   0    4.72    0.22
  -4  -2   0    4.56    0.25
   4   2   0    4.81    0.23
   4   2   0    4.74    0.17
   4   2   0    4.96    0.22
  -5  -2   0    8.59    0.40
  -5  -2   0    8.67    0.38
   5   2   0   10.39    0.41
   5   2   0    8.44    0.34
   5   2   0    8.93    0.35
   4  -3   0    2.12    0.24
   4  -3   0    1.87    0.21
  -4   3   0    1.76    0.15
  -4   3   0    1.83    0.20
  -4   3   0    2.00    0.20
   3  -3   0   30.65    0.81
   3  -3   0   34.21    0.82
   3  -3   0   32.83    0.84
  -3   3   0   32.58    0.78
  -3   3   0   33.21    0.82
  -3   3   0   32.96    0.83
   2  -3   0    1.13    0.11
   2  -3   0    1.27    0.12
   2  -3   0    1.39    0.10
   2  -3   0    1.22    0.07
  -2   3   0    1.57    0.10
  -2   3   0    1.41    0.06
  -2   3   0    1.59    0.11
  -2   3   0    1.44    0.05
  -2   3   0    1.38    0.08
   1  -3   0   23.65    0.57
   1  -3   0   24.23    0.57
   1  -3   0   22.80    0.56
   1  -3   0   23.60    0.54
  -1   3   0   23.59    0.53
  -1   3   0   23.80    0.55
  -1   3   0   23.85    0.57
  -1   3   0   22.87    0.56
  -1   3   0   23.26    0.53
   0  -3   0   28.23    0.64
   0  -3   0   27.29    0.64
   0  -3   0   28.35    0.66
   0  -3   0   27.01    0.64
   0  -3   0   28.31    0.66
   0   3   0   27.88    0.63
   0   3   0   28.18    0.63
   0   3   0   28.23    0.64
   0   3   0   26.90    0.64
   0   3   0   28.55    0.64
  -1  -3   0   66.68    1.50
  -1  -3   0   64.28    1.57
  -1  -3   0   68.24    1.53
  -1  -3   0   66.02    1.59
  -1  -3   0   66.46    1.51
   1   3   0   68.33    1.49
   1   3   0   66.62    1.49
   1   3   0   66.82    1.48
   1   3   0   65.72    1.56
  -2  -3   0    5.33    0.19
  -2  -3   0    5.60    0.19
  -2  -3   0    5.35    0.16
  -2  -3   0    5.15    0.19
  -2  -3   0    5.52    0.18
   2   3   0    5.43    0.15
   2   3   0    5.62    0.15
   2   3   0    5.49    0.18
   2   3   0    5.46    0.15
  -3  -3   0    7.72    0.24
  -3  -3   0    7.15    0.27
  -3  -3   0    7.63    0.26
  -3  -3   0    7.32    0.28
  -3  -3   0    7.40    0.25
   3   3   0    7.68    0.26
   3   3   0    7.83    0.22
   3   3   0    7.91    0.21
   3   3   0    7.55    0.25
  -4  -3   0   25.23    0.72
  -4  -3   0   26.40    0.73
  -4  -3   0   26.55    0.70
   4   3   0   25.82    0.67
   4   3   0   26.23    0.69
   4   3   0   23.96    0.62
   4  -4   0    4.69    0.27
   4  -4   0    4.29    0.31
   4  -4   0    3.87    0.28
  -4   4   0    4.52    0.25
  -4   4   0    4.10    0.26
  -4   4   0    4.37    0.20
   3  -4   0    0.24    0.08
   3  -4   0    0.26    0.08
   3  -4   0    0.30    0.08
  -3   4   0    0.36    0.08
  -3   4   0    0.35    0.06
   2  -4   0    8.12    0.28
   2  -4   0    8.27    0.27
   2  -4   0    8.13    0.26
  -2   4   0    8.23    0.26
  -2   4   0    8.12    0.26
  -2   4   0    8.19    0.24
  -2   4   0    8.10    0.21
  -2   4   0    8.24    0.21
   1  -4   0   14.96    0.40
   1  -4   0   14.08    0.38
   1  -4   0   14.62    0.39
   1  -4   0   15.19    0.35
  -1   4   0   14.97    0.37
  -1   4   0   14.92    0.35
  -1   4   0   14.66    0.38
  -1   4   0   14.90    0.35
   0  -4   0   43.42    0.99
   0  -4   0   43.11    0.99
   0  -4   0   42.47    1.01
   0  -4   0   43.73    1.00
   0  -4   0   42.88    1.02
   0   4   0   44.50    0.98
   0   4   0   43.75    0.99
   0   4   0   42.14    0.99
   0   4   0   44.73    0.99
   0   4   0   43.83    0.98
  -1  -4   0   10.04    0.28
  -1  -4   0    9.79    0.29
  -1  -4   0   10.00    0.29
  -1  -4   0   10.00    0.27
  -1  -4   0    9.94    0.25
   1   4   0   10.09    0.27
   1   4   0   10.43    0.25
   1   4   0   10.35    0.25
   1   4   0   10.25    0.26
  -2  -4   0    6.80    0.23
  -2  -4   0    6.84    0.22
  -2  -4   0    6.78    0.24
   2   4   0    7.14    0.18
   2   4   0    6.85    0.20
   2   4   0    6.80    0.19
   2   4   0    6.85    0.22
  -3  -4   0   51.42    1.20
  -3  -4   0   50.48    1.23
  -3  -4   0   48.77    1.23
  -3  -4   0   51.33    1.22
   3   4   0   50.99    1.15
   3   4   0   48.53    1.20
   3   4   0   50.44    1.20
   3   4   0   50.38    1.16
  -4  -4   0   -0.01    0.07
  -4  -4   0   -0.02    0.05
  -4  -4   0   -0.05    0.06
   4   4   0    0.05    0.06
   4   4   0    0.03    0.05
   4   4   0    0.03    0.04
   4  -5   0    0.37    0.13
   4  -5   0   -0.05    0.13
  -4   5   0    0.17    0.10
  -4   5   0    0.28    0.08
  -4   5   0    0.16    0.09
   3  -5   0    2.53    0.24
   3  -5   0    3.16    0.21
  -3   5   0    2.79    0.20
  -3   5   0    3.00    0.19
  -3   5   0    2.81    0.16
   2  -5   0    3.37    0.17
   2  -5   0    3.31    0.20
   2  -5   0    3.12    0.19
  -2   5   0    3.19    0.17
  -2   5   0    3.15    0.11
  -2   5   0    3.24    0.16
  -2   5   0    3.21    0.14
   1  -5   0    8.00    0.27
   1  -5   0    8.00    0.24
   1  -5   0    8.06    0.23
   1  -5   0    8.33    0.28
  -1   5   0    8.33    0.21
  -1   5   0    7.97    0.23
  -1   5   0    8.24    0.21
  -1   5   0    8.17    0.25
   0  -5   0    6.03    0.21
   0  -5   0    6.57    0.18
   0  -5   0    6.47    0.19
   0  -5   0    6.25    0.22
   0  -5   0    6.61    0.19
   0   5   0    6.26    0.18
   0   5   0    6.44    0.18
   0   5   0    6.55    0.18
   0   5   0    6.58    0.18
   0   5   0    6.25    0.19
  -1  -5   0    4.86    0.19
  -1  -5   0    4.76    0.18
  -1  -5   0    4.78    0.17
  -1  -5   0    4.90    0.19
   1   5   0    5.13    0.15
   1   5   0    4.78    0.16
   1   5   0    5.04    0.15
   1   5   0    5.05    0.17
  -2  -5   0   50.14    1.25
  -2  -5   0   52.37    1.23
  -2  -5   0   50.93    1.26
  -2  -5   0   51.95    1.24
   2   5   0   52.87    1.20
   2   5   0   53.19    1.19
   2   5   0   53.15    1.19
   2   5   0   53.20    1.23
  -3  -5   0    0.61    0.12
  -3  -5   0    0.72    0.13
  -3  -5   0    0.65    0.13
  -3  -5   0    0.61    0.12
   3   5   0    0.58    0.09
   3   5   0    0.54    0.13
   3   5   0    0.62    0.08
   3   5   0    0.54    0.11
  -4  -5   0    0.73    0.16
  -4  -5   0    0.94    0.19
  -4  -5   0    0.97    0.19
   4   5   0    0.68    0.11
   4   5   0    0.79    0.11
  -4   6   0    0.55    0.13
  -4   6   0    0.91    0.16
   3  -6   0    0.16    0.13
  -3   6   0    0.24    0.08
  -3   6   0    0.37    0.09
   2  -6   0    0.32    0.07
   2  -6   0    0.26    0.09
   2  -6   0    0.25    0.08
  -2   6   0    0.30    0.07
  -2   6   0    0.23    0.06
  -2   6   0    0.20    0.04
   1  -6   0    2.07    0.18
   1  -6   0    2.04    0.13
   1  -6   0    2.25    0.16
  -1   6   0    1.85    0.12
  -1   6   0    1.99    0.10
  -1   6   0    1.88    0.12
  -1   6   0    1.90    0.10
   0  -6   0    3.12    0.14
   0  -6   0    3.37    0.18
   0  -6   0    3.21    0.16
   0   6   0    2.90    0.13
   0   6   0    3.32    0.13
   0   6   0    3.17    0.12
   0   6   0    3.15    0.13
  -1  -6   0   22.67    0.57
  -1  -6   0   21.11    0.59
  -1  -6   0   21.05    0.59
  -1  -6   0   22.34    0.56
   1   6   0   22.50    0.53
   1   6   0   22.82    0.54
   1   6   0   21.89    0.56
   1   6   0   22.70    0.54
  -2  -6   0    2.69    0.16
  -2  -6   0    2.63    0.16
  -2  -6   0    2.69    0.15
  -2  -6   0    2.69    0.17
   2   6   0    2.73    0.12
   2   6   0    2.70    0.13
   2   6   0    2.74    0.14
  -3  -6   0    2.71    0.20
  -3  -6   0    2.49    0.18
  -3  -6   0    2.71    0.20
   3   6   0    2.31    0.16
   3   6   0    2.64    0.13
   3   6   0    3.05    0.18
   3   6   0    2.36    0.14
  -4  -6   0    1.88    0.30
  -4  -6   0    1.84    0.20
  -4  -6   0    1.98    0.23
   4   6   0    1.64    0.13
   4   6   0    2.38    0.21
   3  -7   0   -0.01    0.10
  -3   7   0   -0.08    0.08
   2  -7   0    0.37    0.13
   2  -7   0    0.48    0.09
  -2   7   0    0.41    0.08
  -2   7   0    0.52    0.08
  -2   7   0    0.46    0.05
   1  -7   0    1.18    0.20
  -1   7   0    1.10    0.10
  -1   7   0    1.01    0.12
  -1   7   0    1.12    0.10
   0  -7   0    3.39    0.20
   0  -7   0    3.32    0.21
   0   7   0    3.55    0.15
   0   7   0    3.69    0.14
   0   7   0    3.61    0.14
  -1  -7   0    3.95    0.18
  -1  -7   0    3.77    0.20
  -1  -7   0    3.79    0.21
   1   7   0    3.68    0.16
   1   7   0    3.81    0.14
   1   7   0    3.85    0.15
   1   7   0    3.79    0.15
  -2  -7   0    4.01    0.21
  -2  -7   0    3.94    0.21
  -2  -7   0    4.12    0.23
   2   7   0    3.80    0.19
   2   7   0    4.05    0.17
   2   7   0    3.93    0.15
  -3  -7   0    3.62    0.22
  -3  -7   0    3.77    0.25
  -3  -7   0    3.83    0.24
   3   7   0    3.44    0.18
   3   7   0    3.37    0.20
   3   7   0    3.41    0.16
   0  -8   0    2.93    0.22
   0  -8   0    2.75    0.20
   0   8   0    2.53    0.13
   0   8   0    2.39    0.14
   0   8   0    2.62    0.15
  -1  -8   0    3.86    0.24
  -1  -8   0    3.64    0.21
   1   8   0    3.26    0.15
   1   8   0    3.15    0.16
  -2  -8   0    3.58    0.22
  -2  -8   0    3.93    0.23
  -2  -8   0    4.09    0.25
   2   8   0    3.55    0.19
   2   8   0    3.56    0.18
   2   8   0    3.74    0.16
  -1   9   0    1.08    0.13
  -1   9   0    1.03    0.15
   0   9   0    1.55    0.13
   0   9   0    1.65    0.13
   0   9   0    1.63    0.15
   1   9   0    1.70    0.13
   0   9  -1    0.34    0.06
   0   9  -1    0.34    0.06
   2   8  -1    0.19    0.05
   2   8  -1    0.19    0.05
  -2  -8   1    0.18    0.06
  -2  -8   1    0.27    0.08
   1   8  -1    0.73    0.11
   1   8  -1    0.55    0.07
   1   8  -1    0.51    0.06
  -1  -8   1    0.75    0.14
   0   8  -1    0.50    0.06
   0   8  -1    0.70    0.11
   0   8  -1    0.63    0.10
  -1   8  -1    1.12    0.11
  -1   8  -1    1.00    0.14
   1  -8   1    1.41    0.21
  -2   8  -1    4.01    0.22
   2  -8   1    4.97    0.30
   3   7  -1   -0.03    0.05
  -3  -7   1    0.07    0.07
  -3  -7   1    0.01    0.05
   2   7  -1    0.06    0.05
   2   7  -1    0.14    0.05
   2   7  -1    0.08    0.06
  -2  -7   1    0.12    0.06
  -2  -7   1    0.09    0.05
   1   7  -1    0.33    0.05
   1   7  -1    0.45    0.09
   1   7  -1    0.46    0.09
   1   7  -1    0.33    0.05
  -1  -7   1    0.50    0.11
  -1  -7   1    0.27    0.05
   0   7  -1    2.05    0.11
   0   7  -1    2.10    0.11
   0   7  -1    2.14    0.12
   0  -7   1    1.90    0.17
   0  -7   1    2.04    0.15
   0  -7   1    1.92    0.16
  -1   7  -1   23.70    0.59
  -1   7  -1   22.75    0.60
  -1   7  -1   23.44    0.57
   1  -7   1   22.53    0.66
   1  -7   1   24.39    0.66
  -2   7  -1    4.01    0.23
  -2   7  -1    4.13    0.20
   2  -7   1    4.83    0.28
   2  -7   1    3.44    0.30
  -3   7  -1   -0.03    0.08
  -3   7  -1   -0.09    0.08
   3  -7   1    0.23    0.10
   3   6  -1   -0.05    0.04
   3   6  -1   -0.05    0.05
  -3  -6   1   -0.07    0.05
   2   6  -1   -0.01    0.03
   2   6  -1    0.01    0.04
   2   6  -1   -0.01    0.04
   2   6  -1    0.01    0.04
  -2  -6   1    0.01    0.04
  -2  -6   1    0.07    0.05
  -2  -6   1    0.01    0.04
   1   6  -1    2.41    0.11
   1   6  -1    2.49    0.12
   1   6  -1    2.36    0.12
   1   6  -1    2.50    0.11
  -1  -6   1    2.43    0.13
  -1  -6   1    2.31    0.14
  -1  -6   1    2.41    0.14
  -1  -6   1    2.27    0.15
   0   6  -1   92.36    2.04
   0   6  -1   90.42    2.06
   0   6  -1   88.40    2.06
   0   6  -1   94.63    2.05
   0  -6   1   88.24    2.10
   0  -6   1   94.96    2.08
   0  -6   1   90.86    2.06
   0  -6   1   88.30    2.10
  -1   6  -1    9.94    0.29
  -1   6  -1   10.24    0.27
  -1   6  -1   10.26    0.27
  -1   6  -1    9.74    0.30
   1  -6   1   10.39    0.34
   1  -6   1    9.74    0.34
  -2   6  -1   -0.05    0.05
  -2   6  -1   -0.07    0.05
  -2   6  -1   -0.05    0.03
   2  -6   1   -0.05    0.07
   2  -6   1    0.04    0.05
  -3   6  -1    0.04    0.08
  -3   6  -1   -0.10    0.07
  -3   6  -1    0.01    0.07
   3  -6   1   -0.14    0.11
  -4   6  -1    0.06    0.09
  -4   6  -1   -0.05    0.09
  -4   6  -1    0.06    0.10
   4   5  -1   -0.04    0.05
   4   5  -1   -0.04    0.04
   4   5  -1   -0.05    0.05
  -4  -5   1   -0.04    0.05
  -4  -5   1    0.01    0.07
   3   5  -1    0.02    0.04
   3   5  -1   -0.02    0.03
   3   5  -1   -0.01    0.04
  -3  -5   1    0.06    0.05
  -3  -5   1   -0.01    0.04
  -3  -5   1    0.03    0.05
  -3  -5   1   -0.01    0.04
   2   5  -1    0.76    0.10
   2   5  -1    0.87    0.08
   2   5  -1    0.96    0.07
   2   5  -1    0.93    0.08
  -2  -5   1    0.89    0.11
  -2  -5   1    0.83    0.10
  -2  -5   1    0.95    0.10
  -2  -5   1    0.92    0.11
   1   5  -1  200.94    4.39
   1   5  -1  199.95    4.43
   1   5  -1  194.23    4.50
   1   5  -1  199.38    4.41
  -1  -5   1  194.59    4.48
  -1  -5   1  189.94    4.53
  -1  -5   1  186.92    6.22
  -1  -5   1  193.56    4.43
   0   5  -1   14.95    0.36
   0   5  -1   14.64    0.38
   0   5  -1   15.38    0.38
   0   5  -1   15.24    0.37
   0  -5   1   14.84    0.39
   0  -5   1   14.12    0.41
   0  -5   1   14.59    0.41
   0  -5   1   15.07    0.38
  -1   5  -1    0.16    0.04
  -1   5  -1    0.15    0.03
  -1   5  -1    0.15    0.03
  -1   5  -1    0.12    0.04
   1  -5   1    0.16    0.06
   1  -5   1    0.13    0.03
   1  -5   1    0.14    0.05
   1  -5   1    0.18    0.04
  -2   5  -1    0.24    0.03
  -2   5  -1    0.23    0.05
  -2   5  -1    0.30    0.06
  -2   5  -1    0.23    0.06
   2  -5   1    0.25    0.07
   2  -5   1    0.19    0.07
  -3   5  -1    0.06    0.07
  -3   5  -1    0.00    0.06
  -3   5  -1   -0.05    0.07
   3  -5   1    0.18    0.07
   3  -5   1   -0.01    0.09
  -4   5  -1    0.27    0.08
  -4   5  -1    0.25    0.10
  -4   5  -1    0.27    0.10
   4  -5   1    0.16    0.13
   4   4  -1   -0.02    0.04
   4   4  -1    0.08    0.05
   4   4  -1    0.14    0.06
   4   4  -1    0.00    0.04
  -4  -4   1    0.06    0.08
  -4  -4   1   -0.02    0.06
  -4  -4   1    0.06    0.06
  -4  -4   1    0.03    0.05
   3   4  -1   -0.03    0.04
   3   4  -1   -0.02    0.03
   3   4  -1    0.01    0.03
  -3  -4   1    0.04    0.05
  -3  -4   1    0.01    0.04
  -3  -4   1   -0.01    0.04
  -3  -4   1    0.00    0.04
   2   4  -1  189.14    4.31
   2   4  -1  193.19    4.19
   2   4  -1  193.64    4.22
   2   4  -1  187.65    4.58
  -2  -4   1  189.17    4.28
  -2  -4   1  173.88    4.37
  -2  -4   1  181.90    4.31
  -2  -4   1  187.42    4.20
   1   4  -1   13.33    0.33
   1   4  -1   13.82    0.33
   1   4  -1   13.34    0.32
  -1  -4   1   12.53    0.36
  -1  -4   1   13.17    0.35
  -1  -4   1   12.90    0.35
  -1  -4   1   13.46    0.35
   0   4  -1    2.30    0.09
   0   4  -1    2.29    0.08
   0   4  -1    2.29    0.08
   0   4  -1    2.25    0.09
   0  -4   1    2.21    0.09
   0  -4   1    2.03    0.11
   0  -4   1    2.32    0.12
   0  -4   1    2.16    0.08
   0  -4   1    2.05    0.09
  -1   4  -1    3.47    0.12
  -1   4  -1    3.33    0.12
  -1   4  -1    3.53    0.10
  -1   4  -1    3.42    0.13
  -1   4  -1    3.58    0.10
   1  -4   1    3.56    0.12
   1  -4   1    3.26    0.12
   1  -4   1    3.48    0.10
   1  -4   1    3.50    0.15
   1  -4   1    3.48    0.15
  -2   4  -1    0.49    0.07
  -2   4  -1    0.56    0.10
  -2   4  -1    0.54    0.05
  -2   4  -1    0.42    0.06
   2  -4   1    0.65    0.07
   2  -4   1    0.67    0.11
   2  -4   1    0.59    0.12
   2  -4   1    0.54    0.09
  -3   4  -1    0.36    0.08
  -3   4  -1    0.58    0.13
  -3   4  -1    0.53    0.10
   3  -4   1    0.36    0.08
   3  -4   1    0.42    0.09
   3  -4   1    0.38    0.07
  -4   4  -1    0.35    0.10
  -4   4  -1    0.69    0.13
   4  -4   1    0.42    0.13
   4  -4   1    0.21    0.11
   4   3  -1    0.31    0.05
   4   3  -1    0.28    0.05
   4   3  -1    0.29    0.07
   4   3  -1    0.26    0.07
  -4  -3   1    0.20    0.06
  -4  -3   1    0.22    0.07
  -4  -3   1    0.27    0.06
  -4  -3   1    0.29    0.08
   3   3  -1   84.51    1.87
   3   3  -1   85.07    1.88
   3   3  -1   85.61    1.87
   3   3  -1   80.12    1.91
  -3  -3   1   81.87    1.94
  -3  -3   1   83.11    1.91
  -3  -3   1   83.79    1.93
  -3  -3   1   80.52    1.94
   2   3  -1    7.62    0.20
   2   3  -1    7.24    0.22
   2   3  -1    7.42    0.19
   2   3  -1    7.66    0.20
  -2  -3   1    7.38    0.23
  -2  -3   1    7.40    0.24
  -2  -3   1    7.19    0.23
  -2  -3   1    7.18    0.23
  -2  -3   1    7.42    0.20
   1   3  -1    7.51    0.19
   1   3  -1    7.56    0.19
   1   3  -1    7.62    0.19
  -1  -3   1    7.02    0.22
  -1  -3   1    7.63    0.21
  -1  -3   1    7.35    0.21
  -1  -3   1    7.32    0.21
   0   3  -1   34.39    0.77
   0   3  -1   34.07    0.77
   0   3  -1   33.63    0.78
   0   3  -1   34.68    0.78
   0  -3   1   33.69    0.80
   0  -3   1   33.98    0.79
   0  -3   1   33.46    0.78
   0  -3   1   34.01    0.77
   0  -3   1   34.40    0.79
  -1   3  -1   26.00    0.63
  -1   3  -1   26.28    0.59
  -1   3  -1   25.41    0.62
  -1   3  -1   26.31    0.61
  -1   3  -1   26.29    0.60
   1  -3   1   26.76    0.61
   1  -3   1   26.93    0.60
   1  -3   1   26.00    0.63
   1  -3   1   26.52    0.63
  -2   3  -1    0.70    0.09
  -2   3  -1    0.72    0.09
  -2   3  -1    0.66    0.06
  -2   3  -1    0.62    0.04
   2  -3   1    0.68    0.09
   2  -3   1    0.70    0.10
   2  -3   1    0.63    0.07
  -3   3  -1    2.28    0.16
  -3   3  -1    1.92    0.12
  -3   3  -1    2.17    0.16
   3  -3   1    2.05    0.17
   3  -3   1    1.96    0.17
  -4   3  -1   14.11    0.45
  -4   3  -1   13.43    0.45
  -4   3  -1   13.51    0.39
   4  -3   1   14.25    0.46
   4  -3   1   14.20    0.48
  -5   3  -1    1.42    0.23
   5  -3   1    1.13    0.27
   4   2  -1   21.28    0.55
   4   2  -1   22.78    0.60
   4   2  -1   21.92    0.54
   4   2  -1   22.85    0.59
  -4  -2   1   22.21    0.63
  -4  -2   1   22.87    0.61
  -4  -2   1   21.88    0.63
  -4  -2   1   22.50    0.59
   3   2  -1    2.33    0.10
   3   2  -1    2.27    0.10
   3   2  -1    2.23    0.12
   3   2  -1    2.33    0.09
   3   2  -1    1.92    0.10
  -3  -2   1    2.07    0.14
  -3  -2   1    2.18    0.12
  -3  -2   1    2.23    0.13
  -3  -2   1    2.31    0.16
  -3  -2   1    2.18    0.13
   2   2  -1   11.33    0.27
   2   2  -1   10.98    0.28
   2   2  -1   11.03    0.27
   2   2  -1   11.53    0.28
  -2  -2   1   11.02    0.27
  -2  -2   1   11.07    0.30
  -2  -2   1   11.26    0.28
  -2  -2   1   10.88    0.31
  -2  -2   1   10.77    0.31
  -2  -2   1   11.12    0.31
  -2  -2   1   11.22    0.27
  -2  -2   1   11.11    0.28
   1   2  -1  103.17    2.93
   1   2  -1  105.72    2.34
   1   2  -1  108.10    2.33
   1   2  -1  104.23    2.33
  -1  -2   1  100.60    2.44
  -1  -2   1  102.05    2.39
  -1  -2   1  100.62    2.91
  -1  -2   1   99.68    2.39
  -1  -2   1  101.42    2.46
   0   2  -1  169.20    3.84
   0   2  -1  174.43    4.35
   0   2  -1  172.01    3.87
   0   2  -1  169.93    3.88
   0  -2   1  171.52    3.97
   0  -2   1  167.91    5.12
   0  -2   1  170.98    3.88
   0  -2   1  172.43    3.91
  -1   2  -1    0.88    0.03
  -1   2  -1    0.85    0.03
  -1   2  -1    0.87    0.06
  -1   2  -1    0.84    0.06
  -1   2  -1    0.83    0.05
   1  -2   1    0.92    0.05
   1  -2   1    0.94    0.07
   1  -2   1    0.81    0.04
   1  -2   1    0.90    0.06
  -2   2  -1    3.97    0.17
  -2   2  -1    4.36    0.16
  -2   2  -1    4.23    0.10
  -2   2  -1    4.35    0.13
  -2   2  -1    4.18    0.16
   2  -2   1    3.90    0.14
   2  -2   1    4.03    0.16
   2  -2   1    3.92    0.16
  -3   2  -1   65.78    1.55
  -3   2  -1   67.94    1.58
  -3   2  -1   64.80    1.51
  -3   2  -1   68.52    1.57
   3  -2   1   66.29    1.55
   3  -2   1   67.36    1.52
   3  -2   1   64.67    1.56
  -4   2  -1    2.69    0.20
  -4   2  -1    2.66    0.22
  -4   2  -1    2.58    0.14
  -4   2  -1    2.38    0.20
   4  -2   1    2.59    0.22
   4  -2   1    2.56    0.23
  -5   2  -1    0.14    0.09
   5  -2   1    0.12    0.12
   5   1  -1    5.78    0.32
  -5  -1   1    4.45    0.28
  -5  -1   1    4.55    0.30
   4   1  -1    0.22    0.07
   4   1  -1    0.25    0.06
   4   1  -1    0.25    0.05
  -4  -1   1    0.20    0.05
  -4  -1   1    0.12    0.06
  -4  -1   1    0.19    0.07
   3   1  -1    8.31    0.25
   3   1  -1    7.93    0.25
   3   1  -1    7.72    0.22
   3   1  -1    8.39    0.22
   3   1  -1    8.31    0.21
  -3  -1   1    8.17    0.27
  -3  -1   1    8.50    0.25
  -3  -1   1    8.31    0.22
  -3  -1   1    8.75    0.23
  -3  -1   1    8.21    0.26
  -3  -1   1    8.41    0.22
  -3  -1   1    8.33    0.27
  -3  -1   1    8.29    0.26
  -3  -1   1    8.21    0.24
   2   1  -1   66.85    1.48
   2   1  -1   67.78    1.48
   2   1  -1   65.97    1.48
  -2  -1   1   65.52    1.52
  -2  -1   1   65.56    1.51
  -2  -1   1   64.75    1.51
  -2  -1   1   65.49    1.48
  -2  -1   1   67.12    1.50
  -2  -1   1   65.46    1.48
  -2  -1   1   66.30    1.50
  -2  -1   1   66.17    1.48
  -2  -1   1   66.71    1.49
   1   1  -1  207.13    4.55
   1   1  -1  208.22    4.56
   1   1  -1  208.20    4.52
  -1  -1   1  198.29    4.60
  -1  -1   1  192.44    4.53
  -1  -1   1  203.63    5.21
  -1  -1   1  199.55    4.62
  -1  -1   1  201.10    4.53
  -1  -1   1  199.55    4.64
  -1  -1   1  200.20    4.61
  -1  -1   1  204.98    4.92
  -1  -1   1  200.26    4.52
   0   1  -1    0.55    0.04
   0   1  -1    0.48    0.05
   0   1  -1    0.45    0.04
   0   1  -1    0.45    0.04
   0  -1   1    0.62    0.05
   0  -1   1    0.48    0.04
   0  -1   1    0.46    0.04
  -1   1  -1    6.01    0.16
  -1   1  -1    5.81    0.17
  -1   1  -1    5.82    0.16
  -1   1  -1    6.02    0.15
   1  -1   1    5.72    0.16
   1  -1   1    5.74    0.14
   1  -1   1    5.82    0.16
   1  -1   1    5.86    0.15
  -2   1  -1  323.77    7.45
  -2   1  -1  326.80    7.27
  -2   1  -1  313.49    7.40
  -2   1  -1  312.71    7.36
   2  -1   1  337.37    7.33
   2  -1   1  341.65    7.26
   2  -1   1  313.70    7.43
   2  -1   1  322.46    7.43
  -3   1  -1    4.48    0.18
  -3   1  -1    4.50    0.20
  -3   1  -1    4.42    0.19
  -3   1  -1    4.48    0.14
   3  -1   1    4.10    0.19
   3  -1   1    4.47    0.17
   3  -1   1    4.18    0.19
   3  -1   1    4.54    0.15
  -4   1  -1    0.31    0.08
  -4   1  -1    0.32    0.08
   4  -1   1    0.27    0.06
   4  -1   1    0.35    0.08
  -5   1  -1    0.20    0.09
  -5   1  -1    0.12    0.10
  -5   1  -1    0.12    0.10
   5   0  -1   -0.04    0.09
  -5   0   1   -0.04    0.08
   4   0  -1    4.79    0.24
   4   0  -1    4.11    0.19
   4   0  -1    4.13    0.22
   4   0  -1    4.24    0.25
  -4   0   1    4.08    0.21
  -4   0   1    3.83    0.23
  -4   0   1    3.97    0.21
  -4   0   1    4.07    0.19
  -4   0   1    4.19    0.20
   3   0  -1   15.61    0.41
   3   0  -1   15.71    0.38
   3   0  -1   15.99    0.40
   3   0  -1   15.09    0.44
   3   0  -1   15.21    0.43
  -3   0   1   16.20    0.38
  -3   0   1   15.72    0.42
  -3   0   1   16.04    0.38
  -3   0   1   15.97    0.43
  -3   0   1   15.86    0.43
  -3   0   1   16.03    0.42
  -3   0   1   16.23    0.41
  -3   0   1   15.74    0.44
  -3   0   1   16.26    0.39
  -2   0   1   53.35    1.21
  -2   0   1   53.18    1.20
  -2   0   1   53.67    1.19
  -2   0   1   52.20    1.22
  -2   0   1   53.86    1.19
  -2   0   1   53.69    1.21
  -2   0   1   52.28    1.21
  -2   0   1   52.80    1.23
  -2   0   1   53.31    1.22
  -1   0   1    2.76    0.09
  -1   0   1    2.80    0.09
  -1   0   1    2.83    0.08
  -1   0   1    2.87    0.09
  -1   0   1    2.92    0.09
  -1   0   1    2.79    0.08
  -1   0   1    2.84    0.08
  -1   0   1    2.84    0.09
  -1   0   1    2.91    0.09
   0   0  -1    2.99    0.08
   0   0  -1    3.22    0.08
   0   0  -1    3.19    0.08
   0   0   1    2.97    0.07
   0   0   1    2.83    0.08
   0   0   1    3.20    0.08
   0   0   1    2.99    0.07
   0   0   1    2.98    0.08
   0   0   1    3.12    0.08
  -1   0  -1  968.96   23.11
  -1   0  -1  945.96   23.24
  -1   0  -1  948.60   22.39
  -1   0  -1  927.87   22.77
   1   0   1  956.94   22.49
   1   0   1  919.41   22.80
   1   0   1 1000.00   22.19
  -2   0  -1    4.23    0.11
  -2   0  -1    4.30    0.15
  -2   0  -1    4.25    0.16
  -2   0  -1    4.15    0.15
  -2   0  -1    4.20    0.14
   2   0   1    3.97    0.15
   2   0   1    4.36    0.13
   2   0   1    4.21    0.11
   2   0   1    4.08    0.13
  -3   0  -1    3.99    0.18
  -3   0  -1    4.14    0.19
  -3   0  -1    4.23    0.16
  -3   0  -1    4.16    0.18
  -3   0  -1    4.24    0.13
   3   0   1    4.17    0.16
   3   0   1    4.34    0.15
   3   0   1    3.83    0.17
   3   0   1    4.24    0.12
   3   0   1    4.36    0.11
  -4   0  -1    2.27    0.18
  -4   0  -1    2.28    0.18
  -4   0  -1    2.15    0.16
  -4   0  -1    2.32    0.19
   4   0   1    2.21    0.16
   4   0   1    2.64    0.19
   4   0   1    2.38    0.20
   4   0   1    2.11    0.14
  -5   0  -1   -0.09    0.08
  -5   0  -1   -0.04    0.09
  -5   1   1    1.56    0.20
  -5   1   1    1.42    0.20
   4  -1  -1    2.74    0.20
   4  -1  -1    3.19    0.19
   4  -1  -1    2.92    0.22
  -4   1   1    2.51    0.20
  -4   1   1    2.67    0.19
  -4   1   1    2.71    0.14
  -4   1   1    2.99    0.18
   3  -1  -1    5.15    0.20
   3  -1  -1    5.13    0.21
   3  -1  -1    5.16    0.18
   3  -1  -1    5.46    0.17
  -3   1   1    5.51    0.17
  -3   1   1    5.40    0.15
  -3   1   1    5.54    0.15
  -3   1   1    5.40    0.20
  -3   1   1    5.23    0.17
  -3   1   1    5.50    0.21
  -3   1   1    5.52    0.22
   2  -1  -1    2.67    0.12
   2  -1  -1    2.45    0.11
   2  -1  -1    2.19    0.09
  -2   1   1    2.59    0.10
  -2   1   1    2.71    0.08
  -2   1   1    2.58    0.08
  -2   1   1    2.80    0.09
  -2   1   1    2.82    0.09
  -2   1   1    2.76    0.12
  -2   1   1    2.78    0.12
  -2   1   1    2.55    0.11
   1  -1  -1    0.03    0.02
   1  -1  -1    0.02    0.01
   1  -1  -1    0.02    0.02
  -1   1   1    0.02    0.02
   0  -1  -1  717.01   16.68
   0  -1  -1  717.92   17.20
  -1  -1  -1    0.16    0.03
  -1  -1  -1    0.17    0.03
  -1  -1  -1    0.16    0.03
  -1  -1  -1    0.18    0.02
  -1  -1  -1    0.18    0.03
   1   1   1    0.18    0.03
   1   1   1    0.16    0.03
   1   1   1    0.14    0.02
  -2  -1  -1   25.95    0.61
  -2  -1  -1   25.17    0.64
  -2  -1  -1   26.20    0.58
  -2  -1  -1   25.55    0.62
  -2  -1  -1   25.53    0.62
  -2  -1  -1   25.68    0.63
   2   1   1   26.56    0.58
   2   1   1   26.39    0.59
   2   1   1   26.56    0.61
   2   1   1   25.54    0.62
  -3  -1  -1   18.22    0.50
  -3  -1  -1   18.24    0.51
  -3  -1  -1   18.35    0.47
  -3  -1  -1   19.05    0.49
  -3  -1  -1   20.44    0.46
  -3  -1  -1   18.59    0.52
   3   1   1   18.86    0.44
   3   1   1   18.95    0.43
   3   1   1   19.68    0.48
   3   1   1   17.55    0.49
   3   1   1   18.01    0.48
  -4  -1  -1    0.30    0.07
  -4  -1  -1    0.33    0.07
  -4  -1  -1    0.62    0.15
   4   1   1    0.35    0.06
   4   1   1    0.36    0.06
   4   1   1    0.40    0.08
   4  -2  -1    0.03    0.07
   4  -2  -1    0.16    0.09
  -4   2   1    0.12    0.07
  -4   2   1    0.13    0.07
  -4   2   1    0.05    0.06
   3  -2  -1    1.28    0.12
   3  -2  -1    1.13    0.12
   3  -2  -1    1.38    0.14
  -3   2   1    1.39    0.13
  -3   2   1    1.02    0.12
  -3   2   1    1.28    0.07
  -3   2   1    1.31    0.07
  -3   2   1    1.02    0.10
   2  -2  -1   -0.01    0.02
   2  -2  -1    0.04    0.03
   2  -2  -1    0.05    0.03
   2  -2  -1    0.02    0.03
  -2   2   1   -0.05    0.04
  -2   2   1    0.02    0.03
  -2   2   1   -0.01    0.02
  -2   2   1   -0.04    0.02
   1  -2  -1   86.80    2.00
   1  -2  -1   81.78    2.00
   1  -2  -1   89.09    1.97
  -1   2   1   86.43    1.97
  -1   2   1   86.57    1.94
  -1   2   1   83.06    1.98
  -1   2   1   86.80    1.98
  -1   2   1   86.52    1.94
   0  -2  -1    3.12    0.10
   0  -2  -1    2.95    0.08
   0  -2  -1    2.79    0.09
   0  -2  -1    2.95    0.11
   0   2   1    3.03    0.08
   0   2   1    3.09    0.08
   0   2   1    2.95    0.08
   0   2   1    3.05    0.08
   0   2   1    2.98    0.08
  -1  -2  -1   84.49    1.95
  -1  -2  -1   81.36    1.90
  -1  -2  -1   82.86    1.89
   1   2   1   81.92    1.90
   1   2   1   86.76    2.35
   1   2   1   85.74    1.86
   1   2   1   76.92    1.88
  -2  -2  -1  100.68    2.30
  -2  -2  -1   97.89    2.31
  -2  -2  -1   97.73    2.26
  -2  -2  -1  101.12    2.23
  -2  -2  -1   96.93    2.24
   2   2   1   99.28    2.23
   2   2   1   96.88    2.30
   2   2   1  102.90    2.30
   2   2   1  101.80    2.21
  -3  -2  -1    8.85    0.30
  -3  -2  -1    9.29    0.31
  -3  -2  -1    8.93    0.25
  -3  -2  -1    9.02    0.28
  -3  -2  -1    9.39    0.29
   3   2   1    8.87    0.28
   3   2   1    9.41    0.23
   3   2   1    9.21    0.27
   3   2   1    9.23    0.24
  -4  -2  -1    0.22    0.07
  -4  -2  -1    0.28    0.08
  -4  -2  -1    0.33    0.08
   4   2   1    0.18    0.06
   4   2   1    0.18    0.07
  -5  -2  -1    2.20    0.24
  -5  -2  -1    2.31    0.25
   5   2   1    2.06    0.22
   5   2   1    1.80    0.20
   4  -3  -1    0.55    0.12
   4  -3  -1    0.30    0.08
  -4   3   1    0.50    0.10
  -4   3   1    0.45    0.08
  -4   3   1    0.30    0.09
   3  -3  -1    0.04    0.06
   3  -3  -1    0.07    0.05
   3  -3  -1    0.09    0.06
  -3   3   1   -0.01    0.05
  -3   3   1   -0.03    0.06
  -3   3   1    0.03    0.03
  -3   3   1   -0.05    0.05
   2  -3  -1    4.99    0.19
   2  -3  -1    5.30    0.18
   2  -3  -1    4.83    0.18
  -2   3   1    4.98    0.14
  -2   3   1    5.00    0.14
  -2   3   1    4.99    0.19
  -2   3   1    5.15    0.16
  -2   3   1    5.15    0.19
   1  -3  -1    3.45    0.12
   1  -3  -1    3.42    0.14
   1  -3  -1    3.55    0.13
  -1   3   1    3.50    0.11
  -1   3   1    3.48    0.10
  -1   3   1    3.54    0.10
  -1   3   1    3.45    0.12
   0  -3  -1   76.98    1.74
   0  -3  -1   75.68    1.80
   0  -3  -1   76.94    1.78
   0  -3  -1   75.44    2.59
   0   3   1   78.60    1.76
   0   3   1   76.54    1.74
   0   3   1   77.51    1.77
   0   3   1   74.98    1.75
   0   3   1   78.29    2.28
  -1  -3  -1  197.20    4.71
  -1  -3  -1  201.28    4.62
  -1  -3  -1  197.05    4.68
  -1  -3  -1  204.27    4.69
   1   3   1  206.14    4.54
   1   3   1  202.23    4.65
   1   3   1  208.09    4.58
   1   3   1  206.23    4.56
  -2  -3  -1   34.17    0.86
  -2  -3  -1   35.38    0.87
  -2  -3  -1   36.84    0.86
  -2  -3  -1   35.44    0.84
   2   3   1   36.20    0.82
   2   3   1   35.17    0.85
   2   3   1   36.26    0.81
   2   3   1   37.41    0.85
  -3  -3  -1    2.72    0.16
  -3  -3  -1    2.50    0.15
  -3  -3  -1    2.69    0.14
   3   3   1    2.62    0.09
   3   3   1    2.38    0.14
   3   3   1    2.66    0.14
   3   3   1    2.74    0.11
  -4  -3  -1    3.37    0.23
  -4  -3  -1    2.86    0.20
  -4  -3  -1    2.80    0.22
  -4  -3  -1    3.06    0.21
   4   3   1    2.78    0.19
   4   3   1    2.71    0.16
   4   3   1    2.70    0.20
  -5  -3  -1    1.33    0.23
  -5  -3  -1    1.20    0.23
   5   3   1    1.12    0.18
   5   3   1    1.46    0.20
   4  -4  -1    0.19    0.11
   4  -4  -1    0.00    0.11
  -4   4   1   -0.05    0.09
  -4   4   1    0.07    0.07
  -4   4   1    0.04    0.08
   3  -4  -1    0.27    0.07
   3  -4  -1    0.36    0.09
   3  -4  -1    0.31    0.08
  -3   4   1    0.29    0.08
  -3   4   1    0.46    0.06
   2  -4  -1    2.56    0.15
   2  -4  -1    2.23    0.16
   2  -4  -1    2.25    0.13
  -2   4   1    2.31    0.09
  -2   4   1    2.33    0.12
  -2   4   1    2.36    0.13
  -2   4   1    2.32    0.14
  -2   4   1    2.26    0.09
   1  -4  -1   27.14    0.67
   1  -4  -1   26.12    0.65
   1  -4  -1   27.31    0.65
  -1   4   1   26.95    0.62
  -1   4   1   26.77    0.65
  -1   4   1   27.21    0.64
  -1   4   1   27.31    0.62
   0  -4  -1   95.30    2.35
   0  -4  -1  100.68    2.29
   0  -4  -1  101.33    2.42
   0  -4  -1  102.80    2.80
   0   4   1  101.60    2.30
   0   4   1  101.18    2.29
   0   4   1  100.22    2.29
   0   4   1  102.39    2.67
   0   4   1  102.33    2.27
  -1  -4  -1   42.14    0.98
  -1  -4  -1   40.71    0.99
  -1  -4  -1   41.66    1.00
  -1  -4  -1   40.24    0.96
   1   4   1   42.73    0.97
   1   4   1   43.00    0.96
   1   4   1   43.32    0.95
   1   4   1   42.25    0.95
  -2  -4  -1    8.71    0.25
  -2  -4  -1    8.42    0.28
  -2  -4  -1    8.35    0.28
  -2  -4  -1    8.68    0.27
   2   4   1    8.45    0.26
   2   4   1    8.94    0.23
   2   4   1    9.06    0.26
   2   4   1    8.91    0.24
   2   4   1    9.47    0.22
  -3  -4  -1    2.59    0.17
  -3  -4  -1    2.28    0.16
  -3  -4  -1    2.16    0.15
   3   4   1    2.01    0.15
   3   4   1    2.05    0.10
   3   4   1    2.27    0.14
  -4  -4  -1    0.28    0.07
  -4  -4  -1    0.20    0.06
  -4  -4  -1    0.32    0.09
   4   4   1    0.22    0.05
   4   4   1    0.19    0.06
   4   4   1    0.29    0.07
   4  -5  -1    0.26    0.13
  -4   5   1    0.17    0.09
  -4   5   1    0.18    0.08
  -4   5   1    0.04    0.10
   3  -5  -1    0.81    0.18
  -3   5   1    0.93    0.13
  -3   5   1    0.92    0.15
  -3   5   1    0.92    0.16
   2  -5  -1    7.34    0.27
   2  -5  -1    7.31    0.26
   2  -5  -1    7.05    0.29
  -2   5   1    6.89    0.20
  -2   5   1    7.18    0.20
  -2   5   1    7.16    0.25
  -2   5   1    7.40    0.23
   1  -5  -1   15.38    0.44
   1  -5  -1   15.10    0.41
   1  -5  -1   15.46    0.42
  -1   5   1   14.93    0.39
  -1   5   1   15.50    0.37
  -1   5   1   15.58    0.37
  -1   5   1   15.11    0.40
   0  -5  -1   12.13    0.36
   0  -5  -1   12.89    0.32
   0  -5  -1   12.50    0.33
   0  -5  -1   11.56    0.34
   0   5   1   12.63    0.32
   0   5   1   12.49    0.31
   0   5   1   12.55    0.32
   0   5   1   12.53    0.31
   0   5   1   13.04    0.31
  -1  -5  -1   12.26    0.36
  -1  -5  -1   12.06    0.35
  -1  -5  -1   11.99    0.32
  -1  -5  -1   12.72    0.34
   1   5   1   13.18    0.32
   1   5   1   12.53    0.31
   1   5   1   12.93    0.34
   1   5   1   12.99    0.32
  -2  -5  -1    0.54    0.11
  -2  -5  -1    0.67    0.10
   2   5   1    0.58    0.05
   2   5   1    0.50    0.08
   2   5   1    0.70    0.10
  -3  -5  -1    0.57    0.14
   3   5   1    0.38    0.04
   3   5   1    0.50    0.09
   3   5   1    0.36    0.06
  -4  -5  -1    0.39    0.10
  -4  -5  -1    0.20    0.07
  -4  -5  -1    0.29    0.09
   4   5   1    0.29    0.06
   4   5   1    0.38    0.08
   3  -6  -1    1.71    0.22
  -3   6   1    1.31    0.16
  -3   6   1    1.80    0.18
   2  -6  -1    1.01    0.16
   2  -6  -1    0.72    0.12
   2  -6  -1    1.13    0.17
  -2   6   1    1.13    0.13
  -2   6   1    0.81    0.09
  -2   6   1    0.85    0.12
   1  -6  -1    0.34    0.08
   1  -6  -1    0.46    0.11
  -1   6   1    0.32    0.04
  -1   6   1    0.35    0.04
  -1   6   1    0.43    0.09
  -1   6   1    0.35    0.06
   0  -6  -1    9.33    0.30
   0  -6  -1    9.96    0.31
   0  -6  -1    9.85    0.32
   0  -6  -1    9.59    0.29
   0   6   1   10.19    0.26
   0   6   1   10.16    0.28
   0   6   1   10.35    0.27
  -1  -6  -1    0.13    0.05
   1   6   1    0.10    0.04
   1   6   1    0.07    0.03
   1   6   1    0.07    0.03
   1   6   1    0.07    0.03
  -2  -6  -1    4.82    0.22
  -2  -6  -1    5.30    0.21
  -2  -6  -1    4.89    0.23
   2   6   1    4.91    0.16
   2   6   1    5.09    0.17
   2   6   1    4.93    0.21
   2   6   1    5.10    0.20
  -3  -6  -1    0.32    0.07
  -3  -6  -1    0.62    0.15
   3   6   1    0.45    0.05
   3   6   1    0.33    0.06
   3   6   1    0.43    0.06
  -4  -6  -1    2.44    0.24
  -4  -6  -1    2.30    0.21
  -4  -6  -1    2.36    0.24
   4   6   1    2.00    0.14
   3  -7  -1   -0.01    0.11
  -3   7   1   -0.08    0.08
  -3   7   1    0.07    0.08
   2  -7  -1   -0.03    0.08
  -2   7   1    0.01    0.04
  -2   7   1    0.01    0.06
  -2   7   1    0.01    0.06
   1  -7  -1    6.54    0.25
   1  -7  -1    4.99    0.24
   1  -7  -1    5.52    0.29
  -1   7   1    5.40    0.21
  -1   7   1    5.72    0.19
  -1   7   1    5.61    0.19
   0  -7  -1    0.05    0.05
   0  -7  -1    0.04    0.06
   0   7   1   -0.01    0.04
   0   7   1   -0.06    0.04
   0   7   1   -0.03    0.03
  -1  -7  -1    6.22    0.27
  -1  -7  -1    6.24    0.23
  -1  -7  -1    6.04    0.26
   1   7   1    6.11    0.22
   1   7   1    6.24    0.20
   1   7   1    6.24    0.19
   1   7   1    6.21    0.20
  -2  -7  -1    0.12    0.05
  -2  -7  -1    0.27    0.07
  -2  -7  -1    0.18    0.06
   2   7   1    0.19    0.04
   2   7   1    0.19    0.05
   2   7   1    0.13    0.05
  -3  -7  -1    3.01    0.23
  -3  -7  -1    2.83    0.20
  -3  -7  -1    2.94    0.23
   3   7   1    2.65    0.16
   3   7   1    2.52    0.18
   3   7   1    2.89    0.14
   2  -8  -1    1.29    0.30
  -2   8   1    1.92    0.14
  -2   8   1    2.03    0.18
   1  -8  -1    0.02    0.09
  -1   8   1   -0.02    0.04
  -1   8   1   -0.10    0.05
  -1   8   1   -0.04    0.04
   0  -8  -1    2.44    0.20
   0  -8  -1    2.54    0.20
   0   8   1    2.12    0.13
   0   8   1    2.11    0.14
   0   8   1    2.17    0.13
  -1  -8  -1    0.14    0.06
  -1  -8  -1    0.05    0.06
   1   8   1   -0.04    0.04
   1   8   1   -0.04    0.04
  -2  -8  -1    2.40    0.22
  -2  -8  -1    2.46    0.20
  -2  -8  -1    2.12    0.18
   2   8   1    2.06    0.13
   2   8   1    2.05    0.14
   1  -9  -1    0.21    0.10
  -1   9   1    0.06    0.05
  -1   9   1    0.01    0.07
   0   9   1   -0.03    0.05
   0   9   1    0.00    0.06
   0   9   1   -0.03    0.05
  -1  -9  -1    1.59    0.20
  -1  -9  -1    1.85    0.19
   1   8  -2    4.45    0.19
   1   8  -2    4.58    0.18
   1   8  -2    4.67    0.20
  -1  -8   2    4.82    0.26
  -1  -8   2    4.46    0.23
  -1   8  -2   -0.04    0.04
  -1   8  -2   -0.04    0.06
   1  -8   2   -0.05    0.08
   1  -8   2    0.12    0.08
  -2   8  -2    0.04    0.08
   2  -8   2    0.22    0.10
   2   7  -2   10.06    0.34
   2   7  -2   10.20    0.31
   2   7  -2   10.00    0.29
  -2  -7   2    9.54    0.37
  -2  -7   2    9.74    0.35
  -2  -7   2    9.90    0.34
   1   7  -2    2.92    0.16
   1   7  -2    2.84    0.15
   1   7  -2    3.21    0.16
   1   7  -2    2.93    0.14
  -1  -7   2    3.29    0.20
  -1  -7   2    3.05    0.16
  -1  -7   2    3.25    0.18
   0   7  -2    0.21    0.04
   0   7  -2    0.21    0.04
   0   7  -2    0.26    0.06
   0  -7   2    0.20    0.05
  -1   7  -2    0.10    0.06
  -1   7  -2    0.10    0.04
   1  -7   2    0.00    0.08
   1  -7   2    0.20    0.08
  -2   7  -2   12.74    0.41
  -2   7  -2   13.12    0.39
   2  -7   2   11.66    0.47
   2  -7   2   13.15    0.45
  -3   7  -2    2.22    0.19
  -3   7  -2    2.35    0.23
   3  -7   2    1.59    0.29
   3   6  -2   10.84    0.31
   3   6  -2   11.03    0.33
   3   6  -2   10.80    0.36
  -3  -6   2   10.99    0.41
  -3  -6   2   10.87    0.37
  -3  -6   2   10.82    0.39
   2   6  -2    6.74    0.25
   2   6  -2    6.77    0.21
   2   6  -2    6.89    0.22
   2   6  -2    6.63    0.21
  -2  -6   2    6.75    0.25
  -2  -6   2    6.42    0.27
  -2  -6   2    6.73    0.26
   1   6  -2    1.02    0.09
   1   6  -2    0.85    0.08
   1   6  -2    0.93    0.08
   1   6  -2    0.91    0.09
  -1  -6   2    0.83    0.11
  -1  -6   2    0.98    0.12
  -1  -6   2    1.09    0.10
  -1  -6   2    0.84    0.10
   0   6  -2    0.00    0.03
   0   6  -2   -0.03    0.03
   0   6  -2   -0.01    0.04
   0  -6   2    0.03    0.03
   0  -6   2    0.05    0.05
   0  -6   2    0.03    0.03
   0  -6   2    0.02    0.04
  -1   6  -2   37.27    0.86
  -1   6  -2   38.76    0.86
  -1   6  -2   36.71    0.91
  -1   6  -2   37.13    0.89
   1  -6   2   38.30    0.89
   1  -6   2   36.97    0.94
   1  -6   2   35.65    0.93
  -2   6  -2    5.16    0.21
  -2   6  -2    5.15    0.23
  -2   6  -2    5.10    0.21
   2  -6   2    4.89    0.26
   2  -6   2    4.67    0.28
   2  -6   2    5.61    0.26
  -3   6  -2    0.08    0.07
  -3   6  -2    0.02    0.08
  -3   6  -2    0.00    0.08
   3  -6   2   -0.09    0.11
   4   5  -2    6.10    0.22
   4   5  -2    6.92    0.29
  -4  -5   2    6.01    0.30
  -4  -5   2    6.21    0.31
   3   5  -2    5.02    0.18
   3   5  -2    5.11    0.19
   3   5  -2    5.24    0.22
  -3  -5   2    5.31    0.23
  -3  -5   2    4.93    0.25
  -3  -5   2    5.06    0.24
   2   5  -2    0.68    0.08
   2   5  -2    0.73    0.07
   2   5  -2    0.70    0.08
   2   5  -2    0.77    0.10
  -2  -5   2    0.69    0.10
  -2  -5   2    0.77    0.11
  -2  -5   2    0.72    0.10
  -2  -5   2    0.81    0.09
   1   5  -2    0.27    0.04
   1   5  -2    0.21    0.04
   1   5  -2    0.25    0.03
  -1  -5   2    0.22    0.05
  -1  -5   2    0.21    0.04
  -1  -5   2    0.20    0.04
   0   5  -2   67.81    1.51
   0   5  -2   68.03    1.53
   0   5  -2   66.37    1.53
   0   5  -2   68.72    1.52
   0  -5   2   65.41    1.55
   0  -5   2   65.59    1.57
   0  -5   2   68.33    1.55
   0  -5   2   67.39    1.53
  -1   5  -2    8.54    0.22
  -1   5  -2    8.31    0.24
  -1   5  -2    8.58    0.26
  -1   5  -2    8.45    0.25
  -1   5  -2    8.66    0.22
   1  -5   2    8.33    0.28
   1  -5   2    8.26    0.24
   1  -5   2    8.49    0.25
   1  -5   2    8.27    0.28
  -2   5  -2    0.83    0.07
  -2   5  -2    0.79    0.11
  -2   5  -2    0.80    0.09
  -2   5  -2    0.72    0.11
   2  -5   2    0.67    0.15
   2  -5   2    0.69    0.15
  -3   5  -2    2.02    0.19
  -3   5  -2    2.24    0.18
  -3   5  -2    2.28    0.15
   3  -5   2    2.12    0.22
  -4   5  -2   -0.02    0.09
  -4   5  -2   -0.13    0.07
   4   4  -2    1.84    0.16
   4   4  -2    1.46    0.12
   4   4  -2    1.54    0.12
  -4  -4   2    1.69    0.18
  -4  -4   2    1.59    0.17
  -4  -4   2    1.59    0.19
   3   4  -2    0.11    0.04
   3   4  -2    0.11    0.04
   3   4  -2    0.09    0.04
   3   4  -2    0.10    0.06
  -3  -4   2    0.13    0.05
  -3  -4   2    0.09    0.05
  -3  -4   2    0.13    0.05
   2   4  -2    0.47    0.07
   2   4  -2    0.49    0.07
   2   4  -2    0.50    0.06
  -2  -4   2    0.57    0.09
  -2  -4   2    0.48    0.09
  -2  -4   2    0.60    0.08
  -2  -4   2    0.48    0.08
   1   4  -2   56.16    1.25
   1   4  -2   56.63    1.25
   1   4  -2   56.45    1.26
   1   4  -2   56.72    1.25
  -1  -4   2   53.65    1.27
  -1  -4   2   55.83    1.28
  -1  -4   2   52.93    1.28
  -1  -4   2   53.04    1.29
   0   4  -2   11.06    0.27
   0   4  -2   11.02    0.28
   0   4  -2   10.89    0.27
   0   4  -2   10.97    0.28
   0  -4   2   10.51    0.30
   0  -4   2   10.70    0.29
   0  -4   2   10.81    0.28
   0  -4   2   10.55    0.31
  -1   4  -2    4.04    0.11
  -1   4  -2    3.96    0.11
  -1   4  -2    3.85    0.15
  -1   4  -2    3.81    0.13
  -1   4  -2    3.63    0.13
   1  -4   2    3.74    0.14
   1  -4   2    3.56    0.13
   1  -4   2    3.77    0.12
   1  -4   2    3.86    0.16
   1  -4   2    3.82    0.16
  -2   4  -2   18.38    0.50
  -2   4  -2   18.42    0.43
  -2   4  -2   18.77    0.47
  -2   4  -2   19.02    0.50
   2  -4   2   19.08    0.51
   2  -4   2   19.22    0.47
   2  -4   2   18.26    0.51
  -3   4  -2    0.28    0.06
  -3   4  -2    0.22    0.08
  -3   4  -2    0.35    0.08
   3  -4   2    0.27    0.08
   3  -4   2    0.30    0.08
  -4   4  -2   -0.07    0.08
  -4   4  -2   -0.09    0.06
  -4   4  -2    0.02    0.09
   4  -4   2    0.05    0.11
   4   3  -2   -0.03    0.04
   4   3  -2    0.02    0.04
   4   3  -2    0.04    0.05
  -4  -3   2   -0.04    0.05
  -4  -3   2    0.00    0.05
  -4  -3   2    0.01    0.05
   3   3  -2    0.17    0.04
   3   3  -2    0.18    0.05
   3   3  -2    0.17    0.03
   3   3  -2    0.12    0.04
  -3  -3   2    0.11    0.04
  -3  -3   2    0.20    0.05
  -3  -3   2    0.17    0.05
  -3  -3   2    0.14    0.05
   2   3  -2   19.91    0.47
   2   3  -2   20.32    0.47
   2   3  -2   19.40    0.47
   2   3  -2   19.41    0.46
  -2  -3   2   19.01    0.51
  -2  -3   2   20.09    0.50
  -2  -3   2   19.24    0.51
  -2  -3   2   18.91    0.50
   1   3  -2    7.79    0.21
   1   3  -2    7.63    0.20
   1   3  -2    7.90    0.20
   1   3  -2    7.93    0.20
  -1  -3   2    7.63    0.21
  -1  -3   2    7.71    0.22
  -1  -3   2    7.47    0.23
  -1  -3   2    7.51    0.22
   0   3  -2   16.70    0.40
   0   3  -2   16.76    0.40
   0   3  -2   17.24    0.39
   0   3  -2   17.12    0.39
   0  -3   2   16.42    0.40
   0  -3   2   16.38    0.42
   0  -3   2   16.80    0.41
   0  -3   2   16.34    0.41
  -1   3  -2  153.00    3.38
  -1   3  -2  149.42    3.29
  -1   3  -2  150.03    3.67
  -1   3  -2  144.96    3.94
  -1   3  -2  142.37    3.37
   1  -3   2  144.23    3.38
   1  -3   2  150.04    3.33
   1  -3   2  145.10    3.43
  -2   3  -2    9.42    0.26
  -2   3  -2    9.42    0.29
  -2   3  -2    9.58    0.29
  -2   3  -2    9.11    0.23
   2  -3   2    9.87    0.26
   2  -3   2    9.31    0.29
   2  -3   2    9.61    0.23
   2  -3   2    9.93    0.29
  -3   3  -2    0.07    0.05
  -3   3  -2    0.05    0.04
  -3   3  -2    0.05    0.06
   3  -3   2    0.06    0.06
   3  -3   2   -0.03    0.04
   3  -3   2    0.04    0.06
  -4   3  -2    1.69    0.19
  -4   3  -2    1.49    0.20
  -4   3  -2    1.21    0.13
   4  -3   2    1.71    0.23
   4  -3   2    1.99    0.23
  -5   3  -2    1.79    0.25
  -5   3  -2    2.17    0.24
   5  -3   2    1.65    0.29
   5  -3   2    2.15    0.29
   4   2  -2    0.17    0.04
   4   2  -2    0.08    0.05
   4   2  -2    0.13    0.04
  -4  -2   2    0.05    0.05
  -4  -2   2    0.08    0.06
  -4  -2   2    0.03    0.05
   3   2  -2    3.62    0.15
   3   2  -2    3.29    0.13
   3   2  -2    3.29    0.12
   3   2  -2    3.54    0.15
   3   2  -2    3.63    0.13
  -3  -2   2    3.71    0.13
  -3  -2   2    3.78    0.17
  -3  -2   2    3.57    0.16
  -3  -2   2    3.63    0.14
  -3  -2   2    3.56    0.17
  -3  -2   2    3.40    0.17
   2   2  -2    1.17    0.07
   2   2  -2    1.16    0.06
   2   2  -2    1.12    0.06
   2   2  -2    1.14    0.06
   2   2  -2    1.17    0.06
  -2  -2   2    0.99    0.08
  -2  -2   2    1.13    0.08
  -2  -2   2    1.05    0.08
  -2  -2   2    1.09    0.06
  -2  -2   2    1.15    0.07
  -2  -2   2    1.10    0.08
  -2  -2   2    1.12    0.06
   1   2  -2   36.93    0.82
   1   2  -2   36.20    0.82
   1   2  -2   38.01    0.83
   1   2  -2   36.29    0.82
  -1  -2   2   36.06    0.84
  -1  -2   2   36.12    0.83
  -1  -2   2   35.53    0.82
  -1  -2   2   35.43    0.84
  -1  -2   2   36.04    0.82
  -1  -2   2   34.97    0.84
   0   2  -2  545.54   13.32
   0   2  -2  558.00   13.20
   0   2  -2  527.85   12.89
   0   2  -2  537.03   12.48
   0  -2   2  531.72   13.66
   0  -2   2  518.09   12.75
   0  -2   2  541.04   13.78
   0  -2   2  542.98   13.27
   0  -2   2  546.27   13.51
  -1   2  -2   78.51    1.73
  -1   2  -2   77.87    1.78
  -1   2  -2   75.82    1.75
  -1   2  -2   77.58    1.78
  -1   2  -2   78.15    1.73
   1  -2   2   78.83    1.87
   1  -2   2   78.10    1.77
   1  -2   2   75.90    1.80
   1  -2   2   79.49    1.79
  -2   2  -2    0.82    0.08
  -2   2  -2    0.82    0.06
  -2   2  -2    0.77    0.08
  -2   2  -2    0.81    0.09
   2  -2   2    0.74    0.08
   2  -2   2    0.69    0.07
   2  -2   2    0.76    0.06
   2  -2   2    0.76    0.09
  -3   2  -2    3.72    0.19
  -3   2  -2    3.30    0.13
  -3   2  -2    3.80    0.20
  -3   2  -2    3.45    0.18
   3  -2   2    3.52    0.19
   3  -2   2    3.58    0.16
   3  -2   2    3.75    0.19
  -4   2  -2    4.53    0.24
  -4   2  -2    4.56    0.27
  -4   2  -2    4.27    0.25
   4  -2   2    4.63    0.26
   4  -2   2    4.51    0.22
   4  -2   2    4.73    0.27
  -5   2  -2    0.14    0.10
  -5   2  -2   -0.03    0.10
  -5   2  -2   -0.11    0.10
   5  -2   2   -0.15    0.11
   5  -2   2    0.17    0.12
   4   1  -2    0.63    0.11
   4   1  -2    0.84    0.12
   4   1  -2    0.56    0.08
  -4  -1   2    0.68    0.12
  -4  -1   2    0.50    0.14
  -4  -1   2    0.63    0.12
  -4  -1   2    0.61    0.10
  -4  -1   2    0.68    0.09
  -4  -1   2    0.66    0.13
   3   1  -2    0.00    0.03
   3   1  -2    0.00    0.02
   3   1  -2    0.03    0.03
   3   1  -2    0.05    0.03
   3   1  -2    0.06    0.04
  -3  -1   2    0.05    0.03
  -3  -1   2    0.02    0.03
  -3  -1   2   -0.04    0.03
  -3  -1   2    0.03    0.04
  -3  -1   2    0.04    0.03
  -3  -1   2   -0.03    0.04
  -3  -1   2    0.03    0.04
  -3  -1   2   -0.01    0.03
  -3  -1   2    0.01    0.03
   2   1  -2   27.46    0.61
   2   1  -2   25.59    0.61
   2   1  -2   26.73    0.63
   2   1  -2   25.90    0.62
   2   1  -2   26.76    0.62
  -2  -1   2   26.25    0.61
  -2  -1   2   26.70    0.63
  -2  -1   2   25.99    0.64
  -2  -1   2   26.48    0.61
  -2  -1   2   26.25    0.64
  -2  -1   2   26.68    0.62
  -2  -1   2   26.36    0.62
  -2  -1   2   26.92    0.63
  -2  -1   2   26.39    0.64
   1   1  -2  460.43   10.84
   1   1  -2  470.88   11.49
   1   1  -2  476.67   11.55
  -1  -1   2  452.43   10.33
  -1  -1   2  450.59   10.21
  -1  -1   2  451.62   11.34
  -1  -1   2  464.15   11.50
  -1  -1   2  453.25   10.91
  -1  -1   2  455.29   12.12
  -1  -1   2  454.67   10.24
   0   1  -2  203.25    4.61
   0   1  -2  209.11    4.67
   0   1  -2  206.39    4.59
   0   1  -2  204.97    4.62
   0  -1   2  201.19    4.59
   0  -1   2  205.96    4.69
   0  -1   2  207.72    4.67
   0  -1   2  205.66    4.69
   0  -1   2  204.96    4.60
  -1   1  -2    7.85    0.19
  -1   1  -2    7.67    0.21
  -1   1  -2    7.61    0.21
  -1   1  -2    7.83    0.21
   1  -1   2    7.42    0.21
   1  -1   2    7.96    0.19
   1  -1   2    8.00    0.20
   1  -1   2    7.89    0.21
  -2   1  -2    4.00    0.12
  -2   1  -2    3.85    0.14
  -2   1  -2    4.27    0.16
  -2   1  -2    4.08    0.15
   2  -1   2    3.94    0.15
   2  -1   2    3.85    0.14
   2  -1   2    3.64    0.13
   2  -1   2    4.02    0.15
  -3   1  -2    3.09    0.17
  -3   1  -2    3.19    0.12
  -3   1  -2    3.26    0.16
  -3   1  -2    3.41    0.18
   3  -1   2    3.36    0.13
   3  -1   2    2.91    0.17
   3  -1   2    3.24    0.17
   3  -1   2    3.34    0.15
  -4   1  -2   -0.04    0.07
  -4   1  -2   -0.02    0.06
  -4   1  -2   -0.10    0.07
   4  -1   2    0.00    0.07
   4  -1   2   -0.06    0.06
  -5   1  -2    0.61    0.13
  -5   1  -2    1.02    0.24
   5  -1   2    0.68    0.14
   4   0  -2    0.16    0.05
   4   0  -2    0.24    0.08
   4   0  -2    0.13    0.07
   4   0  -2    0.03    0.03
   4   0  -2    0.20    0.06
  -4   0   2    0.12    0.05
  -4   0   2    0.14    0.07
  -4   0   2    0.16    0.05
  -4   0   2    0.13    0.06
  -4   0   2    0.10    0.05
   3   0  -2   10.62    0.31
   3   0  -2   10.90    0.30
   3   0  -2   10.18    0.30
   3   0  -2   10.62    0.31
   3   0  -2   10.93    0.32
   3   0  -2   10.98    0.33
  -3   0   2   10.61    0.31
  -3   0   2   11.14    0.28
  -3   0   2   11.45    0.28
  -3   0   2   10.93    0.31
  -3   0   2   11.15    0.32
  -3   0   2   10.90    0.30
  -3   0   2   10.92    0.33
  -3   0   2   11.04    0.29
  -3   0   2   10.94    0.32
   2   0  -2   94.89    2.18
   2   0  -2   95.40    2.18
   2   0  -2   92.26    2.18
  -2   0   2   98.22    2.16
  -2   0   2   95.33    2.17
  -2   0   2   99.13    2.19
  -2   0   2   98.62    2.19
  -2   0   2   97.35    2.18
  -2   0   2   98.00    2.15
  -2   0   2   98.49    2.21
  -2   0   2   97.14    2.17
  -2   0   2   96.58    2.18
   1   0  -2  102.34    2.45
   1   0  -2  101.39    2.38
   1   0  -2  106.47    2.41
  -1   0   2  105.01    2.34
  -1   0   2  102.36    2.32
  -1   0   2  102.33    3.04
  -1   0   2  103.31    2.36
  -1   0   2  100.60    2.36
  -1   0   2  103.14    2.40
  -1   0   2  102.65    2.35
  -1   0   2  103.91    2.34
   0   0  -2   39.15    0.88
   0   0  -2   39.78    0.91
   0   0  -2   40.55    0.91
   0   0   2   39.16    0.94
   0   0   2   38.54    0.93
   0   0   2   37.16    0.88
   0   0   2   40.54    0.91
   0   0   2   38.31    0.89
   0   0   2   38.20    0.88
  -1   0  -2    0.46    0.02
  -1   0  -2    0.43    0.04
  -1   0  -2    0.42    0.04
  -1   0  -2    0.40    0.04
   1   0   2    0.32    0.04
   1   0   2    0.37    0.04
   1   0   2    0.34    0.04
  -2   0  -2    5.29    0.19
  -2   0  -2    5.02    0.18
  -2   0  -2    5.72    0.14
  -2   0  -2    5.48    0.18
  -2   0  -2    5.14    0.17
   2   0   2    6.08    0.17
   2   0   2    4.98    0.17
   2   0   2    5.91    0.16
  -3   0  -2   -0.03    0.04
  -3   0  -2   -0.03    0.04
  -3   0  -2    0.00    0.04
  -3   0  -2   -0.02    0.02
   3   0   2   -0.05    0.04
  -4   0  -2    4.58    0.21
  -4   0  -2    4.73    0.26
  -4   0  -2    4.75    0.25
   4   0   2    4.79    0.20
   4   0   2    4.91    0.22
   4   0   2    5.16    0.25
  -5   0  -2    0.16    0.11
  -5   0  -2    0.19    0.10
   5   0   2    0.28    0.12
   4  -1  -2    4.09    0.22
   4  -1  -2    3.64    0.23
   4  -1  -2    3.52    0.25
  -4   1   2    3.49    0.20
  -4   1   2    3.46    0.21
  -4   1   2    3.23    0.16
   3  -1  -2   10.02    0.31
   3  -1  -2   10.26    0.32
   3  -1  -2    9.83    0.28
   3  -1  -2   10.15    0.28
   3  -1  -2   10.38    0.31
  -3   1   2   10.34    0.26
  -3   1   2   10.32    0.28
  -3   1   2   10.34    0.29
  -3   1   2   10.22    0.28
  -3   1   2   10.57    0.27
  -3   1   2   10.84    0.32
  -3   1   2   10.31    0.31
  -3   1   2   10.35    0.32
   2  -1  -2   10.69    0.30
   2  -1  -2   10.90    0.30
   2  -1  -2   10.83    0.29
  -2   1   2   11.29    0.27
  -2   1   2   11.24    0.28
  -2   1   2   11.46    0.30
  -2   1   2   11.20    0.29
  -2   1   2   11.29    0.28
  -2   1   2   11.19    0.29
  -2   1   2   11.60    0.31
  -2   1   2   11.24    0.28
   1  -1  -2   45.27    1.04
   1  -1  -2   45.88    1.04
   1  -1  -2   45.50    1.03
  -1   1   2   45.50    1.04
  -1   1   2   45.09    1.02
  -1   1   2   44.68    1.02
  -1   1   2   44.81    1.02
  -1   1   2   46.42    1.02
  -1   1   2   45.82    1.03
   0  -1  -2    1.44    0.06
   0  -1  -2    1.52    0.07
   0  -1  -2    1.42    0.06
   0   1   2    1.47    0.05
   0   1   2    1.48    0.05
   0   1   2    1.43    0.05
   0   1   2    1.47    0.05
  -1  -1  -2  128.46    2.95
  -1  -1  -2  123.84    2.94
  -1  -1  -2  126.31    3.34
  -1  -1  -2  123.79    2.94
   1   1   2  127.08    2.92
   1   1   2  125.74    3.76
   1   1   2  129.85    2.83
   1   1   2  129.39    2.85
  -2  -1  -2    0.61    0.05
  -2  -1  -2    0.55    0.07
  -2  -1  -2    0.64    0.07
  -2  -1  -2    0.62    0.07
   2   1   2    0.54    0.06
   2   1   2    0.61    0.03
   2   1   2    0.44    0.07
   2   1   2    0.59    0.04
   2   1   2    0.50    0.06
  -3  -1  -2   13.72    0.39
  -3  -1  -2   13.46    0.36
  -3  -1  -2   13.39    0.40
  -3  -1  -2   13.66    0.41
   3   1   2   13.25    0.37
   3   1   2   13.63    0.32
   3   1   2   14.33    0.37
   3   1   2   13.21    0.39
  -4  -1  -2    2.17    0.19
  -4  -1  -2    2.20    0.18
  -4  -1  -2    2.17    0.18
  -4  -1  -2    1.84    0.15
   4   1   2    2.42    0.19
   4   1   2    2.27    0.16
   4   1   2    2.11    0.17
  -5  -1  -2   -0.05    0.08
  -5  -1  -2    0.02    0.09
  -5  -1  -2   -0.08    0.09
   5   1   2    0.00    0.10
   4  -2  -2    0.84    0.20
  -4   2   2    0.87    0.13
  -4   2   2    1.03    0.17
  -4   2   2    0.99    0.17
   3  -2  -2    0.04    0.04
   3  -2  -2    0.10    0.06
   3  -2  -2    0.14    0.06
  -3   2   2    0.08    0.05
  -3   2   2    0.13    0.03
  -3   2   2    0.09    0.03
  -3   2   2    0.04    0.05
  -3   2   2    0.17    0.06
   2  -2  -2   21.94    0.51
   2  -2  -2   20.84    0.53
  -2   2   2   21.04    0.53
  -2   2   2   21.02    0.49
  -2   2   2   21.09    0.49
  -2   2   2   20.86    0.53
  -2   2   2   20.87    0.49
  -2   2   2   20.64    0.51
   1  -2  -2    1.17    0.06
   1  -2  -2    1.02    0.07
   1  -2  -2    1.16    0.07
  -1   2   2    1.01    0.04
  -1   2   2    1.01    0.05
  -1   2   2    1.02    0.05
  -1   2   2    0.96    0.07
  -1   2   2    0.99    0.06
   0  -2  -2  193.70    4.47
   0  -2  -2  196.32    4.51
   0  -2  -2  204.54    4.60
   0  -2  -2  201.85    4.57
   0   2   2  199.68    4.46
   0   2   2  200.44    4.48
   0   2   2  199.13    4.48
   0   2   2  199.18    4.98
   0   2   2  187.11    5.17
   0   2   2  204.54    4.50
  -1  -2  -2    8.83    0.23
  -1  -2  -2    8.85    0.24
  -1  -2  -2    8.93    0.21
  -1  -2  -2    8.64    0.24
   1   2   2    9.03    0.21
   1   2   2    8.44    0.23
   1   2   2    9.10    0.23
   1   2   2    8.87    0.21
  -2  -2  -2   28.44    0.70
  -2  -2  -2   27.87    0.68
  -2  -2  -2   28.58    0.68
  -2  -2  -2   28.02    0.70
  -2  -2  -2   27.84    0.65
   2   2   2   27.42    0.68
   2   2   2   28.10    0.64
   2   2   2   28.84    0.64
   2   2   2   29.44    0.67
  -3  -2  -2   10.49    0.29
  -3  -2  -2   10.83    0.33
  -3  -2  -2   10.47    0.34
  -3  -2  -2   10.61    0.35
   3   2   2   10.52    0.31
   3   2   2   10.59    0.26
   3   2   2   10.71    0.27
   3   2   2   10.89    0.31
  -4  -2  -2    0.03    0.06
  -4  -2  -2    0.00    0.07
  -4  -2  -2    0.01    0.06
   4   2   2   -0.05    0.05
   4   2   2    0.10    0.06
  -5  -2  -2    0.84    0.22
  -5  -2  -2    0.95    0.21
  -5  -2  -2    0.84    0.19
   4  -3  -2    0.16    0.10
   4  -3  -2   -0.03    0.10
  -4   3   2   -0.04    0.06
  -4   3   2    0.03    0.08
  -4   3   2   -0.08    0.08
   3  -3  -2    7.42    0.29
   3  -3  -2    7.65    0.26
   3  -3  -2    7.24    0.27
  -3   3   2    7.31    0.27
  -3   3   2    7.49    0.27
  -3   3   2    7.31    0.20
  -3   3   2    7.09    0.21
  -3   3   2    7.30    0.24
   2  -3  -2    0.61    0.09
   2  -3  -2    0.75    0.09
   2  -3  -2    0.75    0.10
  -2   3   2    0.68    0.05
  -2   3   2    0.66    0.06
  -2   3   2    0.58    0.09
  -2   3   2    0.73    0.07
  -2   3   2    0.60    0.09
   1  -3  -2   49.08    1.09
   1  -3  -2   46.17    1.10
   1  -3  -2   48.09    1.11
  -1   3   2   47.18    1.10
  -1   3   2   47.87    1.09
  -1   3   2   48.54    1.07
  -1   3   2   46.97    1.08
   0  -3  -2   10.34    0.27
   0  -3  -2    9.94    0.26
   0  -3  -2   10.47    0.28
   0  -3  -2   10.23    0.26
   0   3   2    9.92    0.25
   0   3   2   10.46    0.25
   0   3   2   10.40    0.25
   0   3   2   10.56    0.25
   0   3   2   10.55    0.25
   0   3   2    9.57    0.25
  -1  -3  -2   32.09    0.76
  -1  -3  -2   32.40    0.77
  -1  -3  -2   31.85    0.78
  -1  -3  -2   32.14    0.76
   1   3   2   34.13    0.74
   1   3   2   33.75    0.76
   1   3   2   33.45    0.74
   1   3   2   33.36    0.75
   1   3   2   31.34    0.76
  -2  -3  -2   25.14    0.62
  -2  -3  -2   24.26    0.63
  -2  -3  -2   24.62    0.61
   2   3   2   24.83    0.57
   2   3   2   24.46    0.58
   2   3   2   26.22    0.61
   2   3   2   24.58    0.61
  -3  -3  -2    0.08    0.05
  -3  -3  -2    0.04    0.04
  -3  -3  -2    0.08    0.05
  -3  -3  -2    0.03    0.04
   3   3   2   -0.03    0.04
   3   3   2    0.09    0.02
   3   3   2    0.05    0.04
  -4  -3  -2    2.95    0.22
  -4  -3  -2    3.00    0.21
  -4  -3  -2    2.86    0.19
   4   3   2    2.57    0.20
   4   3   2    2.47    0.19
  -5  -3  -2    0.04    0.09
  -5  -3  -2   -0.01    0.08
   5   3   2    0.01    0.08
   4  -4  -2    1.58    0.25
   4  -4  -2    2.52    0.25
  -4   4   2    1.92    0.23
  -4   4   2    2.33    0.17
  -4   4   2    2.11    0.22
   3  -4  -2    0.30    0.08
   3  -4  -2    0.20    0.08
  -3   4   2    0.28    0.07
  -3   4   2    0.28    0.06
  -3   4   2    0.22    0.08
  -3   4   2    0.24    0.04
   2  -4  -2    2.70    0.17
   2  -4  -2    2.61    0.15
   2  -4  -2    2.89    0.15
  -2   4   2    2.82    0.13
  -2   4   2    2.84    0.15
  -2   4   2    2.79    0.10
  -2   4   2    2.75    0.10
   1  -4  -2    1.98    0.14
   1  -4  -2    1.90    0.10
   1  -4  -2    1.87    0.11
  -1   4   2    1.76    0.09
  -1   4   2    1.85    0.08
  -1   4   2    1.85    0.10
  -1   4   2    1.84    0.08
   0  -4  -2   15.73    0.41
   0  -4  -2   16.70    0.42
   0  -4  -2   16.33    0.39
   0  -4  -2   16.09    0.39
   0  -4  -2   16.52    0.43
   0   4   2   16.37    0.39
   0   4   2   16.41    0.39
   0   4   2   16.71    0.39
   0   4   2   15.33    0.39
   0   4   2   17.01    0.39
   0   4   2   15.87    0.39
  -1  -4  -2   14.47    0.37
  -1  -4  -2   13.98    0.38
  -1  -4  -2   14.49    0.37
  -1  -4  -2   14.35    0.40
   1   4   2   15.06    0.35
   1   4   2   15.49    0.35
   1   4   2   14.95    0.37
   1   4   2   14.29    0.37
   1   4   2   15.04    0.36
  -2  -4  -2    0.71    0.09
  -2  -4  -2    0.71    0.09
  -2  -4  -2    0.64    0.09
  -2  -4  -2    0.74    0.07
   2   4   2    0.65    0.08
   2   4   2    0.56    0.08
   2   4   2    0.68    0.06
   2   4   2    0.72    0.05
  -3  -4  -2    6.34    0.23
  -3  -4  -2    6.55    0.26
  -3  -4  -2    6.75    0.27
  -3  -4  -2    6.53    0.25
   3   4   2    6.42    0.24
   3   4   2    6.28    0.25
   3   4   2    6.47    0.18
   3   4   2    6.32    0.19
  -4  -4  -2    0.02    0.06
  -4  -4  -2    0.04    0.07
   4   4   2   -0.01    0.06
   4   4   2   -0.01    0.05
   4  -5  -2    0.05    0.13
  -4   5   2    0.07    0.09
  -4   5   2    0.10    0.08
   3  -5  -2   -0.06    0.09
   3  -5  -2   -0.10    0.09
  -3   5   2    0.04    0.07
  -3   5   2    0.06    0.04
  -3   5   2    0.09    0.06
   2  -5  -2    0.08    0.07
   2  -5  -2    0.16    0.06
   2  -5  -2    0.18    0.07
  -2   5   2    0.15    0.03
  -2   5   2    0.12    0.03
  -2   5   2    0.13    0.05
  -2   5   2    0.18    0.06
   1  -5  -2    4.47    0.21
   1  -5  -2    4.42    0.18
   1  -5  -2    4.65    0.17
  -1   5   2    4.33    0.16
  -1   5   2    4.55    0.14
  -1   5   2    4.20    0.16
  -1   5   2    4.54    0.14
   0  -5  -2    0.89    0.06
   0  -5  -2    0.83    0.09
   0  -5  -2    0.82    0.11
   0  -5  -2    0.91    0.10
   0  -5  -2    0.96    0.07
   0   5   2    0.89    0.06
   0   5   2    0.95    0.07
   0   5   2    0.88    0.06
   0   5   2    0.87    0.07
   0   5   2    0.81    0.06
   0   5   2    0.94    0.06
  -1  -5  -2    3.17    0.13
  -1  -5  -2    3.05    0.14
  -1  -5  -2    3.00    0.15
  -1  -5  -2    3.04    0.13
   1   5   2    3.23    0.11
   1   5   2    3.04    0.11
   1   5   2    2.99    0.13
   1   5   2    3.16    0.13
   1   5   2    3.10    0.11
  -2  -5  -2    8.62    0.30
  -2  -5  -2    8.64    0.29
  -2  -5  -2    9.12    0.28
  -2  -5  -2    8.65    0.26
   2   5   2    9.24    0.28
   2   5   2    8.89    0.25
   2   5   2    8.87    0.28
   2   5   2    8.75    0.23
  -3  -5  -2    0.06    0.06
  -3  -5  -2    0.11    0.06
  -3  -5  -2    0.01    0.04
   3   5   2    0.03    0.05
   3   5   2    0.01    0.03
   3   5   2    0.04    0.04
   3   5   2    0.06    0.05
  -4  -5  -2    1.63    0.19
  -4  -5  -2    1.92    0.22
  -4  -5  -2    2.06    0.22
   4   5   2    1.66    0.12
   4   5   2    1.51    0.16
   4   5   2    1.96    0.20
   3  -6  -2    0.07    0.11
  -3   6   2    0.13    0.07
  -3   6   2    0.16    0.08
  -3   6   2    0.14    0.05
   2  -6  -2    0.38    0.11
   2  -6  -2    0.64    0.10
  -2   6   2    0.49    0.08
  -2   6   2    0.56    0.09
   1  -6  -2    0.09    0.04
   1  -6  -2    0.03    0.07
   1  -6  -2    0.01    0.06
  -1   6   2    0.03    0.04
  -1   6   2    0.01    0.03
  -1   6   2    0.01    0.03
  -1   6   2    0.00    0.04
   0  -6  -2    5.24    0.22
   0  -6  -2    5.14    0.20
   0  -6  -2    5.61    0.21
   0   6   2    5.28    0.16
   0   6   2    5.23    0.18
   0   6   2    5.32    0.17
  -1  -6  -2    8.72    0.27
  -1  -6  -2    8.39    0.26
  -1  -6  -2    8.67    0.29
  -1  -6  -2    8.78    0.30
   1   6   2    8.90    0.26
   1   6   2    8.81    0.24
   1   6   2    8.92    0.26
   1   6   2    8.70    0.24
   1   6   2    8.87    0.25
  -2  -6  -2    0.19    0.06
  -2  -6  -2    0.23    0.06
  -2  -6  -2    0.17    0.05
   2   6   2    0.17    0.05
   2   6   2    0.20    0.04
   2   6   2    0.19    0.04
   2   6   2    0.14    0.04
  -3  -6  -2    4.42    0.25
  -3  -6  -2    4.10    0.22
  -3  -6  -2    4.64    0.26
   3   6   2    4.12    0.21
   3   6   2    4.89    0.23
   3   6   2    4.32    0.16
   3   6   2    4.17    0.17
  -4  -6  -2   -0.02    0.07
  -4  -6  -2   -0.06    0.06
  -4  -6  -2    0.07    0.09
   4   6   2   -0.09    0.05
   4   6   2   -0.01    0.07
   3  -7  -2   -0.13    0.11
  -3   7   2   -0.01    0.07
  -3   7   2    0.08    0.09
   2  -7  -2   -0.12    0.09
  -2   7   2   -0.02    0.06
  -2   7   2   -0.07    0.06
  -2   7   2   -0.08    0.04
   1  -7  -2    3.37    0.25
   1  -7  -2    3.14    0.22
  -1   7   2    3.44    0.14
  -1   7   2    3.36    0.17
  -1   7   2    3.55    0.14
   0  -7  -2    6.46    0.24
   0  -7  -2    5.65    0.23
   0  -7  -2    6.15    0.27
   0   7   2    5.98    0.20
   0   7   2    6.04    0.19
   0   7   2    5.96    0.20
   1   7   2    0.18    0.04
   1   7   2    0.23    0.04
   1   7   2    0.22    0.05
  -2  -7  -2    2.95    0.21
  -2  -7  -2    2.89    0.20
  -2  -7  -2    2.87    0.17
   2   7   2    3.35    0.18
   2   7   2    2.81    0.14
   2   7   2    2.86    0.13
   2   7   2    2.73    0.16
  -3  -7  -2    0.29    0.09
  -3  -7  -2    0.18    0.08
  -3  -7  -2    0.12    0.06
   3   7   2    0.07    0.06
   3   7   2    0.11    0.05
   3   7   2    0.16    0.07
   3   7   2    0.08    0.05
   2  -8  -2    0.46    0.14
   2  -8  -2    0.46    0.16
  -2   8   2    0.85    0.12
  -2   8   2    0.65    0.10
   1  -8  -2    2.51    0.25
  -1   8   2    2.28    0.14
  -1   8   2    2.54    0.14
  -1   8   2    2.30    0.16
   0  -8  -2    0.78    0.16
  -1  -8  -2    0.13    0.06
   1   8   2    0.02    0.04
   1   8   2    0.03    0.05
   2   8   2    0.52    0.07
   2   8   2    0.67    0.13
   2   8   2    0.64    0.07
  -1   9   2    0.17    0.07
   0   9   2    0.88    0.12
   0   9   2    0.75    0.12
  -1  -9  -2    2.38    0.21
  -1  -9  -2    2.17    0.21
   1   8  -3    0.17    0.07
   1   8  -3    0.20    0.06
   1   8  -3    0.11    0.06
  -1  -8   3    0.20    0.06
   0   8  -3   10.41    0.31
   0   8  -3   10.58    0.34
   0  -8   3   11.29    0.40
  -1   8  -3    0.27    0.06
  -1   8  -3    0.24    0.08
   2   7  -3    0.97    0.12
   2   7  -3    1.15    0.14
   2   7  -3    0.76    0.12
   2   7  -3    0.86    0.11
  -2  -7   3    0.97    0.15
  -2  -7   3    0.80    0.14
   1   7  -3   25.07    0.62
   1   7  -3   24.96    0.61
   1   7  -3   24.85    0.63
   1   7  -3   24.37    0.64
  -1  -7   3   24.46    0.69
  -1  -7   3   24.75    0.65
  -1  -7   3   25.09    0.68
   0   7  -3    2.66    0.13
   0   7  -3    2.72    0.15
   0   7  -3    2.64    0.13
   0  -7   3    3.05    0.20
   0  -7   3    2.98    0.18
  -1   7  -3    0.00    0.03
  -1   7  -3    0.04    0.06
   1  -7   3    0.09    0.07
  -2   7  -3    0.27    0.08
  -2   7  -3    0.13    0.08
   2  -7   3    0.05    0.11
  -3   7  -3    2.10    0.18
  -3   7  -3    1.77    0.22
   3  -7   3    1.28    0.28
   3   6  -3    1.49    0.12
  -3  -6   3    1.78    0.19
  -3  -6   3    1.46    0.18
   2   6  -3   30.50    0.74
   2   6  -3   30.05    0.72
   2   6  -3   29.09    0.76
   2   6  -3   31.01    0.74
  -2  -6   3   30.24    0.78
  -2  -6   3   29.25    0.80
  -2  -6   3   29.52    0.79
   1   6  -3    6.36    0.21
   1   6  -3    6.39    0.20
   1   6  -3    6.28    0.19
  -1  -6   3    6.07    0.25
  -1  -6   3    6.37    0.25
  -1  -6   3    6.57    0.24
   0   6  -3   -0.03    0.03
   0   6  -3   -0.03    0.04
   0   6  -3   -0.01    0.03
   0  -6   3    0.05    0.04
   0  -6   3   -0.03    0.03
   0  -6   3    0.02    0.03
   0  -6   3    0.07    0.04
  -1   6  -3    0.48    0.11
  -1   6  -3    0.44    0.06
  -1   6  -3    0.46    0.07
   1  -6   3    0.31    0.08
  -2   6  -3    2.46    0.15
  -2   6  -3    2.33    0.17
   2  -6   3    2.37    0.22
  -3   6  -3    0.15    0.09
  -3   6  -3    0.17    0.08
  -3   6  -3    0.25    0.08
   3  -6   3    0.02    0.11
   3  -6   3    0.01    0.12
   3   5  -3   18.22    0.48
   3   5  -3   17.78    0.47
   3   5  -3   18.23    0.52
  -3  -5   3   18.47    0.55
  -3  -5   3   18.23    0.55
  -3  -5   3   18.98    0.53
   2   5  -3    5.57    0.19
   2   5  -3    5.46    0.18
   2   5  -3    5.66    0.19
  -2  -5   3    5.31    0.22
  -2  -5   3    5.62    0.22
  -2  -5   3    5.37    0.23
   1   5  -3    0.23    0.04
   1   5  -3    0.16    0.04
   1   5  -3    0.22    0.05
  -1  -5   3    0.16    0.04
  -1  -5   3    0.12    0.04
  -1  -5   3    0.21    0.05
   0   5  -3    0.43    0.07
   0   5  -3    0.26    0.04
   0   5  -3    0.41    0.07
   0   5  -3    0.38    0.06
   0  -5   3    0.34    0.08
   0  -5   3    0.41    0.08
   0  -5   3    0.37    0.07
  -1   5  -3    0.02    0.02
  -1   5  -3    0.04    0.04
  -1   5  -3    0.07    0.03
  -1   5  -3    0.04    0.04
   1  -5   3    0.03    0.05
   1  -5   3   -0.02    0.05
   1  -5   3    0.03    0.03
   1  -5   3    0.04    0.03
  -2   5  -3    0.23    0.06
  -2   5  -3    0.14    0.06
   2  -5   3    0.15    0.07
   2  -5   3    0.15    0.07
  -3   5  -3    2.56    0.21
  -3   5  -3    2.43    0.19
  -3   5  -3    2.69    0.16
   3  -5   3    2.60    0.24
   3  -5   3    2.23    0.25
  -4   5  -3    0.28    0.11
  -4   5  -3    0.40    0.09
  -4   5  -3    0.38    0.11
   4  -5   3    0.35    0.14
   4   4  -3    6.20    0.22
   4   4  -3    5.76    0.22
   4   4  -3    6.35    0.34
  -4  -4   3    5.93    0.30
  -4  -4   3    6.11    0.33
  -4  -4   3    6.24    0.29
   3   4  -3    1.86    0.12
   3   4  -3    2.02    0.12
   3   4  -3    1.79    0.11
   3   4  -3    2.16    0.14
  -3  -4   3    1.99    0.16
  -3  -4   3    1.90    0.16
  -3  -4   3    2.04    0.15
   2   4  -3    1.25    0.08
   2   4  -3    1.24    0.09
   2   4  -3    1.25    0.09
  -2  -4   3    1.23    0.11
  -2  -4   3    1.23    0.11
  -2  -4   3    1.24    0.11
   1   4  -3    0.08    0.03
   1   4  -3    0.04    0.03
   1   4  -3    0.09    0.03
   1   4  -3    0.04    0.02
  -1  -4   3    0.04    0.03
  -1  -4   3    0.05    0.03
  -1  -4   3    0.08    0.03
   0   4  -3   12.60    0.30
   0   4  -3   12.44    0.30
   0   4  -3   12.20    0.32
   0   4  -3   12.39    0.32
   0  -4   3   11.98    0.32
   0  -4   3   12.03    0.32
   0  -4   3   11.64    0.34
   0  -4   3   11.51    0.33
  -1   4  -3    0.44    0.07
  -1   4  -3    0.49    0.08
  -1   4  -3    0.55    0.05
  -1   4  -3    0.53    0.05
  -1   4  -3    0.46    0.06
   1  -4   3    0.45    0.08
   1  -4   3    0.62    0.10
   1  -4   3    0.55    0.06
   1  -4   3    0.55    0.10
  -2   4  -3    8.25    0.28
  -2   4  -3    8.48    0.25
  -2   4  -3    8.47    0.27
   2  -4   3    8.73    0.26
   2  -4   3    8.52    0.28
  -3   4  -3    3.72    0.21
  -3   4  -3    3.24    0.16
  -3   4  -3    3.47    0.21
   3  -4   3    3.90    0.27
   3  -4   3    3.77    0.23
   3  -4   3    3.49    0.23
  -4   4  -3   -0.08    0.08
   4  -4   3   -0.10    0.11
   4   3  -3    0.16    0.05
   4   3  -3    0.23    0.06
   4   3  -3    0.18    0.05
  -4  -3   3    0.15    0.06
  -4  -3   3    0.14    0.06
  -4  -3   3    0.12    0.06
   3   3  -3    2.28    0.12
   3   3  -3    2.29    0.12
   3   3  -3    2.24    0.11
  -3  -3   3    2.29    0.15
  -3  -3   3    2.28    0.16
  -3  -3   3    2.35    0.15
   2   3  -3    0.03    0.03
   2   3  -3    0.00    0.02
   2   3  -3   -0.02    0.03
   2   3  -3    0.01    0.03
  -2  -3   3    0.05    0.03
  -2  -3   3    0.02    0.03
  -2  -3   3    0.02    0.03
   1   3  -3   41.93    0.94
   1   3  -3   43.62    0.96
   1   3  -3   42.35    0.95
   1   3  -3   42.63    0.96
  -1  -3   3   40.47    0.98
  -1  -3   3   40.99    0.97
  -1  -3   3   41.12    0.95
  -1  -3   3   40.63    0.95
  -1  -3   3   39.81    0.98
   0   3  -3    2.55    0.08
   0   3  -3    2.55    0.09
   0   3  -3    2.54    0.10
   0   3  -3    2.58    0.10
   0  -3   3    2.38    0.10
   0  -3   3    2.57    0.10
   0  -3   3    2.46    0.12
   0  -3   3    2.52    0.10
  -1   3  -3   19.90    0.47
  -1   3  -3   19.84    0.48
  -1   3  -3   19.62    0.45
  -1   3  -3   19.91    0.45
  -1   3  -3   19.54    0.49
   1  -3   3   19.74    0.47
   1  -3   3   19.36    0.50
   1  -3   3   19.30    0.48
   1  -3   3   19.43    0.49
  -2   3  -3   17.89    0.45
  -2   3  -3   17.87    0.48
  -2   3  -3   17.62    0.48
   2  -3   3   18.71    0.49
   2  -3   3   17.75    0.48
   2  -3   3   18.11    0.43
   2  -3   3   18.76    0.46
  -3   3  -3   -0.05    0.04
  -3   3  -3   -0.05    0.05
  -3   3  -3   -0.03    0.06
   3  -3   3    0.03    0.06
   3  -3   3    0.00    0.06
   3  -3   3   -0.03    0.04
  -4   3  -3    0.40    0.11
  -4   3  -3    0.37    0.10
   4  -3   3    0.52    0.12
   4  -3   3    0.36    0.10
   4   2  -3    1.90    0.12
   4   2  -3    2.07    0.16
   4   2  -3    1.97    0.11
  -4  -2   3    1.90    0.17
  -4  -2   3    1.90    0.16
  -4  -2   3    1.92    0.12
  -4  -2   3    1.86    0.14
   3   2  -3    0.53    0.10
   3   2  -3    0.73    0.08
   3   2  -3    0.66    0.08
   3   2  -3    0.69    0.07
  -3  -2   3    0.74    0.10
  -3  -2   3    0.70    0.11
  -3  -2   3    0.63    0.08
  -3  -2   3    0.68    0.10
  -3  -2   3    0.58    0.09
   2   2  -3   28.00    0.66
   2   2  -3   29.23    0.67
   2   2  -3   27.73    0.65
   2   2  -3   28.17    0.66
  -2  -2   3   27.54    0.68
  -2  -2   3   26.78    0.68
  -2  -2   3   28.04    0.66
  -2  -2   3   28.22    0.65
  -2  -2   3   27.20    0.67
  -2  -2   3   27.97    0.69
   1   2  -3    4.34    0.13
   1   2  -3    4.33    0.12
   1   2  -3    4.26    0.13
   1   2  -3    4.42    0.14
  -1  -2   3    4.15    0.14
  -1  -2   3    4.09    0.14
  -1  -2   3    4.16    0.14
  -1  -2   3    4.38    0.13
  -1  -2   3    4.21    0.12
   0   2  -3   27.69    0.63
   0   2  -3   28.65    0.64
   0   2  -3   27.47    0.62
   0   2  -3   28.11    0.65
   0  -2   3   27.12    0.65
   0  -2   3   27.20    0.65
   0  -2   3   27.85    0.64
   0  -2   3   26.33    0.63
   0  -2   3   26.98    0.62
  -1   2  -3   62.83    1.36
  -1   2  -3   61.89    1.36
  -1   2  -3   60.42    1.40
  -1   2  -3   60.58    1.40
  -1   2  -3   61.24    1.38
   1  -2   3   61.33    1.38
   1  -2   3   59.58    1.39
   1  -2   3   62.09    1.42
   1  -2   3   61.83    1.46
  -2   2  -3   -0.04    0.03
  -2   2  -3    0.02    0.03
  -2   2  -3    0.00    0.03
  -2   2  -3   -0.03    0.03
   2  -2   3   -0.04    0.03
   2  -2   3    0.01    0.02
   2  -2   3    0.01    0.03
   2  -2   3    0.01    0.03
  -3   2  -3    4.18    0.20
  -3   2  -3    4.02    0.14
  -3   2  -3    4.29    0.21
  -3   2  -3    4.06    0.20
   3  -2   3    4.18    0.21
   3  -2   3    4.41    0.16
   3  -2   3    4.54    0.21
   3  -2   3    4.45    0.18
  -4   2  -3   -0.02    0.08
  -4   2  -3   -0.06    0.07
  -4   2  -3   -0.02    0.08
   4  -2   3    0.00    0.08
   4  -2   3    0.00    0.05
   4  -2   3    0.12    0.09
  -5   2  -3    0.11    0.10
  -5   2  -3    0.03    0.11
  -5   2  -3   -0.10    0.11
   5  -2   3   -0.04    0.12
   4   1  -3    0.65    0.11
   4   1  -3    1.01    0.13
   4   1  -3    0.86    0.09
   4   1  -3    0.91    0.09
  -4  -1   3    0.94    0.13
  -4  -1   3    0.76    0.11
  -4  -1   3    0.81    0.10
  -4  -1   3    0.78    0.13
  -4  -1   3    0.73    0.11
   3   1  -3    4.69    0.18
   3   1  -3    4.44    0.15
   3   1  -3    4.20    0.16
   3   1  -3    4.82    0.18
   3   1  -3    5.33    0.19
   3   1  -3    4.88    0.17
  -3  -1   3    4.87    0.18
  -3  -1   3    4.72    0.27
  -3  -1   3    5.02    0.17
  -3  -1   3    4.81    0.19
  -3  -1   3    4.96    0.17
  -3  -1   3    4.59    0.19
  -3  -1   3    5.00    0.16
  -3  -1   3    4.82    0.19
   2   1  -3    2.33    0.10
   2   1  -3    2.29    0.11
   2   1  -3    2.22    0.10
  -2  -1   3    2.29    0.11
  -2  -1   3    2.22    0.09
  -2  -1   3    2.21    0.10
  -2  -1   3    2.26    0.09
  -2  -1   3    2.19    0.10
  -2  -1   3    2.25    0.09
  -2  -1   3    2.18    0.11
   1   1  -3   17.30    0.42
   1   1  -3   17.88    0.43
   1   1  -3   18.05    0.41
  -1  -1   3   17.17    0.41
  -1  -1   3   17.47    0.41
  -1  -1   3   17.17    0.43
  -1  -1   3   17.60    0.42
  -1  -1   3   17.04    0.43
   0   1  -3   70.37    1.61
   0   1  -3   71.82    1.65
   0   1  -3   69.06    1.60
   0  -1   3   69.78    1.68
   0  -1   3   71.02    1.63
   0  -1   3   70.40    1.63
   0  -1   3   69.02    1.56
   0  -1   3   69.09    1.59
  -1   1  -3    1.97    0.09
  -1   1  -3    2.01    0.06
  -1   1  -3    2.11    0.07
  -1   1  -3    2.10    0.09
  -1   1  -3    1.92    0.09
   1  -1   3    2.17    0.08
   1  -1   3    1.73    0.09
   1  -1   3    2.20    0.09
   1  -1   3    2.15    0.09
   1  -1   3    2.03    0.06
   1  -1   3    2.04    0.06
  -2   1  -3   21.52    0.56
  -2   1  -3   21.58    0.51
  -2   1  -3   22.25    0.56
  -2   1  -3   21.71    0.55
   2  -1   3   22.51    0.52
   2  -1   3   22.02    0.55
   2  -1   3   22.35    0.54
  -3   1  -3   -0.03    0.05
  -3   1  -3    0.01    0.05
  -3   1  -3   -0.04    0.04
   3  -1   3   -0.04    0.04
   3  -1   3   -0.01    0.04
   3  -1   3   -0.03    0.03
  -4   1  -3   -0.04    0.07
  -4   1  -3    0.00    0.07
  -4   1  -3   -0.04    0.07
   4  -1   3    0.00    0.07
   4  -1   3   -0.03    0.05
   4  -1   3    0.11    0.08
  -5   1  -3    0.01    0.10
  -5   1  -3    0.01    0.09
   4   0  -3    0.04    0.05
   4   0  -3    0.06    0.03
   4   0  -3    0.04    0.06
   4   0  -3    0.10    0.07
   4   0  -3   -0.04    0.04
  -4   0   3    0.02    0.05
  -4   0   3    0.02    0.04
  -4   0   3   -0.01    0.06
  -4   0   3    0.02    0.04
  -4   0   3   -0.04    0.06
   3   0  -3    0.94    0.11
   3   0  -3    1.07    0.11
   3   0  -3    1.12    0.09
   3   0  -3    0.90    0.11
   3   0  -3    1.00    0.11
  -3   0   3    1.01    0.08
  -3   0   3    0.92    0.09
  -3   0   3    0.91    0.11
  -3   0   3    0.94    0.09
  -3   0   3    0.80    0.10
  -3   0   3    1.07    0.11
  -3   0   3    1.02    0.09
  -3   0   3    0.87    0.10
   2   0  -3    6.61    0.19
   2   0  -3    6.57    0.20
   2   0  -3    6.81    0.20
   2   0  -3    6.52    0.20
  -2   0   3    6.70    0.20
  -2   0   3    6.71    0.20
  -2   0   3    6.50    0.19
  -2   0   3    6.50    0.19
  -2   0   3    6.56    0.20
  -2   0   3    6.50    0.18
  -2   0   3    6.66    0.18
  -2   0   3    6.57    0.20
   1   0  -3   13.29    0.33
   1   0  -3   13.13    0.32
   1   0  -3   13.02    0.32
  -1   0   3   13.46    0.31
  -1   0   3   12.58    0.32
  -1   0   3   13.10    0.32
  -1   0   3   12.90    0.31
  -1   0   3   13.12    0.31
  -1   0   3   12.72    0.32
   0   0  -3   25.22    0.58
   0   0  -3   25.97    0.60
   0   0  -3   25.80    0.59
   0   0   3   25.87    0.58
   0   0   3   25.34    0.59
   0   0   3   24.81    0.59
   0   0   3   25.40    0.58
   0   0   3   25.10    0.58
   0   0   3   25.91    0.58
  -1   0  -3   76.58    1.82
  -1   0  -3   81.35    1.78
  -1   0  -3   77.91    1.83
  -1   0  -3   78.49    1.82
   1   0   3   81.68    1.87
   1   0   3   79.59    1.76
   1   0   3   81.58    2.06
   1   0   3   78.60    1.83
   1   0   3   77.89    2.57
  -2   0  -3    1.36    0.10
  -2   0  -3    1.42    0.09
  -2   0  -3    1.31    0.05
  -2   0  -3    1.28    0.08
   2   0   3    1.35    0.09
   2   0   3    1.24    0.09
   2   0   3    1.36    0.08
  -3   0  -3    6.10    0.24
  -3   0  -3    6.23    0.25
  -3   0  -3    6.23    0.22
   3   0   3    6.29    0.23
   3   0   3    6.26    0.20
   3   0   3    6.06    0.22
  -4   0  -3    0.17    0.08
  -4   0  -3   -0.04    0.08
  -4   0  -3    0.05    0.06
   4   0   3    0.01    0.06
   4   0   3    0.14    0.07
   4   0   3    0.04    0.05
  -5   0  -3    1.24    0.22
  -5   0  -3    1.40    0.24
   5   0   3    1.58    0.27
   4  -1  -3    1.05    0.18
   4  -1  -3    0.76    0.18
   4  -1  -3    0.77    0.14
  -4   1   3    0.68    0.15
  -4   1   3    0.82    0.09
  -4   1   3    0.75    0.16
   3  -1  -3    2.15    0.14
   3  -1  -3    1.92    0.13
   3  -1  -3    2.16    0.14
  -3   1   3    2.14    0.10
  -3   1   3    2.22    0.14
  -3   1   3    2.12    0.14
  -3   1   3    2.10    0.11
  -3   1   3    2.11    0.11
  -3   1   3    2.02    0.12
   2  -1  -3    0.35    0.07
   2  -1  -3    0.40    0.06
   2  -1  -3    0.34    0.07
   2  -1  -3    0.35    0.07
  -2   1   3    0.40    0.05
  -2   1   3    0.42    0.05
  -2   1   3    0.42    0.05
  -2   1   3    0.34    0.06
  -2   1   3    0.42    0.07
  -2   1   3    0.33    0.06
   1  -1  -3   31.36    0.73
   1  -1  -3   31.12    0.73
   1  -1  -3   31.93    0.72
  -1   1   3   31.10    0.71
  -1   1   3   30.73    0.73
  -1   1   3   31.34    0.72
  -1   1   3   30.31    0.71
  -1   1   3   30.66    0.71
  -1   1   3   30.70    0.71
   0  -1  -3  114.02    2.64
   0  -1  -3  116.71    2.66
   0  -1  -3  110.88    2.59
   0   1   3  116.65    2.57
   0   1   3  112.12    2.61
   0   1   3  115.05    2.57
   0   1   3  111.43    2.57
   0   1   3  110.27    2.61
  -1  -1  -3   13.95    0.35
  -1  -1  -3   13.54    0.36
  -1  -1  -3   14.30    0.35
  -1  -1  -3   14.49    0.32
  -1  -1  -3   13.66    0.36
   1   1   3   14.04    0.35
   1   1   3   14.80    0.33
   1   1   3   14.76    0.35
   1   1   3   14.82    0.32
   1   1   3   13.26    0.35
  -2  -1  -3   45.27    1.08
  -2  -1  -3   45.35    1.06
  -2  -1  -3   46.77    1.08
  -2  -1  -3   45.21    1.09
   2   1   3   47.05    1.06
   2   1   3   46.35    1.03
   2   1   3   47.17    1.07
   2   1   3   44.21    1.07
  -3  -1  -3   -0.01    0.04
  -3  -1  -3   -0.01    0.04
   3   1   3   -0.04    0.04
   3   1   3   -0.04    0.03
  -4  -1  -3    2.68    0.18
  -4  -1  -3    3.29    0.21
  -4  -1  -3    3.13    0.22
  -4  -1  -3    3.28    0.21
   4   1   3    3.06    0.20
   4   1   3    3.30    0.18
   4   1   3    3.53    0.22
  -5  -1  -3   -0.07    0.09
  -5  -1  -3   -0.06    0.10
   5   1   3   -0.13    0.10
   4  -2  -3    0.32    0.10
  -4   2   3    0.35    0.08
  -4   2   3    0.29    0.09
   3  -2  -3    0.00    0.05
   3  -2  -3    0.02    0.05
  -3   2   3   -0.02    0.05
  -3   2   3   -0.02    0.03
  -3   2   3   -0.04    0.04
  -3   2   3    0.00    0.03
   2  -2  -3   10.24    0.29
   2  -2  -3   10.71    0.26
   2  -2  -3    9.94    0.29
   2  -2  -3    9.90    0.30
  -2   2   3   10.28    0.30
  -2   2   3   10.05    0.26
  -2   2   3   10.20    0.26
  -2   2   3    9.83    0.27
  -2   2   3   10.00    0.26
   1  -2  -3   52.64    1.18
   1  -2  -3   51.86    1.18
   1  -2  -3   50.77    1.18
  -1   2   3   51.73    1.15
  -1   2   3   51.08    1.16
  -1   2   3   50.85    1.16
  -1   2   3   50.82    1.18
  -1   2   3   50.96    1.16
   0  -2  -3   19.56    0.48
   0  -2  -3   19.33    0.47
   0  -2  -3   19.74    0.47
   0   2   3   19.39    0.45
   0   2   3   19.98    0.45
   0   2   3   19.28    0.45
   0   2   3   19.45    0.46
   0   2   3   19.89    0.45
  -1  -2  -3   78.18    1.91
  -1  -2  -3   82.28    1.94
  -1  -2  -3   83.26    1.87
  -1  -2  -3   85.11    1.90
   1   2   3   85.13    1.95
   1   2   3   82.53    1.89
   1   2   3   84.43    1.87
   1   2   3   83.73    1.89
  -2  -2  -3    3.09    0.14
  -2  -2  -3    3.10    0.14
  -2  -2  -3    3.01    0.13
  -2  -2  -3    3.03    0.11
   2   2   3    2.96    0.12
   2   2   3    3.05    0.08
   2   2   3    3.07    0.12
   2   2   3    3.09    0.09
  -3  -2  -3    4.73    0.21
  -3  -2  -3    4.61    0.17
  -3  -2  -3    4.79    0.22
  -3  -2  -3    4.79    0.20
   3   2   3    4.70    0.20
   3   2   3    4.66    0.14
   3   2   3    4.81    0.19
   3   2   3    4.90    0.18
  -4  -2  -3    0.14    0.08
  -4  -2  -3    0.21    0.08
  -4  -2  -3    0.16    0.07
   4   2   3    0.04    0.06
   4   2   3    0.26    0.08
   4   2   3    0.12    0.06
  -5  -2  -3    0.51    0.12
  -5  -2  -3    0.53    0.13
  -5  -2  -3    0.88    0.22
   5   2   3    0.35    0.09
   4  -3  -3   -0.11    0.09
   4  -3  -3    0.03    0.11
   4  -3  -3    0.10    0.07
  -4   3   3    0.02    0.07
   3  -3  -3    2.11    0.18
   3  -3  -3    2.01    0.18
   3  -3  -3    1.98    0.14
  -3   3   3    1.76    0.16
  -3   3   3    2.03    0.10
  -3   3   3    2.12    0.13
  -3   3   3    2.03    0.10
   2  -3  -3   14.27    0.40
   2  -3  -3   13.46    0.39
   2  -3  -3   13.87    0.39
  -2   3   3   14.36    0.35
  -2   3   3   14.28    0.35
  -2   3   3   13.85    0.36
  -2   3   3   14.43    0.39
   1  -3  -3    4.69    0.17
   1  -3  -3    4.41    0.15
   1  -3  -3    4.36    0.16
  -1   3   3    4.51    0.14
  -1   3   3    4.39    0.12
  -1   3   3    4.50    0.15
  -1   3   3    4.61    0.13
  -1   3   3    4.52    0.13
   0  -3  -3   22.15    0.53
   0  -3  -3   22.62    0.55
   0  -3  -3   21.94    0.52
   0  -3  -3   22.50    0.55
   0   3   3   22.59    0.53
   0   3   3   22.40    0.52
   0   3   3   22.77    0.52
   0   3   3   22.84    0.52
   0   3   3   22.22    0.52
  -1  -3  -3   11.50    0.31
  -1  -3  -3   11.20    0.31
  -1  -3  -3   11.97    0.29
  -1  -3  -3   11.48    0.32
   1   3   3   11.67    0.29
   1   3   3   12.19    0.27
   1   3   3   11.69    0.28
   1   3   3   11.45    0.30
   1   3   3   11.99    0.30
  -2  -3  -3    3.92    0.17
  -2  -3  -3    3.89    0.12
  -2  -3  -3    3.89    0.16
  -2  -3  -3    3.87    0.15
   2   3   3    3.90    0.12
   2   3   3    3.88    0.15
   2   3   3    3.85    0.11
   2   3   3    4.24    0.15
  -3  -3  -3    3.22    0.19
  -3  -3  -3    3.31    0.17
  -3  -3  -3    3.27    0.18
   3   3   3    3.33    0.16
   3   3   3    3.38    0.17
   3   3   3    3.43    0.12
  -4  -3  -3    4.11    0.26
  -4  -3  -3    4.35    0.25
  -4  -3  -3    4.31    0.23
   4   3   3    4.80    0.25
   4   3   3    3.81    0.22
   4   3   3    4.37    0.24
  -5  -3  -3    1.70    0.26
  -5  -3  -3    1.91    0.25
  -5  -3  -3    1.65    0.22
   5   3   3    1.71    0.23
   5   3   3    1.29    0.23
   4  -4  -3    0.29    0.14
  -4   4   3    0.36    0.09
  -4   4   3    0.16    0.09
   3  -4  -3    3.28    0.23
   3  -4  -3    3.02    0.24
  -3   4   3    3.16    0.13
  -3   4   3    3.28    0.17
  -3   4   3    3.01    0.16
  -3   4   3    3.36    0.20
   2  -4  -3    0.33    0.07
   2  -4  -3    0.37    0.07
  -2   4   3    0.55    0.07
  -2   4   3    0.59    0.08
  -2   4   3    0.44    0.07
  -2   4   3    0.49    0.10
   1  -4  -3    0.50    0.09
   1  -4  -3    0.34    0.07
  -1   4   3    0.32    0.07
  -1   4   3    0.42    0.04
  -1   4   3    0.37    0.06
  -1   4   3    0.40    0.05
   0  -4  -3   11.05    0.29
   0  -4  -3   11.21    0.31
   0  -4  -3   10.86    0.32
   0  -4  -3   10.86    0.29
   0   4   3   11.13    0.28
   0   4   3   10.99    0.28
   0   4   3   11.17    0.27
   0   4   3   11.45    0.28
   0   4   3   10.56    0.28
   0   4   3   11.07    0.27
  -1  -4  -3    1.53    0.09
  -1  -4  -3    1.56    0.10
  -1  -4  -3    1.46    0.10
  -1  -4  -3    1.60    0.07
   1   4   3    1.56    0.08
   1   4   3    1.69    0.07
   1   4   3    1.57    0.07
   1   4   3    1.75    0.06
   1   4   3    1.64    0.09
  -2  -4  -3   12.45    0.38
  -2  -4  -3   12.40    0.36
  -2  -4  -3   12.75    0.37
   2   4   3   12.93    0.32
   2   4   3   13.04    0.31
   2   4   3   13.39    0.36
   2   4   3   13.13    0.36
  -3  -4  -3   13.89    0.45
  -3  -4  -3   13.69    0.43
  -3  -4  -3   13.34    0.40
   3   4   3   14.02    0.34
   3   4   3   14.22    0.41
   3   4   3   14.02    0.40
   3   4   3   13.99    0.35
  -4  -4  -3    4.19    0.27
  -4  -4  -3    4.06    0.23
  -4  -4  -3    4.10    0.26
   4   4   3    4.19    0.24
   4   4   3    4.00    0.22
  -4   5   3    0.83    0.16
   3  -5  -3    0.08    0.11
  -3   5   3    0.13    0.04
  -3   5   3    0.18    0.08
  -3   5   3    0.25    0.07
   2  -5  -3    5.84    0.28
   2  -5  -3    5.88    0.26
  -2   5   3    5.83    0.18
  -2   5   3    5.88    0.18
  -2   5   3    5.67    0.20
  -2   5   3    5.70    0.23
   1  -5  -3    6.27    0.20
   1  -5  -3    6.12    0.25
   1  -5  -3    6.10    0.23
   1  -5  -3    6.10    0.21
  -1   5   3    6.09    0.18
  -1   5   3    6.02    0.20
  -1   5   3    5.84    0.20
  -1   5   3    5.95    0.18
   0  -5  -3    0.34    0.07
   0  -5  -3    0.32    0.04
   0  -5  -3    0.31    0.06
   0  -5  -3    0.23    0.06
   0   5   3    0.40    0.06
   0   5   3    0.33    0.06
   0   5   3    0.28    0.04
   0   5   3    0.22    0.03
   0   5   3    0.41    0.05
  -1  -5  -3   17.35    0.46
  -1  -5  -3   16.55    0.45
  -1  -5  -3   16.60    0.47
   1   5   3   16.97    0.44
   1   5   3   17.52    0.43
   1   5   3   17.80    0.44
   1   5   3   18.18    0.42
   1   5   3   17.11    0.42
  -2  -5  -3   24.82    0.68
  -2  -5  -3   26.00    0.65
  -2  -5  -3   25.18    0.67
  -2  -5  -3   24.24    0.64
   2   5   3   26.42    0.65
   2   5   3   26.46    0.65
   2   5   3   26.00    0.60
   2   5   3   25.58    0.61
  -3  -5  -3    4.63    0.20
  -3  -5  -3    4.80    0.24
  -3  -5  -3    5.10    0.26
   3   5   3    4.74    0.21
   3   5   3    4.66    0.17
   3   5   3    4.87    0.23
   3   5   3    4.59    0.15
  -4  -5  -3    0.05    0.07
  -4  -5  -3    0.07    0.09
   4   5   3    0.02    0.06
   3  -6  -3    3.37    0.34
   3  -6  -3    4.20    0.30
  -3   6   3    4.32    0.17
  -3   6   3    4.55    0.22
  -3   6   3    4.44    0.25
   2  -6  -3    2.70    0.23
   2  -6  -3    2.98    0.17
   2  -6  -3    2.24    0.25
  -2   6   3    2.65    0.16
  -2   6   3    2.80    0.18
  -2   6   3    2.69    0.13
  -2   6   3    2.64    0.13
   1  -6  -3    0.03    0.04
   1  -6  -3    0.01    0.07
   1  -6  -3    0.01    0.07
  -1   6   3   -0.01    0.03
  -1   6   3    0.00    0.05
  -1   6   3   -0.03    0.03
  -1   6   3    0.03    0.04
   0  -6  -3    7.86    0.27
   0  -6  -3    7.65    0.29
   0  -6  -3    8.24    0.26
   0   6   3    8.04    0.24
   0   6   3    7.95    0.22
   0   6   3    7.88    0.23
  -1  -6  -3   23.82    0.62
  -1  -6  -3   23.20    0.64
  -1  -6  -3   22.91    0.60
   1   6   3   23.99    0.57
   1   6   3   24.10    0.58
   1   6   3   24.01    0.59
   1   6   3   24.26    0.60
  -2  -6  -3    3.00    0.15
  -2  -6  -3    3.12    0.19
  -2  -6  -3    3.20    0.19
  -2  -6  -3    3.23    0.17
   2   6   3    3.19    0.17
   2   6   3    3.21    0.16
   2   6   3    3.01    0.13
   2   6   3    3.18    0.12
  -3  -6  -3    1.21    0.18
  -3  -6  -3    1.11    0.18
   3   6   3    0.84    0.09
   3   6   3    0.90    0.10
   3   6   3    1.14    0.16
   3   6   3    0.78    0.13
  -4  -6  -3    2.13    0.26
  -4  -6  -3    2.47    0.25
   4   6   3    1.99    0.14
   4   6   3    2.39    0.22
  -3   7   3    1.15    0.17
  -3   7   3    0.97    0.14
  -3   7   3    0.92    0.20
  -2   7   3   -0.04    0.04
  -2   7   3    0.01    0.06
  -2   7   3    0.02    0.05
  -2   7   3   -0.07    0.06
   1  -7  -3    0.96    0.13
   1  -7  -3    1.17    0.19
  -1   7   3    1.22    0.11
  -1   7   3    1.04    0.10
  -1   7   3    1.07    0.12
   0  -7  -3    9.77    0.33
   0  -7  -3   10.22    0.36
   0  -7  -3   10.54    0.33
   0   7   3   10.15    0.30
   0   7   3   10.21    0.29
   0   7   3   10.24    0.28
  -1  -7  -3    1.35    0.16
  -1  -7  -3    1.26    0.15
   1   7   3    1.15    0.10
   1   7   3    1.22    0.09
   1   7   3    0.98    0.11
  -2  -7  -3    2.84    0.20
  -2  -7  -3    2.72    0.17
  -2  -7  -3    2.91    0.21
   2   7   3    2.46    0.16
   2   7   3    2.84    0.17
   2   7   3    2.70    0.13
   2   7   3    2.73    0.14
  -3  -7  -3    6.13    0.33
  -3  -7  -3    6.04    0.31
   3   7   3    5.75    0.20
   3   7   3    5.43    0.21
   3   7   3    6.39    0.28
   3   7   3    5.32    0.26
  -2   8   3    0.01    0.05
  -2   8   3    0.00    0.07
  -1   8   3    1.94    0.14
  -1   8   3    2.32    0.14
  -1   8   3    2.18    0.16
   0   8   3    0.14    0.05
   0   8   3    0.13    0.06
   0   8   3    0.16    0.05
  -1  -8  -3    3.87    0.24
  -1  -8  -3    3.92    0.23
   1   8   3    3.29    0.15
   1   8   3    3.40    0.16
  -2  -8  -3   11.00    0.41
  -2  -8  -3   10.63    0.41
   2   8   3   10.35    0.30
   2   8   3   10.21    0.32
   2   8   3    9.86    0.35
   0  -9  -3    3.72    0.26
   0   9   3    2.83    0.17
  -1  -9  -3   11.66    0.45
   1   9   3   11.01    0.33
   0   8  -4    1.50    0.16
   0   8  -4    1.32    0.12
   2   7  -4    0.11    0.06
  -2  -7   4    0.00    0.05
   1   7  -4    2.46    0.15
   1   7  -4    2.22    0.14
   1   7  -4    2.29    0.13
  -1  -7   4    2.36    0.17
  -1  -7   4    2.88    0.20
  -1  -7   4    2.49    0.19
   0   7  -4    6.95    0.22
   0   7  -4    6.89    0.23
   0   7  -4    7.46    0.26
   0  -7   4    7.41    0.29
   0  -7   4    7.24    0.30
  -1   7  -4    0.04    0.06
   1  -7   4    0.11    0.05
   1  -7   4    0.12    0.08
  -2   7  -4    0.33    0.08
  -2   7  -4    0.21    0.08
   2  -7   4    0.28    0.10
   2   6  -4    1.96    0.13
   2   6  -4    2.10    0.14
   2   6  -4    1.91    0.13
  -2  -6   4    2.13    0.17
  -2  -6   4    2.45    0.19
  -2  -6   4    2.17    0.18
   1   6  -4    7.77    0.26
   1   6  -4    7.93    0.24
   1   6  -4    8.01    0.24
  -1  -6   4    7.98    0.30
  -1  -6   4    7.66    0.30
  -1  -6   4    8.04    0.28
   0   6  -4   -0.03    0.03
   0   6  -4    0.04    0.05
   0   6  -4    0.03    0.03
   0  -6   4    0.01    0.03
   0  -6   4    0.01    0.04
   0  -6   4    0.07    0.05
  -1   6  -4    1.84    0.13
  -1   6  -4    2.00    0.14
  -1   6  -4    1.87    0.10
   1  -6   4    2.19    0.15
   1  -6   4    2.03    0.19
  -2   6  -4    0.07    0.06
  -2   6  -4    0.04    0.07
   2  -6   4    0.07    0.08
  -3   6  -4    0.00    0.07
  -3   6  -4   -0.06    0.08
   3   5  -4    1.15    0.12
   3   5  -4    1.16    0.12
   3   5  -4    1.25    0.14
   3   5  -4    1.71    0.14
  -3  -5   4    1.40    0.16
  -3  -5   4    1.48    0.17
  -3  -5   4    1.40    0.17
   2   5  -4    4.41    0.18
   2   5  -4    4.34    0.17
   2   5  -4    4.36    0.17
  -2  -5   4    4.40    0.21
  -2  -5   4    4.41    0.21
  -2  -5   4    4.46    0.22
   1   5  -4    0.79    0.10
   1   5  -4    0.91    0.08
   1   5  -4    1.02    0.09
  -1  -5   4    0.93    0.11
  -1  -5   4    1.08    0.12
  -1  -5   4    0.85    0.11
   0   5  -4    5.25    0.18
   0   5  -4    5.41    0.19
   0   5  -4    5.47    0.17
   0   5  -4    5.35    0.16
   0  -5   4    5.15    0.20
   0  -5   4    5.23    0.19
   0  -5   4    5.12    0.22
  -1   5  -4    0.02    0.02
  -1   5  -4    0.17    0.05
  -1   5  -4    0.00    0.04
   1  -5   4    0.01    0.03
   1  -5   4    0.07    0.05
  -2   5  -4    1.12    0.14
  -2   5  -4    1.13    0.11
   2  -5   4    1.34    0.13
   2  -5   4    0.81    0.18
  -3   5  -4   -0.09    0.07
  -3   5  -4   -0.05    0.06
   3  -5   4   -0.11    0.09
  -4   5  -4    0.56    0.13
  -4   5  -4    0.54    0.12
  -4   5  -4    0.64    0.13
   4  -5   4    0.68    0.15
   3   4  -4    1.14    0.11
   3   4  -4    1.26    0.12
   3   4  -4    1.14    0.13
  -3  -4   4    1.45    0.16
  -3  -4   4    1.51    0.15
  -3  -4   4    1.26    0.15
   2   4  -4    2.40    0.12
   2   4  -4    2.48    0.13
   2   4  -4    2.30    0.11
  -2  -4   4    2.39    0.15
  -2  -4   4    2.37    0.15
  -2  -4   4    2.43    0.15
   1   4  -4    7.77    0.22
   1   4  -4    7.71    0.23
   1   4  -4    7.73    0.21
   1   4  -4    7.92    0.23
  -1  -4   4    7.68    0.25
  -1  -4   4    7.62    0.25
  -1  -4   4    7.45    0.25
   0   4  -4    0.58    0.06
   0   4  -4    0.68    0.06
   0   4  -4    0.79    0.08
   0   4  -4    0.66    0.07
   0  -4   4    0.57    0.10
   0  -4   4    0.56    0.08
   0  -4   4    0.62    0.08
  -1   4  -4   10.83    0.30
  -1   4  -4   10.66    0.27
  -1   4  -4   11.22    0.33
  -1   4  -4   11.00    0.27
   1  -4   4   11.20    0.30
   1  -4   4   10.91    0.32
   1  -4   4   10.99    0.34
   1  -4   4   10.62    0.31
  -2   4  -4   -0.01    0.05
  -2   4  -4   -0.02    0.04
   2  -4   4    0.01    0.05
   2  -4   4    0.02    0.04
   2  -4   4   -0.01    0.05
  -3   4  -4    3.64    0.22
  -3   4  -4    3.34    0.17
  -3   4  -4    3.21    0.23
   3  -4   4    3.74    0.20
   3  -4   4    3.60    0.25
   3  -4   4    3.75    0.23
  -4   4  -4    0.05    0.09
  -4   4  -4   -0.01    0.10
   4  -4   4    0.06    0.11
   4  -4   4   -0.13    0.11
   4   3  -4    0.24    0.06
   4   3  -4    0.18    0.05
  -4  -3   4    0.22    0.07
  -4  -3   4    0.26    0.06
   3   3  -4    1.74    0.12
   3   3  -4    1.70    0.13
   3   3  -4    1.71    0.10
  -3  -3   4    1.73    0.14
  -3  -3   4    1.65    0.15
  -3  -3   4    1.76    0.15
  -3  -3   4    1.73    0.12
   2   3  -4    7.81    0.22
   2   3  -4    7.82    0.24
   2   3  -4    7.68    0.22
   2   3  -4    7.70    0.23
  -2  -3   4    7.59    0.25
  -2  -3   4    7.51    0.25
  -2  -3   4    7.72    0.23
  -2  -3   4    7.34    0.26
  -2  -3   4    7.52    0.22
   1   3  -4    1.90    0.09
   1   3  -4    2.03    0.10
   1   3  -4    1.93    0.08
   1   3  -4    2.05    0.10
  -1  -3   4    1.83    0.09
  -1  -3   4    1.84    0.11
  -1  -3   4    1.91    0.11
  -1  -3   4    1.99    0.11
  -1  -3   4    1.87    0.08
   0   3  -4   30.47    0.69
   0   3  -4   30.23    0.71
   0   3  -4   30.59    0.72
   0   3  -4   31.29    0.69
   0  -3   4   29.33    0.71
   0  -3   4   28.31    0.72
   0  -3   4   29.94    0.69
   0  -3   4   29.08    0.73
  -1   3  -4    1.13    0.05
  -1   3  -4    1.06    0.08
  -1   3  -4    0.99    0.07
  -1   3  -4    1.06    0.06
  -1   3  -4    0.89    0.09
   1  -3   4    1.08    0.09
   1  -3   4    1.15    0.09
   1  -3   4    1.14    0.08
   1  -3   4    1.19    0.11
  -2   3  -4    7.23    0.26
  -2   3  -4    7.55    0.23
  -2   3  -4    7.98    0.26
   2  -3   4    7.88    0.25
   2  -3   4    7.75    0.27
   2  -3   4    7.98    0.22
   2  -3   4    7.85    0.25
  -3   3  -4   -0.08    0.06
  -3   3  -4   -0.07    0.04
  -3   3  -4   -0.01    0.06
   3  -3   4    0.02    0.06
   3  -3   4   -0.01    0.06
   3  -3   4   -0.02    0.05
  -4   3  -4    0.20    0.09
  -4   3  -4    0.11    0.09
   4  -3   4    0.03    0.10
   4  -3   4    0.18    0.11
   4  -3   4    0.07    0.09
   4   2  -4    0.34    0.07
   4   2  -4    0.59    0.10
   4   2  -4    0.33    0.05
  -4  -2   4    0.40    0.06
  -4  -2   4    0.25    0.06
  -4  -2   4    0.37    0.07
  -4  -2   4    0.26    0.06
   3   2  -4    5.07    0.17
   3   2  -4    5.25    0.19
   3   2  -4    5.04    0.18
  -3  -2   4    5.26    0.19
  -3  -2   4    5.00    0.18
  -3  -2   4    5.17    0.22
  -3  -2   4    5.19    0.22
   2   2  -4    0.19    0.03
   2   2  -4    0.35    0.08
   2   2  -4    0.22    0.04
   2   2  -4    0.33    0.05
  -2  -2   4    0.24    0.04
  -2  -2   4    0.20    0.04
  -2  -2   4    0.25    0.04
  -2  -2   4    0.28    0.04
   1   2  -4   18.86    0.46
   1   2  -4   18.53    0.44
  -1  -2   4   18.64    0.47
  -1  -2   4   17.60    0.47
  -1  -2   4   18.49    0.44
  -1  -2   4   18.81    0.44
  -1  -2   4   18.13    0.46
   0   2  -4    7.43    0.19
   0   2  -4    7.38    0.21
   0   2  -4    7.32    0.19
   0   2  -4    7.44    0.20
   0  -2   4    7.23    0.19
   0  -2   4    7.22    0.21
   0  -2   4    7.21    0.21
   0  -2   4    7.09    0.21
   0  -2   4    7.31    0.19
  -1   2  -4   10.15    0.26
  -1   2  -4   10.30    0.24
  -1   2  -4   10.01    0.24
  -1   2  -4    9.98    0.28
  -1   2  -4    9.91    0.27
   1  -2   4   10.07    0.28
   1  -2   4   10.16    0.29
   1  -2   4   10.00    0.24
   1  -2   4    9.93    0.27
   1  -2   4    9.79    0.26
  -2   2  -4    3.02    0.11
  -2   2  -4    3.14    0.15
  -2   2  -4    2.94    0.15
  -2   2  -4    3.05    0.15
   2  -2   4    3.19    0.16
   2  -2   4    2.87    0.14
   2  -2   4    3.11    0.12
   2  -2   4    3.15    0.14
  -3   2  -4    2.77    0.17
  -3   2  -4    2.56    0.18
  -3   2  -4    2.41    0.18
  -3   2  -4    2.50    0.11
   3  -2   4    2.69    0.13
   3  -2   4    2.64    0.18
   3  -2   4    2.69    0.19
   3  -2   4    2.82    0.17
  -4   2  -4    2.93    0.22
  -4   2  -4    3.02    0.23
   4  -2   4    3.30    0.25
   4  -2   4    2.94    0.21
   4  -2   4    3.07    0.25
  -5   2  -4    0.08    0.12
   4   1  -4    2.29    0.15
   4   1  -4    1.85    0.12
   4   1  -4    2.04    0.15
   4   1  -4    1.99    0.12
  -4  -1   4    1.82    0.13
  -4  -1   4    1.97    0.14
  -4  -1   4    1.82    0.16
   3   1  -4   -0.03    0.05
   3   1  -4    0.00    0.03
   3   1  -4    0.01    0.03
   3   1  -4    0.02    0.04
  -3  -1   4   -0.02    0.04
  -3  -1   4   -0.02    0.04
   2   1  -4    0.76    0.09
   2   1  -4    0.61    0.08
  -2  -1   4    0.86    0.08
   1   1  -4   14.78    0.38
   1   1  -4   15.09    0.36
  -1  -1   4   14.65    0.35
  -1  -1   4   14.31    0.36
  -1  -1   4   14.53    0.35
  -1  -1   4   14.32    0.37
  -1  -1   4   13.72    0.37
   0   1  -4    7.44    0.20
   0   1  -4    7.47    0.20
   0   1  -4    7.76    0.22
   0  -1   4    7.49    0.20
   0  -1   4    7.20    0.21
   0  -1   4    7.40    0.19
   0  -1   4    7.47    0.21
   0  -1   4    7.22    0.19
  -1   1  -4   35.96    0.83
  -1   1  -4   35.49    0.81
  -1   1  -4   35.95    0.80
  -1   1  -4   33.57    0.83
  -1   1  -4   35.55    0.84
   1  -1   4   35.33    0.82
   1  -1   4   36.17    0.84
   1  -1   4   35.59    0.82
   1  -1   4   35.48    0.80
   1  -1   4   35.92    0.83
   1  -1   4   36.14    0.80
  -2   1  -4   23.56    0.61
  -2   1  -4   24.21    0.61
  -2   1  -4   23.85    0.61
  -2   1  -4   24.24    0.57
   2  -1   4   24.77    0.60
   2  -1   4   24.72    0.61
   2  -1   4   25.02    0.59
  -3   1  -4   11.43    0.37
  -3   1  -4   10.83    0.37
  -3   1  -4   11.49    0.35
   3  -1   4   11.62    0.36
   3  -1   4   11.88    0.34
   3  -1   4   12.03    0.32
   3  -1   4   11.25    0.36
  -4   1  -4    0.44    0.09
  -4   1  -4    0.48    0.11
   4  -1   4    0.48    0.10
   4  -1   4    0.40    0.07
  -5   1  -4    0.09    0.12
  -5   1  -4    0.12    0.11
  -5   1  -4    0.20    0.10
   5  -1   4    0.20    0.13
   5  -1   4    0.07    0.08
   4   0  -4   -0.08    0.07
   4   0  -4    0.02    0.06
   4   0  -4    0.06    0.04
   4   0  -4    0.05    0.04
  -4   0   4   -0.06    0.05
  -4   0   4   -0.09    0.04
  -4   0   4   -0.10    0.06
   3   0  -4    3.01    0.16
   3   0  -4    3.17    0.17
   3   0  -4    3.22    0.14
  -3   0   4    3.05    0.13
  -3   0   4    3.15    0.14
  -3   0   4    2.55    0.15
  -3   0   4    2.86    0.15
  -3   0   4    3.03    0.14
   2   0  -4   13.67    0.36
   2   0  -4   13.23    0.35
   2   0  -4   12.77    0.36
   2   0  -4   12.96    0.34
  -2   0   4   13.30    0.33
  -2   0   4   13.11    0.34
  -2   0   4   13.25    0.33
  -2   0   4   13.06    0.35
  -2   0   4   12.81    0.35
   1   0  -4    4.10    0.14
   1   0  -4    3.98    0.13
   1   0  -4    4.08    0.14
  -1   0   4    3.85    0.13
  -1   0   4    3.76    0.12
  -1   0   4    3.81    0.12
  -1   0   4    3.84    0.12
  -1   0   4    3.80    0.13
   0   0  -4   80.09    1.77
   0   0  -4   81.52    1.87
   0   0  -4   79.92    1.85
   0   0   4   78.37    1.78
   0   0   4   77.64    1.88
   0   0   4   78.72    1.80
   0   0   4   80.14    1.81
   0   0   4   78.37    1.88
  -1   0  -4  112.69    2.99
  -1   0  -4  118.97    2.74
  -1   0  -4  119.39    2.65
  -1   0  -4  114.69    2.69
   1   0   4  118.54    2.62
   1   0   4  117.24    2.74
   1   0   4  117.72    2.78
   1   0   4  120.12    2.75
   1   0   4  119.57    2.64
  -2   0  -4   31.73    0.73
  -2   0  -4   31.57    0.78
  -2   0  -4   31.60    0.77
  -2   0  -4   32.27    0.79
   2   0   4   31.96    0.78
   2   0   4   33.61    0.77
   2   0   4   32.45    0.76
  -3   0  -4    0.15    0.06
  -3   0  -4    0.13    0.05
   3   0   4    0.11    0.04
   3   0   4    0.14    0.05
   3   0   4    0.14    0.04
  -4   0  -4    1.71    0.17
  -4   0  -4    1.35    0.20
  -4   0  -4    1.21    0.19
   4   0   4    1.48    0.17
   4   0   4    1.79    0.21
   4   0   4    1.42    0.15
   4  -1  -4    3.75    0.22
   4  -1  -4    4.17    0.19
   4  -1  -4    4.22    0.26
  -4   1   4    4.14    0.20
  -4   1   4    4.22    0.17
  -4   1   4    4.04    0.20
  -4   1   4    4.10    0.23
   3  -1  -4    7.51    0.27
   3  -1  -4    8.10    0.29
  -3   1   4    8.12    0.28
  -3   1   4    7.97    0.23
  -3   1   4    7.80    0.25
  -3   1   4    8.08    0.24
  -3   1   4    7.76    0.28
   2  -1  -4    1.09    0.10
   2  -1  -4    1.34    0.11
   2  -1  -4    1.43    0.10
  -2   1   4    1.40    0.08
  -2   1   4    1.36    0.08
  -2   1   4    1.21    0.08
  -2   1   4    1.28    0.07
  -2   1   4    1.32    0.11
  -2   1   4    1.39    0.09
   1  -1  -4   41.09    0.95
   1  -1  -4   40.45    0.95
   1  -1  -4   43.25    0.93
  -1   1   4   39.55    0.93
  -1   1   4   40.40    0.92
  -1   1   4   39.60    0.92
  -1   1   4   39.29    0.93
  -1   1   4   40.71    0.93
   0  -1  -4  162.11    3.69
   0  -1  -4  164.68    3.78
   0  -1  -4  164.52    3.79
   0  -1  -4  164.00    3.69
   0   1   4  163.34    3.73
   0   1   4  158.82    3.69
   0   1   4  160.53    3.74
   0   1   4  165.83    3.69
  -1  -1  -4   52.47    1.23
  -1  -1  -4   50.38    1.22
  -1  -1  -4   52.97    1.22
  -1  -1  -4   53.68    1.19
   1   1   4   54.97    1.19
   1   1   4   54.81    1.21
   1   1   4   53.66    1.20
   1   1   4   53.58    1.22
   1   1   4   52.39    1.23
  -2  -1  -4    2.10    0.10
  -2  -1  -4    1.90    0.12
  -2  -1  -4    2.11    0.11
  -2  -1  -4    2.03    0.11
   2   1   4    2.14    0.11
   2   1   4    2.04    0.11
   2   1   4    2.16    0.07
   2   1   4    1.95    0.11
  -3  -1  -4    7.51    0.27
  -3  -1  -4    7.40    0.24
  -3  -1  -4    6.89    0.27
  -3  -1  -4    7.12    0.28
   3   1   4    7.60    0.24
   3   1   4    7.63    0.26
   3   1   4    7.51    0.26
  -4  -1  -4    0.28    0.07
  -4  -1  -4    0.42    0.10
   4   1   4    0.27    0.07
   4   1   4    0.32    0.07
  -5  -1  -4    0.03    0.10
  -5  -1  -4    0.04    0.10
   5   1   4    0.04    0.11
   4  -2  -4    3.51    0.27
   4  -2  -4    3.05    0.22
  -4   2   4    3.12    0.15
  -4   2   4    3.31    0.19
  -4   2   4    3.29    0.23
   3  -2  -4    0.19    0.07
   3  -2  -4    0.17    0.06
   3  -2  -4    0.26    0.08
  -3   2   4    0.17    0.06
  -3   2   4    0.22    0.07
  -3   2   4    0.23    0.05
  -3   2   4    0.16    0.04
   2  -2  -4    6.19    0.23
   2  -2  -4    6.49    0.22
   2  -2  -4    6.14    0.22
  -2   2   4    6.21    0.19
  -2   2   4    6.30    0.19
  -2   2   4    6.43    0.22
  -2   2   4    6.25    0.20
  -2   2   4    6.32    0.18
   1  -2  -4   55.76    1.29
   1  -2  -4   56.97    1.27
   1  -2  -4   55.09    1.28
  -1   2   4   55.84    1.26
  -1   2   4   54.63    1.26
  -1   2   4   54.61    1.25
  -1   2   4   55.30    1.25
  -1   2   4   55.35    1.25
   0  -2  -4   31.00    0.73
   0  -2  -4   30.38    0.73
   0  -2  -4   31.46    0.74
   0   2   4   30.94    0.72
   0   2   4   31.87    0.71
   0   2   4   30.51    0.71
   0   2   4   31.07    0.71
   0   2   4   30.92    0.72
  -1  -2  -4   13.44    0.31
  -1  -2  -4   13.12    0.35
  -1  -2  -4   12.76    0.35
  -1  -2  -4   13.38    0.34
  -1  -2  -4   13.43    0.34
   1   2   4   13.42    0.34
   1   2   4   13.61    0.32
   1   2   4   13.87    0.31
   1   2   4   13.20    0.31
   1   2   4   13.56    0.34
   1   2   4   12.56    0.33
  -2  -2  -4   29.80    0.73
  -2  -2  -4   28.23    0.73
  -2  -2  -4   28.26    0.73
  -2  -2  -4   27.89    0.69
   2   2   4   30.21    0.72
   2   2   4   30.45    0.67
   2   2   4   30.27    0.71
   2   2   4   28.59    0.72
   2   2   4   31.01    0.66
  -3  -2  -4    2.29    0.16
  -3  -2  -4    2.17    0.16
   3   2   4    2.05    0.14
   3   2   4    2.02    0.15
   3   2   4    2.31    0.15
  -4  -2  -4    0.06    0.07
  -4  -2  -4    0.10    0.08
  -4  -2  -4    0.13    0.08
   4   2   4    0.11    0.07
  -5  -2  -4    0.09    0.10
  -5  -2  -4    0.02    0.09
  -5  -2  -4    0.07    0.10
   5   2   4    0.14    0.11
   4  -3  -4    0.14    0.08
   4  -3  -4    0.08    0.12
  -4   3   4    0.10    0.08
  -4   3   4    0.00    0.05
  -4   3   4    0.01    0.09
   3  -3  -4    0.13    0.09
   3  -3  -4    0.15    0.06
  -3   3   4    0.09    0.07
  -3   3   4    0.14    0.04
  -3   3   4    0.20    0.06
  -3   3   4    0.17    0.04
   2  -3  -4    7.44    0.27
   2  -3  -4    7.58    0.27
   2  -3  -4    7.27    0.25
  -2   3   4    7.51    0.21
  -2   3   4    7.36    0.21
  -2   3   4    7.48    0.23
  -2   3   4    7.60    0.25
   1  -3  -4    6.46    0.22
   1  -3  -4    6.36    0.20
   1  -3  -4    6.59    0.22
  -1   3   4    6.24    0.18
  -1   3   4    6.07    0.18
  -1   3   4    6.26    0.17
  -1   3   4    6.23    0.19
  -1   3   4    6.18    0.20
   0  -3  -4   13.02    0.35
   0  -3  -4   12.86    0.34
   0  -3  -4   12.62    0.35
   0   3   4   13.08    0.32
   0   3   4   13.07    0.33
   0   3   4   12.75    0.32
   0   3   4   13.22    0.31
   0   3   4   12.84    0.32
  -1  -3  -4   75.75    1.67
  -1  -3  -4   69.85    1.70
  -1  -3  -4   74.16    1.68
  -1  -3  -4   72.48    1.69
   1   3   4   75.75    1.69
   1   3   4   76.23    1.68
   1   3   4   73.36    1.66
   1   3   4   74.30    1.65
   1   3   4   73.79    1.65
  -2  -3  -4    3.55    0.16
  -2  -3  -4    3.39    0.12
  -2  -3  -4    3.39    0.16
  -2  -3  -4    3.37    0.16
   2   3   4    3.61    0.15
   2   3   4    3.64    0.12
   2   3   4    3.75    0.11
   2   3   4    3.61    0.15
  -3  -3  -4    0.11    0.05
  -3  -3  -4    0.14    0.07
  -3  -3  -4    0.21    0.06
   3   3   4    0.16    0.03
   3   3   4    0.09    0.05
   3   3   4    0.10    0.05
  -4  -3  -4    2.02    0.21
  -4  -3  -4    2.12    0.20
  -4  -3  -4    2.08    0.22
   4   3   4    1.59    0.17
   4   3   4    1.88    0.19
   4   3   4    2.24    0.21
  -5  -3  -4    0.89    0.23
  -5  -3  -4    0.89    0.21
  -5  -3  -4    0.62    0.13
   4  -4  -4    0.14    0.08
   4  -4  -4   -0.11    0.13
  -4   4   4   -0.06    0.09
  -4   4   4    0.09    0.08
   3  -4  -4    0.52    0.12
  -3   4   4    0.57    0.09
  -3   4   4    0.42    0.06
  -3   4   4    0.48    0.09
   2  -4  -4    0.45    0.08
   2  -4  -4    0.61    0.11
   2  -4  -4    0.47    0.09
  -2   4   4    0.43    0.05
  -2   4   4    0.50    0.08
  -2   4   4    0.63    0.09
   1  -4  -4    6.37    0.24
   1  -4  -4    6.41    0.22
   1  -4  -4    6.45    0.24
  -1   4   4    6.24    0.19
  -1   4   4    6.33    0.19
  -1   4   4    6.44    0.18
  -1   4   4    6.15    0.19
  -1   4   4    6.22    0.21
   0  -4  -4   86.21    1.97
   0  -4  -4   84.80    2.00
   0  -4  -4   87.38    2.00
   0  -4  -4   87.51    1.98
   0   4   4   88.44    1.96
   0   4   4   89.31    1.97
   0   4   4   89.46    1.97
   0   4   4   87.07    1.96
   0   4   4   87.35    1.96
  -1  -4  -4    3.48    0.15
  -1  -4  -4    3.75    0.13
  -1  -4  -4    3.27    0.15
  -1  -4  -4    3.67    0.15
   1   4   4    3.68    0.14
   1   4   4    3.63    0.12
   1   4   4    3.56    0.11
   1   4   4    3.72    0.11
   1   4   4    3.67    0.14
  -2  -4  -4    0.43    0.09
  -2  -4  -4    0.26    0.06
  -2  -4  -4    0.28    0.05
   2   4   4    0.22    0.04
   2   4   4    0.31    0.04
   2   4   4    0.25    0.05
   2   4   4    0.34    0.05
  -3  -4  -4    7.35    0.29
  -3  -4  -4    7.20    0.27
  -3  -4  -4    7.17    0.30
   3   4   4    7.42    0.27
   3   4   4    7.21    0.21
   3   4   4    7.03    0.26
  -4  -4  -4    3.18    0.22
  -4  -4  -4    3.12    0.24
  -4  -4  -4    3.29    0.26
   4   4   4    2.75    0.20
   4   4   4    3.29    0.23
   4   4   4    3.55    0.23
   3  -5  -4   -0.11    0.12
  -3   5   4   -0.04    0.05
  -3   5   4    0.02    0.08
  -3   5   4    0.01    0.07
   2  -5  -4    3.21    0.18
   2  -5  -4    2.77    0.24
   2  -5  -4    3.23    0.23
  -2   5   4    3.35    0.19
  -2   5   4    3.30    0.16
  -2   5   4    3.06    0.14
  -2   5   4    3.20    0.14
   1  -5  -4   51.28    1.21
   1  -5  -4   50.28    1.22
   1  -5  -4   50.99    1.19
  -1   5   4   50.56    1.16
  -1   5   4   51.01    1.15
  -1   5   4   49.41    1.18
  -1   5   4   48.39    1.17
   0  -5  -4    3.10    0.17
   0  -5  -4    3.21    0.15
   0  -5  -4    2.84    0.14
   0  -5  -4    2.93    0.16
   0   5   4    2.95    0.11
   0   5   4    3.24    0.12
   0   5   4    3.15    0.13
   0   5   4    2.95    0.12
  -1  -5  -4    0.48    0.10
   1   5   4    0.31    0.04
   1   5   4    0.32    0.04
   1   5   4    0.39    0.07
   1   5   4    0.41    0.08
  -2  -5  -4   10.69    0.34
  -2  -5  -4   10.04    0.32
  -2  -5  -4   10.51    0.35
   2   5   4   10.79    0.32
   2   5   4   10.72    0.32
   2   5   4   10.38    0.29
   2   5   4   10.65    0.27
  -3  -5  -4    5.96    0.25
  -3  -5  -4    6.29    0.30
  -3  -5  -4    6.24    0.28
   3   5   4    6.05    0.25
   3   5   4    6.04    0.20
   3   5   4    6.40    0.26
  -4  -5  -4    0.48    0.12
  -4  -5  -4    0.37    0.10
   4   5   4    0.35    0.08
   4   5   4    0.42    0.09
   3  -6  -4    1.90    0.20
  -3   6   4    1.55    0.14
  -3   6   4    1.52    0.21
  -3   6   4    1.57    0.17
   2  -6  -4   17.56    0.54
   2  -6  -4   17.08    0.49
   2  -6  -4   16.58    0.55
  -2   6   4   17.93    0.50
  -2   6   4   16.82    0.44
  -2   6   4   16.42    0.46
  -2   6   4   16.70    0.44
   1  -6  -4    1.63    0.18
   1  -6  -4    1.46    0.20
   1  -6  -4    1.75    0.14
  -1   6   4    1.68    0.11
  -1   6   4    1.50    0.11
  -1   6   4    1.71    0.13
  -1   6   4    1.68    0.12
   0  -6  -4    0.65    0.13
   0  -6  -4    0.58    0.14
   0   6   4    0.49    0.08
   0   6   4    0.50    0.08
   0   6   4    0.65    0.08
  -1  -6  -4    5.58    0.22
  -1  -6  -4    5.35    0.24
  -1  -6  -4    5.64    0.22
   1   6   4    5.63    0.19
   1   6   4    5.53    0.17
   1   6   4    5.47    0.20
  -2  -6  -4    6.31    0.26
  -2  -6  -4    5.96    0.27
  -2  -6  -4    5.71    0.23
   2   6   4    5.98    0.23
   2   6   4    5.87    0.20
   2   6   4    6.18    0.19
   2   6   4    6.17    0.23
  -3  -6  -4    0.14    0.07
  -3  -6  -4    0.21    0.08
   3   6   4    0.15    0.05
   3   6   4    0.18    0.06
   3   6   4    0.16    0.07
   3   6   4    0.08    0.06
  -4  -6  -4    1.39    0.23
  -4  -6  -4    0.91    0.16
   4   6   4    1.49    0.22
   2  -7  -4    0.14    0.13
   2  -7  -4    0.18    0.13
  -2   7   4    0.35    0.06
  -2   7   4    0.37    0.08
  -2   7   4    0.33    0.09
   1  -7  -4    0.27    0.11
   1  -7  -4    0.34    0.09
  -1   7   4    0.27    0.05
   0  -7  -4    0.51    0.09
   0   7   4    0.76    0.09
   0   7   4    0.65    0.10
   0   7   4    0.64    0.09
  -1  -7  -4    2.71    0.16
  -1  -7  -4    2.72    0.20
  -1  -7  -4    2.62    0.18
   1   7   4    2.55    0.13
   1   7   4    2.41    0.12
  -2  -7  -4    0.01    0.06
  -2  -7  -4    0.08    0.07
   2   7   4   -0.04    0.04
   2   7   4   -0.04    0.04
  -3  -7  -4    2.92    0.27
  -3  -7  -4    2.56    0.25
   3   7   4    2.93    0.16
   3   7   4    2.86    0.22
   3   7   4    2.72    0.16
   3   7   4    2.50    0.20
   1  -8  -4    0.20    0.09
  -1   8   4    0.04    0.05
  -1   8   4    0.05    0.06
   0  -8  -4    0.30    0.09
   0   8   4    0.20    0.05
   0   8   4    0.23    0.06
  -2  -8  -4    3.93    0.27
  -2  -8  -4    3.58    0.25
   2   8   4    2.99    0.21
   2   8   4    3.29    0.16
   2   8   4    3.03    0.22
   1   7  -5    1.04    0.14
   1   7  -5    0.86    0.12
   1   7  -5    0.94    0.11
  -1  -7   5    1.24    0.18
  -1  -7   5    0.80    0.16
   0   7  -5    1.91    0.12
   0   7  -5    1.81    0.16
   0  -7   5    2.49    0.19
  -1   7  -5    0.06    0.07
   1  -7   5    0.15    0.05
   1  -7   5    0.18    0.08
  -2   7  -5    0.12    0.07
  -2   7  -5    0.11    0.08
   2  -7   5    0.12    0.10
   2   6  -5    2.89    0.17
   2   6  -5    2.28    0.15
  -2  -6   5    2.67    0.26
  -2  -6   5    3.02    0.21
  -2  -6   5    2.61    0.21
   1   6  -5    1.73    0.13
   1   6  -5    1.96    0.12
   1   6  -5    2.07    0.14
  -1  -6   5    2.34    0.17
  -1  -6   5    2.12    0.18
  -1  -6   5    2.12    0.16
   0   6  -5    0.32    0.05
   0   6  -5    0.23    0.05
   0   6  -5    0.44    0.07
   0  -6   5    0.56    0.11
   0  -6   5    0.60    0.13
  -1   6  -5    1.19    0.14
  -1   6  -5    1.48    0.14
   1  -6   5    1.42    0.16
   1  -6   5    1.37    0.18
  -2   6  -5    1.95    0.19
  -2   6  -5    1.82    0.16
   2  -6   5    1.72    0.24
   2  -6   5    2.39    0.17
  -3   6  -5    0.43    0.11
  -3   6  -5    0.84    0.16
   3   5  -5    4.21    0.21
   3   5  -5    3.95    0.18
  -3  -5   5    4.25    0.25
   2   5  -5    1.23    0.13
   2   5  -5    1.08    0.11
   2   5  -5    1.01    0.11
  -2  -5   5    1.20    0.16
  -2  -5   5    1.32    0.15
   1   5  -5    3.23    0.14
   1   5  -5    3.34    0.16
   1   5  -5    3.37    0.15
  -1  -5   5    3.48    0.18
  -1  -5   5    3.38    0.19
  -1  -5   5    3.43    0.18
   0   5  -5    6.04    0.21
   0   5  -5    6.07    0.18
   0   5  -5    6.05    0.22
   0   5  -5    6.04    0.19
   0  -5   5    5.89    0.22
   0  -5   5    5.65    0.24
   0  -5   5    5.72    0.23
  -1   5  -5    4.98    0.16
  -1   5  -5    5.20    0.20
  -1   5  -5    5.31    0.22
   1  -5   5    4.96    0.21
   1  -5   5    5.05    0.19
   1  -5   5    4.79    0.24
  -2   5  -5    1.41    0.13
  -2   5  -5    1.42    0.16
   2  -5   5    1.62    0.15
  -3   5  -5    0.33    0.08
  -3   5  -5    0.29    0.10
   3  -5   5   -0.03    0.11
   3  -5   5    0.01    0.10
   3   4  -5    0.27    0.06
   3   4  -5    0.35    0.05
   3   4  -5    0.41    0.08
  -3  -4   5    0.28    0.07
   2   4  -5    4.18    0.17
   2   4  -5    4.18    0.16
   2   4  -5    4.02    0.18
  -2  -4   5    4.03    0.19
  -2  -4   5    4.12    0.20
  -2  -4   5    4.07    0.17
  -2  -4   5    3.99    0.21
   1   4  -5   11.39    0.31
   1   4  -5   11.49    0.32
   1   4  -5   11.47    0.33
   1   4  -5   11.58    0.30
  -1  -4   5   10.61    0.34
  -1  -4   5   11.44    0.31
  -1  -4   5   10.95    0.34
  -1  -4   5   11.01    0.34
   0   4  -5    7.61    0.23
   0   4  -5    7.83    0.21
   0   4  -5    7.51    0.24
   0   4  -5    7.75    0.21
   0  -4   5    7.02    0.25
   0  -4   5    7.08    0.25
   0  -4   5    7.41    0.24
  -1   4  -5    0.75    0.09
  -1   4  -5    0.77    0.10
  -1   4  -5    0.68    0.06
   1  -4   5    0.56    0.11
   1  -4   5    0.53    0.09
  -2   4  -5    2.31    0.17
  -2   4  -5    2.05    0.16
  -2   4  -5    2.53    0.14
   2  -4   5    2.60    0.17
   2  -4   5    1.96    0.16
   2  -4   5    2.17    0.19
  -3   4  -5    1.44    0.20
  -3   4  -5    1.38    0.13
  -3   4  -5    1.20    0.18
   3  -4   5    1.52    0.19
   3  -4   5    1.16    0.23
   3  -4   5    1.59    0.18
  -4   4  -5   -0.01    0.10
  -4   4  -5    0.01    0.10
   4  -4   5   -0.12    0.13
   4  -4   5    0.18    0.12
   3   3  -5    1.22    0.11
   3   3  -5    1.12    0.13
   3   3  -5    1.03    0.10
  -3  -3   5    1.24    0.12
  -3  -3   5    1.23    0.15
  -3  -3   5    1.24    0.11
  -3  -3   5    1.00    0.15
   2   3  -5    7.85    0.25
   2   3  -5    8.10    0.24
   2   3  -5    8.16    0.23
   2   3  -5    7.94    0.30
  -2  -3   5    8.03    0.27
  -2  -3   5    8.16    0.24
  -2  -3   5    7.78    0.28
  -2  -3   5    7.87    0.27
  -2  -3   5    8.11    0.23
   1   3  -5    6.42    0.21
   1   3  -5    6.63    0.22
   1   3  -5    6.58    0.20
   1   3  -5    6.35    0.19
  -1  -3   5    6.28    0.18
  -1  -3   5    6.19    0.22
  -1  -3   5    6.39    0.19
  -1  -3   5    6.43    0.22
  -1  -3   5    6.28    0.22
   0   3  -5   -0.03    0.03
   0   3  -5   -0.03    0.02
  -1   3  -5   13.73    0.34
  -1   3  -5   13.37    0.39
  -1   3  -5   13.56    0.36
  -1   3  -5   13.88    0.37
  -1   3  -5   14.01    0.33
   1  -3   5   14.00    0.37
   1  -3   5   13.72    0.38
   1  -3   5   14.19    0.40
  -2   3  -5    4.93    0.23
  -2   3  -5    5.48    0.22
  -2   3  -5    5.00    0.19
   2  -3   5    5.86    0.19
   2  -3   5    5.50    0.21
   2  -3   5    5.58    0.24
   2  -3   5    5.67    0.22
  -3   3  -5    0.36    0.09
  -3   3  -5    0.45    0.09
  -3   3  -5    0.37    0.06
   3  -3   5    0.39    0.09
   3  -3   5    0.39    0.07
  -4   3  -5   -0.02    0.09
  -4   3  -5   -0.04    0.09
   4  -3   5    0.02    0.10
   4  -3   5   -0.10    0.07
   4   2  -5    0.05    0.04
   4   2  -5   -0.06    0.07
  -4  -2   5   -0.03    0.05
  -4  -2   5    0.00    0.05
   3   2  -5    2.32    0.15
   3   2  -5    2.43    0.13
   3   2  -5    2.51    0.12
  -3  -2   5    2.52    0.17
  -3  -2   5    2.39    0.13
  -3  -2   5    2.36    0.14
  -3  -2   5    2.48    0.16
   2   2  -5    2.99    0.12
   2   2  -5    2.99    0.12
   2   2  -5    2.83    0.14
   2   2  -5    3.02    0.15
  -2  -2   5    2.85    0.12
  -2  -2   5    3.10    0.15
  -2  -2   5    2.83    0.13
  -2  -2   5    2.95    0.15
   1   2  -5    0.11    0.03
   1   2  -5    0.16    0.04
   1   2  -5    0.24    0.05
  -1  -2   5    0.13    0.03
  -1  -2   5    0.16    0.04
  -1  -2   5    0.19    0.03
  -1  -2   5    0.14    0.03
  -1  -2   5    0.16    0.03
   0   2  -5   53.49    1.18
   0   2  -5   51.79    1.21
   0   2  -5   51.63    1.19
   0   2  -5   52.47    1.19
   0  -2   5   51.91    1.17
   0  -2   5   52.80    1.18
   0  -2   5   51.65    1.20
   0  -2   5   52.08    1.21
   0  -2   5   50.47    1.21
  -1   2  -5   13.32    0.33
  -1   2  -5   13.22    0.31
  -1   2  -5   12.64    0.36
  -1   2  -5   12.79    0.35
  -1   2  -5   13.00    0.31
   1  -2   5   12.96    0.34
   1  -2   5   13.28    0.36
   1  -2   5   13.31    0.31
   1  -2   5   12.63    0.33
   1  -2   5   13.13    0.36
  -2   2  -5    2.20    0.14
  -2   2  -5    2.33    0.11
  -2   2  -5    2.37    0.14
  -2   2  -5    2.35    0.14
   2  -2   5    2.40    0.12
   2  -2   5    2.36    0.14
   2  -2   5    2.24    0.13
   2  -2   5    2.46    0.15
  -3   2  -5    1.12    0.16
  -3   2  -5    1.06    0.14
  -3   2  -5    1.02    0.15
   3  -2   5    1.03    0.16
   3  -2   5    1.19    0.11
   3  -2   5    1.01    0.15
   3  -2   5    1.18    0.15
  -4   2  -5    0.21    0.10
  -4   2  -5    0.32    0.10
  -4   2  -5    0.31    0.11
   4  -2   5    0.22    0.10
   4  -2   5    0.41    0.12
   4  -2   5    0.12    0.07
   4   1  -5    0.25    0.08
   4   1  -5    0.29    0.05
   4   1  -5    0.21    0.05
  -4  -1   5    0.29    0.06
  -4  -1   5    0.26    0.06
   3   1  -5    0.42    0.07
   3   1  -5    0.40    0.08
   3   1  -5    0.59    0.08
  -3  -1   5    0.32    0.05
  -3  -1   5    0.41    0.06
   2   1  -5    0.36    0.05
   2   1  -5    0.56    0.10
  -2  -1   5    0.36    0.05
  -2  -1   5    0.34    0.04
  -2  -1   5    0.36    0.05
   1   1  -5   86.98    1.99
   1   1  -5   86.74    1.97
   1   1  -5   91.42    1.96
  -1  -1   5   86.78    1.98
  -1  -1   5   88.26    1.96
  -1  -1   5   85.81    1.96
  -1  -1   5   87.68    1.95
  -1  -1   5   83.30    1.98
   0   1  -5   17.95    0.44
   0   1  -5   17.77    0.44
   0   1  -5   18.18    0.46
   0  -1   5   17.48    0.45
   0  -1   5   18.03    0.45
   0  -1   5   18.14    0.43
   0  -1   5   17.88    0.42
   0  -1   5   17.68    0.44
  -1   1  -5    9.05    0.23
  -1   1  -5    8.97    0.24
  -1   1  -5    8.93    0.21
  -1   1  -5    8.44    0.25
  -1   1  -5    8.70    0.26
   1  -1   5    8.89    0.22
   1  -1   5    8.61    0.23
   1  -1   5    8.94    0.21
   1  -1   5    8.65    0.25
   1  -1   5    8.74    0.26
   1  -1   5    8.78    0.26
  -2   1  -5   11.33    0.29
  -2   1  -5   11.85    0.34
  -2   1  -5   11.09    0.34
  -2   1  -5   11.19    0.33
   2  -1   5   11.57    0.33
   2  -1   5   11.52    0.33
   2  -1   5   11.63    0.34
   2  -1   5   11.89    0.32
  -3   1  -5    2.39    0.16
  -3   1  -5    2.17    0.18
  -3   1  -5    2.43    0.18
   3  -1   5    2.28    0.17
   3  -1   5    2.79    0.18
   3  -1   5    2.39    0.16
   3  -1   5    2.42    0.14
  -4   1  -5    1.74    0.19
  -4   1  -5    1.80    0.21
  -4   1  -5    1.32    0.21
   4  -1   5    1.21    0.22
   4  -1   5    1.50    0.19
  -5   1  -5    0.03    0.12
  -5   1  -5   -0.04    0.09
   4   0  -5    0.07    0.04
   4   0  -5    0.01    0.07
   4   0  -5   -0.08    0.08
   4   0  -5    0.12    0.04
  -4   0   5   -0.04    0.07
  -4   0   5   -0.04    0.05
  -4   0   5   -0.03    0.05
   3   0  -5    0.76    0.15
   3   0  -5    0.51    0.07
  -3   0   5    0.59    0.08
  -3   0   5    0.50    0.06
  -3   0   5    0.47    0.06
   2   0  -5   67.20    1.51
   2   0  -5   65.10    1.51
   2   0  -5   64.82    1.49
  -2   0   5   63.39    1.50
  -2   0   5   61.92    1.50
  -2   0   5   66.13    1.47
  -2   0   5   65.83    1.48
  -2   0   5   65.45    1.49
   1   0  -5   16.05    0.41
   1   0  -5   16.05    0.42
   1   0  -5   15.83    0.40
  -1   0   5   16.09    0.40
  -1   0   5   15.84    0.39
  -1   0   5   15.92    0.38
  -1   0   5   15.45    0.40
  -1   0   5   15.12    0.40
   0   0  -5   16.14    0.41
   0   0  -5   15.84    0.38
   0   0  -5   15.67    0.40
   0   0   5   15.24    0.40
   0   0   5   15.81    0.38
   0   0   5   15.76    0.37
   0   0   5   15.26    0.39
   0   0   5   15.91    0.38
  -1   0  -5   38.69    0.90
  -1   0  -5   36.72    0.91
  -1   0  -5   38.13    0.88
  -1   0  -5   37.98    0.91
   1   0   5   38.58    0.90
   1   0   5   38.77    0.91
   1   0   5   38.59    0.90
   1   0   5   39.39    0.87
   1   0   5   39.63    0.87
  -2   0  -5    8.68    0.23
  -2   0  -5    8.79    0.28
  -2   0  -5    9.14    0.28
  -2   0  -5    8.77    0.27
   2   0   5    9.17    0.26
   2   0   5    9.07    0.28
   2   0   5    9.74    0.22
   2   0   5    9.32    0.28
  -3   0  -5    3.34    0.19
  -3   0  -5    3.22    0.17
  -3   0  -5    2.90    0.19
   3   0   5    3.34    0.16
   3   0   5    2.94    0.18
   3   0   5    3.19    0.18
  -4   0  -5    0.07    0.09
  -4   0  -5    0.10    0.07
   4   0   5   -0.02    0.06
   4   0   5   -0.07    0.06
  -5   0  -5    4.10    0.32
  -5   0  -5    3.89    0.32
   5   0   5    4.35    0.28
   5   0   5    4.84    0.35
   4  -1  -5    0.33    0.10
   4  -1  -5    0.43    0.09
  -4   1   5    0.36    0.06
  -4   1   5    0.31    0.08
  -4   1   5    0.34    0.07
   3  -1  -5   27.00    0.70
   3  -1  -5   26.20    0.70
   3  -1  -5   25.03    0.66
  -3   1   5   26.45    0.65
  -3   1   5   26.72    0.64
  -3   1   5   27.29    0.66
   2  -1  -5    9.59    0.28
   2  -1  -5    9.55    0.31
   2  -1  -5   10.08    0.31
  -2   1   5   10.11    0.30
  -2   1   5    9.54    0.28
  -2   1   5    9.64    0.27
  -2   1   5    9.64    0.26
  -2   1   5    9.67    0.28
   1  -1  -5    9.43    0.26
   1  -1  -5    9.76    0.29
   1  -1  -5    9.84    0.29
  -1   1   5    9.81    0.25
  -1   1   5    9.77    0.25
  -1   1   5    9.66    0.26
  -1   1   5    9.35    0.26
  -1   1   5    9.45    0.26
   0  -1  -5   35.64    0.84
   0  -1  -5   34.74    0.84
   0  -1  -5   35.79    0.81
   0   1   5   34.95    0.81
   0   1   5   35.40    0.83
   0   1   5   34.99    0.83
   0   1   5   35.62    0.81
   0   1   5   35.96    0.81
  -1  -1  -5   13.61    0.38
  -1  -1  -5   13.63    0.37
  -1  -1  -5   13.95    0.37
  -1  -1  -5   14.23    0.34
   1   1   5   14.43    0.34
   1   1   5   14.54    0.33
   1   1   5   13.91    0.35
   1   1   5   14.33    0.37
  -2  -1  -5    4.10    0.16
  -2  -1  -5    4.08    0.17
  -2  -1  -5    4.22    0.18
   2   1   5    4.32    0.12
   2   1   5    4.32    0.17
   2   1   5    4.04    0.16
   2   1   5    4.27    0.16
  -3  -1  -5    0.18    0.05
  -3  -1  -5    0.19    0.06
   3   1   5    0.01    0.05
   3   1   5    0.10    0.05
   3   1   5    0.07    0.05
  -4  -1  -5   18.81    0.61
  -4  -1  -5   18.68    0.55
  -4  -1  -5   19.90    0.61
   4   1   5   19.85    0.57
   4   1   5   20.85    0.60
   4   1   5   20.34    0.55
  -5  -1  -5    1.24    0.26
  -5  -1  -5    1.33    0.24
   5   1   5    1.66    0.29
   4  -2  -5    7.13    0.37
   4  -2  -5    6.47    0.26
   4  -2  -5    6.90    0.32
  -4   2   5    7.11    0.32
  -4   2   5    7.15    0.24
  -4   2   5    7.37    0.28
   3  -2  -5    3.79    0.22
   3  -2  -5    3.85    0.25
  -3   2   5    3.65    0.16
  -3   2   5    4.01    0.22
  -3   2   5    3.47    0.16
  -3   2   5    3.64    0.18
   2  -2  -5    3.08    0.18
   2  -2  -5    3.08    0.17
  -2   2   5    3.13    0.13
  -2   2   5    3.20    0.13
  -2   2   5    3.17    0.12
  -2   2   5    3.17    0.14
   1  -2  -5    7.56    0.25
   1  -2  -5    7.97    0.23
   1  -2  -5    7.61    0.24
  -1   2   5    7.66    0.22
  -1   2   5    7.33    0.20
  -1   2   5    7.48    0.22
  -1   2   5    7.22    0.20
  -1   2   5    7.66    0.21
   0  -2  -5    4.59    0.17
   0  -2  -5    4.31    0.15
   0  -2  -5    4.42    0.16
   0  -2  -5    4.47    0.14
   0   2   5    4.58    0.14
   0   2   5    4.31    0.13
   0   2   5    4.38    0.13
   0   2   5    4.35    0.15
  -1  -2  -5    2.22    0.12
  -1  -2  -5    2.37    0.11
  -1  -2  -5    2.21    0.11
  -1  -2  -5    2.35    0.08
   1   2   5    2.26    0.09
   1   2   5    2.38    0.11
   1   2   5    2.29    0.08
   1   2   5    2.29    0.09
   1   2   5    2.35    0.11
  -2  -2  -5    0.76    0.08
  -2  -2  -5    0.77    0.10
   2   2   5    0.64    0.06
   2   2   5    0.57    0.10
   2   2   5    0.53    0.09
   2   2   5    0.62    0.05
   2   2   5    0.71    0.09
  -3  -2  -5   65.42    1.53
  -3  -2  -5   63.63    1.53
  -3  -2  -5   60.82    1.48
  -3  -2  -5   62.42    1.54
   3   2   5   66.68    1.51
   3   2   5   63.58    1.51
   3   2   5   64.76    1.49
  -4  -2  -5    2.63    0.22
  -4  -2  -5    2.63    0.24
  -4  -2  -5    2.96    0.24
   4   2   5    2.55    0.22
   4   2   5    2.34    0.19
   4   2   5    2.41    0.22
  -5  -2  -5   -0.01    0.10
   4  -3  -5    1.11    0.21
  -4   3   5    1.05    0.17
  -4   3   5    0.83    0.20
   3  -3  -5    1.29    0.17
   3  -3  -5    0.91    0.14
  -3   3   5    1.18    0.17
  -3   3   5    1.08    0.12
  -3   3   5    1.22    0.14
  -3   3   5    1.21    0.11
   2  -3  -5    0.03    0.05
   2  -3  -5   -0.02    0.07
  -2   3   5    0.07    0.05
  -2   3   5   -0.01    0.04
  -2   3   5    0.02    0.05
  -2   3   5   -0.03    0.03
   1  -3  -5    0.13    0.05
   1  -3  -5    0.11    0.06
   1  -3  -5    0.13    0.05
  -1   3   5    0.08    0.03
  -1   3   5    0.07    0.03
  -1   3   5    0.16    0.04
  -1   3   5    0.05    0.03
   0  -3  -5    0.14    0.05
   0   3   5    0.09    0.03
   0   3   5    0.13    0.03
   0   3   5    0.11    0.03
   0   3   5    0.10    0.03
   0   3   5    0.10    0.03
  -1  -3  -5    1.18    0.11
  -1  -3  -5    1.34    0.06
  -1  -3  -5    1.16    0.09
  -1  -3  -5    1.13    0.09
   1   3   5    1.05    0.06
   1   3   5    1.17    0.06
   1   3   5    1.25    0.09
   1   3   5    1.18    0.09
   1   3   5    1.15    0.07
  -2  -3  -5  136.00    3.15
  -2  -3  -5  130.82    3.10
  -2  -3  -5  129.38    3.15
  -2  -3  -5  143.20    3.14
   2   3   5  134.75    3.13
   2   3   5  146.26    3.08
   2   3   5  142.92    3.13
   2   3   5  142.99    3.09
   2   3   5  142.43    3.13
  -3  -3  -5    2.51    0.18
  -3  -3  -5    2.47    0.19
  -3  -3  -5    2.21    0.18
   3   3   5    2.38    0.17
   3   3   5    2.14    0.15
   3   3   5    2.19    0.17
  -4  -3  -5    0.13    0.08
  -4  -3  -5    0.09    0.08
  -4  -3  -5    0.01    0.07
   4   3   5   -0.08    0.06
   4   3   5    0.09    0.07
   4   3   5   -0.08    0.07
   3  -4  -5    0.19    0.08
   3  -4  -5    0.06    0.13
  -3   4   5    0.23    0.07
  -3   4   5    0.10    0.08
  -3   4   5    0.17    0.05
  -3   4   5    0.20    0.05
   2  -4  -5   -0.08    0.07
   2  -4  -5    0.02    0.06
   2  -4  -5   -0.07    0.08
  -2   4   5   -0.04    0.04
  -2   4   5   -0.01    0.04
  -2   4   5    0.01    0.05
  -2   4   5    0.03    0.06
   1  -4  -5   -0.02    0.05
   1  -4  -5   -0.01    0.05
   1  -4  -5   -0.01    0.06
  -1   4   5    0.00    0.04
   0  -4  -5    1.96    0.15
   0  -4  -5    1.58    0.12
   0  -4  -5    1.89    0.13
   0   4   5    1.65    0.09
   0   4   5    1.72    0.09
   0   4   5    1.78    0.11
   0   4   5    1.90    0.10
  -1  -4  -5  153.47    3.42
  -1  -4  -5  147.99    3.51
  -1  -4  -5  147.59    3.45
  -1  -4  -5  153.69    3.42
   1   4   5  153.00    3.44
   1   4   5  156.64    3.42
   1   4   5  151.99    3.44
   1   4   5  156.60    3.42
  -2  -4  -5    0.49    0.11
  -2  -4  -5    0.56    0.12
   2   4   5    0.40    0.06
   2   4   5    0.46    0.10
   2   4   5    0.60    0.06
   2   4   5    0.60    0.07
  -3  -4  -5    1.15    0.15
  -3  -4  -5    0.92    0.15
  -3  -4  -5    1.19    0.17
   3   4   5    0.75    0.13
   3   4   5    0.93    0.09
   3   4   5    1.20    0.14
  -4  -4  -5    0.04    0.09
  -4  -4  -5    0.01    0.07
  -4  -4  -5    0.00    0.07
   4   4   5   -0.03    0.06
   4   4   5    0.11    0.07
   3  -5  -5    0.05    0.09
  -3   5   5    0.00    0.05
  -3   5   5    0.06    0.08
  -3   5   5   -0.10    0.08
  -3   5   5   -0.07    0.05
   2  -5  -5   -0.02    0.07
  -2   5   5   -0.04    0.05
  -2   5   5   -0.02    0.07
  -2   5   5   -0.08    0.05
   1  -5  -5    1.87    0.17
   1  -5  -5    1.78    0.20
   1  -5  -5    1.55    0.15
  -1   5   5    1.73    0.12
  -1   5   5    1.75    0.11
  -1   5   5    1.78    0.11
   0  -5  -5   78.52    1.83
   0  -5  -5   78.46    1.80
   0  -5  -5   73.62    1.83
   0   5   5   79.16    1.78
   0   5   5   79.21    1.77
   0   5   5   78.14    1.78
   0   5   5   82.65    1.79
  -1  -5  -5    0.01    0.05
  -1  -5  -5    0.01    0.05
   1   5   5   -0.03    0.03
   1   5   5   -0.05    0.04
  -2  -5  -5    3.09    0.17
  -2  -5  -5    3.08    0.18
  -2  -5  -5    2.99    0.19
   2   5   5    2.85    0.16
   2   5   5    2.97    0.11
   2   5   5    2.70    0.16
   2   5   5    2.79    0.13
  -3  -5  -5    0.11    0.07
  -3  -5  -5    0.12    0.06
  -3  -5  -5    0.05    0.06
   3   5   5    0.05    0.04
   3   5   5    0.00    0.05
   3   5   5   -0.02    0.05
  -4  -5  -5    0.02    0.09
  -4  -5  -5   -0.09    0.07
  -4  -5  -5    0.01    0.08
   4   5   5   -0.10    0.07
   4   5   5   -0.10    0.10
   3  -6  -5   -0.09    0.09
  -3   6   5   -0.11    0.09
  -3   6   5    0.02    0.08
  -3   6   5   -0.02    0.06
   2  -6  -5    1.02    0.19
  -2   6   5    0.78    0.18
  -2   6   5    1.15    0.12
  -2   6   5    1.15    0.14
  -2   6   5    0.87    0.13
   1  -6  -5   20.84    0.61
   1  -6  -5   19.36    0.59
   1  -6  -5   21.02    0.56
  -1   6   5   20.30    0.53
  -1   6   5   21.15    0.52
  -1   6   5   20.95    0.52
   0  -6  -5    0.26    0.07
   0  -6  -5    0.32    0.09
   0   6   5    0.22    0.05
   0   6   5    0.42    0.08
   0   6   5    0.24    0.05
  -1  -6  -5    4.25    0.21
  -1  -6  -5    3.99    0.21
   1   6   5    3.92    0.16
   1   6   5    3.88    0.18
   1   6   5    3.95    0.15
  -2  -6  -5    0.32    0.07
   2   6   5    0.28    0.04
   2   6   5    0.28    0.06
   2   6   5    0.24    0.06
   2   6   5    0.33    0.05
  -3  -6  -5    0.29    0.09
  -3  -6  -5    0.18    0.07
   3   6   5    0.08    0.06
   3   6   5    0.16    0.05
   3   6   5    0.08    0.06
   2  -7  -5    3.68    0.25
  -2   7   5    3.59    0.20
  -2   7   5    3.65    0.25
  -2   7   5    3.78    0.18
  -2   7   5    3.57    0.18
   1  -7  -5    0.20    0.12
   1  -7  -5    0.33    0.09
  -1   7   5    0.40    0.07
  -1   7   5    0.32    0.06
   0  -7  -5    3.11    0.22
   0  -7  -5    3.35    0.21
   0   7   5    3.05    0.15
   0   7   5    3.02    0.15
  -1  -7  -5    1.38    0.17
   1   7   5    1.02    0.10
   1   7   5    0.99    0.11
   2   7   5    0.39    0.07
   2   7   5    0.45    0.06
  -3  -7  -5    0.06    0.09
   3   7   5   -0.06    0.05
   1  -8  -5    2.33    0.23
  -1   8   5    1.59    0.14
  -1   8   5    1.84    0.16
  -1   8   5    1.82    0.15
   0  -8  -5    1.16    0.19
   1   6  -6    8.98    0.29
   1   6  -6    9.20    0.28
   1   6  -6    8.80    0.31
  -1  -6   6    9.37    0.33
  -1  -6   6    9.45    0.35
  -1  -6   6    9.32    0.34
   0   6  -6    0.63    0.09
   0   6  -6    0.74    0.13
   0  -6   6    0.81    0.13
   0  -6   6    0.89    0.15
  -1   6  -6    0.24    0.08
  -1   6  -6    0.22    0.07
  -2   6  -6    0.19    0.09
  -2   6  -6    0.20    0.07
   2  -6   6    0.12    0.09
   2   5  -6   10.30    0.34
   2   5  -6   10.49    0.32
   2   5  -6   10.84    0.34
  -2  -5   6   10.49    0.39
  -2  -5   6   11.12    0.43
   1   5  -6    1.13    0.11
   1   5  -6    1.18    0.11
   1   5  -6    1.28    0.14
  -1  -5   6    1.60    0.14
  -1  -5   6    1.51    0.16
  -1  -5   6    1.37    0.15
   0   5  -6    1.83    0.11
   0   5  -6    1.75    0.14
   0   5  -6    1.64    0.11
   0   5  -6    2.12    0.15
   0  -5   6    2.02    0.16
   0  -5   6    2.06    0.15
   0  -5   6    1.98    0.14
  -1   5  -6    0.52    0.09
  -1   5  -6    0.60    0.12
   1  -5   6    0.89    0.14
   1  -5   6    0.80    0.16
   1  -5   6    0.78    0.11
  -2   5  -6    0.41    0.09
  -2   5  -6    0.44    0.08
   2  -5   6    0.23    0.10
   2  -5   6    0.73    0.16
  -3   5  -6    0.36    0.11
  -3   5  -6    0.34    0.08
   3  -5   6    0.24    0.07
   2   4  -6    1.32    0.14
   2   4  -6    1.19    0.12
   2   4  -6    1.17    0.11
  -2  -4   6    1.23    0.12
  -2  -4   6    1.32    0.16
  -2  -4   6    1.38    0.16
   1   4  -6    2.34    0.15
   1   4  -6    2.45    0.13
   1   4  -6    2.42    0.12
   1   4  -6    2.53    0.16
  -1  -4   6    2.54    0.15
  -1  -4   6    2.53    0.16
  -1  -4   6    2.46    0.13
  -1  -4   6    2.52    0.16
   0   4  -6    0.90    0.08
   0   4  -6    1.10    0.11
   0   4  -6    0.90    0.11
   0   4  -6    0.93    0.08
   0  -4   6    0.91    0.11
   0  -4   6    1.08    0.12
   0  -4   6    0.92    0.12
   1  -4   6    0.31    0.06
   1  -4   6    0.46    0.10
   1  -4   6    0.32    0.07
  -2   4  -6    0.34    0.08
   2  -4   6    0.26    0.06
  -3   4  -6    9.44    0.40
  -3   4  -6    9.51    0.37
  -3   4  -6    8.41    0.29
   3  -4   6    8.35    0.40
   3  -4   6    9.45    0.34
   3   3  -6    0.84    0.13
   3   3  -6    1.00    0.10
   3   3  -6    0.78    0.10
  -3  -3   6    0.78    0.12
  -3  -3   6    1.02    0.16
  -3  -3   6    0.86    0.11
  -3  -3   6    1.07    0.16
   2   3  -6    0.29    0.07
   2   3  -6    0.36    0.06
   2   3  -6    0.34    0.05
  -2  -3   6    0.39    0.06
  -2  -3   6    0.25    0.06
  -2  -3   6    0.27    0.06
  -2  -3   6    0.34    0.05
   1   3  -6    0.30    0.04
   1   3  -6    0.28    0.06
   1   3  -6    0.26    0.04
   1   3  -6    0.24    0.06
  -1  -3   6    0.21    0.05
  -1  -3   6    0.21    0.05
  -1  -3   6    0.30    0.04
  -1  -3   6    0.25    0.04
   0   3  -6    0.20    0.04
   0   3  -6    0.18    0.03
   0   3  -6    0.19    0.05
   0   3  -6    0.23    0.05
   0  -3   6    0.18    0.04
   0  -3   6    0.12    0.04
   0  -3   6    0.10    0.04
   0  -3   6    0.19    0.04
  -1   3  -6    0.63    0.08
   1  -3   6    0.42    0.05
   1  -3   6    0.39    0.07
   1  -3   6    0.38    0.06
  -2   3  -6   39.70    0.93
  -2   3  -6   39.23    0.98
  -2   3  -6   38.47    0.97
   2  -3   6   40.27    0.94
   2  -3   6   38.70    0.96
   2  -3   6   39.12    0.99
  -3   3  -6    6.28    0.29
  -3   3  -6    6.26    0.29
   3  -3   6    5.79    0.30
   3  -3   6    5.94    0.27
   3  -3   6    6.30    0.28
  -4   3  -6    0.03    0.10
  -4   3  -6   -0.02    0.10
   4  -3   6   -0.08    0.08
   4  -3   6    0.07    0.10
   3   2  -6    0.14    0.07
   3   2  -6    0.12    0.04
   3   2  -6    0.10    0.05
  -3  -2   6    0.05    0.05
  -3  -2   6    0.13    0.05
  -3  -2   6    0.07    0.05
  -3  -2   6    0.07    0.05
   2   2  -6   -0.01    0.05
   2   2  -6    0.01    0.03
   2   2  -6   -0.05    0.05
   2   2  -6    0.03    0.04
  -2  -2   6   -0.01    0.03
  -2  -2   6    0.02    0.04
  -2  -2   6    0.02    0.04
  -2  -2   6    0.01    0.04
   1   2  -6    0.00    0.03
   1   2  -6   -0.05    0.04
   1   2  -6    0.00    0.04
  -1  -2   6   -0.02    0.03
  -1  -2   6   -0.01    0.03
  -1  -2   6    0.00    0.03
  -1  -2   6    0.00    0.03
   0   2  -6    0.65    0.08
   0   2  -6    0.78    0.10
   0  -2   6    0.62    0.09
   0  -2   6    0.68    0.07
   0  -2   6    0.57    0.09
   0  -2   6    0.55    0.09
   0  -2   6    0.63    0.06
  -1   2  -6  111.76    2.61
  -1   2  -6  113.38    2.63
  -1   2  -6  115.44    2.59
  -1   2  -6  115.61    2.57
   1  -2   6  116.22    2.62
   1  -2   6  117.54    2.57
   1  -2   6  117.34    2.57
   1  -2   6  115.12    2.62
   1  -2   6  116.94    2.61
  -2   2  -6   11.92    0.32
  -2   2  -6   12.17    0.37
  -2   2  -6   11.86    0.37
   2  -2   6   11.94    0.37
   2  -2   6   12.57    0.34
   2  -2   6   12.07    0.37
  -3   2  -6    0.03    0.06
  -3   2  -6    0.12    0.08
  -3   2  -6    0.10    0.07
   3  -2   6    0.05    0.06
   3  -2   6    0.02    0.07
   3  -2   6    0.12    0.07
   3  -2   6    0.11    0.05
  -4   2  -6    0.06    0.10
  -4   2  -6    0.02    0.08
  -4   2  -6    0.09    0.09
   4  -2   6   -0.02    0.08
   4  -2   6   -0.07    0.09
   3   1  -6   -0.04    0.07
   3   1  -6    0.06    0.04
   3   1  -6    0.05    0.06
   3   1  -6    0.00    0.04
  -3  -1   6    0.07    0.05
  -3  -1   6   -0.01    0.04
  -3  -1   6    0.07    0.05
   2   1  -6    0.15    0.07
   2   1  -6    0.16    0.06
  -2  -1   6    0.19    0.04
  -2  -1   6    0.19    0.04
  -2  -1   6    0.12    0.04
  -2  -1   6    0.17    0.04
   1   1  -6    0.06    0.04
   1   1  -6    0.14    0.05
  -1  -1   6    0.14    0.04
  -1  -1   6    0.18    0.04
  -1  -1   6    0.17    0.04
  -1  -1   6    0.13    0.04
   0   1  -6  191.21    4.19
   0   1  -6  185.30    4.27
   0   1  -6  179.89    4.18
   0  -1   6  185.29    4.18
   0  -1   6  189.76    4.33
   0  -1   6  182.91    4.20
   0  -1   6  182.35    4.31
   0  -1   6  186.06    4.12
  -1   1  -6   12.57    0.36
  -1   1  -6   13.19    0.33
  -1   1  -6   13.33    0.31
   1  -1   6   12.97    0.31
   1  -1   6   13.24    0.32
   1  -1   6   12.86    0.36
   1  -1   6   12.70    0.35
   1  -1   6   13.12    0.36
  -2   1  -6    2.43    0.14
  -2   1  -6    2.41    0.15
  -2   1  -6    2.44    0.14
  -2   1  -6    2.32    0.10
   2  -1   6    2.41    0.14
   2  -1   6    2.40    0.15
   2  -1   6    2.57    0.14
   2  -1   6    2.45    0.15
  -3   1  -6    0.26    0.08
  -3   1  -6    0.27    0.07
  -3   1  -6    0.27    0.07
   3  -1   6    0.23    0.06
   3  -1   6    0.24    0.06
   3  -1   6    0.18    0.07
  -4   1  -6    0.03    0.08
  -4   1  -6   -0.04    0.08
  -4   1  -6    0.00    0.09
   3   0  -6    0.09    0.06
   3   0  -6    0.03    0.08
  -3   0   6    0.18    0.05
  -3   0   6    0.19    0.05
  -3   0   6    0.13    0.07
  -3   0   6    0.19    0.05
   2   0  -6   -0.08    0.06
   2   0  -6   -0.05    0.06
  -2   0   6   -0.06    0.04
  -2   0   6    0.05    0.03
  -2   0   6    0.03    0.04
   1   0  -6  131.82    2.93
   1   0  -6  131.41    2.93
   1   0  -6  124.67    2.90
  -1   0   6  129.91    2.88
  -1   0   6  131.34    2.89
  -1   0   6  126.72    2.91
  -1   0   6  128.74    2.91
   0   0  -6    7.24    0.21
   0   0  -6    7.52    0.24
   0   0  -6    6.92    0.22
   0   0   6    7.10    0.19
   0   0   6    7.02    0.22
   0   0   6    7.00    0.22
   0   0   6    7.17    0.20
  -1   0  -6   10.69    0.31
  -1   0  -6    9.85    0.30
  -1   0  -6   10.05    0.26
  -1   0  -6    9.55    0.30
   1   0   6   10.11    0.28
   1   0   6   10.03    0.29
   1   0   6   10.32    0.30
   1   0   6   10.26    0.25
   1   0   6   10.42    0.26
  -2   0  -6    0.81    0.10
  -2   0  -6    0.80    0.11
  -2   0  -6    0.78    0.11
   2   0   6    0.73    0.10
   2   0   6    0.84    0.11
   2   0   6    0.82    0.10
  -3   0  -6    0.33    0.07
  -3   0  -6    0.32    0.08
  -3   0  -6    0.27    0.07
   3   0   6    0.28    0.06
   3   0   6    0.17    0.06
   3   0   6    0.24    0.06
  -4   0  -6   -0.05    0.08
  -4   0  -6    0.04    0.07
  -4   0  -6    0.12    0.10
   3  -1  -6    0.12    0.07
   3  -1  -6    0.04    0.08
   3  -1  -6   -0.06    0.10
  -3   1   6    0.08    0.07
  -3   1   6    0.09    0.05
  -3   1   6    0.06    0.05
   2  -1  -6   43.62    1.06
   2  -1  -6   42.49    1.02
   2  -1  -6   44.34    1.05
  -2   1   6   43.39    1.01
  -2   1   6   44.06    1.02
  -2   1   6   41.46    1.03
  -2   1   6   42.84    1.00
   1  -1  -6    2.20    0.14
   1  -1  -6    2.21    0.14
   1  -1  -6    2.02    0.11
  -1   1   6    1.97    0.11
  -1   1   6    1.97    0.10
  -1   1   6    2.20    0.11
  -1   1   6    2.04    0.11
  -1   1   6    2.02    0.10
   0  -1  -6   13.75    0.38
   0  -1  -6   13.18    0.37
   0  -1  -6   13.56    0.34
   0   1   6   13.43    0.34
   0   1   6   13.31    0.36
   0   1   6   13.52    0.33
   0   1   6   13.59    0.36
   0   1   6   13.65    0.34
  -1  -1  -6    2.32    0.11
  -1  -1  -6    2.45    0.09
  -1  -1  -6    2.29    0.13
  -1  -1  -6    2.20    0.13
   1   1   6    2.54    0.08
   1   1   6    2.44    0.09
   1   1   6    2.37    0.11
   1   1   6    2.42    0.12
   1   1   6    2.49    0.13
  -2  -1  -6    4.42    0.18
  -2  -1  -6    4.48    0.20
  -2  -1  -6    4.65    0.19
   2   1   6    4.48    0.19
   2   1   6    4.65    0.14
   2   1   6    4.66    0.18
   2   1   6    4.55    0.18
  -3  -1  -6    0.00    0.05
  -3  -1  -6    0.03    0.06
  -3  -1  -6   -0.05    0.06
  -4  -1  -6    0.80    0.21
   4   1   6    0.43    0.09
   4   1   6    0.38    0.08
   4   1   6    0.45    0.10
   3  -2  -6    8.68    0.34
   3  -2  -6    8.06    0.28
   3  -2  -6    7.88    0.37
  -3   2   6    9.12    0.30
  -3   2   6    8.47    0.27
  -3   2   6    8.73    0.27
   2  -2  -6    0.16    0.05
   2  -2  -6    0.16    0.09
   2  -2  -6    0.19    0.07
  -2   2   6    0.11    0.04
  -2   2   6    0.11    0.05
  -2   2   6    0.20    0.04
  -2   2   6    0.18    0.06
   1  -2  -6    9.14    0.30
   1  -2  -6    8.96    0.26
   1  -2  -6    9.46    0.29
  -1   2   6    8.97    0.26
  -1   2   6    9.18    0.26
  -1   2   6    9.15    0.25
  -1   2   6    8.85    0.26
   0  -2  -6    5.78    0.20
   0  -2  -6    5.60    0.17
   0  -2  -6    5.28    0.20
   0  -2  -6    5.64    0.18
   0   2   6    5.45    0.17
   0   2   6    5.50    0.16
   0   2   6    5.57    0.17
   0   2   6    5.55    0.19
   0   2   6    5.46    0.18
  -1  -2  -6   13.36    0.33
  -1  -2  -6   13.08    0.37
  -1  -2  -6   13.29    0.37
  -1  -2  -6   13.16    0.38
   1   2   6   14.06    0.33
   1   2   6   13.65    0.37
   1   2   6   13.67    0.34
   1   2   6   13.57    0.37
  -2  -2  -6    0.06    0.05
  -2  -2  -6    0.06    0.05
  -2  -2  -6    0.05    0.04
   2   2   6   -0.05    0.04
   2   2   6   -0.05    0.04
   2   2   6   -0.02    0.04
  -3  -2  -6    0.17    0.08
   3   2   6    0.25    0.07
   3   2   6    0.23    0.06
   3   2   6    0.22    0.06
  -4  -2  -6   13.28    0.49
  -4  -2  -6   14.34    0.49
   4   2   6   13.92    0.47
   4   2   6   13.95    0.46
   4   2   6   14.09    0.44
   3  -3  -6    0.01    0.09
  -3   3   6   -0.03    0.05
  -3   3   6   -0.07    0.05
  -3   3   6   -0.01    0.07
   2  -3  -6    4.93    0.24
   2  -3  -6    4.45    0.26
  -2   3   6    4.61    0.17
  -2   3   6    4.79    0.19
  -2   3   6    4.75    0.18
   1  -3  -6    6.44    0.24
   1  -3  -6    6.27    0.26
  -1   3   6    6.10    0.20
  -1   3   6    6.01    0.19
  -1   3   6    6.21    0.20
  -1   3   6    6.11    0.20
   0  -3  -6   12.34    0.35
   0  -3  -6   11.52    0.35
   0  -3  -6   11.83    0.33
   0   3   6   11.85    0.33
   0   3   6   11.93    0.31
   0   3   6   11.70    0.30
   0   3   6   11.92    0.31
   0   3   6   12.00    0.32
  -1  -3  -6    0.01    0.04
  -1  -3  -6    0.02    0.03
  -1  -3  -6   -0.01    0.04
  -2  -3  -6    0.05    0.05
  -2  -3  -6   -0.05    0.05
  -2  -3  -6   -0.03    0.04
   2   3   6   -0.06    0.03
   2   3   6    0.00    0.04
   2   3   6   -0.03    0.04
  -3  -3  -6   25.42    0.70
  -3  -3  -6   26.55    0.69
  -3  -3  -6   24.59    0.71
   3   3   6   26.28    0.68
   3   3   6   25.18    0.68
   3   3   6   25.15    0.66
  -4  -3  -6    0.22    0.10
  -4  -3  -6    0.05    0.09
  -4  -3  -6    0.08    0.08
   4   3   6    0.09    0.07
   4   3   6    0.01    0.07
   4   3   6   -0.01    0.07
   3  -4  -6    2.19    0.23
  -3   4   6    2.04    0.15
  -3   4   6    2.02    0.18
  -3   4   6    2.08    0.15
   2  -4  -6    3.07    0.21
   2  -4  -6    2.47    0.25
  -2   4   6    2.80    0.16
  -2   4   6    2.74    0.14
  -2   4   6    2.81    0.15
   1  -4  -6    4.04    0.19
   1  -4  -6    3.72    0.23
   1  -4  -6    3.64    0.19
  -1   4   6    3.52    0.14
  -1   4   6    3.45    0.15
  -1   4   6    3.55    0.15
   0  -4  -6   -0.06    0.05
   0  -4  -6    0.08    0.06
   0   4   6   -0.06    0.04
   0   4   6   -0.01    0.03
   0   4   6    0.01    0.04
   0   4   6   -0.06    0.03
  -1  -4  -6    0.24    0.06
  -1  -4  -6    0.37    0.07
   1   4   6    0.27    0.04
   1   4   6    0.25    0.05
   1   4   6    0.23    0.04
   1   4   6    0.22    0.04
  -2  -4  -6   25.99    0.71
  -2  -4  -6   27.37    0.69
  -2  -4  -6   26.19    0.73
   2   4   6   27.82    0.63
   2   4   6   26.00    0.68
   2   4   6   27.67    0.69
   2   4   6   27.97    0.65
   2   4   6   26.71    0.68
  -3  -4  -6   -0.03    0.06
  -3  -4  -6    0.06    0.07
  -3  -4  -6    0.02    0.07
   3   4   6   -0.06    0.05
   3   4   6   -0.03    0.05
   3   4   6    0.06    0.05
  -4  -4  -6    1.25    0.23
  -4  -4  -6    1.21    0.20
   4   4   6    1.07    0.17
   4   4   6    0.91    0.21
   3  -5  -6    0.18    0.16
   3  -5  -6    0.43    0.12
  -3   5   6    0.81    0.13
  -3   5   6    0.55    0.10
  -3   5   6    0.44    0.07
   2  -5  -6    0.09    0.13
   2  -5  -6    0.24    0.09
  -2   5   6    0.26    0.06
  -2   5   6    0.29    0.07
  -2   5   6    0.20    0.06
   1  -5  -6    0.22    0.10
   1  -5  -6    0.21    0.08
  -1   5   6    0.19    0.05
  -1   5   6    0.26    0.06
  -1   5   6    0.26    0.05
   0  -5  -6    0.37    0.09
   0  -5  -6    0.21    0.07
   0   5   6    0.26    0.05
   0   5   6    0.26    0.04
  -1  -5  -6   12.16    0.40
  -1  -5  -6   11.85    0.39
   1   5   6   12.82    0.36
   1   5   6   12.78    0.32
   1   5   6   12.18    0.33
  -2  -5  -6    0.89    0.16
   2   5   6    0.51    0.12
   2   5   6    0.74    0.12
   2   5   6    0.70    0.08
   2   5   6    0.83    0.09
  -3  -5  -6    3.28    0.22
  -3  -5  -6    3.30    0.25
  -3  -5  -6    3.40    0.22
   3   5   6    3.76    0.20
   3   5   6    3.08    0.19
   3   5   6    3.17    0.21
   3   5   6    3.30    0.15
  -4  -5  -6    2.09    0.21
  -4  -5  -6    1.63    0.23
  -4  -5  -6    2.19    0.26
   4   5   6    1.36    0.23
   2  -6  -6   -0.01    0.14
   2  -6  -6    0.18    0.10
   2  -6  -6    0.18    0.09
  -2   6   6    0.35    0.08
  -2   6   6    0.29    0.06
  -2   6   6    0.36    0.07
   1  -6  -6   -0.01    0.11
  -1   6   6    0.17    0.05
  -1   6   6    0.18    0.05
  -1   6   6    0.20    0.06
   0  -6  -6    2.02    0.18
   0   6   6    1.99    0.12
   0   6   6    2.43    0.18
   0   6   6    2.08    0.13
  -1  -6  -6    1.85    0.18
  -1  -6  -6    2.17    0.17
   1   6   6    1.71    0.14
   1   6   6    1.73    0.11
   1   6   6    1.71    0.12
  -2  -6  -6    4.43    0.23
  -2  -6  -6    4.49    0.26
   2   6   6    4.41    0.18
   2   6   6    4.27    0.21
   2   6   6    4.32    0.16
  -3  -6  -6    3.75    0.23
  -3  -6  -6    3.93    0.28
  -3  -6  -6    3.58    0.27
   3   6   6    3.76    0.17
   3   6   6    3.31    0.24
   3   6   6    3.46    0.21
  -1   7   6    0.13    0.06
  -1   7   6    0.13    0.06
  -1   7   6    0.11    0.05
   0  -7  -6    1.46    0.20
   0  -7  -6    1.89    0.19
   0   7   6    1.56    0.13
   0   7   6    1.38    0.12
  -1  -7  -6    3.70    0.24
  -1  -7  -6    3.79    0.22
   1   7   6    3.11    0.17
   1   7   6    3.22    0.15
  -2  -7  -6    4.52    0.27
  -2  -7  -6    4.37    0.23
   2   7   6    3.89    0.18
   2   7   6    3.94    0.17
   2   7   6    3.59    0.21
   0  -8  -6    2.67    0.22
   0  -8  -6    2.20    0.22
  -1  -8  -6    3.15    0.25
  -1  -8  -6    3.37    0.21
   0   6  -7    8.67    0.32
   0   6  -7    8.85    0.31
   0  -6   7    8.67    0.33
   0  -6   7    8.48    0.32
   0  -6   7    9.03    0.35
  -1   6  -7    0.08    0.07
   1  -6   7    0.13    0.06
   1  -6   7    0.16    0.08
   1   5  -7    9.20    0.28
   1   5  -7    8.78    0.31
   1   5  -7    9.00    0.28
  -1  -5   7    8.79    0.33
  -1  -5   7    9.16    0.35
   0   5  -7    0.37    0.06
   0   5  -7    0.54    0.08
   0  -5   7    0.60    0.13
  -1   5  -7    1.95    0.16
  -1   5  -7    2.31    0.19
   1  -5   7    2.27    0.16
   1  -5   7    2.31    0.20
   1  -5   7    2.51    0.19
  -2   5  -7   -0.12    0.07
  -2   5  -7   -0.03    0.08
   2  -5   7   -0.08    0.09
   2   4  -7    5.17    0.24
   2   4  -7    5.37    0.21
  -2  -4   7    5.75    0.27
   1   4  -7    1.83    0.12
   1   4  -7    1.81    0.16
   1   4  -7    1.83    0.13
  -1  -4   7    1.95    0.13
  -1  -4   7    2.17    0.18
  -1  -4   7    1.97    0.16
   0   4  -7    5.77    0.19
   0   4  -7    5.42    0.22
   0   4  -7    5.85    0.19
   0   4  -7    5.40    0.24
   0  -4   7    5.79    0.24
   0  -4   7    5.57    0.23
   0  -4   7    5.75    0.19
   0  -4   7    5.70    0.23
  -1   4  -7    1.05    0.12
  -1   4  -7    1.05    0.15
   1  -4   7    1.02    0.12
   1  -4   7    0.98    0.16
   1  -4   7    1.12    0.15
  -2   4  -7    0.21    0.07
  -2   4  -7    0.15    0.08
   2  -4   7    0.09    0.06
  -3   4  -7    0.16    0.09
   3  -4   7    0.07    0.07
   2   3  -7    2.72    0.14
   2   3  -7    2.50    0.17
   2   3  -7    2.69    0.15
  -2  -3   7    2.89    0.20
  -2  -3   7    2.62    0.15
  -2  -3   7    2.72    0.19
  -2  -3   7    2.70    0.14
   1   3  -7   11.43    0.36
   1   3  -7   10.62    0.31
   1   3  -7   11.34    0.34
   1   3  -7   11.10    0.30
  -1  -3   7   10.80    0.31
  -1  -3   7   10.84    0.30
  -1  -3   7   11.02    0.36
  -1  -3   7   11.03    0.35
   0   3  -7    4.50    0.16
   0   3  -7    4.29    0.18
   0   3  -7    4.47    0.15
   0   3  -7    4.25    0.20
   0  -3   7    4.50    0.16
   0  -3   7    4.26    0.20
  -1   3  -7    0.99    0.11
  -1   3  -7    1.07    0.13
   1  -3   7    0.87    0.13
   1  -3   7    1.00    0.11
   1  -3   7    0.82    0.14
  -2   3  -7    0.08    0.05
  -2   3  -7    0.08    0.06
   2  -3   7    0.03    0.06
   2  -3   7   -0.02    0.04
  -3   3  -7   10.21    0.39
  -3   3  -7   10.55    0.40
   3  -3   7   10.47    0.38
   3  -3   7    9.28    0.40
   3   2  -7    1.81    0.18
   3   2  -7    1.98    0.13
  -3  -2   7    2.40    0.19
  -3  -2   7    2.10    0.14
   2   2  -7   10.39    0.31
   2   2  -7   10.74    0.36
   2   2  -7   10.50    0.30
   2   2  -7   10.71    0.33
  -2  -2   7   10.69    0.30
  -2  -2   7   10.53    0.36
  -2  -2   7   10.61    0.31
  -2  -2   7   10.99    0.35
   1   2  -7    6.64    0.25
   1   2  -7    6.38    0.20
   1   2  -7    6.52    0.23
  -1  -2   7    6.14    0.21
  -1  -2   7    6.43    0.20
  -1  -2   7    6.42    0.24
  -1  -2   7    6.39    0.24
   0   2  -7    1.72    0.12
   0   2  -7    1.79    0.09
   0   2  -7    1.73    0.14
   0  -2   7    1.82    0.10
   0  -2   7    1.68    0.13
   0  -2   7    1.90    0.09
   0  -2   7    1.75    0.12
   1  -2   7    0.55    0.10
   1  -2   7    0.42    0.07
   1  -2   7    0.45    0.06
  -2   2  -7   23.86    0.64
  -2   2  -7   22.84    0.58
  -2   2  -7   23.62    0.65
   2  -2   7   23.86    0.64
   2  -2   7   24.55    0.61
   2  -2   7   23.50    0.64
  -3   2  -7    2.49    0.21
  -3   2  -7    2.50    0.22
   3  -2   7    1.77    0.22
   3  -2   7    2.07    0.22
   3  -2   7    2.42    0.17
  -4   2  -7    0.20    0.11
  -4   2  -7    0.06    0.11
  -4   2  -7    0.18    0.10
   4  -2   7   -0.06    0.10
   4  -2   7   -0.05    0.09
   3   1  -7    5.23    0.24
   3   1  -7    5.91    0.28
   3   1  -7    5.26    0.20
   3   1  -7    5.13    0.28
  -3  -1   7    5.52    0.25
  -3  -1   7    5.72    0.21
  -3  -1   7    5.56    0.25
   2   1  -7    3.30    0.21
   2   1  -7    3.31    0.17
   2   1  -7    3.29    0.15
  -2  -1   7    3.55    0.18
  -2  -1   7    3.53    0.15
  -2  -1   7    3.67    0.18
  -2  -1   7    3.48    0.16
   1   1  -7    0.79    0.13
   1   1  -7    0.94    0.10
  -1  -1   7    1.19    0.11
  -1  -1   7    1.01    0.09
  -1  -1   7    1.00    0.08
  -1  -1   7    1.05    0.11
   0   1  -7    3.19    0.17
   0   1  -7    3.05    0.17
   0   1  -7    3.27    0.14
   0  -1   7    3.33    0.12
   0  -1   7    3.13    0.13
   0  -1   7    3.05    0.15
   0  -1   7    3.09    0.15
  -1   1  -7   33.11    0.84
  -1   1  -7   33.78    0.79
  -1   1  -7   35.52    0.79
  -1   1  -7   32.40    0.82
   1  -1   7   32.87    0.81
   1  -1   7   33.90    0.78
   1  -1   7   32.42    0.81
   1  -1   7   33.44    0.83
   1  -1   7   33.35    0.77
  -2   1  -7    2.24    0.16
  -2   1  -7    2.38    0.16
  -2   1  -7    2.21    0.11
   2  -1   7    2.03    0.15
   2  -1   7    1.95    0.17
   2  -1   7    1.69    0.16
  -3   1  -7    1.52    0.17
  -3   1  -7    1.21    0.22
  -3   1  -7    1.41    0.19
   3  -1   7    1.24    0.16
  -4   1  -7    1.64    0.21
  -4   1  -7    1.87    0.24
  -4   1  -7    1.54    0.22
   4  -1   7    1.21    0.23
   4  -1   7    1.22    0.23
   3   0  -7    0.52    0.09
   3   0  -7    0.37    0.10
  -3   0   7    0.83    0.12
  -3   0   7    0.78    0.12
   2   0  -7    0.05    0.06
  -2   0   7    0.06    0.04
  -2   0   7    0.02    0.04
  -2   0   7    0.07    0.04
   1   0  -7    3.15    0.19
   1   0  -7    3.25    0.15
   1   0  -7    3.50    0.16
  -1   0   7    3.40    0.13
  -1   0   7    3.60    0.16
  -1   0   7    3.52    0.14
  -1   0   7    3.46    0.16
   0   0  -7   20.91    0.56
   0   0  -7   22.01    0.54
   0   0  -7   22.39    0.58
   0   0   7   21.77    0.56
   0   0   7   21.94    0.52
   0   0   7   21.58    0.56
   0   0   7   21.91    0.53
  -1   0  -7    0.85    0.08
  -1   0  -7    0.98    0.11
  -1   0  -7    0.97    0.11
   1   0   7    0.75    0.06
   1   0   7    0.60    0.12
   1   0   7    0.67    0.11
   1   0   7    0.82    0.07
  -2   0  -7    3.43    0.19
  -2   0  -7    3.44    0.18
   2   0   7    3.30    0.19
   2   0   7    3.25    0.17
   2   0   7    3.07    0.17
  -3   0  -7    6.90    0.31
  -3   0  -7    6.74    0.28
  -3   0  -7    6.87    0.29
   3   0   7    6.73    0.27
   3   0   7    6.33    0.28
   3   0   7    6.98    0.29
  -4   0  -7    0.15    0.08
  -4   0  -7    0.12    0.11
  -4   0  -7    0.07    0.09
   4   0   7   -0.06    0.08
   4   0   7   -0.03    0.07
   4   0   7   -0.08    0.08
   3  -1  -7   -0.13    0.09
   3  -1  -7    0.01    0.07
  -3   1   7    0.01    0.05
  -3   1   7   -0.04    0.07
  -3   1   7   -0.02    0.05
   2  -1  -7    1.35    0.18
   2  -1  -7    1.68    0.13
  -2   1   7    1.83    0.13
  -2   1   7    1.75    0.12
  -2   1   7    1.91    0.14
  -2   1   7    1.70    0.11
   1  -1  -7    5.16    0.22
   1  -1  -7    4.57    0.21
   1  -1  -7    5.18    0.19
  -1   1   7    5.11    0.17
  -1   1   7    5.21    0.18
  -1   1   7    5.04    0.18
  -1   1   7    5.00    0.19
  -1   1   7    5.02    0.18
   0  -1  -7    0.05    0.04
   0  -1  -7    0.01    0.05
   0   1   7   -0.05    0.03
   0   1   7   -0.03    0.03
   0   1   7   -0.03    0.03
  -1  -1  -7    4.96    0.20
  -1  -1  -7    4.98    0.16
  -1  -1  -7    5.04    0.20
   1   1   7    5.29    0.15
   1   1   7    5.18    0.20
   1   1   7    5.21    0.21
   1   1   7    5.15    0.16
  -2  -1  -7   18.39    0.51
  -2  -1  -7   18.26    0.53
  -2  -1  -7   18.24    0.51
   2   1   7   18.67    0.50
   2   1   7   18.27    0.49
   2   1   7   18.82    0.51
  -3  -1  -7    1.63    0.17
  -3  -1  -7    1.52    0.15
  -3  -1  -7    1.79    0.19
   3   1   7    1.20    0.16
   3   1   7    1.22    0.16
   3   1   7    1.31    0.18
  -4  -1  -7    0.02    0.08
  -4  -1  -7    0.01    0.10
  -4  -1  -7    0.07    0.07
   4   1   7   -0.05    0.08
   3  -2  -7    0.78    0.14
  -3   2   7    0.50    0.07
  -3   2   7    0.57    0.10
  -3   2   7    0.45    0.07
   2  -2  -7    0.34    0.07
   2  -2  -7    0.29    0.09
  -2   2   7    0.25    0.07
  -2   2   7    0.22    0.05
  -2   2   7    0.28    0.05
  -2   2   7    0.30    0.07
   1  -2  -7    0.09    0.07
   1  -2  -7    0.14    0.05
   1  -2  -7    0.05    0.06
  -1   2   7    0.07    0.03
  -1   2   7    0.04    0.04
  -1   2   7    0.06    0.04
  -1   2   7    0.13    0.05
   0  -2  -7    5.09    0.17
   0  -2  -7    5.25    0.21
   0  -2  -7    5.25    0.21
   0   2   7    5.25    0.17
   0   2   7    5.20    0.19
   0   2   7    5.26    0.20
   0   2   7    5.23    0.16
   0   2   7    5.23    0.17
  -1  -2  -7   30.28    0.73
  -1  -2  -7   28.48    0.76
  -1  -2  -7   28.98    0.75
   1   2   7   30.92    0.75
   1   2   7   31.11    0.70
   1   2   7   30.60    0.71
   1   2   7   29.37    0.74
  -2  -2  -7    4.71    0.22
  -2  -2  -7    4.81    0.20
  -2  -2  -7    4.97    0.23
   2   2   7    4.98    0.16
   2   2   7    4.87    0.22
   2   2   7    4.92    0.21
  -3  -2  -7    0.13    0.07
   3   2   7   -0.02    0.06
   3   2   7    0.07    0.06
   3   2   7    0.04    0.06
  -4  -2  -7    0.09    0.10
  -4  -2  -7    0.09    0.09
   4   2   7   -0.02    0.07
   4   2   7    0.00    0.08
   4   2   7    0.06    0.07
   3  -3  -7    0.13    0.07
   3  -3  -7   -0.10    0.10
  -3   3   7    0.02    0.05
  -3   3   7   -0.06    0.07
  -3   3   7    0.02    0.06
   2  -3  -7    0.16    0.09
   2  -3  -7    0.00    0.11
  -2   3   7    0.18    0.07
  -2   3   7    0.17    0.05
  -2   3   7    0.20    0.05
   1  -3  -7    3.98    0.16
   1  -3  -7    3.80    0.23
   1  -3  -7    3.83    0.21
  -1   3   7    3.77    0.16
  -1   3   7    3.85    0.15
  -1   3   7    3.85    0.17
  -1   3   7    3.94    0.16
   0  -3  -7   21.24    0.58
   0  -3  -7   21.03    0.53
   0  -3  -7   21.58    0.57
   0   3   7   21.62    0.53
   0   3   7   21.47    0.53
   0   3   7   21.99    0.55
   0   3   7   21.56    0.52
  -1  -3  -7    5.55    0.22
  -1  -3  -7    5.68    0.24
  -1  -3  -7    5.48    0.22
   1   3   7    5.57    0.18
   1   3   7    5.62    0.22
   1   3   7    5.74    0.22
   1   3   7    5.62    0.17
  -2  -3  -7    1.05    0.15
  -2  -3  -7    0.96    0.14
  -2  -3  -7    0.99    0.11
   2   3   7    0.64    0.14
   2   3   7    0.84    0.08
   2   3   7    0.70    0.13
  -3  -3  -7    0.09    0.08
  -3  -3  -7    0.09    0.07
   3   3   7    0.02    0.06
   3   3   7    0.04    0.06
   3   3   7    0.08    0.05
  -4  -3  -7    0.06    0.09
  -4  -3  -7    0.13    0.10
   4   3   7    0.05    0.07
   4   3   7    0.01    0.07
   4   3   7   -0.01    0.08
   2  -4  -7    1.83    0.22
  -2   4   7    1.86    0.16
  -2   4   7    1.92    0.13
  -2   4   7    2.02    0.14
   1  -4  -7    7.09    0.32
   1  -4  -7    7.07    0.29
  -1   4   7    7.19    0.23
  -1   4   7    7.30    0.24
  -1   4   7    7.41    0.24
   0  -4  -7    2.50    0.22
   0  -4  -7    1.76    0.16
   0  -4  -7    2.23    0.18
   0   4   7    1.91    0.12
   0   4   7    1.88    0.11
   0   4   7    1.95    0.11
   0   4   7    2.03    0.13
  -1  -4  -7    2.86    0.18
  -1  -4  -7    2.82    0.17
  -1  -4  -7    2.47    0.16
   1   4   7    2.66    0.16
   1   4   7    2.62    0.12
   1   4   7    2.44    0.15
   1   4   7    2.76    0.11
  -2  -4  -7    1.18    0.16
  -2  -4  -7    1.11    0.15
   2   4   7    1.12    0.10
   2   4   7    0.91    0.13
   2   4   7    0.98    0.14
  -3  -4  -7    0.23    0.09
  -3  -4  -7    0.16    0.10
  -3  -4  -7    0.28    0.09
   3   4   7    0.07    0.06
   3   4   7    0.14    0.06
  -4  -4  -7    0.03    0.08
  -4  -4  -7    0.14    0.10
  -4  -4  -7    0.33    0.10
   4   4   7    0.13    0.07
   2  -5  -7    0.94    0.21
  -2   5   7    1.29    0.13
  -2   5   7    1.13    0.13
  -2   5   7    1.14    0.15
   1  -5  -7   -0.04    0.08
   1  -5  -7    0.01    0.11
  -1   5   7    0.07    0.06
  -1   5   7   -0.03    0.05
  -1   5   7    0.05    0.04
   0  -5  -7    3.39    0.20
   0  -5  -7    3.96    0.23
   0  -5  -7    4.45    0.20
   0   5   7    3.87    0.19
   0   5   7    4.03    0.17
   0   5   7    3.75    0.15
   0   5   7    3.99    0.16
  -1  -5  -7    1.75    0.16
  -1  -5  -7    1.74    0.17
   1   5   7    1.41    0.14
   1   5   7    1.65    0.11
   1   5   7    1.57    0.10
  -2  -5  -7    2.14    0.19
  -2  -5  -7    2.01    0.19
   2   5   7    1.93    0.12
   2   5   7    1.68    0.15
   2   5   7    1.57    0.16
  -3  -5  -7    0.25    0.09
   3   5   7    0.10    0.07
   2  -6  -7   -0.12    0.10
  -2   6   7   -0.02    0.05
  -2   6   7    0.03    0.07
   1  -6  -7    2.60    0.28
   1  -6  -7    2.46    0.22
  -1   6   7    2.96    0.15
  -1   6   7    3.17    0.17
  -1   6   7    3.21    0.17
   0  -6  -7    0.96    0.20
   0   6   7    1.05    0.10
   0   6   7    1.03    0.12
  -1  -6  -7    2.63    0.20
  -1  -6  -7    2.72    0.20
   1   6   7    2.23    0.17
   1   6   7    2.32    0.14
   1   6   7    2.31    0.13
  -2  -6  -7    0.23    0.08
   2   6   7    0.06    0.07
  -3  -6  -7    1.31    0.22
  -3  -6  -7    1.58    0.19
   1  -7  -7    0.07    0.13
  -1   7   7    0.20    0.06
  -1   7   7    0.24    0.07
   0  -7  -7    1.11    0.21
   0   7   7    0.92    0.14
   0   7   7    0.76    0.11
   1   7   7    0.00    0.05
   1   7   7   -0.06    0.04
  -2  -7  -7    1.24    0.21
  -2  -7  -7    1.65    0.19
   0   5  -8    1.91    0.16
   0  -5   8    2.23    0.20
  -1   5  -8    0.87    0.17
   1  -5   8    0.85    0.18
   1  -5   8    0.92    0.17
   1  -5   8    0.68    0.13
   1   4  -8    0.87    0.11
   1   4  -8    0.66    0.07
   1   4  -8    0.72    0.10
  -1  -4   8    0.85    0.11
   0   4  -8    1.09    0.14
   0   4  -8    1.40    0.15
   0   4  -8    1.12    0.10
   0  -4   8    1.17    0.16
   0  -4   8    1.15    0.15
  -1   4  -8   13.16    0.43
  -1   4  -8   12.35    0.38
   1  -4   8   12.76    0.39
   1  -4   8   12.56    0.49
   1  -4   8   12.79    0.42
  -2   4  -8    0.31    0.09
  -2   4  -8    0.31    0.08
   2  -4   8    0.28    0.07
   2   3  -8    0.02    0.08
  -2  -3   8    0.15    0.06
   1   3  -8    1.74    0.12
   1   3  -8    1.88    0.17
   1   3  -8    1.76    0.12
   1   3  -8    1.32    0.16
  -1  -3   8    1.73    0.12
  -1  -3   8    1.75    0.17
  -1  -3   8    1.97    0.17
  -1  -3   8    1.75    0.13
   0   3  -8   25.04    0.62
   0   3  -8   25.61    0.65
   0   3  -8   24.72    0.69
   0   3  -8   25.33    0.61
   0  -3   8   26.17    0.63
   0  -3   8   25.34    0.68
  -1   3  -8    1.74    0.13
  -1   3  -8    1.85    0.17
   1  -3   8    1.86    0.14
   1  -3   8    1.97    0.17
  -2   3  -8    0.09    0.07
  -2   3  -8    0.03    0.06
   2  -3   8    0.04    0.04
   2  -3   8    0.02    0.06
  -3   3  -8   -0.01    0.09
   3  -3   8    0.00    0.08
   2   2  -8    1.36    0.16
   2   2  -8    1.54    0.12
   2   2  -8    1.92    0.15
   2   2  -8    1.62    0.19
  -2  -2   8    1.87    0.17
  -2  -2   8    1.92    0.17
  -2  -2   8    1.73    0.14
  -2  -2   8    1.59    0.13
   1   2  -8   25.70    0.69
   1   2  -8   25.15    0.62
   1   2  -8   25.45    0.65
  -1  -2   8   25.74    0.68
  -1  -2   8   25.51    0.68
  -1  -2   8   25.20    0.62
  -1  -2   8   25.12    0.63
   0   2  -8    3.29    0.13
   0   2  -8    3.00    0.16
   0   2  -8    3.03    0.19
   0  -2   8    3.35    0.13
   0  -2   8    3.19    0.14
   0  -2   8    3.31    0.18
   0  -2   8    3.29    0.17
  -1   2  -8   -0.04    0.05
  -1   2  -8    0.01    0.05
   1  -2   8    0.00    0.05
   1  -2   8   -0.01    0.04
  -2   2  -8    0.15    0.06
  -2   2  -8    0.21    0.07
   2  -2   8    0.14    0.05
   2  -2   8    0.09    0.06
  -3   2  -8    0.26    0.09
  -3   2  -8    0.20    0.10
   3  -2   8    0.09    0.08
   3  -2   8    0.25    0.06
   2   1  -8   12.14    0.42
   2   1  -8   12.73    0.38
   2   1  -8   11.94    0.34
  -2  -1   8   12.53    0.35
  -2  -1   8   12.13    0.39
  -2  -1   8   12.45    0.40
  -2  -1   8   12.14    0.36
   1   1  -8    1.87    0.18
   1   1  -8    1.94    0.11
   1   1  -8    1.94    0.14
  -1  -1   8    2.00    0.12
  -1  -1   8    1.92    0.11
  -1  -1   8    2.26    0.15
  -1  -1   8    2.05    0.15
   0   1  -8    0.14    0.05
   0   1  -8    0.11    0.06
   0   1  -8    0.13    0.03
   0  -1   8    0.09    0.03
   0  -1   8    0.12    0.05
   0  -1   8    0.14    0.05
   0  -1   8    0.14    0.04
  -1   1  -8    1.73    0.13
  -1   1  -8    1.59    0.15
  -1   1  -8    1.44    0.11
   1  -1   8    1.49    0.14
   1  -1   8    1.60    0.15
  -2   1  -8    0.23    0.07
  -2   1  -8    0.26    0.07
   2  -1   8    0.16    0.07
   2  -1   8    0.20    0.06
  -3   1  -8    0.04    0.08
  -3   1  -8    0.07    0.07
   3  -1   8    0.03    0.06
   3  -1   8   -0.09    0.07
   2   0  -8    0.17    0.07
   2   0  -8    0.18    0.09
  -2   0   8    0.23    0.06
  -2   0   8    0.30    0.06
  -2   0   8    0.27    0.06
   1   0  -8    1.11    0.12
   1   0  -8    0.85    0.15
  -1   0   8    1.05    0.10
  -1   0   8    1.15    0.10
  -1   0   8    1.47    0.13
  -1   0   8    1.28    0.12
   0   0  -8    3.28    0.16
   0   0  -8    3.04    0.15
   0   0  -8    3.06    0.18
   0   0   8    3.14    0.17
   0   0   8    3.22    0.17
   0   0   8    3.12    0.13
   0   0   8    2.90    0.13
  -1   0  -8    3.72    0.19
  -1   0  -8    3.49    0.20
  -1   0  -8    3.50    0.15
   1   0   8    3.89    0.18
   1   0   8    3.57    0.19
   1   0   8    3.72    0.14
  -2   0  -8    0.07    0.06
  -2   0  -8    0.11    0.06
   2   0   8   -0.08    0.06
   2   0   8    0.01    0.05
  -3   0  -8    2.08    0.22
  -3   0  -8    1.95    0.18
   3   0   8    1.62    0.19
   3   0   8    1.43    0.21
   3   0   8    1.51    0.18
   4   0   8    0.47    0.11
   4   0   8    0.54    0.10
   4   0   8    0.49    0.11
   2  -1  -8    1.71    0.15
   2  -1  -8    1.38    0.22
  -2   1   8    1.84    0.13
  -2   1   8    1.92    0.14
  -2   1   8    1.72    0.13
  -2   1   8    2.03    0.16
   1  -1  -8    2.54    0.17
   1  -1  -8    2.58    0.15
   1  -1  -8    2.37    0.19
  -1   1   8    2.75    0.16
  -1   1   8    2.46    0.13
  -1   1   8    2.37    0.12
   0  -1  -8    6.69    0.27
   0  -1  -8    7.06    0.22
   0  -1  -8    6.73    0.25
   0   1   8    7.01    0.24
   0   1   8    6.90    0.22
   0   1   8    6.77    0.24
   0   1   8    6.99    0.21
  -1  -1  -8   -0.02    0.05
  -1  -1  -8    0.06    0.05
  -1  -1  -8   -0.02    0.04
   1   1   8    0.03    0.03
   1   1   8   -0.06    0.04
   1   1   8   -0.01    0.03
  -2  -1  -8    1.90    0.18
  -2  -1  -8    1.84    0.16
   2   1   8    1.37    0.17
   2   1   8    1.43    0.15
  -3  -1  -8    3.56    0.24
  -3  -1  -8    3.35    0.20
   3   1   8    2.88    0.26
   3   1   8    3.08    0.21
   3   1   8    3.08    0.23
  -4  -1  -8    0.05    0.08
  -4  -1  -8   -0.04    0.09
  -4  -1  -8    0.06    0.11
   4   1   8   -0.14    0.10
   2  -2  -8    0.82    0.13
   2  -2  -8    0.97    0.14
   2  -2  -8    0.75    0.13
  -2   2   8    1.18    0.15
  -2   2   8    1.20    0.12
  -2   2   8    1.19    0.13
   1  -2  -8    3.34    0.22
   1  -2  -8    3.50    0.17
   1  -2  -8    3.39    0.21
  -1   2   8    3.56    0.15
  -1   2   8    3.76    0.17
  -1   2   8    3.39    0.16
  -1   2   8    3.49    0.16
   0  -2  -8    0.00    0.06
   0  -2  -8    0.01    0.04
   0  -2  -8    0.10    0.06
   0   2   8    0.05    0.04
   0   2   8    0.02    0.04
   0   2   8    0.04    0.04
   0   2   8    0.02    0.03
  -1  -2  -8    0.73    0.13
  -1  -2  -8    0.95    0.14
   1   2   8    0.87    0.07
   1   2   8    0.75    0.12
   1   2   8    0.79    0.09
   1   2   8    0.69    0.14
  -2  -2  -8    5.92    0.27
  -2  -2  -8    5.62    0.24
   2   2   8    5.77    0.25
   2   2   8    5.62    0.24
  -3  -2  -8    0.08    0.09
  -3  -2  -8    0.09    0.06
  -3  -2  -8   -0.02    0.07
   3   2   8   -0.02    0.07
   3   2   8    0.03    0.06
  -4  -2  -8    1.35    0.22
  -4  -2  -8    1.44    0.26
   4   2   8    0.96    0.20
   4   2   8    1.06    0.24
   2  -3  -8    0.28    0.07
   2  -3  -8    0.11    0.11
  -2   3   8    0.25    0.06
  -2   3   8    0.24    0.08
  -2   3   8    0.28    0.06
   1  -3  -8    0.21    0.06
   1  -3  -8    0.17    0.09
   1  -3  -8    0.14    0.09
  -1   3   8    0.17    0.06
  -1   3   8    0.19    0.04
  -1   3   8    0.21    0.05
  -1   3   8    0.19    0.05
   0  -3  -8    0.27    0.05
   0  -3  -8    0.18    0.07
   0   3   8    0.28    0.05
   0   3   8    0.23    0.04
   0   3   8    0.23    0.05
   0   3   8    0.25    0.05
  -1  -3  -8    4.31    0.21
  -1  -3  -8    4.70    0.23
   1   3   8    4.54    0.17
   1   3   8    4.68    0.21
   1   3   8    4.61    0.20
   1   3   8    4.50    0.15
  -2  -3  -8    0.23    0.06
  -2  -3  -8    0.32    0.09
   2   3   8    0.19    0.04
   2   3   8    0.11    0.06
   2   3   8    0.11    0.06
  -3  -3  -8    3.02    0.23
  -3  -3  -8    3.58    0.27
   3   3   8    3.38    0.23
   3   3   8    2.98    0.21
   2  -4  -8    0.13    0.11
  -2   4   8    0.31    0.06
  -2   4   8    0.24    0.08
  -2   4   8    0.35    0.11
   1  -4  -8    0.08    0.10
   1  -4  -8    0.06    0.09
   1  -4  -8    0.17    0.06
  -1   4   8    0.06    0.06
  -1   4   8    0.15    0.05
  -1   4   8    0.12    0.05
   0  -4  -8    1.38    0.18
   0  -4  -8    0.89    0.15
   0   4   8    1.16    0.10
   0   4   8    1.09    0.11
   0   4   8    1.10    0.10
   0   4   8    1.39    0.13
  -1  -4  -8    0.62    0.13
   1   4   8    0.72    0.09
   1   4   8    0.70    0.08
   1   4   8    0.65    0.13
  -2  -4  -8    5.35    0.28
  -2  -4  -8    4.92    0.26
   2   4   8    5.27    0.24
   2   4   8    5.36    0.24
   2   4   8    5.49    0.19
  -3  -4  -8    0.21    0.10
  -3  -4  -8    0.13    0.08
   3   4   8    0.02    0.07
   3   4   8   -0.06    0.07
   1  -5  -8   -0.08    0.09
   1  -5  -8    0.10    0.11
  -1   5   8    0.10    0.06
  -1   5   8   -0.03    0.04
  -1   5   8    0.04    0.06
   0  -5  -8    0.62    0.10
   0   5   8    1.04    0.12
   0   5   8    0.93    0.10
  -1  -5  -8    5.79    0.28
   1   5   8    5.30    0.20
   1   5   8    5.23    0.23
   1   5   8    5.44    0.19
  -2  -5  -8    0.13    0.07
  -2  -5  -8    0.16    0.09
   2   5   8   -0.04    0.06
   2   5   8    0.06    0.05
  -3  -5  -8    0.96    0.20
   1  -6  -8    0.55    0.14
   1  -6  -8    0.26    0.11
  -1   6   8    0.36    0.06
   0  -6  -8    3.67    0.26
   0   6   8    3.34    0.16
   0   6   8    3.34    0.18
   1   6   8    0.05    0.04
   1   6   8   -0.06    0.06
   1   6   8    0.07    0.05
  -2  -6  -8    1.28    0.19
  -2  -6  -8    0.92    0.19
   0   3  -9    0.69    0.15
   0  -3   9    0.80    0.15
  -1   3  -9    5.58    0.27
  -1   3  -9    5.39    0.23
   1  -3   9    5.79    0.27
  -2   3  -9    0.16    0.08
   2  -3   9    0.03    0.07
   2  -3   9    0.07    0.05
   1   2  -9    0.04    0.04
   1   2  -9    0.12    0.05
   1   2  -9    0.02    0.07
   1   2  -9    0.11    0.07
  -1  -2   9    0.08    0.04
  -1  -2   9    0.15    0.05
  -1  -2   9    0.04    0.05
   0   2  -9    6.07    0.21
   0   2  -9    6.04    0.24
   0   2  -9    6.25    0.28
   0  -2   9    5.98    0.21
   0  -2   9    6.48    0.20
   0  -2   9    6.44    0.27
   0  -2   9    6.17    0.26
  -1   2  -9    0.06    0.06
  -1   2  -9    0.17    0.07
   1  -2   9    0.11    0.05
   1  -2   9    0.13    0.06
  -2   2  -9    1.98    0.20
   2  -2   9    1.90    0.16
   2  -2   9    1.90    0.20
   1   1  -9    3.02    0.14
   1   1  -9    3.14    0.18
   1   1  -9    3.05    0.22
  -1  -1   9    3.55    0.20
  -1  -1   9    3.04    0.15
  -1  -1   9    2.97    0.16
  -1  -1   9    3.21    0.20
   0   1  -9    0.60    0.08
   0   1  -9    0.46    0.08
   0   1  -9    0.71    0.15
   0  -1   9    0.63    0.13
   0  -1   9    0.38    0.06
   0  -1   9    0.40    0.05
   0  -1   9    0.64    0.13
  -1   1  -9    4.05    0.23
  -1   1  -9    3.81    0.18
   1  -1   9    4.13    0.22
   1  -1   9    4.05    0.21
  -2   1  -9    0.27    0.08
  -2   1  -9    0.26    0.08
   2  -1   9    0.13    0.07
   2  -1   9    0.22    0.07
  -3   1  -9    0.41    0.10
  -3   1  -9    0.33    0.11
   3  -1   9    0.18    0.09
   3  -1   9    0.29    0.08
   2   0  -9    0.38    0.11
  -2   0   9    0.41    0.06
   1   0  -9    0.66    0.11
   1   0  -9    0.63    0.09
  -1   0   9    0.95    0.13
  -1   0   9    0.64    0.11
  -1   0   9    0.92    0.10
   0   0  -9    5.32    0.21
   0   0  -9    5.20    0.25
   0   0   9    5.54    0.23
   0   0   9    5.32    0.18
   0   0   9    5.28    0.19
   0   0   9    5.48    0.23
  -1   0  -9    0.01    0.05
  -1   0  -9    0.11    0.07
   1   0   9    0.04    0.05
   1   0   9    0.01    0.05
  -2   0  -9    1.88    0.18
  -2   0  -9    2.00    0.19
   2   0   9    1.54    0.20
   2   0   9    1.80    0.17
  -3   0  -9   -0.03    0.08
  -3   0  -9   -0.10    0.09
   3   0   9    0.11    0.07
   3   0   9   -0.05    0.08
   2  -1  -9    0.38    0.08
   2  -1  -9    0.29    0.11
  -2   1   9    0.29    0.06
   1  -1  -9    3.72    0.24
   1  -1  -9    4.14    0.19
  -1   1   9    4.11    0.17
  -1   1   9    4.12    0.20
  -1   1   9    3.98    0.18
   0  -1  -9   -0.03    0.05
   0  -1  -9   -0.02    0.06
   0   1   9    0.09    0.04
   0   1   9   -0.02    0.03
   0   1   9    0.01    0.04
   0   1   9    0.03    0.05
  -1  -1  -9    1.96    0.17
  -1  -1  -9    1.71    0.17
   1   1   9    1.93    0.16
   1   1   9    1.82    0.11
   1   1   9    1.61    0.17
  -2  -1  -9    0.64    0.15
   2   1   9    0.31    0.08
   2   1   9    0.38    0.07
  -3  -1  -9    0.29    0.08
  -3  -1  -9    0.36    0.11
   3   1   9    0.17    0.07
   3   1   9    0.03    0.08
  -2   2   9    1.68    0.14
   1  -2  -9    0.04    0.06
   1  -2  -9   -0.04    0.08
   1  -2  -9    0.19    0.08
  -1   2   9    0.03    0.04
  -1   2   9    0.04    0.05
  -1   2   9    0.11    0.05
   0  -2  -9    0.15    0.06
   0  -2  -9    0.08    0.07
   0   2   9    0.09    0.04
   0   2   9    0.14    0.05
   0   2   9    0.09    0.05
  -1  -2  -9    1.88    0.17
  -1  -2  -9    2.31    0.18
   1   2   9    2.00    0.12
   1   2   9    2.10    0.17
   1   2   9    1.85    0.17
  -2  -2  -9    0.10    0.06
  -2  -2  -9    0.19    0.08
   2   2   9   -0.07    0.06
   2   2   9    0.01    0.06
  -3  -2  -9    0.19    0.10
   3   2   9   -0.02    0.08
   3   2   9    0.03    0.09
   1  -3  -9    0.70    0.13
  -1   3   9    0.76    0.12
  -1   3   9    0.69    0.11
  -1   3   9    1.00    0.22
  -1   3   9    0.77    0.13
   0  -3  -9    3.13    0.22
   0  -3  -9    3.63    0.22
   0   3   9    3.61    0.19
   0   3   9    3.26    0.16
   0   3   9    3.35    0.14
  -1  -3  -9    0.02    0.06
  -1  -3  -9    0.13    0.07
   1   3   9   -0.01    0.05
   1   3   9    0.00    0.04
  -2  -3  -9    1.34    0.20
  -2  -3  -9    0.97    0.15
   3   3   9    0.94    0.21
   1  -4  -9    2.69    0.25
   1  -4  -9    3.36    0.26
   1  -4  -9    3.21    0.17
  -1   4   9    3.25    0.18
  -1   4   9    3.17    0.16
   0  -4  -9   -0.08    0.07
   0   4   9   -0.06    0.04
   0   4   9   -0.02    0.05
   0   4   9    0.03    0.05
  -1  -4  -9    1.17    0.16
   1   4   9    1.28    0.16
   1   4   9    1.26    0.11
   1   4   9    1.05    0.12
   2   4   9    2.14    0.21
   2   4   9    2.47    0.20
   0  -5  -9    0.44    0.10
   0   5   9    0.71    0.11
   1   5   9    2.42    0.15
   1   5   9    2.53    0.19
   1   5   9    2.42    0.14
  -2  -5  -9    2.62    0.25
   2   5   9    2.22    0.14
   0   1 -10    0.92    0.17
   0  -1  10    1.10    0.16
  -1   1 -10    1.81    0.20
   1  -1  10    1.97    0.20
   0   0 -10    1.93    0.19
   0   0 -10    1.74    0.15
   0   0  10    2.22    0.18
   0   0  10    1.79    0.12
   0   0  10    1.56    0.13
  -1   0 -10    3.50    0.23
   1   0  10    3.61    0.24
   1   0  10    3.36    0.23
  -2   0 -10    0.10    0.08
  -2   0 -10    0.18    0.08
   0  -1 -10    1.87    0.16
   0  -1 -10    2.15    0.20
   0   1  10    1.89    0.18
   0   1  10    1.69    0.13
   0   1  10    1.81    0.14
  -1  -1 -10    0.81    0.17
  -2  -1 -10    4.58    0.29
  -2  -1 -10    4.29    0.27
   2   1  10    4.59    0.28
   0  -2 -10    1.27    0.19
   0   2  10    1.07    0.13
   0   2  10    0.91    0.11
   0   2  10    1.09    0.17
  -1  -2 -10    9.65    0.38
  -1  -2 -10    9.01    0.36
   1   2  10    9.20    0.29
   1   2  10    9.35    0.34
   1   2  10    9.36    0.34
  -2  -2 -10    4.16    0.25
  -2  -2 -10    4.16    0.29
   2   2  10    3.28    0.26
   0  -3 -10   10.71    0.41
   0  -3 -10   11.97    0.42
   0   3  10   11.30    0.33
   0   3  10   11.43    0.38
  -1  -3 -10    4.30    0.25
  -1  -3 -10    4.91    0.28
   1   3  10    4.12    0.19
   1   3  10    3.82    0.26
   0   0   0    0.00    0.00
;
_shelx_hkl_checksum              21767
_shelx_shelxl_version_number     2014/7
_olex2_submission_special_instructions 'No special instructions were received'
loop_
_space_group_symop_operation_xyz
'x, y, z'
'-x, -y, -z'
loop_
_atom_site_label
_atom_site_type_symbol
_atom_site_fract_x
_atom_site_fract_y
_atom_site_fract_z
_atom_site_U_iso_or_equiv
_atom_site_adp_type
_atom_site_occupancy
_atom_site_site_symmetry_order
_atom_site_calc_flag
_atom_site_refinement_flags_posn
O2 O 0.4340(3) 0.96308(18) 0.73394(16) 0.0555(4) Uani 1 1 d .
O1 O 0.2806(4) 0.7615(2) 0.53739(15) 0.0621(5) Uani 1 1 d .
C2 C 0.1412(3) 0.64488(19) 0.85517(18) 0.0325(4) Uani 1 1 d .
C4 C 0.0118(4) 0.4569(2) 0.81991(19) 0.0374(4) Uani 1 1 d .
H4 H 0.0200 0.4287 0.6992 0.045 Uiso 1 1 calc R
C3 C 0.1295(4) 0.6882(2) 1.0348(2) 0.0365(4) Uani 1 1 d .
H3 H 0.2163 0.8144 1.0576 0.044 Uiso 1 1 calc R
C1 C 0.2955(4) 0.8007(2) 0.69989(19) 0.0365(4) Uani 1 1 d .
H1 H 0.427(9) 0.887(5) 0.409(5) 0.155(14) Uiso 1 1 d .
loop_
_atom_site_aniso_label
_atom_site_aniso_U_11
_atom_site_aniso_U_22
_atom_site_aniso_U_33
_atom_site_aniso_U_23
_atom_site_aniso_U_13
_atom_site_aniso_U_12
O2 0.0820(9) 0.0433(7) 0.0386(7) 0.0024(5) -0.0039(6) -0.0279(6)
O1 0.0970(10) 0.0568(8) 0.0304(6) 0.0019(5) -0.0051(6) -0.0350(7)
C2 0.0326(7) 0.0321(7) 0.0313(8) 0.0011(5) -0.0033(5) -0.0028(5)
C4 0.0474(8) 0.0365(8) 0.0275(7) -0.0021(5) -0.0040(6) -0.0080(6)
C3 0.0447(8) 0.0301(7) 0.0341(7) -0.0024(5) -0.0046(6) -0.0097(5)
C1 0.0409(7) 0.0342(7) 0.0324(7) 0.0009(6) -0.0028(6) -0.0071(6)
loop_
_atom_type_symbol
_atom_type_description
_atom_type_scat_dispersion_real
_atom_type_scat_dispersion_imag
_atom_type_scat_source
C C 0.0033 0.0016 'International Tables Vol C Tables 4.2.6.8 and 6.1.1.4'
H H 0.0000 0.0000 'International Tables Vol C Tables 4.2.6.8 and 6.1.1.4'
O O 0.0106 0.0060 'International Tables Vol C Tables 4.2.6.8 and 6.1.1.4'
loop_
_geom_angle_atom_site_label_1
_geom_angle_atom_site_label_2
_geom_angle_atom_site_label_3
_geom_angle
_geom_angle_site_symmetry_1
C1 O1 H1 117.0(15) .
C4 C2 C1 120.02(13) .
C3 C2 C4 120.48(13) .
C3 C2 C1 119.50(13) .
C2 C4 H4 120.1 .
C3 C4 C2 119.75(14) 2_567
C3 C4 H4 120.1 2_567
C2 C3 H3 120.1 .
C4 C3 C2 119.77(13) 2_567
C4 C3 H3 120.1 2_567
O2 C1 O1 123.04(13) .
O2 C1 C2 119.24(13) .
O1 C1 C2 117.71(12) .
loop_
_geom_bond_atom_site_label_1
_geom_bond_atom_site_label_2
_geom_bond_distance
_geom_bond_site_symmetry_2
O2 C1 1.2531(18) .
O1 C1 1.2697(18) .
O1 H1 1.24(4) .
C2 C4 1.389(2) .
C2 C3 1.387(2) .
C2 C1 1.4858(18) .
C4 H4 0.9300 .
C4 C3 1.384(2) 2_567
C3 C4 1.384(2) 2_567
C3 H3 0.9300 .
loop_
_geom_torsion_atom_site_label_1
_geom_torsion_atom_site_label_2
_geom_torsion_atom_site_label_3
_geom_torsion_atom_site_label_4
_geom_torsion
_geom_torsion_site_symmetry_4
C4 C2 C3 C4 0.1(2) 2_567
C4 C2 C1 O2 -174.98(13) .
C4 C2 C1 O1 4.8(2) .
C3 C2 C4 C3 -0.1(2) 2_567
C3 C2 C1 O2 4.7(2) .
C3 C2 C1 O1 -175.52(13) .
C1 C2 C4 C3 179.58(12) 2_567
C1 C2 C3 C4 -179.58(12) 2_567
