#------------------------------------------------------------------------------
#$Date: 2019-11-25 16:04:32 +0200 (Mon, 25 Nov 2019) $
#$Revision: 241277 $
#$URL: file:///home/coder/svn-repositories/cod/cif/4/13/09/4130944.cif $
#------------------------------------------------------------------------------
#
# This file is available in the Crystallography Open Database (COD),
# http://www.crystallography.net/
#
# All data on this site have been placed in the public domain by the
# contributors.
#
data_4130944
loop_
_publ_author_name
'Izquierdo, Susana'
'Essafi, St\'ephanie'
'Del Rosal, Iker'
'Vidossich, Pietro'
'Pleixats, Roser'
'Vallribera, Adelina'
'Ujaque, Gregori'
'Lled\'os, Agust\'i'
'Shafir, Alexandr'
_publ_section_title
;
 Acid Activation in Phenyliodine Dicarboxylates: Direct Observation,
 Structures, and Implications.
;
_journal_issue                   39
_journal_name_full               'Journal of the American Chemical Society'
_journal_page_first              12747
_journal_page_last               12750
_journal_paper_doi               10.1021/jacs.6b07999
_journal_volume                  138
_journal_year                    2016
_chemical_formula_sum            'C10 H9 B F5 I O4'
_chemical_formula_weight         425.88
_space_group_IT_number           2
_space_group_name_Hall           '-P 1'
_space_group_name_H-M_alt        'P -1'
_symmetry_cell_setting           triclinic
_symmetry_space_group_name_H-M   'P -1'
_atom_sites_solution_hydrogens   geom
_audit_creation_method           SHELXL-2014/7
_cell_angle_alpha                78.903(10)
_cell_angle_beta                 81.424(11)
_cell_angle_gamma                89.698(10)
_cell_formula_units_Z            2
_cell_length_a                   5.4807(17)
_cell_length_b                   9.086(3)
_cell_length_c                   14.021(4)
_cell_measurement_reflns_used    1062
_cell_measurement_temperature    100(2)
_cell_measurement_theta_max      21.07
_cell_measurement_theta_min      2.29
_cell_volume                     677.3(4)
_computing_cell_refinement       'Bruker APEX2 v2011.4-0'
_computing_data_collection       'Bruker APEX2 v2011.4-0'
_computing_data_reduction        'Bruker SAINT V7.60A'
_computing_molecular_graphics    'Bruker SHELXTL'
_computing_publication_material  'Bruker SHELXTL'
_computing_structure_refinement  'SHELXL-2014 (Sheldrick, 2014)'
_computing_structure_solution    Sir2011
_diffrn_ambient_temperature      100(2)
_diffrn_detector_area_resol_mean 512
_diffrn_detector_type            '4K CCD area detector APEX II'
_diffrn_measured_fraction_theta_full 0.975
_diffrn_measured_fraction_theta_max 0.975
_diffrn_measurement_device_type  'APEX DUO Kappa 4-axis goniometer'
_diffrn_measurement_method
;
 Fullsphere data collection, phi and omega scans
;
_diffrn_measurement_specimen_support 'magnetic support with MicroMount'
_diffrn_radiation_monochromator  'Quazar MX Multilayer Optics'
_diffrn_radiation_type           MoK\a
_diffrn_radiation_wavelength     0.71073
_diffrn_reflns_av_R_equivalents  0.0830
_diffrn_reflns_av_unetI/netI     0.1097
_diffrn_reflns_Laue_measured_fraction_full 0.975
_diffrn_reflns_Laue_measured_fraction_max 0.975
_diffrn_reflns_limit_k_max       10
_diffrn_reflns_limit_k_min       -10
_diffrn_reflns_limit_l_max       15
_diffrn_reflns_limit_l_min       -15
_diffrn_reflns_number            4490
_diffrn_reflns_point_group_measured_fraction_full 0.975
_diffrn_reflns_point_group_measured_fraction_max 0.975
_diffrn_reflns_theta_full        23.280
_diffrn_reflns_theta_max         23.280
_diffrn_reflns_theta_min         2.285
_diffrn_source                   'Microfocus source E025 IuS'
_diffrn_source_current           0.6
_diffrn_source_power             50
_diffrn_source_size              '0.2 mm x 0.2 mm fine focus'
_diffrn_source_type              'Bruker APEX DUO'
_exptl_absorpt_coefficient_mu    2.435
_exptl_absorpt_correction_T_max  0.976
_exptl_absorpt_correction_T_min  0.591
_exptl_absorpt_correction_type   empirical
_exptl_absorpt_process_details
; 
 SADABS Version 2008/1 Bruker-Nonius
 Blessing, Acta Cryst. (1995) A51 33-38
;
_exptl_crystal_colour            colourless
_exptl_crystal_density_diffrn    2.088
_exptl_crystal_description       needle
_exptl_crystal_F_000             408
_exptl_crystal_size_max          0.10
_exptl_crystal_size_mid          0.02
_exptl_crystal_size_min          0.01
_refine_diff_density_max         4.559
_refine_diff_density_min         -2.078
_refine_diff_density_rms         0.340
_refine_ls_extinction_method     none
_refine_ls_goodness_of_fit_ref   1.185
_refine_ls_hydrogen_treatment    constr
_refine_ls_matrix_type           full
_refine_ls_number_parameters     190
_refine_ls_number_reflns         1891
_refine_ls_number_restraints     62
_refine_ls_restrained_S_all      1.166
_refine_ls_R_factor_all          0.1269
_refine_ls_R_factor_gt           0.1125
_refine_ls_shift/su_max          0.000
_refine_ls_shift/su_mean         0.000
_refine_ls_structure_factor_coef Fsqd
_refine_ls_weighting_details
'w=1/[\s^2^(Fo^2^)+(0.0894P)^2^+46.9748P] where P=(Fo^2^+2Fc^2^)/3'
_refine_ls_weighting_scheme      calc
_refine_ls_wR_factor_gt          0.2796
_refine_ls_wR_factor_ref         0.2866
_reflns_Friedel_coverage         0.000
_reflns_number_gt                1566
_reflns_number_total             1891
_reflns_threshold_expression     'I > 2\s(I)'
_cod_data_source_file            ja6b07999_si_005.cif
_cod_data_source_block           mo_sifr129_0m
_cod_depositor_comments
;
The following automatic conversions were performed:

data item '_symmetry_cell_setting' value 'Triclinic' was changed to
'triclinic' in accordance with the
/home/saulius/struct/COD-crude-data/automatic-downloads/DataCite-retrospective/ACS/depositions/lib/dictionaries/cif_core.dic
dictionary named 'cif_core.dic' version 2.4.2 last updated on
2011-04-26.

Automatic conversion script
Id: cif_fix_values 6909 2019-04-08 15:41:33Z antanas 
;
_cod_original_sg_symbol_H-M      P-1
_cod_database_code               4130944
_shelx_shelxl_version_number     2014/7
_shelx_space_group_comment
;
The symmetry employed for this shelxl refinement is uniquely defined
by the following loop, which should always be used as a source of
symmetry information in preference to the above space-group names.
They are only intended as comments.
;
_shelx_estimated_absorpt_t_min   0.793
_shelx_estimated_absorpt_t_max   0.976
_shelx_res_file
;
    mo_sifr129_0m.res created by SHELXL-2014/7
TITL mo_sifr129_0m_a.res in P-1
CELL  0.71073   5.4807   9.0860  14.0213   78.903   81.424   89.698
ZERR    2.000   0.0017   0.0033   0.0040    0.010    0.011    0.010
LATT 1
SFAC C  H  B  O  F  I
UNIT 20 18 2 8 10 2
LIST 4
L.S. 15
BOND $H
ACTA
CONF
OMIT  1 2 1
OMIT  1 1 1
OMIT  1 2 2
FMAP 2
PLAN 5
SIMU 0.005 C1 > C10
DELU 0.005 C1 > C10
SIZE 0.010 0.020 0.100
TEMP -173.120
WGHT    0.089400   46.974804
FVAR       0.16286
I1    6    0.815459    0.661286    0.693143    11.00000    0.02201    0.01607 =
         0.04568   -0.01356   -0.01099   -0.00084
O1    4    1.046514    0.570467    0.789977    11.00000    0.03603    0.02679 =
         0.03437   -0.00427   -0.01811    0.00074
O2    4    0.740664    0.436977    0.890334    11.00000    0.03382    0.03808 =
         0.05098   -0.00340   -0.02385   -0.00487
O3    4    0.551052    0.791689    0.599190    11.00000    0.03530    0.02102 =
         0.04440   -0.01061   -0.00765    0.00629
O4    4    0.740928    0.698115    0.476844    11.00000    0.03298    0.01718 =
         0.03530   -0.01271   -0.01473    0.00147
B1    3    0.777075    0.641526    0.382259    11.00000    0.03785    0.03279 =
         0.04862   -0.00296   -0.00505   -0.01189
C1    1    0.717480    0.831137    0.772590    11.00000    0.04219    0.03051 =
         0.04096   -0.01141   -0.01370   -0.01308
C2    1    0.891868    0.947611    0.759792    11.00000    0.04396    0.02938 =
         0.04201   -0.00984   -0.01349   -0.01349
AFIX  43
H2    2    1.047171    0.948019    0.719255    11.00000   -1.20000
AFIX   0
C3    1    0.822426    1.065771    0.811297    11.00000    0.04628    0.02964 =
         0.04236   -0.01073   -0.01276   -0.01333
AFIX  43
H3    2    0.931841    1.149747    0.802163    11.00000   -1.20000
AFIX   0
C4    1    0.623211    1.063029    0.867957    11.00000    0.04701    0.03205 =
         0.04326   -0.00904   -0.01123   -0.01291
AFIX  43
H4    2    0.585581    1.143192    0.901923    11.00000   -1.20000
AFIX   0
C5    1    0.444637    0.935471    0.882673    11.00000    0.04521    0.03215 =
         0.04253   -0.01050   -0.01121   -0.01069
AFIX  43
H5    2    0.295999    0.933127    0.927573    11.00000   -1.20000
AFIX   0
C6    1    0.492752    0.819886    0.831554    11.00000    0.04245    0.03202 =
         0.04168   -0.01150   -0.01295   -0.01279
AFIX  43
H6    2    0.378907    0.739155    0.836946    11.00000   -1.20000
AFIX   0
C7    1    0.950881    0.466611    0.865665    11.00000    0.02789    0.02262 =
         0.04729   -0.00681   -0.01585   -0.00527
C8    1    1.163587    0.386612    0.915426    11.00000    0.03040    0.02255 =
         0.04800   -0.00746   -0.01529   -0.00283
AFIX  23
H8A   2    1.264303    0.331041    0.870067    11.00000   -1.20000
H8B   2    1.271907    0.461280    0.932571    11.00000   -1.20000
AFIX   0
C9    1    0.562874    0.772195    0.513392    11.00000    0.04061    0.01684 =
         0.03647   -0.01157   -0.01408   -0.00902
C10   1    0.376823    0.839225    0.452224    11.00000    0.04063    0.01714 =
         0.03753   -0.01096   -0.01248   -0.00615
AFIX  23
H10A  2    0.458833    0.911639    0.394473    11.00000   -1.20000
H10B  2    0.294901    0.759622    0.428226    11.00000   -1.20000
AFIX   0
F1    5    1.060317    0.290041    0.998131    11.00000    0.05306    0.04761 =
         0.06036    0.00723   -0.01782   -0.00970
F2    5    0.202617    0.911872    0.507878    11.00000    0.03940    0.03506 =
         0.05330   -0.01542   -0.01130    0.00597
F3    5    0.695897    0.745231    0.308974    11.00000    0.03644    0.05287 =
         0.04540   -0.01411   -0.01450    0.02708
F4    5    1.020364    0.619015    0.359536    11.00000    0.02565    0.02292 =
         0.05743   -0.01955   -0.00798    0.00093
F5    5    0.642544    0.507690    0.398326    11.00000    0.03883    0.04167 =
         0.08113   -0.03600    0.00692   -0.03045
HKLF 4
REM  mo_sifr129_0m_a.res in P-1
REM R1 =  0.1125 for    1566 Fo > 4sig(Fo)  and  0.1269 for all    1891 data
REM    190 parameters refined using     62 restraints
END
WGHT      0.0893     47.0205
REM Highest difference peak  4.559,  deepest hole -2.078,  1-sigma level  0.340
Q1    1   0.7805  0.6289  0.7789  11.00000  0.05    4.56
Q2    1   0.8556  0.6941  0.6026  11.00000  0.05    4.19
Q3    1   0.8999  0.6922  0.5068  11.00000  0.05    1.38
Q4    1   0.9822  0.6490  0.6403  11.00000  0.05    1.35
Q5    1   1.0481  1.0852  0.7019  11.00000  0.05    1.28
;
_shelx_res_checksum              21312
_shelx_hkl_file
;
  -1   0   0   37.70    4.30
  -1   0   0   39.41    3.75
   1   0   0   42.25    3.86
   1   0   0   42.14    3.80
  -2   0   0   66.68    6.21
  -2   0   0   70.30    6.39
   2   0   0   62.66    6.38
   2   0   0   73.90    6.72
   2   0   0   63.60    6.28
  -3   0   0   47.44    4.80
   3   0   0   45.84    4.97
   3   0   0   56.04    5.23
   3   0   0   40.99    5.45
  -4   0   0   11.71    2.16
   4   0   0   12.70    3.46
   4   0   0   13.35    3.11
   4   0   0   13.54    2.55
   5   0   0   32.45    5.09
   5   0   0   30.75    5.48
   6   0   0    8.04    3.80
   6  -1   0    9.84    3.84
   5  -1   0   20.52    4.11
   4  -1   0   70.01    7.70
   4  -1   0   73.46    7.41
   3  -1   0   39.87    4.57
  -3   1   0   44.36    4.41
   2  -1   0  102.43   10.18
   2  -1   0  117.31   10.04
  -2   1   0  111.15   10.01
   1  -1   0   46.22    4.98
   1  -1   0   64.89    5.07
  -1   1   0   50.93    4.92
   0  -1   0  120.87   11.07
   0  -1   0  114.64   10.96
   0   1   0  134.09   11.07
   0   1   0  129.29   11.00
  -1  -1   0  783.35   77.58
  -1  -1   0  826.36   77.69
  -1  -1   0  952.90   77.71
   1   1   0  848.07   77.68
   1   1   0 1000.00   77.76
   1   1   0  963.93   78.15
   1   1   0  926.81   77.65
  -2  -1   0    9.90    2.03
  -2  -1   0    8.78    1.77
   2   1   0   11.15    2.08
   2   1   0   10.00    1.95
   2   1   0   12.20    2.25
  -3  -1   0   17.18    2.72
   3   1   0   19.74    2.85
  -4  -1   0   28.58    3.84
   4   1   0   27.91    4.10
   4   1   0   28.87    4.27
   4   1   0   26.61    4.63
   5   1   0   13.58    3.33
   5   1   0    9.73    3.88
   5  -2   0   13.20    3.59
   4  -2   0   77.97    7.43
   4  -2   0   62.38    7.53
   3  -2   0   60.98    6.51
   3  -2   0   64.35    6.29
   2  -2   0   25.89    3.53
   2  -2   0   31.35    3.45
   2  -2   0   37.37    3.65
   1  -2   0  224.51   19.70
  -1   2   0  220.52   19.54
  -1   2   0  220.69   19.52
   0   2   0   79.39    7.63
   0   2   0   76.41    7.56
  -1  -2   0  443.89   39.08
  -1  -2   0  430.67   39.13
  -1  -2   0  457.78   38.96
   1   2   0  479.24   39.14
   1   2   0  434.27   38.95
   1   2   0  439.88   39.06
  -2  -2   0  142.31   12.60
  -2  -2   0  119.18   12.62
  -2  -2   0  134.63   12.71
   2   2   0  140.18   12.78
   2   2   0  136.24   13.50
   2   2   0  164.34   12.98
   2   2   0  131.38   12.50
  -3  -2   0    8.63    2.20
   3   2   0   11.88    2.52
  -4  -2   0  117.14   11.65
   4   2   0  124.50   12.08
   4   2   0  113.35   11.52
   4   2   0  116.94   11.39
   5   2   0   33.43    5.78
   5   2   0   31.97    5.02
   5  -3   0   14.84    3.07
   5  -3   0   19.55    3.97
   4  -3   0    4.36    2.05
   4  -3   0    8.85    2.83
   4  -3   0    6.96    2.02
   3  -3   0  118.29   10.41
   3  -3   0  110.71   10.39
   3  -3   0   96.69   10.33
   2  -3   0   49.84    5.40
  -1   3   0   87.02    8.37
   0  -3   0  160.57   16.48
   0   3   0  202.26   16.53
   0   3   0  175.07   16.45
  -1  -3   0  391.29   34.39
  -1  -3   0  404.78   34.84
   1   3   0  323.83   34.26
   1   3   0  418.64   34.71
   1   3   0  433.48   34.66
  -2  -3   0  123.10   13.03
   2   3   0  135.40   13.05
   2   3   0  141.15   12.84
   2   3   0  153.34   13.17
  -3  -3   0   68.17    7.72
   3   3   0   74.66    8.97
   3   3   0   66.67    7.38
   3   3   0   70.97    7.74
   3   3   0   81.64    7.98
  -4  -3   0    5.09    2.79
   4   3   0   15.26    3.84
   4   3   0   17.73    3.54
   5   3   0   62.26    8.51
   5   3   0   64.17    7.48
   5  -4   0   36.75    5.25
   4  -4   0   13.54    3.05
   3  -4   0   21.39    3.44
   3  -4   0   15.48    3.23
   2  -4   0  173.99   16.15
   0  -4   0   51.82    6.50
   0   4   0   53.61    6.70
   0   4   0   63.12    6.49
  -1  -4   0  308.42   25.74
   1   4   0  286.72   25.03
   1   4   0  298.04   25.36
   1   4   0  238.42   25.06
  -2  -4   0   28.03    4.44
   2   4   0   27.21    4.21
   2   4   0   28.57    4.16
  -3  -4   0   71.59    8.32
   3   4   0   77.19    7.89
   3   4   0   73.89    9.36
   3   4   0   73.89    8.25
   3   4   0   73.91    8.26
  -4  -4   0    0.08    2.56
   4   4   0    5.45    3.39
   4   4   0    7.09    2.97
   5   4   0   10.59    4.25
   5   4   0   15.71    3.93
   5  -5   0    6.52    2.90
   4  -5   0   61.00    7.00
   3  -5   0   35.62    5.29
   3  -5   0   43.64    5.19
   2  -5   0   22.09    4.21
   1  -5   0  172.51   16.51
   0  -5   0   31.78    5.43
   0   5   0   39.35    6.06
  -1  -5   0   79.39    8.14
   1   5   0   64.45    7.29
   1   5   0   57.97    7.26
  -2  -5   0  165.51   16.59
   2   5   0  198.09   16.19
   2   5   0  150.37   16.12
  -3  -5   0   11.83    4.02
   3   5   0   10.62    3.59
   3   5   0   16.29    5.44
   3   5   0   10.70    3.69
  -4  -5   0   25.96    5.35
   4   5   0   32.44    5.02
   4   5   0   35.28    5.96
   5   5   0   12.05    4.65
   5   5   0    5.56    3.49
   4  -6   0   10.43    3.29
   3  -6   0   43.71    6.25
   2  -6   0   20.88    4.21
   1  -6   0   15.50    4.15
  -1   6   0   42.62    6.23
   0  -6   0   56.08    7.23
   0   6   0   43.07    7.74
  -1  -6   0   -2.37    3.28
   1   6   0   11.67    3.97
   1   6   0    5.16    3.78
  -2  -6   0   52.53    7.63
   2   6   0   69.15    7.35
   2   6   0   51.79    7.32
  -3  -6   0   37.77    6.96
   3   6   0   59.69    8.36
   3   6   0   47.87    6.84
   3   6   0   40.02    6.21
  -4  -6   0   -3.05    2.69
   4   6   0    5.45    3.94
   4   6   0    9.99    3.50
   4  -7   0   18.69    4.42
   3  -7   0   18.11    4.37
   2  -7   0   65.49    8.19
   1  -7   0   27.20    5.74
  -1   7   0   38.35    7.15
   0  -7   0   52.98    8.05
   0   7   0   69.77    9.65
  -1  -7   0   37.82    7.00
   1   7   0   40.80    6.96
   1   7   0   48.66    6.98
  -2  -7   0    4.53    3.75
   2   7   0    5.52    3.93
   2   7   0    6.25    3.97
  -3  -7   0   59.18    8.86
   3   7   0   55.77    7.59
   3   7   0   62.97    9.22
   3   7   0   57.44    8.15
   4   7   0   15.94    4.28
   4   7   0   15.08    5.01
   3  -8   0   10.83    3.85
   2  -8   0    6.81    3.66
  -2   8   0    5.41    4.85
   1  -8   0   31.97    6.20
  -1   8   0   34.71    7.87
   0  -8   0   15.77    5.00
   0   8   0   19.57    6.94
  -1  -8   0   17.67    5.37
   1   8   0   18.38    5.81
   1   8   0   23.67    5.95
  -2  -8   0   17.42    5.05
   2   8   0   15.06    5.14
   2   8   0   14.75    4.86
  -3  -8   0    3.56    3.98
   3   8   0   10.12    4.54
   3   8   0   33.87    7.67
   3   8   0   12.23    4.46
   2  -9   0    5.83    4.17
  -2   9   0   21.59    6.47
   1  -9   0   14.32    4.80
  -1   9   0   16.21    7.43
   0  -9   0   14.96    5.29
   0   9   0   13.65    7.17
   0   9   0   18.12    6.67
  -1  -9   0   -0.81    3.85
   1   9   0   10.66    5.83
   1   9   0   -5.88    5.40
  -2  -9   0   13.09    5.16
   2   9   0   18.70    5.85
   2   9   0   18.99    5.81
   2   9  -1    3.43    4.70
   2   9  -1    1.07    4.79
   2   9  -1    3.06    4.46
  -2  -9   1    4.12    4.50
   1   9  -1   20.91    6.85
   1   9  -1   18.93    6.47
  -1  -9   1   30.34    6.48
   0   9  -1    4.12    6.61
   0   9  -1   -2.22    5.84
   0  -9   1    4.91    4.50
  -1   9  -1   13.22    7.23
   1  -9   1   19.72    5.28
  -2   9  -1   28.28    6.98
   2  -9   1   22.58    5.47
   3   8  -1    8.17    4.31
   3   8  -1    8.35    4.67
   3   8  -1   15.72    6.01
  -3  -8   1   15.40    5.21
   2   8  -1    0.04    4.27
   2   8  -1    4.46    4.09
   2   8  -1   -2.13    4.57
  -2  -8   1    5.42    4.19
   1   8  -1   41.48    7.46
   1   8  -1   46.03    7.77
  -1  -8   1   53.87    8.14
   0   8  -1   38.81    8.38
   0  -8   1   48.85    8.23
  -1   8  -1    8.87    6.34
   1  -8   1   16.04    4.69
  -2   8  -1   27.77    6.07
   2  -8   1   17.01    4.79
   3  -8   1   15.96    4.38
   4   7  -1    9.50    3.97
   4   7  -1    9.20    4.72
   3   7  -1   25.27    5.56
   3   7  -1   31.31    6.10
   3   7  -1   35.57    7.64
  -3  -7   1   43.50    7.08
   2   7  -1   30.83    5.73
   2   7  -1   26.67    5.72
  -2  -7   1   41.95    6.76
   1   7  -1   14.88    5.04
   1   7  -1   17.14    5.24
  -1  -7   1    9.02    4.25
   0   7  -1  125.64   14.45
   0  -7   1  141.00   14.42
  -1   7  -1   26.42    6.65
   1  -7   1   26.71    5.31
   2  -7   1    2.45    3.06
   3  -7   1   24.64    4.91
   4  -7   1    1.51    2.78
   4   6  -1   23.38    4.86
   4   6  -1   23.18    5.57
  -4  -6   1   25.38    5.49
   3   6  -1    5.49    3.66
   3   6  -1   -3.42    3.10
   3   6  -1   10.21    5.03
  -3  -6   1    4.63    3.58
   2   6  -1   48.41    6.52
   2   6  -1   44.24    6.48
  -2  -6   1   40.25    6.84
   1   6  -1   34.81    6.04
   1   6  -1   38.72    6.14
  -1  -6   1   40.36    6.43
   0   6  -1    6.14    4.84
   0  -6   1    0.23    3.05
  -1   6  -1   79.01    9.72
   1  -6   1   90.69    9.80
   2  -6   1   14.19    3.71
   3  -6   1    3.44    2.68
   4  -6   1   54.64    7.24
   5   5  -1    6.05    4.22
   5   5  -1    6.20    3.84
   4   5  -1   22.55    5.06
   4   5  -1   21.81    4.42
  -4  -5   1   21.69    4.94
   3   5  -1   50.63    6.94
   3   5  -1   50.59    6.70
   3   5  -1   46.53    8.33
  -3  -5   1   63.21    7.83
   2   5  -1   38.10    5.28
  -2  -5   1   27.25    5.15
   1   5  -1   14.13    3.98
   1   5  -1   16.59    3.91
  -1  -5   1   21.31    4.33
   0   5  -1   65.09    7.92
   0  -5   1   65.80    7.67
   1  -5   1    6.19    3.04
   2  -5   1  120.11   12.05
   3  -5   1    5.39    2.75
   4  -5   1   22.23    4.04
   5  -5   1   46.07    6.16
   5   4  -1   24.29    5.00
   5   4  -1   33.05    6.04
   4   4  -1    0.23    3.10
   4   4  -1    1.72    2.82
  -4  -4   1    2.42    2.96
   3   4  -1   38.48    6.11
   3   4  -1   59.46    6.15
  -3  -4   1   43.53    6.40
   2   4  -1   58.08    7.27
   2   4  -1   56.22    6.57
   2   4  -1   52.98    6.33
  -2  -4   1   61.65    6.98
   1   4  -1   24.93    4.03
   1   4  -1   27.84    4.29
   1   4  -1   24.14    4.11
  -1  -4   1   28.75    4.58
   0   4  -1   82.17    9.09
   0  -4   1   93.72    9.32
   1  -4   1  208.36   19.25
   2  -4   1   24.46    3.96
   3  -4   1   60.97    6.58
   4  -4   1    7.82    2.49
   5  -4   1   35.96    5.17
   5   3  -1   18.99    4.85
   5   3  -1   26.68    4.65
   4   3  -1   49.96    7.34
   4   3  -1   53.64    6.84
   4   3  -1   63.44    7.11
  -4  -3   1   71.57    7.55
   3   3  -1   16.97    3.77
   3   3  -1   20.45    3.61
  -3  -3   1   14.53    3.44
   2   3  -1  124.10   12.68
   2   3  -1  146.50   12.84
   2   3  -1  138.22   13.62
  -2  -3   1  134.25   13.07
   1   3  -1   26.94    3.77
   1   3  -1   24.34    3.69
   1   3  -1   32.18    4.03
  -1  -3   1   26.73    3.86
  -1  -3   1   26.19    3.81
   0   3  -1   13.57    3.09
   0  -3   1    7.68    2.54
  -1   3  -1  195.67   16.42
   1  -3   1  164.31   16.51
   2  -3   1   36.74    4.29
   3  -3   1   23.11    3.24
   3  -3   1   20.42    3.17
   4  -3   1    6.30    2.07
   4  -3   1    8.86    3.04
   4  -3   1    7.82    2.36
   5  -3   1    9.34    3.39
   5  -3   1    7.29    2.51
   5   2  -1    3.19    3.41
   5   2  -1    3.28    2.94
   4   2  -1   61.97    7.11
   4   2  -1   60.02    7.73
   4   2  -1   63.06    7.23
  -4  -2   1   79.31    7.82
   3   2  -1   86.87    8.38
   3   2  -1   82.69    8.50
   3   2  -1   78.24    8.19
  -3  -2   1   80.65    8.33
   2   2  -1    1.41    1.92
   2   2  -1    1.99    1.99
   2   2  -1   -1.78    1.40
  -2  -2   1   -0.28    1.57
  -2  -2   1   -1.45    1.86
   1   2  -1  352.45   28.03
   1   2  -1  279.42   27.74
   1   2  -1  341.92   28.28
   1   2  -1  316.80   27.85
  -1  -2   1  293.84   27.95
  -1  -2   1  315.80   27.86
   0   2  -1    3.63    2.30
   0   2  -1    1.70    1.66
   0  -2   1   -2.24    1.89
   0  -2   1    0.61    1.68
  -2   2  -1   69.26    7.44
   2  -2   1   79.74    7.62
   2  -2   1   91.72    7.61
   3  -2   1    9.93    1.91
   3  -2   1   15.95    2.62
   3  -2   1   12.26    2.04
   4  -2   1   21.60    3.49
   4  -2   1   13.38    2.66
   5  -2   1   44.00    5.96
   5   1  -1   29.79    4.87
   5   1  -1   28.84    5.43
   4   1  -1   -1.58    2.14
   4   1  -1    1.16    1.78
   4   1  -1   -0.16    2.57
  -4  -1   1    0.13    1.82
   3   1  -1   67.61    7.04
   3   1  -1   69.85    7.40
   3   1  -1   70.83    6.99
  -3  -1   1   68.62    7.10
   2   1  -1   90.41    7.89
   2   1  -1   91.59    8.00
  -2  -1   1   73.17    7.85
  -2  -1   1   78.07    8.90
   1   1  -1   18.51    2.62
   1   1  -1   21.88    2.63
  -1  -1   1   24.53    2.57
  -1  -1   1   12.65    2.33
   0   1  -1  142.32   12.04
   0  -1   1  123.02   11.98
   0  -1   1  144.55   12.07
   1  -1   1   27.33    2.86
  -2   1  -1   25.05    3.67
  -2   1  -1   19.76    2.47
  -2   1  -1   20.88    2.84
   2  -1   1   16.89    2.62
   3  -1   1  131.87   11.97
   3  -1   1  124.87   11.62
   4  -1   1   55.83    6.31
   5  -1   1   34.89    5.22
   6  -1   1   23.34    4.87
   5   0  -1   37.40    5.24
   5   0  -1   26.11    5.20
   4   0  -1   60.49    6.56
   4   0  -1   62.15    6.79
   4   0  -1   51.94    7.29
  -4   0   1   64.91    6.38
   3   0  -1    1.12    1.40
   3   0  -1    0.47    1.70
   3   0  -1    0.22    1.99
  -3   0   1   -0.66    1.25
   2   0  -1  203.26   19.28
   2   0  -1  222.44   19.11
   2   0  -1  205.78   19.05
  -2   0   1  227.38   19.09
   1   0  -1  275.75   24.06
   1   0  -1  278.71   24.12
   1   0  -1  273.13   24.10
  -1   0   1  325.77   24.16
  -1   0   1  230.96   24.01
  -1   0   1  276.39   24.12
  -1   0  -1  123.03   10.50
   1   0   1  111.59   10.36
   1   0   1  112.87   10.52
   1   0   1  138.66   10.70
   1   0   1  113.88   11.01
  -2   0  -1   27.37    2.84
  -2   0  -1   20.10    2.40
  -2   0  -1   17.80    2.01
   2   0   1   18.74    2.53
   2   0   1   21.41    2.92
   2   0   1   17.12    2.14
  -3   0  -1   24.45    2.69
   3   0   1   23.19    2.90
   3   0   1   28.34    3.51
   3   0   1   29.42    4.01
  -4   0  -1   67.60    6.24
   4   0   1   70.78    7.11
   4   0   1   57.11    6.39
   4   0   1   65.56    7.46
   5   0   1   -1.28    2.51
   5   0   1    0.99    2.83
   6   0   1   28.98    5.24
   5  -1  -1   18.43    4.16
   4  -1  -1   38.11    5.53
   4  -1  -1   48.25    5.33
  -4   1   1   45.45    5.00
   3  -1  -1  179.99   16.40
   3  -1  -1  183.02   16.49
  -3   1   1  177.18   16.19
   2  -1  -1    7.14    1.74
   2  -1  -1    4.48    1.33
  -2   1   1    2.70    1.18
  -2   1   1   -0.44    0.79
  -2   1   1   -0.13    0.86
   1  -1  -1  153.99   14.03
   1  -1  -1  185.53   14.06
  -1   1   1  136.26   14.02
  -1   1   1  161.82   13.97
   0  -1  -1   90.65    7.92
   0   1   1   86.02    7.92
  -1  -1  -1  131.61   10.56
  -1  -1  -1  119.96   10.68
   1   1   1  121.69   10.71
   1   1   1  104.20   10.49
  -2  -1  -1   43.87    5.38
  -2  -1  -1   70.26    5.71
  -2  -1  -1   51.78    5.67
   2   1   1   69.49    6.01
   2   1   1   65.10    5.66
   2   1   1   54.66    5.57
   2   1   1   59.79    6.71
  -3  -1  -1   39.38    4.30
   3   1   1   43.42    4.53
  -4  -1  -1   57.99    6.20
   4   1   1   59.00    6.51
   4   1   1   79.31    7.69
   4   1   1   65.14    6.79
   5   1   1   15.08    4.26
   5   1   1   18.36    3.64
   6   1   1    9.61    4.24
   6   1   1    9.94    3.69
   5  -2  -1   31.53    5.17
   4  -2  -1    6.02    2.16
   4  -2  -1   15.57    3.28
   3  -2  -1  205.03   17.34
   3  -2  -1  176.16   17.32
   2  -2  -1  121.74   10.05
   2  -2  -1   89.20    9.94
  -2   2   1  118.06   10.00
   1  -2  -1  101.63   10.01
  -1   2   1  117.26    9.87
   0  -2  -1  262.11   25.62
   0   2   1  318.98   25.70
   0   2   1  293.21   25.67
  -1  -2  -1  158.09   13.53
   1   2   1  147.46   13.70
   1   2   1  147.93   13.49
  -2  -2  -1  149.07   11.35
  -2  -2  -1  102.28   11.29
   2   2   1  124.43   11.51
   2   2   1  116.73   11.37
   2   2   1  123.71   11.21
  -3  -2  -1   26.21    3.99
   3   2   1   40.50    4.30
   3   2   1   35.82    5.60
   3   2   1   36.46    4.31
   3   2   1   35.48    4.78
  -4  -2  -1    8.96    2.48
   4   2   1    6.34    3.03
   4   2   1    7.10    2.56
   4   2   1    9.77    2.67
   5   2   1   34.59    5.04
   5   2   1   33.81    5.82
   5  -3  -1   25.70    4.75
   4  -3  -1   84.64    8.27
   4  -3  -1   73.59    8.34
   3  -3  -1   11.12    2.33
   3  -3  -1   17.40    2.82
   3  -3  -1    6.29    2.00
   2  -3  -1  175.91   16.92
   2  -3  -1  199.43   17.11
   0  -3  -1    9.61    2.74
   0   3   1   26.47    3.84
   0   3   1   12.20    2.73
  -1  -3  -1  403.58   36.35
  -1  -3  -1  397.66   36.76
   1   3   1  396.89   36.62
   1   3   1  476.83   36.42
   1   3   1  404.84   36.61
  -2  -3  -1   33.72    3.84
  -2  -3  -1   17.92    3.28
   2   3   1   20.74    3.24
  -3  -3  -1   41.30    5.36
   3   3   1   41.13    7.36
   3   3   1   40.38    5.78
   3   3   1   41.49    5.25
   3   3   1   50.05    5.12
  -4  -3  -1   49.36    6.61
   4   3   1   55.39    6.82
   4   3   1   63.64    7.26
   4   3   1   70.85    6.82
   5   3   1   16.17    3.48
   5   3   1   10.24    3.89
   5  -4  -1    7.15    2.75
   5  -4  -1   14.14    3.92
   4  -4  -1   44.89    5.56
   3  -4  -1   91.40    8.56
   3  -4  -1   73.59    8.33
   2  -4  -1   51.63    5.87
   1  -4  -1  136.27   13.02
   0  -4  -1   24.30    4.37
   0   4   1   35.17    4.49
   0   4   1   31.10    5.03
  -1  -4  -1  157.23   13.86
   1   4   1  148.59   13.62
   1   4   1  128.38   13.10
  -2  -4  -1  106.95   11.78
   2   4   1  143.54   11.52
   2   4   1  109.40   11.68
  -3  -4  -1    4.91    2.67
   3   4   1   14.29    5.47
   3   4   1   15.39    3.07
   3   4   1   15.28    3.61
  -4  -4  -1    9.62    3.36
   4   4   1   19.56    4.39
   4   4   1   15.81    5.53
   4   4   1   20.28    3.68
   5   4   1   49.19    6.40
   5   4   1   46.96    7.34
   5  -5  -1   21.88    4.28
   4  -5  -1   16.64    3.65
   3  -5  -1   86.35    8.30
   3  -5  -1   66.09    7.86
   2  -5  -1  186.19   17.54
   1  -5  -1   22.78    4.23
   0  -5  -1  197.12   18.12
   0   5   1  183.75   18.38
   1   5   1   38.93    5.54
  -2  -5  -1  251.34   24.29
   2   5   1  285.84   24.06
   2   5   1  248.40   23.56
  -3  -5  -1   44.86    6.64
   3   5   1   42.75    5.78
   3   5   1   52.39    6.62
  -4  -5  -1   21.32    4.68
   4   5   1   25.42    4.35
   4   5   1   22.90    5.04
   4   5   1   26.26    7.01
   5   5   1   16.44    4.07
   5   5   1   20.88    5.29
   4  -6  -1    5.33    3.03
   3  -6  -1    5.20    2.92
   2  -6  -1  101.52   10.92
   1  -6  -1   88.94   10.00
  -1   6   1   95.85   10.66
   0  -6  -1   66.09    8.57
   0   6   1   76.70    9.78
  -1  -6  -1   72.62    9.69
   1   6   1   96.42    9.53
   1   6   1   97.92   10.09
  -2  -6  -1    5.48    3.41
   2   6   1    9.84    3.69
   2   6   1   10.39    3.65
  -3  -6  -1   49.72    7.33
   3   6   1   55.24    7.19
   3   6   1   43.94    6.25
  -4  -6  -1   20.64    4.96
   4   6   1   22.60    4.34
   4   6   1   21.35    7.07
   4   6   1   18.31    5.08
   4  -7  -1   32.77    5.81
   3  -7  -1   11.76    3.88
   2  -7  -1   20.29    4.51
   1  -7  -1   78.23    9.68
  -1   7   1   92.91   10.94
   0  -7  -1    7.95    4.09
   0   7   1   22.62    6.60
  -1  -7  -1   58.01    8.32
   1   7   1   56.40    8.27
   1   7   1   56.79    7.71
  -2  -7  -1   94.42   10.76
   2   7   1   97.54   10.49
   2   7   1   86.49   10.02
  -3  -7  -1    4.37    3.50
   3   7   1   12.12    3.83
   3   7   1   11.37    4.30
   4   7   1   26.78    4.99
   4   7   1   28.48    5.99
   4   7   1   34.63    8.82
   3  -8  -1   15.09    4.39
   2  -8  -1   29.95    5.79
  -2   8   1   40.25    7.26
   1  -8  -1   11.49    4.35
  -1   8   1   21.86    6.91
   0  -8  -1   31.28    6.16
   0   8   1   31.17    8.10
  -1  -8  -1    8.34    4.29
   1   8   1    8.74    5.06
   1   8   1   14.32    5.46
  -2  -8  -1   34.17    6.70
   2   8   1   43.93    7.05
   2   8   1   37.93    6.32
  -3  -8  -1   82.53    9.71
   3   8   1   61.34    9.16
   3   8   1   74.92    8.69
   2  -9  -1   31.39    5.92
  -2   9   1   21.55    6.93
   1  -9  -1    4.65    4.09
  -1   9   1   11.41    7.26
   0  -9  -1   15.88    4.86
   0   9   1    5.73    5.82
   0   9   1    0.12    6.74
  -1  -9  -1   35.57    6.96
   1   9   1   30.77    7.10
   1   9   1   36.95    7.73
  -2  -9  -1    1.99    4.08
   2   9   1    4.00    4.66
   2   9   1    5.78    5.18
   0 -10  -1   18.53    5.77
   0  10   1   23.77    8.72
   0  10   1   15.76    7.25
   1   9  -2   18.47    6.15
   1   9  -2   19.61    6.86
  -1  -9   2   23.30    6.13
   0   9  -2    4.68    6.09
   0   9  -2    7.61    6.35
   0  -9   2   10.08    4.79
  -1   9  -2    1.86    6.67
   1  -9   2   -0.24    3.63
  -2   9  -2   15.17    6.00
   2  -9   2   12.41    4.50
   3   8  -2    4.49    4.39
   3   8  -2    1.89    4.01
   2   8  -2   31.69    6.18
   2   8  -2   23.99    6.30
   2   8  -2   23.46    6.05
  -2  -8   2   35.39    6.94
   1   8  -2   -1.11    4.90
   1   8  -2    1.24    4.47
  -1  -8   2   -1.37    3.61
   0   8  -2   34.61    7.70
   0   8  -2   39.50    7.61
   0  -8   2   40.28    7.11
  -1   8  -2   30.26    7.50
   1  -8   2   37.31    6.62
  -2   8  -2    8.27    5.02
   2  -8   2   10.05    3.71
   3  -8   2   28.77    5.64
   3   7  -2    0.98    3.78
   3   7  -2    7.84    4.12
  -3  -7   2   13.26    4.94
   2   7  -2    8.47    4.15
   2   7  -2    6.75    4.37
   2   7  -2    0.61    3.70
  -2  -7   2    8.71    4.32
   1   7  -2   29.41    6.29
   1   7  -2   34.07    6.16
  -1  -7   2   33.87    6.23
   0   7  -2    0.81    4.99
   0  -7   2    2.70    3.70
  -1   7  -2   36.12    7.12
   1  -7   2   35.54    6.43
  -2   7  -2   28.86    5.83
   2  -7   2   25.34    5.30
   3  -7   2    7.55    3.44
   4  -7   2   31.02    5.38
   4   6  -2   16.16    4.65
   4   6  -2   27.38    5.83
  -4  -6   2   25.40    5.47
   3   6  -2   68.13    8.41
   3   6  -2   62.75    8.33
  -3  -6   2   76.08    9.09
   2   6  -2   19.09    5.23
   2   6  -2   15.58    4.50
   2   6  -2   10.78    4.36
  -2  -6   2   21.68    5.03
   1   6  -2    8.42    4.35
   1   6  -2    5.42    4.05
  -1  -6   2   10.55    3.95
   0   6  -2   41.58    7.19
   0  -6   2   53.18    7.48
  -1   6  -2   14.54    5.18
   1  -6   2   11.13    3.69
   2  -6   2   45.01    6.63
   3  -6   2   35.06    5.41
   4  -6   2   12.83    3.54
   4   5  -2    2.94    3.81
   4   5  -2    6.75    3.57
  -4  -5   2    5.95    3.49
   3   5  -2   59.40    7.17
   3   5  -2   50.37    6.88
  -3  -5   2   51.25    7.50
   2   5  -2   50.43    6.34
   2   5  -2   30.40    5.67
   2   5  -2   40.51    5.82
  -2  -5   2   33.96    5.96
   1   5  -2   22.10    4.55
   1   5  -2   30.29    4.93
  -1  -5   2   28.55    4.90
   0   5  -2    7.21    4.03
   0  -5   2    7.72    3.33
  -1   5  -2   47.59    6.59
   1  -5   2   43.38    6.20
   2  -5   2    4.52    2.70
   3  -5   2   27.76    4.52
   4  -5   2   40.00    5.55
   5  -5   2    9.95    3.34
   5   4  -2    7.40    4.22
   5   4  -2    9.62    3.96
   4   4  -2   18.85    4.21
   4   4  -2   15.55    4.29
  -4  -4   2   16.84    4.25
   3   4  -2    4.88    3.17
   3   4  -2    1.56    3.14
  -3  -4   2    1.96    2.80
   2   4  -2   59.92    7.32
   2   4  -2   69.17    7.50
  -2  -4   2   79.45    8.09
   1   4  -2   77.16    8.73
   1   4  -2   90.29    8.73
   1   4  -2   84.40    8.61
  -1  -4   2   92.43    9.05
   0   4  -2    3.97    3.31
   0  -4   2    0.75    2.34
   1  -4   2  130.34   12.73
   2  -4   2   38.21    5.05
   3  -4   2    2.47    2.24
   4  -4   2   56.10    6.20
   5  -4   2   12.20    2.95
   5   3  -2    1.50    3.08
   5   3  -2    5.99    3.77
   4   3  -2   13.76    3.88
   4   3  -2   16.37    3.91
  -4  -3   2   12.39    3.70
   3   3  -2   62.23    7.27
   3   3  -2   74.11   10.37
   3   3  -2   60.87    7.36
  -3  -3   2   78.70    7.97
   2   3  -2   26.55    4.02
   2   3  -2   24.63    4.06
   2   3  -2   31.40    4.38
  -2  -3   2   33.97    4.61
   1   3  -2   42.57    4.90
   1   3  -2   38.36    4.84
   1   3  -2   46.36    5.25
  -1  -3   2   44.48    5.24
   0   3  -2  101.48    9.66
   0  -3   2   98.27    9.75
  -1   3  -2   16.89    3.15
   1  -3   2   12.80    3.09
  -2   3  -2  203.56   18.86
   2  -3   2  225.35   19.28
   3  -3   2   27.80    3.51
   4  -3   2    5.46    1.81
   4  -3   2    5.14    1.98
   5  -3   2   54.31    5.60
   5  -3   2   37.33    6.35
   5   2  -2   24.12    5.22
   5   2  -2   23.43    4.51
   4   2  -2   10.28    3.38
   4   2  -2    4.88    2.35
   4   2  -2    8.27    3.04
  -4  -2   2    8.99    3.29
   3   2  -2   31.02    4.77
   3   2  -2   32.64    4.60
  -3  -2   2   39.12    4.99
   2   2  -2  218.89   19.17
   2   2  -2  215.66   19.10
   2   2  -2  189.61   18.96
  -2  -2   2  238.11   19.34
  -2  -2   2  195.27   18.94
   1   2  -2    9.51    2.17
   1   2  -2    7.09    2.28
   1   2  -2    8.95    2.11
  -1  -2   2    8.40    2.23
  -1  -2   2    7.85    2.20
   0   2  -2   54.06    5.22
   0  -2   2   44.42    5.05
   0  -2   2   52.85    5.33
  -2   2  -2  108.61   10.99
  -2   2  -2  135.97   11.79
  -2   2  -2  137.45   11.30
   2  -2   2  105.92   10.94
   3  -2   2  165.74   14.61
   3  -2   2  164.23   14.59
   3  -2   2  157.23   14.98
   4  -2   2   18.16    2.81
   4  -2   2   21.53    3.75
   4  -2   2   20.45    2.84
   5  -2   2    9.47    2.19
   5  -2   2   12.12    3.33
   5   1  -2   22.89    4.34
   5   1  -2   22.64    5.09
   4   1  -2   28.69    4.37
   4   1  -2   24.24    4.69
  -4  -1   2   27.21    4.32
   3   1  -2    6.40    2.27
  -3  -1   2    4.09    2.00
   2   1  -2  137.96   12.39
   2   1  -2  130.74   12.26
   2   1  -2  141.09   12.41
  -2  -1   2  129.56   12.42
  -2  -1   2  140.25   12.26
  -2  -1   2  130.57   13.16
  -2  -1   2  127.42   12.29
   1   1  -2   97.59    9.03
   1   1  -2   99.42    8.96
   1   1  -2  102.49    9.13
  -1  -1   2  104.10    9.04
  -1  -1   2   91.66    9.12
  -1  -1   2   91.61    8.89
   0   1  -2    1.33    1.17
   0   1  -2   -0.24    0.13
   0  -1   2   -0.74    1.13
   0  -1   2   -1.92    1.17
  -1   1  -2  140.58   10.92
  -1   1  -2  118.11   10.97
   1  -1   2  109.78   10.94
  -2   1  -2   46.91    5.00
  -2   1  -2   56.86    5.26
   2  -1   2   51.96    4.79
   2  -1   2   50.77    5.16
   3  -1   2   88.01    8.53
   3  -1   2  103.53    9.08
   4  -1   2   71.87    7.32
   4  -1   2   86.06    8.10
   5  -1   2   26.65    4.52
   6  -1   2   16.91    4.13
   5   0  -2    0.05    2.59
   4   0  -2   35.95    5.06
   4   0  -2   31.42    5.45
   4   0  -2   39.64    5.17
  -4   0   2   42.29    4.85
   3   0  -2   14.08    3.12
   3   0  -2   15.50    2.64
   3   0  -2   13.19    2.78
  -3   0   2   12.90    2.56
   2   0  -2    4.92    1.64
   2   0  -2    3.98    1.59
   2   0  -2    7.48    2.04
  -2   0   2    4.96    1.66
  -2   0   2   -0.61    1.16
  -2   0   2    4.06    1.56
   1   0  -2   99.62    8.92
   1   0  -2  104.60    8.77
   1   0  -2  114.51    8.88
  -1   0   2   88.66    8.76
  -1   0   2   87.87    8.72
  -1   0   2   86.99    8.92
   0   0  -2   67.49    6.21
   0   0   2   72.99    6.23
   0   0   2   68.53    6.32
  -1   0  -2   32.92    3.26
  -1   0  -2   34.81    3.37
  -2   0  -2  144.98   13.46
  -2   0  -2  155.18   13.30
   2   0   2  139.79   13.02
   2   0   2  134.37   13.55
   2   0   2  162.48   14.43
   2   0   2  164.29   13.46
   3   0   2   47.95    5.72
   3   0   2   56.71    5.55
   3   0   2   50.06    4.91
   4   0   2   44.64    5.06
   4   0   2   69.00    6.72
   5   0   2   23.72    4.23
   5   0   2   21.38    4.66
   6   0   2   27.18    5.00
   5  -1  -2   54.07    7.02
   4  -1  -2    1.42    1.83
  -4   1   2    3.53    1.82
   3  -1  -2   58.42    6.08
   3  -1  -2   72.37    6.29
  -3   1   2   46.55    5.75
   2  -1  -2   40.67    3.96
  -2   1   2   31.62    3.77
   1  -1  -2    8.29    1.66
  -1   1   2    7.19    1.44
   0  -1  -2   83.63    8.14
   0   1   2   91.92    8.18
   0   1   2   95.13    7.89
  -1  -1  -2  239.16   18.44
  -1  -1  -2  206.43   18.32
   1   1   2  189.52   18.18
   1   1   2  207.73   18.42
   1   1   2  206.33   18.35
  -2  -1  -2  129.77   12.85
  -2  -1  -2  162.81   13.36
   2   1   2  156.74   13.11
   2   1   2  142.72   13.35
  -3  -1  -2  241.06   21.41
   3   1   2  251.21   23.30
   3   1   2  247.94   21.66
   3   1   2  245.81   21.79
   3   1   2  236.65   22.14
  -4  -1  -2   11.40    1.82
   4   1   2   12.20    3.32
   4   1   2   11.60    2.40
   4   1   2   18.74    3.15
   5   1   2   26.15    5.18
   5   1   2   30.15    4.62
   6   1   2   18.02    4.31
   6   1   2   22.76    5.37
   5  -2  -2   13.99    3.75
   4  -2  -2   44.26    5.32
   4  -2  -2   41.90    5.72
   3  -2  -2   14.42    2.75
   3  -2  -2   10.92    2.29
  -3   2   2   10.74    2.32
   2  -2  -2   26.59    3.07
   2  -2  -2   18.33    2.85
  -2   2   2   24.36    3.17
  -2   2   2   18.94    2.82
   1  -2  -2   86.07    6.66
   1  -2  -2   67.41    6.92
  -1   2   2   61.71    6.62
   0  -2  -2   56.16    6.01
   0   2   2   71.79    6.30
   0   2   2   58.93    6.07
  -1  -2  -2  344.92   30.14
  -1  -2  -2  361.20   30.47
  -1  -2  -2  324.56   30.45
   1   2   2  296.20   30.39
   1   2   2  367.54   30.12
   1   2   2  383.52   30.50
  -2  -2  -2   33.30    4.09
  -2  -2  -2   50.55    4.52
   2   2   2   45.55    4.57
   2   2   2   31.83    4.14
   2   2   2   35.05    3.91
  -3  -2  -2   35.24    4.18
   3   2   2   34.02    6.56
   3   2   2   34.07    4.34
   3   2   2   45.84    4.43
   3   2   2   47.62    5.04
  -4  -2  -2  111.21   10.55
   4   2   2  100.78   11.24
   4   2   2  112.16   10.76
   4   2   2  117.82   10.87
   5   2   2   20.85    4.70
   5   2   2   23.28    3.98
   5  -3  -2   12.64    3.73
   4  -3  -2   51.29    5.72
   4  -3  -2   43.87    5.92
   3  -3  -2   56.90    6.28
   3  -3  -2   61.34    6.35
   2  -3  -2   77.10    7.01
   2  -3  -2   86.21    7.44
   2  -3  -2   56.64    6.95
   1  -3  -2  191.33   16.36
  -1   3   2  170.39   15.93
   0  -3  -2   75.40    7.36
   0   3   2   68.87    7.21
  -1  -3  -2  219.60   21.19
  -1  -3  -2  216.21   21.04
   1   3   2  239.73   20.67
   1   3   2  272.60   21.16
   1   3   2  223.61   21.17
  -2  -3  -2   59.18    6.79
   2   3   2   62.24    6.73
   2   3   2   75.32    6.51
  -3  -3  -2   32.24    4.27
   3   3   2   29.35    4.20
  -4  -3  -2   14.90    3.03
   4   3   2   11.40    5.04
   4   3   2   15.94    3.98
   4   3   2   12.15    3.03
   4   3   2   12.91    3.13
   5   3   2   56.72    6.35
   5   3   2   45.71    7.36
   5  -4  -2   21.75    4.07
   5  -4  -2   20.34    4.63
   4  -4  -2   16.46    3.44
   4  -4  -2   24.90    4.10
   1  -4  -2  125.74   12.05
   0  -4  -2  183.16   18.62
   0   4   2  214.06   18.96
   0   4   2  212.21   18.71
  -1  -4  -2   65.93    7.77
   1   4   2   93.99    7.89
   1   4   2   61.61    7.52
  -2  -4  -2    4.61    2.46
   2   4   2    5.40    2.29
   2   4   2   13.23    2.61
   2   4   2   15.91    3.27
  -3  -4  -2   70.39    7.61
   3   4   2   68.55    7.57
   3   4   2   59.91    7.31
   3   4   2   70.69    7.01
  -4  -4  -2   30.76    5.09
   4   4   2   37.85    7.88
   4   4   2   34.77    4.90
   4   4   2   39.12    5.93
   5   4   2   30.34    4.75
   5   4   2   30.16    5.81
   5  -5  -2   12.48    3.53
   4  -5  -2   59.88    7.03
   3  -5  -2    3.36    2.37
   3  -5  -2    3.94    2.20
   2  -5  -2  108.66   10.92
   1  -5  -2   27.49    4.49
   0  -5  -2   56.64    7.05
   0   5   2   68.56    8.43
  -1  -5  -2  132.41   11.84
   1   5   2   92.35   11.23
   1   5   2  119.84   10.98
  -2  -5  -2   38.12    5.55
   2   5   2   37.10    5.28
  -3  -5  -2   40.69    6.21
   3   5   2   37.18    5.91
   3   5   2   52.31    5.57
   3   5   2   47.40    6.54
  -4  -5  -2   55.69    7.61
   4   5   2   75.44    7.42
   4   5   2   67.51    8.15
   4   5   2   65.54    9.87
   5   5   2    9.67    3.32
   5   5   2   10.12    4.31
   4  -6  -2    9.07    3.28
   3  -6  -2   65.52    7.69
   2  -6  -2    9.87    3.29
   1  -6  -2  156.91   15.21
  -1   6   2  147.57   15.42
   0  -6  -2   26.33    5.07
   0   6   2   47.18    7.18
  -1  -6  -2   24.96    5.38
   1   6   2   58.08    6.94
   1   6   2   43.96    5.65
  -2  -6  -2  136.74   13.79
   2   6   2  132.87   13.45
   2   6   2  132.33   12.92
  -3  -6  -2   10.66    3.93
   3   6   2   24.35    4.77
   3   6   2   26.56    4.16
   4   6   2   54.07   10.63
   4   6   2   51.17    7.74
   4   6   2   62.90    6.90
   4  -7  -2    3.77    3.10
   3  -7  -2   41.35    6.30
   2  -7  -2   47.29    6.98
   1  -7  -2   48.12    7.55
  -1   7   2   82.75    9.62
   0  -7  -2  139.73   14.73
   0   7   2  145.34   15.93
  -1  -7  -2   75.57    9.45
   1   7   2   78.12    9.26
   1   7   2   99.08   10.60
  -2  -7  -2   32.33    6.17
   2   7   2   41.09    5.77
   2   7   2   37.15    6.34
  -3  -7  -2   13.85    4.65
   3   7   2   24.63    4.45
   3   7   2   31.64    5.35
   4   7   2    0.54    3.58
   4   7   2   -1.33    2.88
   4   7   2   -5.26    5.34
   3  -8  -2    4.11    3.43
   2  -8  -2   48.67    7.45
  -2   8   2   45.93    7.79
   1  -8  -2   29.93    5.94
  -1   8   2   34.73    7.72
   0  -8  -2   22.85    5.16
   0   8   2   20.25    7.64
  -1  -8  -2   51.18    7.71
   1   8   2   48.90    7.45
   1   8   2   50.08    8.53
  -2  -8  -2   14.31    4.50
   2   8   2   14.76    4.48
   2   8   2   13.20    4.91
  -3  -8  -2   19.97    5.00
   3   8   2   19.79    4.41
   3   8   2   18.57    5.23
   2  -9  -2   10.25    4.28
  -2   9   2   30.41    7.01
   1  -9  -2   51.91    8.44
  -1   9   2   58.12   10.41
   0  -9  -2   25.01    5.99
   0   9   2   22.61    8.11
  -1  -9  -2   28.01    6.13
   1   9   2   23.98    7.09
   1   9   2   19.48    6.25
  -2  -9  -2   39.00    7.00
   2   9   2   39.64    6.78
   2   9   2   38.80    7.65
   0 -10  -2   63.48    9.44
   0  10   2   59.76    9.80
   0  10   2   48.46   10.88
   1   9  -3    4.06    4.79
   1   9  -3    2.59    5.74
  -1  -9   3    2.06    4.23
   0   9  -3    8.86    6.19
   0   9  -3   -2.67    5.47
   0  -9   3    2.92    4.06
  -1   9  -3   -0.42    6.29
   1  -9   3   11.44    4.72
   2   8  -3    5.19    4.49
   2   8  -3    3.68    4.79
  -2  -8   3   10.46    4.80
   1   8  -3   26.59    5.41
   1   8  -3   27.94    6.19
   1   8  -3   23.80    6.38
  -1  -8   3   41.06    7.11
   0   8  -3    5.32    5.51
   0   8  -3    3.70    5.38
   0  -8   3   14.23    4.90
  -1   8  -3   12.76    6.37
   1  -8   3   20.25    5.36
  -2   8  -3   34.45    6.59
   2  -8   3   27.21    5.88
   3  -8   3    2.15    3.17
   3   7  -3    1.11    3.90
   3   7  -3    0.29    3.72
  -3  -7   3    9.42    4.54
   2   7  -3    3.20    4.01
   2   7  -3   11.33    4.51
  -2  -7   3   17.07    5.17
   1   7  -3    9.64    5.01
   1   7  -3   11.71    4.52
   1   7  -3    9.38    4.16
  -1  -7   3   16.95    4.93
   0   7  -3   47.25    7.60
   0   7  -3   34.82    7.33
   0  -7   3   51.61    7.46
  -1   7  -3    7.97    5.37
   1  -7   3    7.86    3.97
  -2   7  -3   35.75    6.13
   2  -7   3   28.33    5.51
   3  -7   3   22.10    4.66
   4  -7   3   10.18    3.71
   4   6  -3   10.15    4.69
   4   6  -3   11.04    3.98
  -4  -6   3   10.16    4.40
   3   6  -3    3.84    3.93
   3   6  -3    6.48    3.65
  -3  -6   3    5.71    3.73
   2   6  -3   11.73    4.35
   2   6  -3   23.78    4.90
  -2  -6   3   28.81    5.70
   1   6  -3   12.41    4.26
   1   6  -3   17.27    4.96
   1   6  -3   17.46    4.50
  -1  -6   3   16.70    4.53
   0   6  -3   56.73    7.83
   0  -6   3   56.53    7.86
  -1   6  -3   56.66    8.32
   1  -6   3   66.36    8.42
   2  -6   3    3.82    2.76
   3  -6   3   92.29   10.05
   4  -6   3   17.45    3.94
   4   5  -3   21.52    5.24
   4   5  -3   21.49    4.92
  -4  -5   3   29.45    5.75
   3   5  -3    8.50    3.72
   3   5  -3   11.90    3.96
  -3  -5   3   12.18    4.21
   2   5  -3    0.13    3.28
   2   5  -3   -1.81    2.97
  -2  -5   3    3.02    3.06
   1   5  -3   37.85    5.63
   1   5  -3   38.80    5.25
   1   5  -3   39.15    5.80
  -1  -5   3   40.10    5.96
   0   5  -3   29.85    5.32
   0  -5   3   28.37    4.85
  -1   5  -3   56.16    6.83
   1  -5   3   42.31    6.54
   2  -5   3   55.88    6.83
  -3   5  -3    4.09    2.88
   3  -5   3   -1.76    2.26
   4  -5   3   64.27    7.24
   5  -5   3   19.40    3.94
   5   4  -3    5.01    4.08
   5   4  -3    5.50    4.01
   4   4  -3    7.44    3.63
   4   4  -3   11.72    3.93
  -4  -4   3   13.18    3.99
   3   4  -3   36.21    5.96
   3   4  -3   43.97    6.16
  -3  -4   3   47.88    6.41
   2   4  -3    3.29    3.14
   2   4  -3    0.36    2.57
  -2  -4   3    1.40    2.55
   1   4  -3   39.89    5.42
   1   4  -3   46.29    5.40
  -1  -4   3   43.82    5.82
   0   4  -3   29.01    4.32
   0   4  -3   19.89    3.60
   0  -4   3   29.38    4.17
   1  -4   3    0.64    2.33
   2  -4   3   30.80    4.60
  -3   4  -3   61.04    7.53
   3  -4   3   72.55    7.13
   4  -4   3    8.90    2.56
   5  -4   3   52.55    6.14
   5   3  -3   12.30    4.10
   5   3  -3   10.02    4.33
   4   3  -3   37.53    6.07
   4   3  -3   32.39    5.63
  -4  -3   3   48.93    6.61
   3   3  -3   10.10    3.27
   3   3  -3   14.34    3.63
  -3  -3   3   13.12    3.55
   2   3  -3   73.62    7.66
   2   3  -3   76.64    7.78
  -2  -3   3   72.09    7.93
   1   3  -3   25.40    3.65
   1   3  -3   30.27    4.57
   1   3  -3   23.75    3.84
  -1  -3   3   23.86    3.98
   0   3  -3   37.32    4.72
   0  -3   3   38.40    4.68
  -1   3  -3  252.33   21.81
   1  -3   3  231.30   21.79
  -2   3  -3    8.00    2.63
   2  -3   3    2.47    2.11
   3  -3   3   63.27    6.49
   4  -3   3   49.65    5.36
   4  -3   3   51.57    5.33
   5  -3   3   25.77    3.66
   5   2  -3    4.91    3.83
   5   2  -3    6.79    3.33
   4   2  -3   12.82    3.69
   4   2  -3   12.22    3.55
  -4  -2   3    4.06    2.95
   3   2  -3   20.98    4.01
   3   2  -3   25.03    4.17
   3   2  -3   24.62    4.17
  -3  -2   3   30.42    4.50
   2   2  -3   83.61    8.41
   2   2  -3   89.25    8.57
   2   2  -3   81.86    8.48
  -2  -2   3   77.48    8.93
  -2  -2   3   91.83    8.74
   1   2  -3   35.06    4.07
   1   2  -3   42.53    4.63
  -1  -2   3   36.18    4.32
  -1  -2   3   33.17    4.43
  -1  -2   3   44.38    4.92
   0   2  -3    2.86    1.76
   0  -2   3   -0.99    1.57
   0  -2   3    1.92    1.64
  -1   2  -3   95.31    8.12
   1  -2   3   74.25    7.97
  -2   2  -3  113.23   11.23
  -2   2  -3  116.88   11.18
  -2   2  -3  117.94   10.74
   2  -2   3  138.44   11.20
   3  -2   3    9.05    1.68
   3  -2   3    8.35    1.74
   4  -2   3   44.91    4.66
   4  -2   3   46.70    5.77
   4  -2   3   43.53    4.60
   5  -2   3    9.92    2.11
   5  -2   3    6.95    3.07
   5   1  -3   27.87    5.47
   5   1  -3   22.32    4.59
   4   1  -3    6.97    2.93
   4   1  -3    3.18    2.12
   4   1  -3    6.57    3.40
  -4  -1   3    7.28    2.76
   3   1  -3   50.94    5.88
   3   1  -3   48.61    5.99
  -3  -1   3   53.15    6.07
   2   1  -3    2.68    1.84
   2   1  -3    1.55    1.87
   2   1  -3    1.34    1.50
  -2  -1   3    0.26    1.66
  -2  -1   3    0.89    1.69
   1   1  -3  185.10   17.96
   1   1  -3  206.91   17.90
   1   1  -3  209.12   18.17
  -1  -1   3  207.46   17.97
  -1  -1   3  210.32   17.92
  -1  -1   3  195.74   18.19
   0   1  -3  350.98   32.04
   0   1  -3  395.47   32.29
   0  -1   3  358.84   32.07
   0  -1   3  382.89   32.49
  -1   1  -3   13.90    2.08
   1  -1   3   14.09    1.96
  -2   1  -3  306.33   25.72
  -2   1  -3  266.10   25.58
   2  -1   3  330.87   25.41
   2  -1   3  258.99   25.66
   3  -1   3   74.90    6.61
   3  -1   3   60.04    5.84
   3  -1   3   63.03    5.85
   4  -1   3    4.35    1.26
   5  -1   3   42.54    5.75
   6  -1   3    6.97    2.04
   6  -1   3   10.74    3.60
   5   0  -3   33.18    5.29
   4   0  -3   11.81    3.23
   4   0  -3   10.91    3.58
   4   0  -3   14.48    3.11
  -4   0   3   16.64    3.32
   3   0  -3    1.08    1.41
   3   0  -3    0.88    2.15
   3   0  -3    1.33    1.99
  -3   0   3    1.29    1.77
   2   0  -3   81.40    7.90
   2   0  -3   90.41    8.05
   2   0  -3   77.34    7.97
  -2   0   3   84.92    7.85
  -2   0   3   72.99    7.83
  -2   0   3   87.30    8.10
   1   0  -3    0.34    1.28
   1   0  -3   -0.26    1.18
   1   0  -3    2.02    1.38
  -1   0   3    1.08    1.25
  -1   0   3   -0.04    1.37
  -1   0   3    1.40    1.37
   0   0  -3   26.40    2.97
   0   0   3   25.89    3.17
   0   0   3   31.31    2.65
  -1   0  -3  305.12   26.99
  -1   0  -3  361.35   26.95
  -1   0  -3  309.34   26.88
   1   0   3  280.53   26.99
   1   0   3  298.07   26.90
  -2   0  -3    2.88    1.18
  -2   0  -3    2.75    1.44
   2   0   3    0.05    1.34
   2   0   3    1.05    1.56
   3   0   3   72.86    6.44
   3   0   3   59.77    7.24
   3   0   3   73.78    7.07
   3   0   3   71.53    8.38
   4   0   3   34.80    5.41
   4   0   3   37.20    4.85
   4   0   3   35.18    3.80
   5   0   3    3.57    2.76
   5   0   3    2.34    2.92
   6   0   3   28.92    5.21
   5  -1  -3   23.91    4.66
   4  -1  -3   42.84    5.67
  -4   1   3   40.67    5.16
   3  -1  -3    2.45    1.75
   3  -1  -3    3.76    2.14
  -3   1   3    3.59    1.71
   2  -1  -3   10.68    2.31
   2  -1  -3   15.42    2.53
  -2   1   3   15.06    2.48
  -2   1   3   17.28    2.60
  -2   1   3   18.38    2.74
   1  -1  -3  335.07   29.61
   1  -1  -3  353.53   29.85
  -1   1   3  357.32   29.90
  -1   1   3  318.43   29.58
   0  -1  -3    5.23    0.73
   0   1   3    4.91    1.29
   0   1   3    3.58    0.73
  -1  -1  -3  140.43   11.42
  -1  -1  -3  120.53   11.50
  -1  -1  -3  139.88   11.48
  -1  -1  -3  117.19   11.61
   1   1   3  132.23   11.72
   1   1   3  130.69   11.40
   1   1   3  128.45   11.53
  -2  -1  -3   45.73    4.55
   2   1   3   50.90    4.86
   2   1   3   63.54    5.41
  -3  -1  -3   26.24    2.61
   3   1   3   32.75    3.61
   3   1   3   29.85    3.20
   3   1   3   32.51    5.99
   3   1   3   26.80    3.98
   4   1   3   95.60    9.63
   4   1   3   97.18   10.60
   4   1   3  120.76   10.26
   5   1   3   17.77    4.42
   5   1   3   18.61    3.77
   6   1   3   37.09    5.76
   6   1   3   35.46    6.63
   5  -2  -3    6.17    3.22
   4  -2  -3    0.56    1.39
   4  -2  -3   11.74    3.15
  -4   2   3    6.20    2.26
   3  -2  -3   37.66    4.96
   3  -2  -3   42.52    4.81
  -3   2   3   39.05    4.78
   2  -2  -3   20.70    2.73
  -2   2   3   11.45    2.53
  -2   2   3   18.94    2.51
   1  -2  -3  224.22   21.51
   1  -2  -3  282.53   21.98
  -1   2   3  244.60   21.96
  -1   2   3  241.91   21.57
   0  -2  -3  561.66   49.87
   0  -2  -3  553.36   49.91
   0   2   3  609.29   50.02
  -1  -2  -3   81.31    8.10
  -1  -2  -3   94.65    8.33
  -1  -2  -3   95.56    7.80
   1   2   3   91.39    8.34
   1   2   3   73.35    8.09
   1   2   3   82.34    7.71
  -2  -2  -3  133.22   10.51
  -2  -2  -3  105.42   10.53
  -2  -2  -3  121.79   10.84
   2   2   3   94.60   10.55
   2   2   3  126.78   10.47
   2   2   3  108.92   10.86
  -3  -2  -3   76.02    7.65
   3   2   3   85.61    7.85
   3   2   3   76.99    7.89
   3   2   3   91.73    8.57
  -4  -2  -3   37.07    4.50
   4   2   3   42.20    4.96
   4   2   3   56.83    6.11
   4   2   3   40.59    7.78
   4   2   3   55.43    5.39
   5   2   3   77.28    8.81
   5   2   3   67.13    7.71
   5  -3  -3   30.07    5.16
   4  -3  -3    5.04    2.26
   4  -3  -3    7.25    2.89
   3  -3  -3   31.40    4.20
   2  -3  -3   44.64    5.18
   2  -3  -3   48.71    4.93
   1  -3  -3   49.83    4.98
   1  -3  -3   40.58    4.71
  -1   3   3   43.34    4.50
   0  -3  -3  646.28   58.81
   0   3   3  670.68   58.91
   0   3   3  708.21   58.86
  -1  -3  -3  212.54   18.52
  -1  -3  -3  191.07   18.50
   1   3   3  208.86   17.97
   1   3   3  179.62   18.41
   1   3   3  228.65   18.58
  -2  -3  -3   12.98    2.64
   2   3   3   15.92    2.98
   2   3   3    5.80    2.45
  -3  -3  -3   58.45    6.54
   3   3   3   58.54    6.56
   3   3   3   69.63    6.45
   3   3   3   64.11    7.22
  -4  -3  -3    4.68    1.93
   4   3   3    3.53    2.24
   4   3   3    5.17    4.74
   4   3   3    5.51    2.23
   4   3   3    7.12    3.35
   5   3   3   19.95    3.84
   5   3   3   17.84    4.70
   5  -4  -3   15.39    3.62
   5  -4  -3   12.20    4.01
   4  -4  -3   73.95    7.88
   4  -4  -3   67.24    7.76
   3  -4  -3   30.19    3.85
   3  -4  -3   20.32    3.47
   3  -4  -3   16.25    3.45
   2  -4  -3   53.54    5.90
   1  -4  -3   69.15    6.95
  -1   4   3   63.29    6.36
   0  -4  -3   23.28    3.58
   0   4   3   16.70    3.28
   0   4   3   21.20    4.48
  -1  -4  -3  338.77   32.86
   1   4   3  365.51   32.95
   1   4   3  380.50   32.96
   1   4   3  389.89   32.37
  -2  -4  -3  161.73   16.18
  -2  -4  -3  194.08   15.75
   2   4   3  159.36   16.10
   2   4   3  168.51   16.16
   2   4   3  176.36   15.59
  -3  -4  -3   25.14    4.08
   3   4   3   24.85    4.58
   3   4   3   18.34    3.74
   3   4   3   32.18    3.78
  -4  -4  -3   77.90    8.39
   4   4   3   85.90    8.18
   4   4   3   81.66    9.10
   4   4   3   65.98   10.72
   5   4   3   15.35    3.43
   5   4   3   15.88    4.58
   5  -5  -3    4.15    2.91
   4  -5  -3   40.29    5.79
   3  -5  -3   54.91    6.52
   2  -5  -3   12.90    3.04
   1  -5  -3   11.71    3.01
   0  -5  -3   86.39    8.85
   0   5   3   75.56    9.33
  -1  -5  -3   20.90    4.04
   1   5   3   21.26    5.79
   1   5   3   44.06    5.39
  -2  -5  -3  227.79   20.89
   2   5   3  221.05   20.69
   2   5   3  218.01   20.02
   2   5   3  226.03   20.79
  -3  -5  -3   21.45    4.31
   3   5   3   28.52    5.12
   3   5   3   16.47    3.98
   3   5   3   31.46    3.85
  -4  -5  -3   35.11    5.91
   4   5   3   45.97    6.80
   4   5   3   40.79    9.31
   4   5   3   52.94    5.56
   5   5   3   31.80    8.59
   5   5   3   36.75    5.24
   5   5   3   43.19    6.96
   4  -6  -3    4.03    2.96
   3  -6  -3   59.36    7.26
   2  -6  -3   76.89    8.62
   1  -6  -3   34.22    5.74
  -1   6   3   44.55    6.96
   0  -6  -3  123.10   11.80
   0   6   3   94.69   12.51
  -1  -6  -3  149.21   13.60
   1   6   3  115.27   13.52
   1   6   3  130.50   12.69
  -2  -6  -3   57.91    8.09
   2   6   3   64.64    7.11
   2   6   3   73.46    8.04
  -3  -6  -3   87.16    9.95
   3   6   3  100.86    9.52
   3   6   3   86.52   10.03
   4   6   3   12.03    3.25
   4   6   3   14.56    4.35
   4   6   3    7.29    6.39
   4  -7  -3   37.56    6.22
   3  -7  -3   10.11    3.50
   2  -7  -3   37.72    6.11
   1  -7  -3   39.99    6.36
  -1   7   3   43.02    7.42
   0  -7  -3    7.22    3.43
   0   7   3   10.56    6.13
  -1  -7  -3  127.42   12.26
   1   7   3   99.24   12.54
   1   7   3  106.45   11.51
  -2  -7  -3   27.98    5.36
   2   7   3   25.53    5.78
   2   7   3   28.27    4.90
  -3  -7  -3    7.93    3.44
   3   7   3    8.08    3.22
   3   7   3    6.90    3.88
   4   7   3   17.73    4.88
   4   7   3   24.01    4.33
   3  -8  -3   54.63    7.98
   2  -8  -3    6.62    3.80
  -2   8   3   15.26    5.06
   1  -8  -3   66.75    8.53
  -1   8   3   45.00    9.03
   0  -8  -3   -1.26    3.09
   0   8   3    3.45    6.33
  -1  -8  -3   26.74    5.60
   1   8   3   32.35    7.11
   1   8   3   32.63    5.81
  -2  -8  -3   53.08    8.54
   2   8   3   69.08    9.56
   2   8   3   86.76    8.50
  -3  -8  -3   16.63    4.48
   3   8   3   10.41    4.64
   3   8   3   21.91    4.18
   2  -9  -3   27.09    5.85
  -2   9   3   38.58    7.72
   1  -9  -3   12.00    4.53
  -1   9   3   17.73    7.28
   0  -9  -3   61.49    8.93
   0   9   3   51.17   10.45
  -1  -9  -3   15.58    4.80
   1   9   3   18.97    6.63
   1   9   3   11.72    5.35
  -2  -9  -3   16.09    4.86
   2   9   3   14.81    5.81
   2   9   3   15.54    4.84
   0 -10  -3   15.80    5.41
   0  10   3   11.85    6.76
   0  10   3   15.75    8.26
   0   9  -4   -4.57    5.39
   0   9  -4   -2.32    4.90
   0  -9   4    4.33    4.15
  -1   9  -4    2.40    6.29
   1  -9   4   20.94    5.56
   2   8  -4    4.44    4.68
   2   8  -4   -5.15    3.72
  -2  -8   4   17.26    5.73
   1   8  -4   25.05    6.46
   1   8  -4   20.29    5.53
  -1  -8   4   34.19    6.89
   0   8  -4   30.12    6.89
   0   8  -4   29.57    6.61
   0  -8   4   44.25    7.45
  -1   8  -4    3.66    5.71
   1  -8   4   16.48    5.03
  -2   8  -4   22.25    5.97
   2  -8   4   21.55    5.24
  -3   8  -4   25.86    4.80
   3  -8   4    1.48    3.63
   3   7  -4    3.47    4.05
   3   7  -4   -7.98    3.45
  -3  -7   4    2.00    3.91
   2   7  -4   15.30    5.05
   2   7  -4   21.13    4.99
  -2  -7   4   25.43    5.75
   1   7  -4   12.74    5.02
   1   7  -4   11.79    4.36
  -1  -7   4   16.27    4.83
   0   7  -4   29.80    6.55
   0   7  -4   38.95    6.61
   0  -7   4   38.76    6.73
  -1   7  -4   49.93    8.18
   1  -7   4   55.43    8.06
  -2   7  -4   10.29    4.30
   2  -7   4    4.20    3.50
   3  -7   4   17.42    4.43
   3   6  -4   16.73    4.64
   3   6  -4    9.63    4.16
  -3  -6   4   13.87    4.87
   2   6  -4    1.42    3.70
   2   6  -4    4.82    3.61
  -2  -6   4    6.16    3.50
   1   6  -4   46.38    7.37
   1   6  -4   56.98    7.17
  -1  -6   4   68.74    7.93
   0   6  -4    4.97    4.18
   0   6  -4   -2.17    4.21
   0  -6   4   -0.97    2.90
  -1   6  -4   59.47    7.96
   1  -6   4   48.59    7.33
   2  -6   4   65.16    8.53
   3  -6   4    0.68    2.89
   4  -6   4   27.11    4.83
   4   5  -4    3.04    3.78
   4   5  -4    4.25    3.45
  -4  -5   4    0.31    3.38
   3   5  -4   20.62    5.06
   3   5  -4   28.88    5.33
  -3  -5   4   39.42    6.42
   2   5  -4   29.28    4.85
   2   5  -4   16.24    4.61
  -2  -5   4   28.97    5.10
   1   5  -4   50.79    6.64
   1   5  -4   57.43    7.36
  -1  -5   4   68.94    7.46
   0   5  -4  135.60   13.09
   0  -5   4  130.37   13.32
  -1   5  -4    0.58    3.57
   1  -5   4   -1.33    2.49
   2  -5   4   47.04    6.47
   3  -5   4   39.12    5.65
   4  -5   4    8.63    3.14
   5  -5   4   25.33    4.35
   4   4  -4   19.80    4.79
   4   4  -4   15.85    4.37
  -4  -4   4   23.96    5.40
   3   4  -4   39.20    5.86
   3   4  -4   32.81    5.62
  -3  -4   4   38.13    6.11
   2   4  -4   37.32    5.60
   2   4  -4   36.22    5.32
  -2  -4   4   44.20    6.07
   1   4  -4    2.70    3.07
   1   4  -4    4.81    2.60
  -1  -4   4    4.59    2.68
   0   4  -4   91.62    9.34
   0  -4   4   97.74    9.71
  -1   4  -4  119.59   11.65
   1  -4   4  120.66   11.79
   2  -4   4    1.61    2.37
   3  -4   4   25.14    4.16
   4  -4   4    5.90    2.46
   5  -4   4    4.89    2.29
   5   3  -4    1.33    3.59
   5   3  -4    4.55    3.68
   4   3  -4   33.01    5.69
   4   3  -4   35.10    5.91
  -4  -3   4   42.37    6.45
   3   3  -4   32.50    5.00
   3   3  -4   29.92    5.01
  -3  -3   4   32.70    5.29
   2   3  -4   27.70    4.43
   2   3  -4   27.19    4.24
  -2  -3   4   30.67    4.79
   1   3  -4   55.35    6.15
   1   3  -4   50.29    5.66
  -1  -3   4   60.86    6.40
   0   3  -4   19.17    3.31
   0  -3   4   19.79    3.29
   1  -3   4  136.82   12.89
   2  -3   4   91.07    8.96
   3  -3   4    2.57    2.10
   4  -3   4   37.73    4.20
   4  -3   4   35.18    4.32
   5  -3   4    9.52    2.27
   5   2  -4    4.37    4.05
   5   2  -4    4.85    3.49
   4   2  -4    5.05    3.38
   4   2  -4    7.53    3.23
  -4  -2   4    3.37    2.88
   3   2  -4   33.63    4.92
   3   2  -4   30.64    4.88
  -3  -2   4   31.28    4.94
   2   2  -4    4.70    2.61
   2   2  -4   10.25    2.49
  -2  -2   4   11.47    2.90
   1   2  -4    2.87    1.67
   1   2  -4    2.88    1.80
   1   2  -4   -1.27    2.11
  -1  -2   4    0.38    2.52
  -1  -2   4    2.50    2.08
  -1  -2   4    4.15    2.10
   0   2  -4  166.21   14.80
   0  -2   4  164.50   14.81
   0  -2   4  171.22   15.35
  -1   2  -4    0.72    1.69
   1  -2   4    0.59    1.45
  -2   2  -4  130.00   12.01
  -2   2  -4  131.34   12.37
   2  -2   4  145.89   12.34
   3  -2   4   43.07    4.58
   4  -2   4   22.59    2.86
   4  -2   4   26.07    3.00
   5  -2   4   41.85    4.39
   5  -2   4   41.83    6.03
   5   1  -4   23.26    4.80
   5   1  -4   19.85    5.00
   4   1  -4    2.06    2.64
   4   1  -4    2.50    3.15
  -4  -1   4    1.82    2.52
   3   1  -4   17.52    3.65
   3   1  -4   23.34    3.99
  -3  -1   4   22.09    3.97
   2   1  -4  155.01   13.69
   2   1  -4  145.26   13.64
   2   1  -4  152.34   13.84
  -2  -1   4  139.65   13.92
  -2  -1   4  148.88   13.61
   1   1  -4   18.40    2.94
   1   1  -4   27.63    2.72
  -1  -1   4   16.48    2.96
  -1  -1   4   17.36    2.79
  -1  -1   4   17.44    2.58
   0   1  -4   88.85    7.75
   0   1  -4   75.87    7.30
   0  -1   4   93.02    8.03
   0  -1   4   81.43    7.40
  -1   1  -4  494.76   40.82
  -1   1  -4  464.17   40.58
   1  -1   4  449.15   40.82
  -2   1  -4   27.29    3.55
  -2   1  -4   35.31    3.46
   2  -1   4   26.56    4.80
   2  -1   4   34.63    3.24
   3  -1   4   47.92    4.15
   3  -1   4   47.02    5.05
   3  -1   4   40.80    4.05
   4  -1   4    6.19    1.22
   4  -1   4    6.71    1.18
   4  -1   4   10.18    2.75
   5  -1   4   37.76    3.89
   5  -1   4   39.59    5.50
   6  -1   4   20.38    4.43
   5   0  -4    4.43    3.01
   4   0  -4   33.59    5.10
  -4   0   4   39.60    5.46
   3   0  -4   29.40    4.37
   3   0  -4   22.82    3.86
   3   0  -4   31.51    4.33
  -3   0   4   25.87    4.16
   2   0  -4   15.13    2.87
   2   0  -4   21.76    3.08
  -2   0   4   17.55    3.03
  -2   0   4   18.73    2.87
   1   0  -4  167.66   14.11
   1   0  -4  138.93   13.73
  -1   0   4  154.92   13.76
  -1   0   4  160.68   13.77
  -1   0   4  152.12   14.21
   0   0  -4   -0.44    1.32
   0   0  -4    0.31    0.38
   0   0   4    1.02    0.57
   0   0   4   -0.08    1.29
  -1   0  -4    8.99    1.32
  -1   0  -4    5.27    1.31
  -1   0  -4    5.73    1.23
   1   0   4    8.55    1.38
   1   0   4    7.63    1.42
  -2   0  -4  178.32   15.45
  -2   0  -4  178.61   15.23
   2   0   4  177.82   15.36
   2   0   4  162.91   14.90
   2   0   4  167.35   15.50
   3   0   4    0.50    2.02
   3   0   4    1.17    1.75
   3   0   4    2.00    3.12
   4   0   4   61.19    6.20
   4   0   4   51.64    6.81
   4   0   4   50.96    4.99
   5   0   4   13.75    3.88
   5   0   4   13.12    3.37
   6   0   4   20.88    4.34
   5  -1  -4    7.44    3.53
   4  -1  -4   23.06    4.16
  -4   1   4   26.51    4.33
   3  -1  -4   65.28    7.12
   3  -1  -4   76.62    7.41
  -3   1   4   65.58    7.25
   2  -1  -4    8.64    2.15
  -2   1   4   13.21    2.24
  -2   1   4   10.98    2.33
  -2   1   4   11.31    2.29
   1  -1  -4   59.93    5.60
   1  -1  -4   49.30    5.15
  -1   1   4   50.24    5.63
  -1   1   4   59.39    5.21
   0  -1  -4   -0.07    0.15
   0  -1  -4   -0.98    0.69
   0   1   4   -0.26    0.91
   0   1   4    1.53    1.22
  -1  -1  -4   37.71    4.43
  -1  -1  -4   45.24    4.70
  -1  -1  -4   52.43    4.27
  -1  -1  -4   37.58    4.41
   1   1   4   52.79    4.77
   1   1   4   54.09    4.33
  -2  -1  -4   85.20    6.88
  -2  -1  -4   80.05    7.14
  -2  -1  -4   74.68    6.46
  -2  -1  -4   71.70    6.42
   2   1   4   65.05    6.64
   2   1   4   70.88    6.88
   2   1   4   70.43    7.13
   3   1   4   74.16    7.10
   3   1   4   71.11    6.60
   3   1   4   57.97    6.14
   4   1   4    2.46    4.12
   4   1   4    9.77    3.19
   4   1   4    6.47    1.63
   4   1   4    5.62    2.52
   5   1   4   59.55    8.32
   5   1   4   66.66    7.34
   6   1   4   10.40    4.40
   6   1   4    5.28    3.22
   5  -2  -4   18.17    4.44
   4  -2  -4   19.51    4.04
  -4   2   4   20.64    3.90
   3  -2  -4   41.41    5.41
   3  -2  -4   51.83    5.57
  -3   2   4   47.19    5.50
   2  -2  -4  174.88   15.17
  -2   2   4  171.03   15.43
  -2   2   4  155.91   15.11
   1  -2  -4   18.66    1.90
   1  -2  -4   10.07    2.15
  -1   2   4    6.08    2.08
  -1   2   4   10.95    1.74
   0  -2  -4    4.93    1.45
   0   2   4    3.32    1.56
   0   2   4    2.66    0.85
   0   2   4    2.54    2.12
  -1  -2  -4   58.58    5.61
  -1  -2  -4   66.61    6.46
  -1  -2  -4   68.38    5.97
  -1  -2  -4   65.94    6.04
   1   2   4   63.59    6.24
   1   2   4   51.04    5.50
   1   2   4   73.52    6.13
  -2  -2  -4   15.82    2.08
  -2  -2  -4   10.32    2.63
  -2  -2  -4    8.58    1.90
   2   2   4    9.77    2.02
   2   2   4   10.22    2.55
   2   2   4    9.57    1.78
  -3  -2  -4  241.06   22.42
   3   2   4  263.56   23.27
   3   2   4  253.49   22.71
   3   2   4  269.35   22.74
  -4  -2  -4   21.74    2.37
   4   2   4   22.88    6.39
   4   2   4   24.13    3.66
   4   2   4   25.70    3.39
   4   2   4   28.24    4.57
   5   2   4   12.03    3.23
   5   2   4   14.28    4.08
   5  -3  -4    2.23    3.09
   4  -3  -4   31.70    4.94
   3  -3  -4    3.20    1.95
   3  -3  -4    5.76    2.31
   2  -3  -4   30.98    3.97
   2  -3  -4   25.78    3.42
   1  -3  -4  179.49   16.47
  -1   3   4  184.16   16.19
   0  -3  -4    9.79    2.13
   0   3   4    8.02    2.92
  -1  -3  -4   50.11    5.93
  -1  -3  -4   58.83    5.84
   1   3   4   49.40    5.08
   1   3   4   57.76    5.79
   1   3   4   57.82    6.01
  -2  -3  -4   41.08    4.10
  -2  -3  -4   32.95    4.26
   2   3   4   32.64    3.76
   2   3   4   43.72    4.79
   2   3   4   32.33    4.48
  -3  -3  -4   15.18    2.79
   3   3   4   17.25    3.71
   3   3   4   16.31    2.66
   3   3   4   15.29    3.04
  -4  -3  -4   69.95    6.68
   4   3   4   54.75   10.36
   4   3   4   72.77    6.84
   4   3   4   57.65    7.51
   4   3   4   59.00    6.80
   5   3   4    7.55    3.84
   5   3   4    9.83    2.95
   5   3   4    5.60    5.23
   5  -4  -4    6.65    3.47
   4  -4  -4   15.93    3.67
   3  -4  -4   95.45   10.39
   3  -4  -4  114.18   10.35
   2  -4  -4   10.66    2.44
   0  -4  -4  226.44   20.49
   0   4   4  200.21   20.67
   0   4   4  247.85   20.57
  -1  -4  -4   26.59    3.92
   1   4   4   26.49    4.01
   1   4   4   23.11    4.27
   1   4   4   23.21    3.13
  -2  -4  -4  200.09   17.80
  -2  -4  -4  189.04   17.29
   2   4   4  194.00   17.89
   2   4   4  212.22   17.94
   2   4   4  175.88   17.13
  -3  -4  -4   14.84    3.32
   3   4   4   19.24    2.99
   3   4   4   16.84    3.58
   3   4   4   25.11    4.29
  -4  -4  -4   19.63    3.51
   4   4   4   17.65    3.29
   4   4   4   21.70    4.73
   5   4   4   22.24    7.44
   5   4   4   45.23    6.73
   5   4   4   42.56    5.24
   4  -5  -4    4.79    2.79
   3  -5  -4    8.52    2.83
   2  -5  -4   70.98    7.76
   1  -5  -4   20.66    3.73
   0  -5  -4   68.32    7.47
   0   5   4   64.38    8.46
  -1  -5  -4   37.59    5.39
   1   5   4   36.39    4.55
   1   5   4   45.62    5.90
   1   5   4   39.17    6.05
  -2  -5  -4   69.50    7.85
   2   5   4   54.90    7.63
   2   5   4   86.03    7.21
  -3  -5  -4   70.85    7.68
   3   5   4   67.45    8.07
   3   5   4   66.38    7.00
   4   5   4   62.17    6.79
   4   5   4   61.63    8.34
   5   5   4   13.36    3.20
   5   5   4   10.41    4.51
   5   5   4    2.44    5.92
   4  -6  -4   25.94    4.88
   3  -6  -4    5.70    2.81
   2  -6  -4   39.74    5.68
   1  -6  -4   54.93    6.34
  -1   6   4   40.42    7.19
   0  -6  -4    3.70    2.72
   0   6   4    8.06    5.41
  -1  -6  -4  100.59   10.46
   1   6   4   99.83   11.07
   1   6   4   98.72    9.90
  -2  -6  -4   31.07    4.96
   2   6   4   26.21    5.41
   2   6   4   28.09    4.28
  -3  -6  -4   15.94    3.98
   3   6   4   18.34    4.51
   3   6   4   21.63    3.58
   4   6   4   71.06    9.08
   4   6   4   83.50    8.30
   4  -7  -4   10.85    3.74
   3  -7  -4   34.89    5.64
   2  -7  -4   25.98    4.80
   1  -7  -4   49.20    6.76
  -1   7   4   40.11    7.52
   0  -7  -4   62.99    8.03
   0   7   4   76.37   10.45
  -1  -7  -4   23.94    5.29
   1   7   4   36.70    6.92
   1   7   4   35.65    5.35
  -2  -7  -4   75.71    8.65
   2   7   4   68.24    7.85
   2   7   4   70.34    8.87
  -3  -7  -4   39.02    6.39
   3   7   4   41.33    6.85
   3   7   4   49.28    5.88
   4   7   4   10.75    4.35
   4   7   4   20.21    3.78
   3  -8  -4   31.05    5.78
   2  -8  -4   42.20    6.87
  -2   8   4   42.36    7.43
   1  -8  -4   14.31    4.19
  -1   8   4   18.80    6.33
   0  -8  -4   35.43    6.18
   0   8   4   43.40    9.00
  -1  -8  -4   13.17    4.09
   1   8   4   16.38    4.66
   1   8   4   12.41    6.02
  -2  -8  -4   10.20    3.82
   2   8   4   11.19    4.87
   2   8   4   13.66    4.09
  -3  -8  -4   54.80    7.99
   3   8   4   61.36    8.89
   3   8   4   58.07    7.19
   2  -9  -4   34.04    6.26
  -2   9   4   28.00    6.96
   1  -9  -4   30.16    5.90
  -1   9   4   29.65    8.21
   0  -9  -4   10.48    4.29
   0   9   4   10.81    7.51
  -1  -9  -4   63.59    8.30
   1   9   4   44.61    9.25
   1   9   4   49.30    7.66
  -2  -9  -4   28.36    5.96
   2   9   4   25.57    6.69
   2   9   4   43.11    6.08
   0 -10  -4   28.84    6.42
   0  10   4   53.71   10.20
   0  10   4   41.41    7.92
   1   8  -5    6.97    4.36
   1   8  -5    5.12    5.07
  -1  -8   5    7.85    4.57
   0   8  -5   -3.67    4.79
   0   8  -5   -5.89    4.00
   0  -8   5    7.44    4.26
  -1   8  -5    6.65    5.58
   1  -8   5   10.53    4.36
  -2   8  -5    0.93    4.96
   2  -8   5    3.00    3.53
   2   7  -5    2.30    3.89
   2   7  -5    3.04    4.19
  -2  -7   5    8.05    4.32
   1   7  -5   27.23    6.03
   1   7  -5   29.56    5.60
  -1  -7   5   34.83    6.57
   0   7  -5    1.36    4.17
   0   7  -5    2.33    4.89
   0  -7   5    9.16    4.05
  -1   7  -5    1.49    4.89
   1  -7   5    5.51    3.56
  -2   7  -5   19.58    5.16
   2  -7   5   19.16    4.91
   3  -7   5    1.20    3.09
   3   6  -5   18.80    5.02
   3   6  -5   24.37    5.48
  -3  -6   5   20.05    5.44
   2   6  -5    1.83    3.80
   2   6  -5   10.58    4.28
  -2  -6   5   13.40    4.14
   1   6  -5    6.39    3.62
   1   6  -5    5.28    4.30
  -1  -6   5   10.66    4.06
   0   6  -5   10.03    4.82
   0   6  -5    8.77    3.98
   0  -6   5    9.76    3.61
  -1   6  -5   17.10    5.29
   1  -6   5   24.25    4.87
  -2   6  -5    1.58    3.38
   2  -6   5    4.45    3.12
   3  -6   5   24.43    4.96
   4  -6   5    3.71    2.90
   4   5  -5   12.03    4.31
   4   5  -5   10.00    4.39
  -4  -5   5   17.11    5.03
   3   5  -5    3.87    3.70
   3   5  -5    9.05    3.69
  -3  -5   5    8.18    4.02
   2   5  -5   30.28    5.37
   2   5  -5   35.98    5.78
  -2  -5   5   43.35    6.37
   1   5  -5    8.17    3.55
   1   5  -5   13.23    4.24
  -1  -5   5   14.26    4.00
   0   5  -5   47.94    6.34
   0   5  -5   34.59    6.45
   0  -5   5   54.60    6.71
  -1   5  -5   28.52    5.24
   1  -5   5   28.66    4.81
   2  -5   5    7.61    3.28
   3  -5   5   19.95    4.27
   4  -5   5   23.91    4.26
   4   4  -5   44.29    6.61
   4   4  -5   32.11    6.06
  -4  -4   5   40.14    7.00
   3   4  -5   44.01    6.31
   3   4  -5   39.13    6.50
  -3  -4   5   58.34    7.42
   2   4  -5    2.41    3.47
   2   4  -5   12.39    3.32
  -2  -4   5    7.24    3.19
   1   4  -5   56.81    6.86
   1   4  -5   57.80    6.41
  -1  -4   5   53.31    6.63
   0   4  -5   17.79    3.40
   0   4  -5   10.84    3.84
   0  -4   5   12.81    3.20
  -1   4  -5   44.07    5.55
   1  -4   5   43.92    5.46
   2  -4   5   42.34    5.54
   3  -4   5   -2.75    2.13
   4  -4   5   10.49    2.76
   5  -4   5   22.87    3.43
   4   3  -5    6.27    3.63
   4   3  -5    8.94    3.55
  -4  -3   5    8.80    3.84
   3   3  -5   58.82    7.04
   3   3  -5   58.57    6.94
  -3  -3   5   64.11    7.73
   2   3  -5   69.75    7.98
   2   3  -5   74.66    7.93
  -2  -3   5   85.07    8.61
   1   3  -5    5.47    2.26
   1   3  -5   12.16    3.20
  -1  -3   5    9.05    2.65
   0   3  -5   54.51    5.68
   0   3  -5   46.93    6.07
   0  -3   5   59.08    6.14
  -1   3  -5   39.91    4.76
   1  -3   5   46.73    5.14
   2  -3   5   13.52    2.73
   3  -3   5   23.47    3.53
   4  -3   5   -0.51    1.56
   4  -3   5    0.90    1.35
   5  -3   5   20.24    2.83
   5   2  -5   10.73    4.52
   5   2  -5   11.11    4.02
   4   2  -5    7.31    3.59
   4   2  -5    5.44    3.55
  -4  -2   5   13.49    3.90
   3   2  -5    9.69    3.34
   3   2  -5    7.78    3.01
  -3  -2   5   11.65    3.45
   2   2  -5  130.73   12.65
   2   2  -5  132.98   12.48
  -2  -2   5  134.32   13.03
   1   2  -5   65.91    6.96
   1   2  -5   65.01    6.61
  -1  -2   5   71.67    6.88
  -1  -2   5   71.43    7.38
   0   2  -5   25.16    3.66
   0  -2   5   21.61    3.31
  -1   2  -5  175.05   15.50
   1  -2   5  163.69   15.51
  -2   2  -5   20.33    2.60
  -2   2  -5   23.19    2.99
   2  -2   5   20.06    2.87
   3  -2   5   38.14    4.04
   4  -2   5   53.55    5.37
   4  -2   5   59.18    5.41
   5  -2   5    2.29    0.95
   5   1  -5    6.22    3.88
   5   1  -5    4.52    3.40
   4   1  -5   11.08    3.83
   4   1  -5    9.54    3.39
  -4  -1   5    6.30    3.27
   3   1  -5   21.57    4.05
   3   1  -5   24.63    4.23
  -3  -1   5   23.76    4.32
   2   1  -5    9.88    2.49
   2   1  -5    8.78    2.36
  -2  -1   5    9.20    2.37
  -2  -1   5    8.02    2.63
   1   1  -5  199.09   16.66
   1   1  -5  178.07   16.82
   1   1  -5  189.05   17.07
  -1  -1   5  181.81   16.62
  -1  -1   5  189.12   17.27
   0   1  -5    7.61    2.02
   0   1  -5    2.27    1.10
   0   1  -5    2.89    0.82
   0  -1   5    6.31    1.88
  -1   1  -5   70.43    5.82
  -1   1  -5   53.60    5.30
   1  -1   5   55.03    5.78
  -2   1  -5  126.56   10.77
  -2   1  -5  117.74   11.18
  -2   1  -5  113.84   11.16
   2  -1   5  132.74   11.10
   3  -1   5   -0.43    2.75
   4  -1   5   31.36    4.56
   5  -1   5   15.93    3.71
   5   0  -5   13.15    3.97
   4   0  -5    2.63    2.73
  -4   0   5    7.37    2.91
   3   0  -5   50.80    6.04
  -3   0   5   60.59    6.59
   2   0  -5   52.49    5.31
  -2   0   5   45.26    5.18
  -2   0   5   47.50    5.63
   1   0  -5   17.53    2.50
   1   0  -5   20.23    2.75
  -1   0   5   15.98    2.83
  -1   0   5   18.90    2.59
  -1   0   5   14.34    2.25
   0   0  -5  145.44   13.06
   0   0   5  149.66   13.52
  -1   0  -5    1.56    1.02
  -1   0  -5    0.79    1.01
   1   0   5    0.70    0.93
   1   0   5    0.93    1.21
  -2   0  -5  287.29   25.93
  -2   0  -5  304.07   26.11
   2   0   5  302.90   25.78
   2   0   5  292.27   26.17
   3   0   5   63.54    6.23
   3   0   5   63.12    6.71
   3   0   5   56.24    7.75
   4   0   5   10.40    3.36
   4   0   5    9.89    2.66
   5   0   5   32.88    4.88
   5   0   5   34.47    5.70
   5  -1  -5   23.80    4.90
   4  -1  -5   18.35    3.81
  -4   1   5   22.66    4.21
   3  -1  -5   17.61    3.29
  -3   1   5   17.46    3.54
   2  -1  -5   77.04    7.81
   2  -1  -5   77.86    7.47
  -2   1   5   79.48    7.60
  -2   1   5   72.77    7.86
   1  -1  -5   21.76    2.75
  -1   1   5   26.31    2.87
  -1   1   5   21.74    2.75
  -1   1   5   22.30    3.22
   0  -1  -5   10.58    1.54
   0   1   5   11.14    1.69
   0   1   5   16.86    2.20
   0   1   5   20.53    2.50
  -1  -1  -5   61.42    5.01
  -1  -1  -5   50.26    4.58
  -1  -1  -5   44.67    5.11
   1   1   5   53.32    5.07
   1   1   5   46.83    4.93
  -2  -1  -5   16.80    2.82
  -2  -1  -5   19.54    2.31
  -2  -1  -5   17.29    1.95
  -2  -1  -5   18.38    1.85
   2   1   5   17.65    2.83
   2   1   5   17.76    2.38
   3   1   5  173.66   16.54
   3   1   5  167.47   15.62
   3   1   5  202.57   16.28
   4   1   5   38.15    3.79
   4   1   5   36.41    7.60
   4   1   5   38.44    4.98
   4   1   5   38.53    5.60
   5   1   5    4.85    3.38
   5   1   5    4.37    2.77
   5  -2  -5    3.40    3.24
   4  -2  -5   45.39    6.23
  -4   2   5   50.32    6.53
   3  -2  -5   -0.69    2.03
  -3   2   5   -0.26    2.02
   2  -2  -5   38.21    4.61
   2  -2  -5   50.97    5.10
  -2   2   5   42.60    5.03
   1  -2  -5  115.51   10.34
   1  -2  -5  118.87   10.78
  -1   2   5  115.26   10.32
  -1   2   5  107.38   10.83
   0   2   5   21.88    3.07
   0   2   5   17.90    1.87
   0   2   5   19.22    2.90
  -1  -2  -5   96.20    9.05
  -1  -2  -5  107.59    9.50
  -1  -2  -5  114.21    9.86
  -1  -2  -5  103.19    9.52
   1   2   5  103.17    9.03
   1   2   5  104.37    9.77
  -2  -2  -5  111.43    9.12
  -2  -2  -5  105.18    9.07
  -2  -2  -5   98.70    9.61
  -2  -2  -5  100.79    9.26
   2   2   5   87.48    9.46
   2   2   5   92.93    9.18
   2   2   5   99.15    9.05
  -3  -2  -5   19.61    2.28
  -3  -2  -5   19.43    2.12
   3   2   5   23.71    2.98
   3   2   5   18.08    2.73
   3   2   5   22.10    3.78
   4   2   5   58.57   10.88
   4   2   5   66.45    7.16
   4   2   5   82.86    8.41
   4   2   5   81.04    7.55
   5   2   5   20.94    4.90
   5   2   5   28.18    4.37
   5   2   5   23.88    7.02
   5  -3  -5   10.24    3.76
   4  -3  -5    2.96    2.83
  -4   3   5    5.88    2.68
   3  -3  -5   21.32    3.54
  -3   3   5   17.32    3.65
   2  -3  -5   12.32    2.24
  -2   3   5    7.53    2.43
   1  -3  -5   28.16    5.20
   1  -3  -5   40.60    3.72
  -1   3   5   37.89    3.72
  -1   3   5   25.63    4.28
   0  -3  -5  346.18   30.22
   0  -3  -5  365.66   30.32
   0   3   5  325.14   29.63
   0   3   5  336.17   30.31
  -1  -3  -5    8.66    3.00
  -1  -3  -5   10.46    2.46
  -1  -3  -5   10.04    2.10
   1   3   5   11.93    2.98
   1   3   5    5.41    1.32
   1   3   5    9.78    2.19
  -2  -3  -5  140.62   12.06
  -2  -3  -5  138.05   12.46
   2   3   5  145.88   12.80
   2   3   5  140.28   12.48
   2   3   5  112.50   11.92
  -3  -3  -5   70.34    7.16
   3   3   5   74.77    7.95
   3   3   5   68.30    7.00
   3   3   5   78.23    7.40
  -4  -3  -5    5.14    1.90
   4   3   5   13.06    2.79
   4   3   5    7.18    2.56
   4   3   5   14.83    3.87
   5   3   5   39.51    4.94
   5   3   5   20.47    7.34
   5   3   5   36.27    6.10
   5  -4  -5   18.83    4.46
   4  -4  -5   18.40    3.91
   3  -4  -5    3.37    2.34
   2  -4  -5   37.75    4.65
   1  -4  -5    9.77    2.29
  -1   4   5   -0.40    0.98
   0  -4  -5   76.11    7.78
   0   4   5   76.81    8.41
  -1  -4  -5  166.46   15.58
   1   4   5  163.40   15.77
   1   4   5  154.59   14.81
   1   4   5  195.13   15.81
  -2  -4  -5   24.83    3.41
  -2  -4  -5   20.79    3.57
   2   4   5   18.50    3.95
   2   4   5   24.17    3.70
   2   4   5   20.78    2.74
  -3  -4  -5  145.37   14.50
   3   4   5  155.42   15.06
   3   4   5  164.36   14.76
   3   4   5  155.94   14.18
   4   4   5   34.13    5.87
   4   4   5   31.05    4.29
   5   4   5   12.69    4.48
   5   4   5   17.40    3.51
   5   4   5    3.77    6.00
   4  -5  -5   17.20    3.93
   3  -5  -5   18.78    3.76
   2  -5  -5   20.57    3.84
   1  -5  -5   94.55    9.62
   0  -5  -5    3.72    2.19
   0   5   5   11.58    4.34
  -1  -5  -5   97.36   10.04
   1   5   5  120.74   10.46
   1   5   5   84.30   10.48
   1   5   5   97.80    9.36
  -2  -5  -5   79.05    8.18
   2   5   5   73.20    7.25
   2   5   5   72.19    8.45
  -3  -5  -5    2.42    2.39
   3   5   5    6.41    3.66
   3   5   5    4.48    2.05
   3   5   5    3.94    2.59
   4   5   5  114.70   12.86
   4   5   5  129.78   11.91
   5   5   5   15.71    3.31
   5   5   5   12.09    4.71
   5   5   5    0.47    6.21
   4  -6  -5    6.94    3.35
   3  -6  -5   35.23    5.55
   2  -6  -5    3.70    2.63
   1  -6  -5   73.28    8.03
  -1   6   5   70.61    8.97
   0  -6  -5   52.37    6.57
   0   6   5   39.00    7.61
  -1  -6  -5   21.15    4.17
   1   6   5   26.45    4.12
   1   6   5   31.30    5.94
  -2  -6  -5   83.62    9.06
   2   6   5   84.16    8.22
   2   6   5   81.23    9.36
  -3  -6  -5   56.82    6.95
   3   6   5   53.57    7.64
   3   6   5   64.01    6.37
   4   6   5   16.01    3.33
   4   6   5   13.30    4.26
   3  -7  -5   10.45    3.72
   2  -7  -5   37.92    5.90
   1  -7  -5    7.37    3.27
  -1   7   5   12.88    5.18
   0  -7  -5   73.13    8.69
   0   7   5   77.82   10.67
  -1  -7  -5   64.49    7.62
   1   7   5   58.17    7.28
   1   7   5   60.60    9.05
  -2  -7  -5   18.42    4.22
   2   7   5   20.02    3.88
   2   7   5   26.57    5.50
  -3  -7  -5   75.37    8.91
   3   7   5   83.42    9.70
   3   7   5   80.08    8.19
   4   7   5   18.62    5.00
   4   7   5   16.59    3.70
   3  -8  -5    2.80    3.35
   2  -8  -5   11.98    3.79
  -2   8   5   11.37    4.70
   1  -8  -5   24.51    4.99
  -1   8   5   17.59    6.40
   0  -8  -5    3.93    3.17
   0   8   5    1.50    5.90
  -1  -8  -5   45.98    7.35
   1   8   5   44.23    8.54
   1   8   5   58.58    7.03
  -2  -8  -5   43.75    6.65
   2   8   5   49.26    6.18
   2   8   5   41.06    7.59
  -3  -8  -5   25.59    4.91
   3   8   5   22.44    5.74
   3   8   5   26.84    4.49
   2  -9  -5   14.34    4.52
  -2   9   5    9.42    5.51
   1  -9  -5   38.37    6.39
  -1   9   5   37.25    8.69
   0  -9  -5   54.57    7.83
   0   9   5   53.65   10.12
  -1  -9  -5   14.71    4.50
   1   9   5   12.51    4.92
   1   9   5   18.84    6.74
  -2  -9  -5   43.74    6.90
   2   9   5   28.29    7.26
   2   9   5   40.29    6.18
   0 -10  -5   33.49    6.39
   0  10   5   24.64    8.73
   1   8  -6    2.95    4.13
   1   8  -6    5.00    5.23
  -1  -8   6   16.01    5.42
   0   8  -6   15.21    5.05
   0   8  -6    9.36    5.73
   0  -8   6   20.24    5.49
  -1   8  -6   -1.42    5.03
   1  -8   6    4.49    3.96
  -2   8  -6   18.37    6.02
   2  -8   6   15.53    4.85
   2   7  -6    7.75    4.86
   2   7  -6    7.95    3.99
  -2  -7   6    7.01    4.29
   1   7  -6    5.87    3.85
   1   7  -6   -3.67    4.37
  -1  -7   6    4.24    3.93
   0   7  -6    5.72    5.11
   0   7  -6    5.64    4.06
   0  -7   6   11.62    4.55
  -1   7  -6    2.13    4.78
   1  -7   6    4.87    3.65
  -2   7  -6   28.00    5.85
   2  -7   6   23.14    5.35
   3  -7   6   30.56    5.78
   3   6  -6    1.25    3.90
   3   6  -6   -1.04    3.63
  -3  -6   6    1.51    3.84
   2   6  -6    3.84    4.06
   2   6  -6    7.93    3.82
  -2  -6   6    8.89    3.72
   1   6  -6   16.16    4.75
   1   6  -6    7.73    4.02
  -1  -6   6   16.80    4.56
   0   6  -6    1.01    4.17
   0   6  -6    0.02    3.38
   0  -6   6    1.59    3.03
  -1   6  -6   15.24    5.15
   1  -6   6   24.29    4.85
  -2   6  -6    2.41    3.51
   2  -6   6    2.79    3.03
   3  -6   6   22.96    4.69
   4  -6   6   42.99    6.23
   3   5  -6    5.35    3.63
   3   5  -6    2.01    3.63
  -3  -5   6    5.28    3.80
   2   5  -6    0.44    2.95
   2   5  -6    3.65    3.76
  -2  -5   6   -0.02    3.12
   1   5  -6   24.28    4.49
   1   5  -6   32.89    5.49
  -1  -5   6   24.09    4.72
   0   5  -6   23.28    5.24
   0   5  -6   15.48    4.08
   0  -5   6   23.83    4.50
  -1   5  -6    6.04    3.94
   1  -5   6    3.55    2.86
   2  -5   6   31.79    5.05
   3  -5   6    2.07    2.54
   4  -5   6   23.40    4.22
   4   4  -6    4.33    3.50
   4   4  -6    1.43    3.49
  -4  -4   6   -2.49    3.38
   3   4  -6   12.09    3.52
   3   4  -6    8.35    4.00
  -3  -4   6   15.99    4.41
   2   4  -6   16.40    4.24
   2   4  -6   19.95    3.91
  -2  -4   6   22.20    4.51
   1   4  -6    8.31    3.82
   1   4  -6    3.45    2.70
  -1  -4   6    5.57    2.75
   0   4  -6   82.13    8.35
   0   4  -6   82.60    8.85
   0  -4   6   76.65    8.78
  -1   4  -6   26.86    4.52
   1  -4   6   23.39    4.19
   2  -4   6   15.32    3.30
   3  -4   6   65.69    7.18
   4  -4   6    1.00    1.86
   5  -4   6   12.51    2.43
   4   3  -6   14.32    4.46
   4   3  -6   24.70    4.84
  -4  -3   6   28.78    5.78
   3   3  -6    5.73    2.94
   3   3  -6    6.53    3.39
  -3  -3   6    5.68    3.41
   2   3  -6   24.60    4.71
   2   3  -6   28.25    4.20
  -2  -3   6   32.31    5.10
   1   3  -6    1.50    2.95
   1   3  -6   -2.59    1.75
  -1  -3   6   -0.32    2.12
  -1  -3   6   -1.67    1.57
   0   3  -6   20.75    3.14
   0   3  -6   21.03    4.00
   0  -3   6   20.56    3.50
  -1   3  -6   32.03    4.18
   1  -3   6   35.12    4.71
  -2   3  -6    4.23    1.94
   2  -3   6    4.88    2.12
   3  -3   6   25.02    3.55
   4  -3   6   46.77    4.94
   5  -3   6   -1.37    0.85
   4   2  -6   28.34    5.51
   4   2  -6   31.79    5.54
  -4  -2   6   38.05    6.34
   3   2  -6   27.51    4.66
   3   2  -6   26.91    4.73
  -3  -2   6   33.74    5.68
   2   2  -6   19.11    3.31
   2   2  -6   16.01    3.73
  -2  -2   6   17.01    3.84
   1   2  -6   43.71    4.78
   1   2  -6   44.25    5.35
  -1  -2   6   49.56    5.65
  -1  -2   6   46.45    5.09
   0   2  -6    1.20    1.13
   0   2  -6    0.99    2.48
   0  -2   6    0.40    1.76
   1  -2   6   35.31    4.41
  -2   2  -6   89.44    8.06
   2  -2   6  103.93    8.49
   2  -2   6   70.52    8.50
   3  -2   6    3.49    1.57
   4  -2   6   44.94    4.19
   4  -2   6   41.29    4.13
   5   1  -6    9.09    3.98
   4   1  -6    2.30    3.13
   4   1  -6    0.30    2.84
  -4  -1   6   -0.85    2.51
   3   1  -6   38.18    5.40
   3   1  -6   34.77    5.36
  -3  -1   6   43.00    5.89
   2   1  -6    9.82    2.78
   2   1  -6   12.50    2.66
  -2  -1   6    9.83    2.52
  -2  -1   6   12.32    3.22
   1   1  -6   19.13    3.19
   1   1  -6   24.51    2.70
  -1  -1   6   10.02    3.12
  -1  -1   6   18.52    2.64
  -1  -1   6   21.62    3.54
   0   1  -6   22.82    3.50
   0  -1   6   27.76    3.69
  -1   1  -6   82.54    7.75
  -1   1  -6  101.10    8.43
   1  -1   6   83.89    8.41
  -2   1  -6    7.13    1.66
  -2   1  -6    5.66    1.66
   2  -1   6    5.00    1.47
   3  -1   6   59.90    5.29
   3  -1   6   52.44    7.40
   5  -1   6   40.73    5.77
   5   0  -6   16.17    4.09
   4   0  -6   43.26    5.94
  -4   0   6   43.37    6.45
   3   0  -6    7.79    2.73
  -3   0   6    9.98    3.04
   2   0  -6   42.53    4.99
  -2   0   6   43.95    4.90
  -2   0   6   45.98    5.56
   1   0  -6    7.04    1.86
  -1   0   6    9.20    2.55
  -1   0   6    7.18    1.69
   0   0  -6   67.37    6.54
   0   0  -6   66.32    6.24
   0   0   6   64.30    6.80
  -1   0  -6  139.95   12.55
  -1   0  -6  157.18   12.92
   1   0   6  142.96   13.03
   1   0   6  134.83   12.50
  -2   0  -6    8.31    1.64
  -2   0  -6   11.80    1.40
  -2   0  -6    7.74    1.97
  -2   0  -6    7.90    1.12
   2   0   6   10.00    1.62
   2   0   6    6.63    1.93
   3   0   6   25.33    3.89
   3   0   6   24.16    3.53
   4   0   6   18.95    4.09
   4   0   6   18.90    3.49
   4   0   6   21.16    5.90
   5   0   6    0.81    2.98
   5   0   6   -0.10    2.47
   5  -1  -6    2.49    3.25
   4  -1  -6   16.78    3.75
  -4   1   6   17.10    4.04
   3  -1  -6   46.98    5.22
  -3   1   6   34.79    5.46
   2  -1  -6   11.58    2.34
  -2   1   6   12.27    2.87
   1  -1  -6  169.86   15.51
  -1   1   6  174.58   15.50
  -1   1   6  169.45   16.12
  -1   1   6  183.94   15.62
   0  -1  -6    5.15    1.18
   0   1   6    6.45    1.99
   0   1   6    8.21    1.70
  -1  -1  -6  110.03    9.77
  -1  -1  -6  114.76   10.22
  -1  -1  -6  121.72   10.27
   1   1   6  106.08   10.05
   1   1   6  107.23   10.30
  -2  -1  -6  139.73   11.22
  -2  -1  -6  119.64   11.19
  -2  -1  -6  125.90   11.25
  -2  -1  -6  125.20   11.62
   2   1   6  109.04   11.53
   2   1   6  126.20   11.38
   2   1   6  135.54   11.42
   3   1   6   17.74    3.25
   3   1   6   15.31    2.61
   4   1   6   13.51    6.25
   4   1   6   15.10    3.15
   4   1   6   22.00    4.07
   5   1   6   32.71    5.67
   5   1   6   32.71    4.80
   5  -2  -6   14.55    4.26
   4  -2  -6   -0.84    2.59
  -4   2   6    0.35    2.53
   3  -2  -6   36.37    5.05
  -3   2   6   44.85    5.67
   2  -2  -6   27.48    3.60
  -2   2   6   28.14    4.21
   1  -2  -6   81.45    7.31
  -1   2   6   76.13    7.25
  -1   2   6   78.02    7.91
   0  -2  -6  184.76   16.74
   0   2   6  208.62   17.38
   0   2   6  198.17   16.77
   0   2   6  183.15   17.59
  -1  -2  -6   21.42    2.55
  -1  -2  -6   16.43    3.27
  -1  -2  -6   21.06    2.69
   1   2   6   15.33    3.13
   1   2   6   18.20    2.80
  -2  -2  -6   38.28    4.04
  -2  -2  -6   39.60    4.00
  -2  -2  -6   41.50    4.76
  -2  -2  -6   40.10    4.14
   2   2   6   38.04    4.03
   2   2   6   46.34    4.89
  -3  -2  -6   16.37    2.61
  -3  -2  -6   13.84    1.55
   3   2   6   16.82    2.65
   3   2   6   19.78    3.46
   3   2   6   13.79    2.07
   4   2   6    6.93    2.46
   4   2   6    3.28    2.94
   4   2   6    5.01    1.51
   5   2   6    7.78    5.61
   5   2   6   11.37    3.32
   5   2   6    8.23    3.69
   5  -3  -6   16.62    4.35
   4  -3  -6   34.94    5.13
  -4   3   6   33.19    5.38
   3  -3  -6    2.95    2.31
  -3   3   6    0.90    2.40
   2  -3  -6  129.52   12.38
  -2   3   6  141.70   13.17
   1  -3  -6   50.18    5.00
  -1   3   6   52.20    5.04
  -1   3   6   54.79    5.96
   0  -3  -6  127.45   11.31
   0   3   6  113.77   10.63
   0   3   6  130.03   11.62
  -1  -3  -6  122.73   11.16
  -1  -3  -6  115.42   10.90
   1   3   6  123.11   11.16
   1   3   6  111.27   10.16
  -2  -3  -6    4.16    1.67
  -2  -3  -6    1.58    1.69
   2   3   6    2.23    2.55
   2   3   6    6.27    1.78
   2   3   6    6.34    1.40
  -3  -3  -6   49.00    5.21
   3   3   6   50.49    5.33
   3   3   6   49.08    5.24
   3   3   6   51.96    6.27
   4   3   6   46.04    6.31
   4   3   6   33.19    4.61
   4   3   6   51.09    5.14
   5   3   6    7.82    3.85
   5   3   6   -3.91    4.80
   4  -4  -6   17.89    3.85
   3  -4  -6   26.06    4.02
   2  -4  -6    9.49    2.30
   1  -4  -6   95.70    9.42
   0  -4  -6   41.52    5.03
   0   4   6   49.67    6.27
   0   4   6   45.24    4.40
  -1  -4  -6   46.20    5.43
   1   4   6   55.09    6.18
   1   4   6   45.76    4.69
   1   4   6   57.35    5.68
  -2  -4  -6   59.35    6.64
  -2  -4  -6   70.08    7.00
   2   4   6   72.92    7.51
   2   4   6   62.58    6.28
   2   4   6   72.59    7.15
  -3  -4  -6    5.97    2.15
   3   4   6   10.26    3.46
   3   4   6    6.76    2.46
   4   4   6   46.74    7.08
   4   4   6   50.10    5.64
   5   4   6    8.78    6.89
   5   4   6   16.75    3.58
   5   4   6   15.33    4.68
   4  -5  -6    3.28    2.85
   4  -5  -6    5.66    3.17
   3  -5  -6   44.57    6.01
   2  -5  -6   16.56    3.50
   1  -5  -6   70.99    7.87
  -1   5   6   76.37    7.36
   0  -5  -6  178.13   17.02
   0   5   6  194.05   16.38
   0   5   6  169.44   17.60
  -1  -5  -6   30.58    4.63
   1   5   6   43.15    6.02
   1   5   6   29.34    3.83
   1   5   6   39.27    6.84
  -2  -5  -6  132.97   12.11
   2   5   6  131.24   12.49
   2   5   6  111.99   11.12
  -3  -5  -6   43.03    6.01
   3   5   6   51.36    6.16
   3   5   6   46.58    5.18
   3   5   6   54.40    7.05
   4   5   6   27.97    5.28
   4   5   6   18.73    3.51
   5   5   6   41.34    5.68
   5   5   6   41.03    7.21
   4  -6  -6   23.95    4.94
   3  -6  -6    9.90    3.23
   2  -6  -6   41.42    5.96
   1  -6  -6   21.84    4.01
  -1   6   6   21.62    5.27
   0  -6  -6   59.10    7.00
   0   6   6   60.81    8.72
  -1  -6  -6  186.47   17.12
   1   6   6  169.76   17.46
   1   6   6  178.22   16.18
  -2  -6  -6    7.89    2.90
   2   6   6   11.27    2.49
   2   6   6   11.94    4.12
  -3  -6  -6   39.43    6.06
   3   6   6   55.90    7.13
   3   6   6   46.40    5.28
   4   6   6    9.34    3.97
   4   6   6   11.30    3.00
   3  -7  -6   23.86    4.80
   2  -7  -6   15.72    4.08
   1  -7  -6   40.06    5.70
  -1   7   6   32.50    6.64
   0  -7  -6   -0.10    2.72
   0   7   6    1.12    5.52
  -1  -7  -6   64.02    7.35
   1   7   6   52.11    6.62
   1   7   6   52.24    8.60
  -2  -7  -6   52.56    6.86
   2   7   6   48.32    5.44
   2   7   6   40.30    7.23
  -3  -7  -6    8.96    3.32
   3   7   6    8.96    2.62
   3   7   6    7.56    4.06
   4   7   6   28.87    5.87
   4   7   6   33.32    4.72
   3  -8  -6   32.72    5.71
   2  -8  -6   23.30    4.72
  -2   8   6   23.32    5.63
   1  -8  -6   21.18    5.09
  -1   8   6   40.92    7.43
   0  -8  -6   79.94    8.89
   0   8   6   60.92   10.68
  -1  -8  -6    5.51    3.10
   1   8   6    9.37    3.75
   1   8   6    5.88    5.46
  -2  -8  -6   67.94    8.18
   2   8   6   49.43    8.37
   2   8   6   52.67    6.39
   3   8   6   62.69    9.21
   3   8   6   63.94    7.09
   2  -9  -6   47.64    7.47
  -2   9   6   36.39    7.79
   1  -9  -6    6.00    3.52
  -1   9   6    1.29    5.81
   0  -9  -6   29.76    5.63
   0   9   6   34.51    8.68
  -1  -9  -6   44.49    7.11
   1   9   6   25.92    7.74
   1   9   6   41.74    6.25
  -2  -9  -6    1.66    3.15
   2   9   6    5.54    3.61
   2   9   6    3.18    4.82
   1   7  -7   10.38    4.05
   1   7  -7   -0.81    4.40
  -1  -7   7   11.37    4.33
   0   7  -7   -1.47    4.78
   0   7  -7    0.48    3.51
   0  -7   7    0.32    3.50
  -1   7  -7   19.33    5.59
   1  -7   7   25.98    5.66
  -2   7  -7    8.16    4.90
   2  -7   7   11.81    4.29
   2   6  -7   -0.32    3.23
   2   6  -7    3.32    4.28
  -2  -6   7    2.74    3.74
   1   6  -7   38.84    5.76
   1   6  -7   39.16    6.58
  -1  -6   7   40.57    6.58
   0   6  -7   20.36    5.42
   0   6  -7   18.27    4.42
   0  -6   7   19.19    4.74
  -1   6  -7    2.98    4.12
   1  -6   7    5.49    3.42
  -2   6  -7   28.24    5.34
   2  -6   7   30.55    5.43
   3  -6   7    5.84    3.34
   3   5  -7   13.25    4.59
   3   5  -7   11.25    3.68
  -3  -5   7   10.58    4.55
   2   5  -7    9.84    4.06
   2   5  -7    6.45    3.46
  -2  -5   7   13.03    4.11
   1   5  -7    9.84    4.31
   1   5  -7    6.10    3.23
  -1  -5   7    9.11    3.44
   0   5  -7   57.90    7.55
   0   5  -7   57.05    6.57
   0  -5   7   46.21    6.94
  -1   5  -7   22.15    5.00
   1  -5   7   26.20    4.90
  -2   5  -7    9.24    3.34
   2  -5   7    0.05    2.63
   3  -5   7   26.69    4.52
   4  -5   7    7.49    2.65
   4   4  -7    8.20    4.26
   4   4  -7   14.37    4.36
  -4  -4   7   10.96    4.68
   3   4  -7    1.24    3.53
   3   4  -7    6.55    3.15
  -3  -4   7    6.18    3.80
   2   4  -7   31.36    5.48
   2   4  -7   32.50    4.78
  -2  -4   7   34.50    5.70
   1   4  -7   22.59    3.79
   1   4  -7   29.70    5.06
  -1  -4   7   26.92    4.76
   0   4  -7    6.33    2.60
   0   4  -7   11.18    4.19
   0  -4   7   10.02    2.99
  -1   4  -7   87.36    8.91
   1  -4   7   87.68    9.45
   2  -4   7   26.24    4.45
   3  -4   7   16.78    3.39
   4  -4   7   22.31    3.59
   4   3  -7    4.06    3.58
   4   3  -7    9.55    3.86
  -4  -3   7   14.78    5.00
   3   3  -7   13.85    3.78
   3   3  -7   18.85    4.32
  -3  -3   7   26.88    5.06
   2   3  -7   -0.77    3.06
   2   3  -7    0.99    2.20
  -2  -3   7    2.29    2.82
   1   3  -7   30.90    4.03
   1   3  -7   33.52    5.00
  -1  -3   7   29.26    4.86
   0   3  -7   37.77    5.36
   0   3  -7   39.32    4.17
   0  -3   7   36.09    5.11
   0  -3   7   35.93    4.16
  -1   3  -7    7.47    2.65
   1  -3   7    7.13    2.58
  -2   3  -7   98.59    9.36
   2  -3   7   97.77    9.83
   3  -3   7    4.87    2.24
   4  -3   7   29.32    3.65
   4   2  -7    1.11    3.35
   4   2  -7    1.02    3.15
  -4  -2   7    1.59    3.17
   3   2  -7   44.96    6.31
   3   2  -7   47.30    6.23
  -3  -2   7   44.90    6.83
   2   2  -7   12.21    3.01
   2   2  -7   13.59    3.70
  -2  -2   7   18.70    3.95
   1   2  -7   21.80    3.98
   1   2  -7   23.56    3.09
  -1  -2   7   18.23    3.37
  -1  -2   7   23.18    3.98
   0   2  -7  123.31   11.58
   0   2  -7  149.12   12.50
   0  -2   7  129.82   12.84
  -1   2  -7   56.33    5.66
  -1   2  -7   61.50    5.49
   1  -2   7   59.94    6.58
  -2   2  -7   48.51    5.19
   2  -2   7   55.56    5.70
   3  -2   7   34.66    3.97
   4  -2   7   -1.28    0.74
   4   1  -7   14.03    3.71
  -4  -1   7    9.74    3.90
   3   1  -7    2.47    2.70
   3   1  -7    1.29    2.72
  -3  -1   7    3.72    3.01
   2   1  -7   36.76    4.38
   2   1  -7   26.77    4.47
  -2  -1   7   33.43    5.84
  -2  -1   7   35.26    5.49
   1   1  -7   24.15    3.95
   1   1  -7   27.50    3.29
  -1  -1   7   33.86    3.53
  -1  -1   7   31.23    4.52
   0   1  -7    2.85    2.32
   0  -1   7    2.95    1.99
   1  -1   7   88.85    8.71
  -2   1  -7   67.57    6.49
  -2   1  -7   65.96    6.39
   2  -1   7   64.57    6.50
   3  -1   7   17.25    2.21
   3  -1   7   14.87    4.66
   4   0  -7   29.76    5.19
  -4   0   7   40.20    6.06
   3   0  -7   12.06    3.10
  -3   0   7   10.42    3.49
   2   0  -7    4.76    2.31
  -2   0   7    6.28    2.67
  -2   0   7    3.34    2.71
   1   0  -7   11.87    2.35
  -1   0   7    7.81    2.58
  -1   0   7   15.31    2.18
  -1   0   7   14.30    2.94
   0   0  -7   11.54    2.37
   0   0   7   17.80    2.95
   1   0   7   28.95    3.78
  -2   0  -7   47.28    5.07
  -2   0  -7   46.61    4.86
  -2   0  -7   62.63    4.95
   2   0   7   42.27    5.05
   2   0   7   48.39    5.05
   3   0   7    5.40    2.50
   4   0   7   24.37    7.17
   4   0   7   34.78    5.12
   4   0   7   37.28    4.75
   5   0   7   30.19    5.56
   5   0   7   38.81    5.28
   4  -1  -7    0.70    2.69
  -4   1   7    2.46    2.94
   3  -1  -7   46.67    5.62
  -3   1   7   49.13    6.43
   2  -1  -7   60.94    6.18
  -2   1   7   59.23    6.85
   1  -1  -7   20.00    2.72
  -1   1   7   19.46    2.64
  -1   1   7   19.77    3.45
  -1   1   7   21.21    2.85
   0  -1  -7   37.96    3.79
   0   1   7   43.28    4.71
   0   1   7   38.32    4.06
  -1  -1  -7   24.68    3.20
  -1  -1  -7   26.63    2.64
   1   1   7   27.03    3.04
   1   1   7   33.46    3.68
  -2  -1  -7   24.68    2.65
  -2  -1  -7   23.82    2.65
  -2  -1  -7   22.45    3.44
  -2  -1  -7   26.77    2.76
   2   1   7   19.74    3.17
   2   1   7   23.47    2.96
  -3  -1  -7   96.52    8.75
   3   1   7   88.56    8.57
   3   1   7   82.77    8.93
   4   1   7   -0.69    4.29
   4   1   7    0.40    2.56
   4   1   7    0.35    1.96
   5   1   7   38.44    6.24
   5   1   7   36.63    5.26
   5   1   7   41.92    8.77
   4  -2  -7    9.52    3.37
  -4   2   7   10.24    3.56
   3  -2  -7    8.01    2.66
  -3   2   7    7.54    3.04
   2  -2  -7   76.56    7.63
  -2   2   7   79.14    8.33
   1  -2  -7   17.98    2.33
  -1   2   7   18.11    2.49
  -1   2   7   14.59    3.07
   0  -2  -7   22.56    2.39
   0   2   7   23.73    2.53
   0   2   7   34.70    3.84
   0   2   7   35.52    3.84
  -1  -2  -7   39.00    4.18
  -1  -2  -7   38.24    4.49
   1   2   7   38.05    4.59
   1   2   7   43.84    4.69
  -2  -2  -7   14.53    1.90
  -2  -2  -7   12.94    2.07
  -2  -2  -7   11.40    3.15
   2   2   7   13.05    2.82
   2   2   7   13.32    1.96
  -3  -2  -7   10.38    2.13
   3   2   7    7.80    2.01
   3   2   7    7.47    2.80
   4   2   7   25.77    3.69
   4   2   7   21.35    4.43
   5   2   7    3.84    5.62
   5   2   7    9.83    3.81
   5   2   7    9.71    3.08
   4  -3  -7   38.53    5.97
  -4   3   7   54.88    7.12
   3  -3  -7   43.70    5.41
  -3   3   7   45.57    6.32
   2  -3  -7   28.67    3.77
  -2   3   7   29.70    4.78
   1  -3  -7   63.81    6.31
  -1   3   7   63.75    7.24
  -1   3   7   73.72    6.43
   0  -3  -7    2.81    1.61
   0   3   7    1.27    2.89
   0   3   7   -0.08    1.74
   0   3   7    1.41    0.78
  -1  -3  -7   28.16    4.00
  -1  -3  -7   27.39    3.32
   1   3   7   20.96    3.90
  -2  -3  -7   91.48    8.53
  -2  -3  -7  103.90    9.06
   2   3   7  105.99    9.50
   2   3   7   83.73    8.43
  -3  -3  -7    2.58    1.48
  -3  -3  -7    1.68    2.00
   3   3   7    3.15    1.45
   3   3   7    5.08    2.98
   3   3   7    4.94    1.82
   4   3   7   28.42    5.13
   4   3   7   28.87    4.14
   5   3   7    8.18    2.98
   5   3   7    1.51    6.09
   5   3   7    7.91    4.11
   4  -4  -7    5.98    2.92
   3  -4  -7   32.14    4.50
   2  -4  -7   22.09    3.34
   1  -4  -7    3.50    2.06
  -1   4   7    0.79    1.01
   0  -4  -7    8.07    2.24
   0   4   7    6.50    1.29
   0   4   7    7.38    3.74
  -1  -4  -7    3.01    1.78
   1   4   7    3.52    1.02
   1   4   7    6.18    3.25
  -2  -4  -7   36.17    4.16
   2   4   7   25.63    3.31
   2   4   7   34.95    3.98
   2   4   7   32.86    4.92
  -3  -4  -7   72.07    7.68
   3   4   7   82.51    7.83
   3   4   7   73.90    7.41
   3   4   7   77.23    8.62
   4   4   7    6.36    2.48
   4   4   7    8.31    3.83
   5   4   7   11.31    7.63
   5   4   7   30.95    4.54
   5   4   7   26.72    5.59
   4  -5  -7   20.73    4.46
   4  -5  -7   15.62    3.96
   3  -5  -7   26.61    4.65
   2  -5  -7   55.54    6.58
   1  -5  -7   21.77    4.02
  -1   5   7   31.88    3.65
   0  -5  -7   27.49    4.42
   0   5   7   41.15    6.26
   0   5   7   35.58    3.72
  -1  -5  -7   39.03    4.92
   1   5   7   42.07    6.07
   1   5   7   31.21    3.77
  -2  -5  -7    5.94    2.34
   2   5   7    5.75    3.39
   2   5   7    2.52    1.51
   2   5   7    0.64    1.53
  -3  -5  -7   49.17    6.31
   3   5   7   65.17    8.01
   3   5   7   67.20    6.77
   3   5   7   53.35    5.97
   4   5   7   45.22    5.33
   4   5   7   41.69    6.85
   5   5   7    3.10    2.80
   5   5   7   -0.10    3.89
   4  -6  -7   11.02    3.86
   3  -6  -7   23.04    4.55
   2  -6  -7    8.29    3.11
   1  -6  -7   81.10    8.23
  -1   6   7   64.05    8.65
   0  -6  -7   34.93    5.11
   0   6   7   32.24    6.67
   0   6   7   32.57    3.96
  -1  -6  -7   40.90    5.48
   1   6   7   31.01    4.16
   1   6   7   35.13    6.56
  -2  -6  -7   20.25    4.06
   2   6   7   23.11    4.96
   2   6   7   24.26    3.21
  -3  -6  -7    1.28    2.09
   3   6   7    1.98    3.32
   3   6   7    0.22    1.90
   4   6   7   15.15    3.18
   4   6   7   11.86    4.20
   3  -7  -7   25.91    5.11
   2  -7  -7   11.41    3.47
   1  -7  -7   31.38    4.90
  -1   7   7   26.12    5.94
   0  -7  -7   39.30    5.95
   0   7   7   38.30    7.84
  -1  -7  -7   12.71    3.55
   1   7   7   10.65    5.16
   1   7   7   11.57    3.17
  -2  -7  -7   22.73    4.51
   2   7   7   14.46    5.06
   2   7   7   22.05    3.34
   3   7   7   22.28    3.44
   3   7   7   19.55    5.13
   4   7   7    4.34    2.67
   4   7   7   -1.21    3.41
   2  -8  -7   49.15    7.04
  -2   8   7   54.61    8.21
   1  -8  -7    3.58    2.91
  -1   8   7   14.51    5.64
   0  -8  -7   29.71    5.47
   0   8   7   26.50    7.31
  -1  -8  -7   42.55    6.48
   1   8   7   41.66    5.54
   1   8   7   33.11    7.61
  -2  -8  -7    3.40    3.18
   2   8   7   -2.85    2.37
   2   8   7    3.86    4.38
   3   8   7   29.35    4.36
   3   8   7   27.15    6.01
   1  -9  -7   34.07    5.92
  -1   9   7   23.95    7.48
   0  -9  -7    1.22    2.94
   0   9   7   -1.85    6.06
  -1  -9  -7   10.93    3.67
   1   9   7    9.31    6.00
   1   9   7   -1.99    3.74
  -2  -9  -7   44.72    6.49
   2   9   7   27.28    7.04
   2   9   7   33.80    5.32
   1   7  -8    5.11    5.09
   1   7  -8    6.59    3.74
  -1  -7   8    8.67    4.40
   0   7  -8    7.19    5.36
   0   7  -8   -0.55    3.56
   0  -7   8   10.50    4.39
  -1   7  -8   -6.01    3.83
   1  -7   8    0.31    3.42
  -2   7  -8   13.56    5.81
   2  -7   8   28.83    5.92
   2   6  -8   22.73    5.57
   2   6  -8   17.59    4.50
  -2  -6   8   24.72    5.45
   1   6  -8    0.97    2.76
   1   6  -8   -5.72    4.10
  -1  -6   8   -1.52    2.90
   0   6  -8   13.86    5.24
   0   6  -8   16.13    3.92
   0  -6   8   17.84    4.63
  -1   6  -8    0.03    3.74
   1  -6   8    8.73    3.69
  -2   6  -8   -2.75    3.95
   2  -6   8    6.52    3.68
   3  -6   8   30.19    5.43
   3   5  -8    4.88    4.01
   3   5  -8   -0.46    2.75
  -3  -5   8    3.53    3.72
   2   5  -8   31.67    4.88
   2   5  -8   28.18    5.82
  -2  -5   8   31.23    6.17
   1   5  -8   22.50    5.12
   1   5  -8   20.10    3.77
  -1  -5   8   25.46    5.01
   0   5  -8   10.40    4.62
   0   5  -8    5.31    2.81
   0  -5   8    2.55    2.78
  -1   5  -8   12.36    3.96
   1  -5   8   19.47    4.32
  -2   5  -8   18.06    4.05
   2  -5   8   20.22    4.39
   3  -5   8    7.02    3.04
   4  -5   8   14.26    3.29
   3   4  -8   13.62    4.14
   3   4  -8    6.88    3.24
  -3  -4   8   13.08    4.64
   2   4  -8    2.99    3.51
   2   4  -8    2.31    2.35
  -2  -4   8    0.33    3.06
   1   4  -8   23.48    3.72
   1   4  -8   30.91    5.06
  -1  -4   8   26.21    4.77
  -1  -4   8   19.50    3.92
   0   4  -8   22.12    4.83
   0   4  -8   13.14    2.83
   0  -4   8   14.91    3.64
  -1   4  -8    2.16    2.92
   1  -4   8    1.36    2.40
  -2   4  -8   12.95    3.01
  -2   4  -8   10.80    2.62
   2  -4   8    8.85    3.08
   3  -4   8   11.79    3.04
   4  -4   8    6.40    2.38
   4   3  -8   -0.16    3.41
   4   3  -8    0.95    3.43
  -4  -3   8    9.34    4.31
   3   3  -8   14.04    3.78
   3   3  -8   15.50    4.18
  -3  -3   8   15.32    4.73
   2   3  -8   17.90    3.43
   2   3  -8   15.56    4.12
  -2  -3   8   18.88    4.64
   1   3  -8    2.46    3.54
   1   3  -8    3.29    1.98
  -1  -3   8    7.44    2.93
  -1  -3   8    8.32    3.22
   0   3  -8   37.84    5.24
   0   3  -8   24.32    3.19
   0  -3   8   37.70    4.95
  -1   3  -8   50.62    5.19
   1  -3   8   42.78    6.14
  -2   3  -8   14.92    2.60
   2  -3   8   14.81    3.26
   3  -3   8   53.08    5.94
   4  -3   8   11.81    2.24
   4   2  -8   11.77    3.94
   4   2  -8    5.34    3.94
  -4  -2   8   12.87    4.23
   3   2  -8   -0.78    2.96
   3   2  -8    6.20    3.00
  -3  -2   8    0.80    3.34
   2   2  -8   11.91    3.62
   2   2  -8   15.75    3.23
  -2  -2   8   15.13    4.12
   1   2  -8   72.33    7.85
   1   2  -8   76.04    7.12
  -1  -2   8   73.61    7.44
  -1  -2   8   66.84    8.19
   0   2  -8    6.01    3.28
   0  -2   8    4.75    2.48
   1  -2   8   34.21    4.81
  -2   2  -8   20.72    2.82
   2  -2   8   24.06    3.58
   3  -2   8   10.92    2.21
   4  -2   8   41.22    4.05
   4   1  -8    9.49    3.55
  -4  -1   8    9.42    3.98
   3   1  -8   60.14    6.93
  -3  -1   8   54.75    7.62
   2   1  -8    0.71    2.42
  -2  -1   8    1.45    2.71
   1   1  -8   27.53    4.06
  -1  -1   8   27.14    3.34
  -1  -1   8   31.56    4.91
   0   1  -8   43.05    5.05
   0  -1   8   41.20    5.23
   1  -1   8   25.30    3.76
  -2   1  -8   27.29    3.21
   2  -1   8   29.68    3.77
   3  -1   8   12.83    2.11
   4   0  -8    8.23    3.28
  -4   0   8    5.37    3.42
   3   0  -8   18.45    3.72
  -3   0   8   21.45    4.42
   2   0  -8   63.07    6.72
  -2   0   8   63.82    7.52
   1   0  -8   -0.41    1.69
  -1   0   8   -1.08    1.40
  -1   0   8   -2.62    2.27
  -1   0   8   -0.73    2.00
   0   0  -8   12.84    2.57
   0   0   8   15.98    3.06
   1   0   8   12.38    2.54
  -2   0  -8    8.02    2.10
  -2   0  -8   13.42    2.05
   2   0   8   13.53    2.12
   2   0   8   12.67    2.30
   3   0   8   52.14    6.08
   3   0   8   55.86    5.34
   4   0   8   16.37    5.87
   4   0   8   11.38    3.36
   4  -1  -8    8.88    3.13
  -4   1   8    8.17    3.39
   3  -1  -8   -1.20    2.19
  -3   1   8   -1.67    2.20
   2  -1  -8   64.48    6.36
  -2   1   8   53.92    6.98
   1  -1  -8   28.42    3.39
  -1   1   8   29.10    4.29
  -1   1   8   27.39    3.31
   0  -1  -8   -1.16    1.03
   0   1   8    0.24    1.68
   0   1   8    0.17    1.65
  -1  -1  -8   51.37    4.94
  -1  -1  -8   57.36    5.12
   1   1   8   57.12    5.93
   1   1   8   53.56    5.13
  -2  -1  -8   23.66    2.65
  -2  -1  -8   24.74    2.78
  -2  -1  -8   24.16    3.58
   2   1   8   21.05    3.10
   2   1   8   25.73    3.34
  -3  -1  -8   27.86    3.47
   3   1   8   35.12    4.41
   4   1   8   45.88    6.50
   4   1   8   56.60    6.06
   5   1   8   10.91    3.09
   5   1   8    1.02    4.83
   5   1   8    6.18    3.52
   4  -2  -8    6.04    3.04
  -4   2   8   10.42    3.81
   3  -2  -8   18.24    3.44
  -3   2   8   17.58    3.94
   2  -2  -8    1.13    1.80
  -2   2   8   -0.28    2.21
   1  -2  -8   40.36    4.16
  -1   2   8   37.90    5.27
  -1   2   8   40.10    4.28
   0  -2  -8   63.28    6.28
   0   2   8   84.00    7.21
   0   2   8   75.82    7.45
   1   2   8   19.58    3.12
   1   2   8   16.04    2.87
  -2  -2  -8  170.17   14.51
  -2  -2  -8  159.57   14.08
  -2  -2  -8  162.90   14.99
   2   2   8  149.15   14.65
  -3  -2  -8   11.21    2.25
  -3  -2  -8   11.73    1.50
  -3  -2  -8   13.12    1.57
   3   2   8    7.59    2.94
   3   2   8    7.04    2.18
   4   2   8   13.42    2.76
   4   2   8   13.30    3.80
   5   2   8   34.18    4.45
   5   2   8   17.47    7.59
   5   2   8   22.39    5.01
   4  -3  -8    3.30    2.78
  -4   3   8    0.92    2.98
   3  -3  -8   12.00    3.04
  -3   3   8   10.71    3.58
   2  -3  -8   30.98    4.06
  -2   3   8   33.68    5.15
   1  -3  -8    2.06    1.21
  -1   3   8    2.09    1.50
  -1   3   8    0.52    2.13
   0   3   8   37.19    5.06
   0   3   8   34.86    4.94
  -1  -3  -8   35.24    4.24
   1   3   8   37.12    4.60
  -2  -3  -8   58.48    5.83
  -2  -3  -8   54.52    5.29
   2   3   8   54.01    5.18
   2   3   8   59.70    6.47
  -3  -3  -8   86.01    8.29
  -3  -3  -8   83.86    8.33
   3   3   8   90.04    9.34
   3   3   8   92.50    8.34
   4   3   8    3.88    3.06
   4   3   8    0.33    1.84
   5   3   8    3.33    6.43
   5   3   8    3.62    3.66
   5   3   8    4.86    2.72
   4  -4  -8   12.98    3.46
   3  -4  -8    7.01    2.56
  -3   4   8   10.93    3.50
   2  -4  -8    5.56    2.11
  -2   4   8    9.66    3.32
  -1   4   8   59.11    5.74
   0  -4  -8   11.82    2.68
   0   4   8   15.29    4.24
   0   4   8   10.01    1.51
  -1  -4  -8   42.62    5.16
   1   4   8   47.12    6.00
  -2  -4  -8   15.71    2.82
   2   4   8    9.60    1.60
   2   4   8   12.22    3.57
  -3  -4  -8   36.33    4.23
  -3  -4  -8   32.07    4.49
   3   4   8   36.58    5.60
   3   4   8   30.55    4.02
   3   4   8   39.35    4.39
   4   4   8   97.57    9.61
   4   4   8   96.53   10.85
   5   4   8    3.07    3.61
   5   4   8    4.72    2.92
   4  -5  -8   13.86    3.76
   3  -5  -8    3.69    2.99
   2  -5  -8   19.36    3.90
   1  -5  -8   30.15    4.53
  -1   5   8   26.91    3.36
   0  -5  -8   33.00    4.90
   0   5   8   41.91    3.95
   0   5   8   34.00    6.33
  -1  -5  -8    3.96    2.22
   1   5   8    4.10    1.28
   1   5   8    5.08    4.03
  -2  -5  -8   58.42    6.41
   2   5   8   56.31    7.28
   2   5   8   55.72    5.55
  -3  -5  -8   15.53    3.20
   3   5   8   21.51    3.01
   3   5   8   16.90    4.54
   4   5   8   29.96    4.24
   4   5   8   21.14    5.37
   3  -6  -8   23.37    4.79
   2  -6  -8    7.78    3.09
   1  -6  -8    8.48    2.96
  -1   6   8   10.16    4.31
   0  -6  -8   73.33    8.29
   0   6   8   79.62   10.02
  -1  -6  -8    9.56    3.03
   1   6   8   17.99    5.10
   1   6   8    6.41    2.15
  -2  -6  -8    2.48    2.30
   2   6   8    9.12    3.83
   2   6   8    3.71    1.73
   3   6   8   87.21    9.97
   3   6   8   87.55    8.60
   4   6   8    5.95    3.80
   4   6   8    3.73    2.56
   3  -7  -8    5.64    3.27
   2  -7  -8   22.67    4.41
   1  -7  -8    0.78    2.34
  -1   7   8   -0.15    4.11
   0  -7  -8    6.87    2.80
   0   7   8    2.62    5.12
  -1  -7  -8   66.17    7.63
   1   7   8   54.41    6.35
   1   7   8   76.36    9.27
  -2  -7  -8    1.67    2.62
   2   7   8   -1.10    3.59
   2   7   8    1.04    1.86
   3   7   8   19.37    3.20
   3   7   8   13.11    4.67
   4   7   8   35.25    6.55
   4   7   8   53.82    7.71
   2  -8  -8   11.33    3.91
  -2   8   8   14.35    4.84
   1  -8  -8   31.29    5.21
  -1   8   8   28.94    6.88
   0  -8  -8    4.89    3.07
   0   8   8    7.31    5.83
  -1  -8  -8   13.17    3.74
   1   8   8    5.50    5.22
   1   8   8    6.57    3.08
  -2  -8  -8   51.57    7.53
   2   8   8   45.38    7.94
   2   8   8   54.67    5.88
   3   8   8    4.80    4.03
   1  -9  -8    9.55    3.62
  -1   9   8    1.68    5.58
   0  -9  -8   23.06    4.73
   0   9   8   17.46    7.25
   0   9   8    4.28    4.60
  -1  -9  -8   25.59    5.10
   1   9   8   17.28    5.39
   1   9   8   10.72    6.04
  -2  -9  -8   18.43    4.44
   2   9   8   13.61    5.75
   1   6  -9   12.65    5.20
  -1  -6   9   12.04    4.26
   0   6  -9   -7.25    4.36
   0  -6   9    3.76    3.33
  -1   6  -9   18.73    6.05
   1  -6   9   30.31    5.55
   2  -6   9   14.06    4.12
   2   5  -9    4.59    2.77
   2   5  -9    0.21    4.21
  -2  -5   9   15.41    4.65
   1   5  -9   18.19    3.55
   1   5  -9   28.09    5.51
  -1  -5   9   20.19    4.64
   0   5  -9   24.56    3.78
   0   5  -9   25.68    5.81
   0  -5   9   31.25    5.45
  -1   5  -9   -1.05    2.76
   1  -5   9    3.96    3.02
  -2   5  -9   40.47    6.07
   2  -5   9   52.13    6.84
   3  -5   9    6.22    2.96
   3   4  -9    3.14    2.92
   3   4  -9   -0.60    3.60
  -3  -4   9   -1.18    3.44
   2   4  -9   10.33    4.55
   2   4  -9   16.80    3.40
  -2  -4   9   13.82    4.42
   1   4  -9   -3.51    3.65
   1   4  -9    6.13    2.22
  -1  -4   9    6.81    3.29
   0   4  -9   13.54    2.40
   0   4  -9   18.86    5.02
   0  -4   9   17.17    4.09
  -1   4  -9    3.41    2.46
   1  -4   9   11.08    3.41
  -2   4  -9   20.44    3.47
   2  -4   9   11.90    3.45
   3  -4   9   30.16    4.64
   4  -4   9    9.75    2.60
   3   3  -9    2.29    3.48
   3   3  -9    8.74    3.38
  -3  -3   9    4.26    4.07
   2   3  -9   10.64    2.88
   2   3  -9    9.13    3.82
  -2  -3   9    7.12    3.66
   1   3  -9   35.36    4.39
   1   3  -9   40.36    5.87
  -1  -3   9   39.15    5.97
  -1  -3   9   40.12    6.65
   0   3  -9   -0.64    1.13
   0   3  -9   -2.33    3.77
   0  -3   9    0.48    2.43
  -1   3  -9   27.71    3.13
  -1   3  -9   31.92    3.23
   1  -3   9   34.74    5.25
  -2   3  -9   24.77    3.34
   2  -3   9   30.36    4.59
   3  -3   9   37.60    5.01
   4  -3   9   43.11    4.75
   3   2  -9    5.88    3.26
   3   2  -9    8.80    3.65
  -3  -2   9   10.81    4.46
   2   2  -9    3.08    2.84
   2   2  -9   -1.29    2.22
  -2  -2   9    6.85    3.69
   1   2  -9   18.96    4.21
   1   2  -9   26.87    3.09
  -1  -2   9   20.96    4.59
  -1  -2   9   16.35    3.51
   0   2  -9   69.79    7.40
   0  -2   9   58.79    7.54
   1  -2   9    0.02    2.27
  -2   2  -9   22.59    2.98
   2  -2   9   31.07    4.17
   3  -2   9   44.90    7.20
   3  -2   9   49.78    5.29
   4  -2   9   20.99    2.64
   4   1  -9   11.35    3.89
  -4  -1   9   17.17    4.68
   3   1  -9   12.29    3.44
  -3  -1   9   12.88    4.23
   2   1  -9    6.96    2.84
  -2  -1   9    6.70    3.60
   1   1  -9   -1.15    2.51
  -1  -1   9    5.69    1.98
  -1  -1   9    4.94    3.06
   0   1  -9   57.41    6.21
   0  -1   9   52.57    6.77
   1  -1   9   55.60    6.47
  -2   1  -9   11.04    1.98
   2  -1   9   14.09    2.82
  -3   1  -9   39.87    5.02
   3  -1   9   48.54    4.86
   4  -1   9    4.28    3.93
   4   0  -9   31.49    5.23
  -4   0   9   35.45    6.36
   3   0  -9   18.23    3.75
  -3   0   9   20.82    4.67
   2   0  -9   19.80    3.55
  -2   0   9   18.70    4.01
   1   0  -9   11.62    2.54
  -1   0   9   14.18    3.57
  -1   0   9   12.10    2.08
   0   0  -9    0.70    1.90
   0   0   9    1.89    2.09
  -1   0  -9   70.74    7.18
   1   0   9   73.88    7.60
  -2   0  -9   36.21    4.18
  -2   0  -9   39.05    4.02
   2   0   9   36.21    4.41
   3   0   9   11.36    2.19
   4   0   9   55.93    8.66
   4  -1  -9    5.21    3.12
  -4   1   9    8.04    3.52
   3  -1  -9   26.61    4.14
  -3   1   9   25.90    5.08
   2  -1  -9   -0.24    1.85
  -2   1   9    0.31    2.44
   1  -1  -9   19.74    2.87
  -1   1   9   17.80    3.70
  -1   1   9   19.07    3.28
  -1   1   9   19.57    2.70
   0  -1  -9   30.08    3.45
   0   1   9   32.57    3.27
   0   1   9   35.30    4.87
   0   1   9   34.23    3.64
  -1  -1  -9    3.65    1.54
  -1  -1  -9    4.78    1.12
   1   1   9    4.80    1.29
   1   1   9    6.06    2.25
  -2  -1  -9   47.33    4.79
  -2  -1  -9   55.23    5.92
  -2  -1  -9   54.07    5.07
   2   1   9   54.53    5.57
   2   1   9   44.27    5.21
  -3  -1  -9    5.14    1.66
   3   1   9    4.24    2.28
   4   1   9    5.09    2.91
   5   1   9   23.71    7.66
   5   1   9   42.89    6.11
   4  -2  -9   -0.71    2.70
  -4   2   9   -3.00    2.75
   3  -2  -9    5.88    2.56
  -3   2   9    5.65    3.11
   2  -2  -9   68.61    6.70
  -2   2   9   59.61    7.44
   1  -2  -9    1.14    1.36
  -1   2   9    5.21    2.60
  -1   2   9    1.45    1.33
  -1   2   9   -1.22    1.44
   0  -2  -9   61.42    6.23
   0   2   9   81.42    7.72
   0   2   9   81.51    7.20
   1   2   9  135.15   11.63
   1   2   9  114.92   12.12
  -2  -2  -9    3.96    3.56
  -2  -2  -9    2.22    1.07
  -2  -2  -9    5.12    1.63
   2   2   9    2.89    1.99
   2   2   9    1.93    2.05
  -3  -2  -9   42.08    3.90
  -3  -2  -9   35.59    4.24
   3   2   9   41.89    5.08
   4   2   9    0.66    2.59
   4   2   9    1.69    1.92
   5   2   9   28.72    4.33
   5   2   9   17.66    7.84
   5   2   9   29.43    5.31
   4  -3  -9    8.13    3.36
  -4   3   9   17.12    4.52
   3  -3  -9    8.67    2.76
  -3   3   9    3.58    3.02
   2  -3  -9    4.30    2.05
  -2   3   9    5.37    2.90
   1  -3  -9   61.06    6.24
  -1   3   9   72.23    6.48
  -1   3   9   66.34    7.60
   0   3   9   10.78    3.52
   0   3   9   11.13    3.17
  -1  -3  -9   76.92    7.53
   1   3   9   73.14    7.95
   1   3   9   70.97    7.60
  -2  -3  -9   60.08    6.14
   2   3   9   56.52    6.70
  -3  -3  -9    9.85    2.41
  -3  -3  -9   14.41    2.28
   3   3   9   13.55    3.59
   3   3   9   14.57    2.23
   4   3   9   16.98    2.99
   4   3   9   22.00    4.33
   5   3   9    0.13    3.32
   5   3   9    1.50    2.21
   4  -4  -9    4.02    2.71
  -4   4   9    5.62    3.53
   3  -4  -9   23.54    3.89
  -3   4   9   26.30    5.08
   2  -4  -9    4.45    1.97
  -2   4   9    7.49    3.17
  -1   4   9   81.19    7.63
  -1   4   9   80.99    8.98
   0  -4  -9   15.43    2.99
   0   4   9   17.70    4.55
  -1  -4  -9   22.06    3.59
   1   4   9   21.09    4.22
  -2  -4  -9   91.91    9.14
   2   4   9   89.72    9.45
  -3  -4  -9   20.39    3.20
   3   4   9   21.52    4.33
   3   4   9   21.21    2.82
   4   4   9   18.48    3.24
   4   4   9   16.47    4.54
   5   4   9   13.28    4.66
   5   4   9   21.97    3.92
   2  -5  -9   42.09    6.10
   1  -5  -9    1.60    2.19
  -1   5   9    1.65    3.47
  -1   5   9   -0.08    1.15
   0  -5  -9   63.51    6.69
   0   5   9   57.78    7.84
   0   5   9   55.22    5.29
  -1  -5  -9   21.18    3.70
   1   5   9   22.38    4.85
  -2  -5  -9    4.59    2.27
   2   5   9    0.79    1.17
   2   5   9    2.82    3.35
   3   5   9   87.51    9.36
   3   5   9   78.10    7.77
   4   5   9    9.51    2.65
   4   5   9   10.10    4.19
   3  -6  -9    2.20    2.71
   2  -6  -9   18.91    4.05
   1  -6  -9   35.14    5.33
  -1   6   9   37.80    6.18
   0  -6  -9    2.84    2.37
   0   6   9   -3.02    4.58
  -1  -6  -9   52.16    6.46
   1   6   9   44.81    4.48
   1   6   9   43.32    6.99
  -2  -6  -9   11.07    3.03
   2   6   9    7.95    3.99
   2   6   9   11.95    2.12
   3   6   9    2.31    1.93
   3   6   9    0.97    3.28
   4   6   9   36.19    6.40
   2  -7  -9    2.47    2.83
   1  -7  -9   26.57    4.81
  -1   7   9   17.19    5.42
   0  -7  -9   63.69    7.55
   0   7   9   60.72    9.31
  -1  -7  -9    9.71    3.30
   1   7   9    6.67    2.21
   1   7   9    6.52    4.72
  -2  -7  -9   72.14    8.26
   2   7   9   68.33    8.79
   3   7   9    3.44    3.73
   2  -8  -9   16.16    4.29
  -2   8   9   16.29    5.05
   1  -8  -9   -0.43    2.75
  -1   8   9    6.49    5.16
   0  -8  -9   48.15    6.54
   0   8   9   33.87    6.33
   0   8   9   41.50    8.15
  -1  -8  -9   33.98    5.61
   1   8   9   19.36    6.25
  -2  -8  -9   20.15    4.29
   2   8   9    9.96    5.00
   3   8   9   14.91    5.08
   0  -9  -9    3.09    3.23
   0   9   9   -4.58    5.67
  -1  -9  -9   72.01    8.67
   1   9   9   37.04    8.40
   0   6 -10    7.78    5.47
   0  -6  10    9.29    4.17
  -1   6 -10    0.81    5.20
   1  -6  10    1.19    3.28
   2  -6  10   11.15    4.22
   1   5 -10   -1.40    4.42
  -1  -5  10    1.99    3.27
   0   5 -10   30.26    6.06
   0  -5  10   27.63    5.62
  -1   5 -10   19.53    5.61
   1  -5  10   23.30    5.14
   2  -5  10    1.89    2.84
   3  -5  10   13.52    3.56
   2   4 -10    1.13    3.74
  -2  -4  10    5.33    3.72
   1   4 -10   40.91    6.29
  -1  -4  10   33.41    6.09
   0   4 -10   -6.47    3.98
   0  -4  10    1.92    2.74
  -1   4 -10    9.64    4.99
   1  -4  10   15.49    3.95
   2  -4  10   28.56    5.04
   3  -4  10    0.74    2.33
   3   3 -10   12.26    4.23
   3   3 -10   13.99    5.22
  -3  -3  10   23.72    5.80
   2   3 -10    1.27    2.52
   2   3 -10    4.04    3.65
  -2  -3  10    1.99    3.54
   1   3 -10   34.18    4.29
   1   3 -10   42.79    5.85
  -1  -3  10   38.26    6.22
   0   3 -10   35.02    5.91
   0  -3  10   37.11    5.79
  -1   3 -10   -1.25    4.00
   1  -3  10   -0.31    2.52
  -2   3 -10   22.33    3.31
   2  -3  10   22.54    4.29
   3  -3  10   17.08    3.41
   4  -3  10    2.81    1.69
   3   2 -10    5.41    3.42
  -3  -2  10    9.28    4.21
   2   2 -10   19.43    4.17
  -2  -2  10   23.07    5.27
   1   2 -10    2.63    3.17
  -1  -2  10    7.39    3.44
   0   2 -10   45.77    5.98
   0  -2  10   37.59    6.16
  -1   2 -10   56.20    7.11
   1  -2  10   56.66    7.05
   2  -2  10    4.07    2.59
   3  -2  10   28.13    3.77
   3  -2  10   16.51    4.54
   4  -2  10   10.52    2.01
   3   1 -10   -0.01    2.86
  -3  -1  10    1.97    3.20
   2   1 -10    9.25    2.97
  -2  -1  10    9.06    3.94
   1   1 -10   31.92    4.50
  -1  -1  10   26.29    3.42
  -1  -1  10   34.46    5.60
   0   1 -10    3.55    2.84
   0  -1  10    3.05    2.79
  -1   1 -10   78.26    7.82
   1  -1  10   64.26    7.91
  -2   1 -10   12.88    2.16
   2  -1  10   20.44    3.41
   3  -1  10    1.55    1.77
   4  -1  10   13.96    5.50
   4  -1  10   24.42    2.62
   3   0 -10   33.31    4.87
  -3   0  10   31.84    5.95
   2   0 -10    5.25    2.54
  -2   0  10    3.46    3.12
   1   0 -10   30.29    4.04
  -1   0  10   28.84    3.36
  -1   0  10   28.37    5.01
   0   0 -10  135.97   11.15
   0   0  10   96.84   11.80
  -1   0 -10    9.11    2.80
   1   0  10    6.65    2.52
  -2   0 -10   66.08    6.43
  -2   0 -10   60.01    6.14
   2   0  10   64.54    6.80
  -3   0 -10    8.31    2.65
   3   0  10   12.12    2.46
   5   0  10   20.42    6.72
   4  -1 -10   -2.17    2.55
  -4   1  10    4.86    3.30
   3  -1 -10   12.36    3.08
  -3   1  10    6.44    3.57
   2  -1 -10   30.86    4.22
  -2   1  10   35.26    5.52
   1  -1 -10    4.60    1.94
  -1   1  10    4.78    1.66
  -1   1  10    2.32    2.46
  -1   1  10   -1.71    2.50
   0  -1 -10   51.02    5.09
   0   1  10   55.96    6.41
   0   1  10   54.24    4.92
   0   1  10   48.58    4.78
  -1  -1 -10   64.21    5.84
   1   1  10   55.65    6.82
  -2  -1 -10   13.63    1.90
  -2  -1 -10   16.78    2.38
  -2  -1 -10   11.10    3.31
   2   1  10   11.90    2.27
   2   1  10   15.13    3.04
  -3  -1 -10   10.63    1.99
   3   1  10   11.32    2.76
   4   1  10   10.24    3.13
   5   1  10    8.34    3.45
   5   1  10    1.33    5.17
   4  -2 -10   16.40    3.87
  -4   2  10   16.32    4.50
   3  -2 -10    3.05    2.39
  -3   2  10    9.23    3.61
   2  -2 -10   34.76    4.26
  -2   2  10   29.06    5.10
   1  -2 -10   31.77    3.72
  -1   2  10   39.56    5.31
  -1   2  10   30.81    3.79
   0  -2 -10    0.58    0.84
   0   2  10   -1.19    2.14
   0   2  10    0.73    2.52
   1   2  10   64.35    6.54
   1   2  10   69.93    7.47
  -2  -2 -10   40.70    4.75
  -2  -2 -10   47.66    5.96
   2   2  10   51.11    5.49
   2   2  10   38.74    4.91
   3   2  10    7.46    2.66
   4   2  10   31.53    4.93
   5   2  10    1.69    3.14
   5   2  10   -0.47    5.36
   3  -3 -10   25.98    4.27
  -3   3  10   32.52    5.63
   2  -3 -10    7.05    2.26
  -2   3  10    7.74    3.38
   1  -3 -10   14.23    2.25
  -1   3  10   17.52    4.05
  -1   3  10   19.39    2.87
   0   3  10   18.92    4.08
   0   3  10   23.60    4.28
  -1  -3 -10    3.85    1.82
   1   3  10    2.55    2.41
   1   3  10    5.67    2.67
  -2  -3 -10   77.05    7.41
   2   3  10   65.91    7.45
   3   3  10   13.08    3.62
   4   3  10   15.35    2.74
   4   3  10   12.69    3.71
   5   3  10   31.50    5.71
   3  -4 -10   21.74    3.76
  -3   4  10   26.61    5.11
   2  -4 -10   40.27    4.61
  -2   4  10   39.78    6.18
  -1   4  10   -2.97    2.30
  -1   4  10    0.62    1.88
   0  -4 -10   28.81    4.33
   0   4  10   21.58    4.98
  -1  -4 -10   25.10    3.88
   1   4  10   24.06    4.41
  -2  -4 -10    8.85    2.38
   2   4  10    3.78    3.03
   3   4  10   71.23    7.14
   3   4  10   91.21    8.79
   4   4  10    0.92    3.12
   3  -5 -10   -0.72    2.28
   2  -5 -10   32.95    5.50
   1  -5 -10   48.54    6.08
  -1   5  10   49.94    6.90
   0  -5 -10    6.54    2.54
   0   5  10   14.40    4.78
  -1  -5 -10   54.06    6.16
   1   5  10   44.14    6.55
  -2  -5 -10   30.88    4.55
   2   5  10   22.95    4.67
   3   5  10    0.56    3.08
   4   5  10   23.91    5.33
   3  -6 -10   14.44    4.25
   2  -6 -10   -0.21    2.65
   1  -6 -10   20.18    4.22
  -1   6  10   28.70    5.48
   0  -6 -10    7.04    2.75
   0   6  10    7.17    5.03
  -1  -6 -10   19.92    3.89
   1   6  10   17.31    4.82
  -2  -6 -10   29.21    4.76
   2   6  10   26.66    5.13
   3   6  10    9.77    3.94
   4   6  10    9.11    4.07
   2  -7 -10   25.91    5.33
  -2   7  10   35.87    6.00
   1  -7 -10    4.37    2.87
  -1   7  10    4.74    4.75
   0  -7 -10   51.38    6.71
   0   7  10   34.43    7.63
  -1  -7 -10   12.04    3.62
   1   7  10   10.37    4.75
  -2  -7 -10   21.57    4.40
   2   7  10   19.23    5.11
   3   7  10   49.39    7.36
   1  -8 -10   22.94    4.44
  -1   8  10   21.21    6.32
   0  -8 -10   -0.46    2.39
   0   8  10   -1.91    5.49
  -1  -8 -10   17.51    4.12
   1   8  10   13.75    5.43
   2   8  10   -0.50    3.89
   1   5 -11    8.28    5.00
  -1  -5  11    5.43    3.78
   0   5 -11   -1.29    4.59
   0  -5  11    4.92    3.29
  -1   5 -11   -8.26    4.58
   1  -5  11    6.13    3.64
   2  -5  11   20.91    4.68
   2   4 -11    3.15    4.09
  -2  -4  11    4.03    3.97
   1   4 -11   -0.19    4.09
  -1  -4  11    1.51    3.36
   0   4 -11    2.53    4.35
   0  -4  11    9.70    3.70
  -1   4 -11   -1.88    4.48
   1  -4  11    6.35    3.45
   2  -4  11   36.08    5.95
   3  -4  11   22.20    4.27
   2   3 -11   13.37    4.46
  -2  -3  11   21.86    5.41
   1   3 -11    2.05    3.69
  -1  -3  11   10.85    4.05
   0   3 -11    1.38    3.67
   0  -3  11    2.48    3.11
  -1   3 -11   -1.06    4.15
   1  -3  11    7.18    3.45
   2  -3  11    1.13    2.73
   3  -3  11   21.56    3.94
   4  -3  11   14.04    2.90
   3   2 -11    0.36    3.07
  -3  -2  11    1.95    3.88
   2   2 -11    8.13    3.40
  -2  -2  11   10.97    4.48
   1   2 -11   29.63    4.91
  -1  -2  11   33.71    6.23
   0   2 -11    3.70    3.48
   0  -2  11    2.52    3.00
  -1   2 -11    0.84    3.66
   1  -2  11    4.64    3.13
   2  -2  11    7.98    2.90
   3  -2  11   -0.02    2.03
   3  -2  11    0.04    2.80
   4  -2  11   17.03    2.72
   3   1 -11    8.66    3.47
  -3  -1  11    9.13    4.31
   2   1 -11    9.09    3.07
  -2  -1  11    7.53    3.63
   1   1 -11   11.59    3.31
  -1  -1  11   13.18    4.09
   0   1 -11   19.75    3.92
   0  -1  11   17.83    4.42
  -1   1 -11   -1.58    3.18
   1  -1  11    3.14    2.73
   2  -1  11    4.65    2.50
   3  -1  11   25.67    3.81
   4  -1  11    1.86    1.50
   4  -1  11   -0.54    3.76
   3   0 -11    0.36    2.53
  -3   0  11    4.20    3.50
   2   0 -11   28.91    4.33
  -2   0  11   27.47    5.33
   1   0 -11    6.14    2.36
  -1   0  11    6.83    3.30
   0   0 -11   37.39    4.51
   0   0  11   35.09    5.34
  -1   0 -11    8.99    2.86
   1   0  11    8.64    2.87
  -2   0 -11    4.48    1.56
   2   0  11    0.53    1.96
   3   0  11   27.35    3.99
   3  -1 -11    5.82    2.84
  -3   1  11    9.79    4.05
   2  -1 -11    8.09    2.42
  -2   1  11    7.46    3.54
   1  -1 -11   36.19    4.39
  -1   1  11   39.27    5.83
   0  -1 -11    3.85    1.54
   0   1  11    0.06    2.24
  -1  -1 -11   36.65    3.69
   1   1  11   30.72    5.03
  -2  -1 -11    9.53    2.16
  -2  -1 -11    6.84    1.42
   2   1  11    9.63    2.75
   2   1  11    5.60    1.71
   3   1  11    3.33    2.06
   3   1  11   -0.08    1.94
   4   1  11   26.87    4.47
   3  -2 -11   33.88    4.78
  -3   2  11   34.07    5.99
   2  -2 -11    3.53    1.97
  -2   2  11   -0.17    2.80
   1  -2 -11   13.80    2.23
  -1   2  11   12.01    3.62
  -1   2  11   14.87    2.48
  -1   2  11    2.16    2.83
   0   2  11   25.34    4.37
   0   2  11   24.96    3.65
   1   2  11    2.81    2.46
   1   2  11    3.10    1.60
  -2  -2 -11   33.47    4.53
  -2  -2 -11   31.61    4.10
   2   2  11   36.53    5.17
   3   2  11    4.10    2.34
   4   2  11   -0.59    2.39
   3  -3 -11    8.80    2.93
  -3   3  11   10.48    4.01
   2  -3 -11   20.35    3.26
  -2   3  11   21.23    4.60
   1  -3 -11    2.51    1.34
  -1   3  11    0.44    2.61
   0   3  11   17.24    3.93
   0   3  11   16.87    3.95
  -1  -3 -11   37.37    4.65
   1   3  11   27.72    4.23
   1   3  11   36.24    5.36
  -2  -3 -11    3.99    1.99
   2   3  11    0.79    2.22
   3   3  11   20.01    3.79
   4   3  11   20.98    4.24
   3  -4 -11    1.97    2.12
  -3   4  11    8.32    3.72
   2  -4 -11   21.77    3.25
  -2   4  11   22.19    4.86
  -1   4  11   18.18    4.28
  -1   4  11   20.86    4.32
   0  -4 -11    3.39    2.33
   0   4  11    2.78    3.89
   0   4  11    3.60    2.82
  -1  -4 -11   40.48    5.36
   1   4  11   40.46    5.42
  -2  -4 -11   39.45    4.71
   2   4  11   30.09    4.85
   3   4  11    6.54    2.98
   4   4  11   16.19    4.22
   1  -5 -11   42.20    6.09
  -1   5  11   44.65    6.49
   0  -5 -11   36.35    5.39
   0   5  11   42.53    6.56
  -1  -5 -11    2.97    2.22
   1   5  11    0.70    3.21
  -2  -5 -11   45.59    5.72
   2   5  11   32.43    5.43
   3   5  11   14.19    3.81
   4   5  11    0.06    3.45
   2  -6 -11   22.88    4.89
   1  -6 -11    2.20    2.74
  -1   6  11    2.84    4.14
   0  -6 -11   29.49    5.02
   0   6  11   25.27    6.13
  -1  -6 -11   21.80    4.04
   1   6  11   18.14    4.75
   2   6  11   -2.13    3.06
   3   6  11   24.99    5.13
   2  -7 -11    7.92    3.38
  -2   7  11   13.06    4.32
   1  -7 -11   36.95    5.64
  -1   7  11   31.73    6.87
   0  -7 -11    4.88    2.85
   0   7  11   -3.50    5.09
  -1  -7 -11   22.25    4.48
   1   7  11   14.91    5.14
   2   7  11   18.14    4.88
   3   7  11    6.73    3.80
   0  -8 -11   29.60    5.21
   0   8  11   21.30    7.11
  -1  -8 -11    0.65    2.64
   1   8  11   -3.21    4.34
   1   4 -12    2.08    4.19
  -1  -4  12    5.62    3.95
   0   4 -12    2.29    4.33
   0  -4  12    0.67    3.33
  -1   4 -12   32.85    6.78
   1  -4  12   40.30    6.63
   2  -4  12    0.83    3.02
   1   3 -12   13.95    4.30
  -1  -3  12   11.57    4.60
   0   3 -12   12.16    4.49
   0  -3  12   10.45    4.28
  -1   3 -12    6.31    4.52
   1  -3  12    9.83    3.96
   2  -3  12   36.96    5.98
   3  -3  12    4.35    2.78
   2   2 -12    5.38    3.39
  -2  -2  12    9.24    4.34
   1   2 -12    7.31    3.40
  -1  -2  12    5.80    4.04
   0   2 -12   10.37    3.94
   0  -2  12   17.61    4.60
  -1   2 -12    0.21    4.01
   1  -2  12    3.80    3.38
   2  -2  12   26.01    4.82
   3  -2  12   24.99    4.21
   2   1 -12   17.59    3.82
  -2  -1  12   13.76    4.88
   1   1 -12    5.90    2.96
  -1  -1  12    2.70    3.38
   0   1 -12    4.28    2.90
   0  -1  12    9.73    3.83
  -1   1 -12    7.93    3.44
   1  -1  12    8.31    3.26
   2  -1  12    7.76    2.87
   3  -1  12   43.71    5.34
   4  -1  12   38.01    4.37
   4  -1  12   29.02   10.55
   3   0 -12    1.43    2.71
  -3   0  12   -3.44    3.16
   2   0 -12    2.04    2.59
  -2   0  12    4.98    3.51
   1   0 -12   12.62    2.92
  -1   0  12   12.32    3.81
   0   0 -12    5.68    2.40
   0   0  12    8.55    3.31
  -1   0 -12   -0.37    2.40
   1   0  12    1.67    2.52
   2   0  12   25.91    4.37
   3   0  12   -1.57    2.00
   3  -1 -12    5.42    2.89
  -3   1  12   10.80    4.16
   2  -1 -12    1.57    2.12
  -2   1  12    3.36    3.22
  -1   1  12   18.63    4.35
   0  -1 -12   39.80    4.34
   0   1  12   42.22    6.21
  -1  -1 -12   14.47    2.11
   1   1  12   13.52    3.49
  -2  -1 -12   18.10    2.97
   2   1  12   18.27    3.75
   3   1  12   63.69    6.53
   3   1  12   46.50    5.65
   4   1  12    3.22    3.16
   3  -2 -12    0.90    2.33
  -3   2  12    4.07    3.55
   2  -2 -12    1.51    1.92
  -2   2  12    0.31    2.89
   1  -2 -12    5.95    1.73
  -1   2  12    4.45    2.99
   0  -2 -12    6.89    1.33
   0   2  12    7.95    2.15
   0   2  12    8.37    3.25
   1   2  12   39.09    5.60
   1   2  12   33.48    3.59
   2   2  12    8.37    3.17
   2   2  12    1.80    1.56
   3   2  12   16.13    3.08
   4   2  12   23.09    4.23
   3  -3 -12   10.70    3.09
  -3   3  12   13.86    4.24
   2  -3 -12    7.00    2.31
  -2   3  12    8.93    3.74
   1  -3 -12    7.53    1.63
  -1   3  12   11.15    3.21
  -1   3  12    4.34    3.16
   0   3  12    2.54    2.84
   0   3  12   -5.14    2.77
  -1  -3 -12   44.33    5.42
   1   3  12   35.09    4.46
   1   3  12   41.44    6.13
   2   3  12   11.71    2.68
   3   3  12    1.41    2.20
   4   3  12   23.76    4.40
  -2   4  12    8.41    3.78
  -1   4  12   32.15    5.25
   0  -4 -12   30.02    4.62
   0   4  12   19.23    4.74
   0   4  12   24.83    4.96
  -1  -4 -12    4.72    2.32
   1   4  12    3.51    2.67
   2   4  12    6.07    2.69
   3   4  12   14.36    3.60
   4   4  12    0.23    2.76
   1  -5 -12    2.33    2.63
  -1   5  12    9.88    4.26
   0  -5 -12   31.72    5.03
   0   5  12   20.82    5.58
  -1  -5 -12   25.20    4.40
   1   5  12   27.33    4.81
   2   5  12    0.73    2.89
   3   5  12    0.15    2.69
   2  -6 -12    7.33    3.30
   1  -6 -12   29.67    5.48
  -1   6  12   29.08    6.30
   0  -6 -12   -0.06    2.33
   0   6  12   -1.98    4.81
  -1  -6 -12   23.93    4.42
   1   6  12   15.08    4.55
   2   6  12   54.55    7.14
   3   6  12    4.77    3.42
   1  -7 -12    9.70    3.73
  -1   7  12   10.54    5.59
   0  -7 -12   13.24    3.61
   0   7  12   11.36    5.84
  -1  -7 -12    0.59    2.49
   1   7  12   -4.50    3.78
   2   7  12   19.29    4.77
   0   3 -13   14.74    4.97
   0  -3  13   15.35    5.12
  -1   3 -13    9.33    5.03
   1  -3  13   23.93    5.34
  -2   3 -13   -5.78    4.74
   2  -3  13    4.75    3.51
   1   2 -13    4.31    3.41
  -1  -2  13    6.26    4.15
   0   2 -13    8.33    3.91
   0  -2  13    4.86    3.95
  -1   2 -13   24.50    5.37
   1  -2  13   39.02    6.38
  -2   2 -13   -5.75    4.13
   2  -2  13    7.11    3.28
   3  -2  13    9.64    3.08
   2   1 -13    1.72    2.79
  -2  -1  13   -0.26    3.67
   1   1 -13   34.84    5.05
  -1  -1  13   37.97    6.70
   0   1 -13    3.28    2.78
   0  -1  13    4.95    3.44
  -1   1 -13   11.72    3.69
   1  -1  13   11.48    3.82
  -2   1 -13   38.58    6.02
   2  -1  13   46.57    6.09
   3  -1  13    1.55    2.38
   2   0 -13    3.88    2.76
  -2   0  13   14.80    4.40
   1   0 -13    1.19    2.18
  -1   0  13    6.89    3.44
   0   0 -13   32.36    4.32
   0   0  13   32.55    5.60
  -1   0 -13    8.71    2.74
   1   0  13    7.72    3.23
   2   0  13   18.12    3.87
   3   0  13   23.94    4.18
   2  -1 -13    8.69    2.68
  -2   1  13   11.31    4.29
   1  -1 -13   22.28    3.40
  -1   1  13   24.86    5.06
   0  -1 -13   11.23    2.61
   0   1  13    7.48    3.39
   1   1  13   38.84    5.87
   2   1  13   14.24    3.62
   3   1  13   32.17    5.13
   2  -2 -13    0.09    2.56
  -2   2  13   -1.15    3.00
  -1   2  13    7.99    3.64
   0   2  13   27.70    5.08
   1   2  13   21.16    4.52
   2   2  13   36.90    5.95
  -2   3  13    6.88    3.73
  -1   3  13    5.98    3.55
  -1   3  13   13.85    4.43
   0   3  13   17.93    3.90
   0   3  13   21.01    4.84
  -1  -3 -13    3.33    2.22
   1   3  13   -0.49    2.81
   1   3  13   -1.37    1.82
   2   3  13   14.57    3.20
   3   3  13   32.81    6.44
  -2   4  13   24.36    5.56
  -1   4  13    5.35    3.86
  -1   4  13    6.65    3.52
   0  -4 -13    1.23    2.51
   0   4  13    6.72    3.72
   0   4  13    0.56    3.53
  -1  -4 -13   56.87    6.31
   1   4  13   40.76    5.46
   2   4  13    1.50    2.24
   3   4  13    5.05    2.77
   1  -5 -13    4.22    3.05
  -1   5  13   11.95    4.84
   0  -5 -13   10.41    3.28
   0   5  13   -3.37    4.32
  -1  -5 -13    4.07    2.55
   1   5  13    1.38    3.08
   2   5  13   26.88    4.47
   3   5  13   -2.71    2.40
   1  -6 -13    6.12    3.02
  -1   6  13    9.24    5.19
   0  -6 -13   23.28    4.54
   0   6  13   17.05    5.87
  -1  -6 -13    6.49    2.95
   1   6  13    0.45    3.62
   2   6  13   34.21    5.49
   1   7  13   12.60    4.60
   0   2 -14    6.14    3.69
   0  -2  14    7.00    4.17
  -1   2 -14    4.01    3.96
   1  -2  14    4.20    3.70
   2  -2  14   18.34    4.46
   1   1 -14   -4.70    2.50
  -1  -1  14    0.01    3.49
   0   1 -14   10.70    3.55
   0  -1  14   10.38    4.16
   1  -1  14    6.99    3.63
   2  -1  14   15.02    3.85
  -1   0  14   25.94    5.67
   0   0  14    4.00    3.31
   1   0  14    7.25    3.37
   2   0  14    2.25    2.77
   3   0  14   17.38    3.86
  -1   1  14   16.57    4.80
   0   1  14   12.94    3.95
   1   1  14    0.17    2.70
   2   1  14   14.75    3.80
   3   1  14    1.75    2.98
  -1   2  14   -2.50    2.86
   0   2  14   17.47    4.34
   1   2  14    6.16    3.37
   2   2  14    4.01    3.43
  -1   3  14    6.37    3.71
   0   3  14    2.82    3.23
   1   3  14   17.28    4.48
  -1   4  14   26.12    5.77
   0  -4 -14   19.45    4.35
   0   4  14   18.02    4.91
   0  -5 -14   29.55    5.15
   1   6  14   24.75    5.00
   0   0  15   11.24    4.35
   1   0  15    0.87    2.95
   2   0  15   38.70    6.17
   0   1  15   10.18    4.13
   1   1  15   15.66    4.34
   2   1  15    4.69    3.11
   0   2  15    0.42    2.90
   1   2  15   10.52    4.09
   2   2  15    5.37    3.62
   0   3  15    8.22    4.06
   1   3  15   -3.13    3.02
   0  -4 -15   33.58    5.76
   0   4  15   37.83    6.75
   0   0   0    0.00    0.00
;
_shelx_hkl_checksum              32145
loop_
_space_group_symop_operation_xyz
'x, y, z'
'-x, -y, -z'
loop_
_atom_site_label
_atom_site_type_symbol
_atom_site_fract_x
_atom_site_fract_y
_atom_site_fract_z
_atom_site_U_iso_or_equiv
_atom_site_adp_type
_atom_site_occupancy
_atom_site_site_symmetry_order
_atom_site_calc_flag
_atom_site_refinement_flags_posn
_atom_site_refinement_flags_adp
I1 I 0.8155(3) 0.66129(18) 0.69314(12) 0.0263(6) Uani 1 1 d . .
O1 O 1.047(3) 0.5705(19) 0.7900(12) 0.031(4) Uani 1 1 d . .
O2 O 0.741(3) 0.437(2) 0.8903(13) 0.040(5) Uani 1 1 d . .
O3 O 0.551(3) 0.7917(18) 0.5992(13) 0.033(4) Uani 1 1 d . .
O4 O 0.741(3) 0.6981(17) 0.4768(12) 0.026(4) Uani 1 1 d . .
B1 B 0.777(6) 0.642(4) 0.382(2) 0.041(8) Uani 1 1 d . .
C1 C 0.717(5) 0.831(3) 0.7726(19) 0.036(3) Uani 1 1 d . U
C2 C 0.892(5) 0.948(3) 0.7598(19) 0.037(3) Uani 1 1 d . U
H2 H 1.0472 0.9480 0.7193 0.045 Uiso 1 1 calc R U
C3 C 0.822(5) 1.066(3) 0.8113(19) 0.038(3) Uani 1 1 d . U
H3 H 0.9318 1.1497 0.8022 0.046 Uiso 1 1 calc R U
C4 C 0.623(5) 1.063(3) 0.868(2) 0.040(3) Uani 1 1 d . U
H4 H 0.5856 1.1432 0.9019 0.048 Uiso 1 1 calc R U
C5 C 0.445(5) 0.935(3) 0.883(2) 0.039(3) Uani 1 1 d . U
H5 H 0.2960 0.9331 0.9276 0.047 Uiso 1 1 calc R U
C6 C 0.493(5) 0.820(3) 0.8316(19) 0.037(3) Uani 1 1 d . U
H6 H 0.3789 0.7392 0.8369 0.045 Uiso 1 1 calc R U
C7 C 0.951(5) 0.467(3) 0.8657(19) 0.032(5) Uani 1 1 d . U
C8 C 1.164(5) 0.387(3) 0.9154(19) 0.033(5) Uani 1 1 d . U
H8A H 1.2643 0.3310 0.8701 0.039 Uiso 1 1 calc R U
H8B H 1.2719 0.4613 0.9326 0.039 Uiso 1 1 calc R U
C9 C 0.563(5) 0.772(3) 0.5134(19) 0.030(4) Uani 1 1 d . U
C10 C 0.377(5) 0.839(3) 0.4522(18) 0.030(4) Uani 1 1 d . U
H10A H 0.4588 0.9116 0.3945 0.036 Uiso 1 1 calc R U
H10B H 0.2949 0.7596 0.4282 0.036 Uiso 1 1 calc R U
F1 F 1.060(3) 0.2900(19) 0.9981(12) 0.055(5) Uani 1 1 d . .
F2 F 0.203(3) 0.9119(17) 0.5079(11) 0.041(4) Uani 1 1 d . .
F3 F 0.696(3) 0.7452(18) 0.3090(11) 0.044(4) Uani 1 1 d . .
F4 F 1.020(2) 0.6190(15) 0.3595(11) 0.034(3) Uani 1 1 d . .
F5 F 0.643(3) 0.5077(18) 0.3983(12) 0.052(5) Uani 1 1 d . .
loop_
_atom_site_aniso_label
_atom_site_aniso_U_11
_atom_site_aniso_U_22
_atom_site_aniso_U_33
_atom_site_aniso_U_23
_atom_site_aniso_U_13
_atom_site_aniso_U_12
I1 0.0220(9) 0.0161(8) 0.0457(11) -0.0136(6) -0.0110(6) -0.0008(6)
O1 0.036(10) 0.027(10) 0.034(10) -0.004(8) -0.018(8) 0.001(8)
O2 0.034(11) 0.038(11) 0.051(12) -0.003(9) -0.024(9) -0.005(9)
O3 0.035(10) 0.021(9) 0.044(11) -0.011(8) -0.008(8) 0.006(8)
O4 0.033(9) 0.017(8) 0.035(10) -0.013(7) -0.015(8) 0.001(7)
B1 0.038(19) 0.033(18) 0.05(2) -0.003(15) -0.005(15) -0.012(15)
C1 0.042(7) 0.031(7) 0.041(7) -0.011(6) -0.014(6) -0.013(6)
C2 0.044(7) 0.029(7) 0.042(8) -0.010(6) -0.013(6) -0.013(6)
C3 0.046(7) 0.030(7) 0.042(8) -0.011(6) -0.013(6) -0.013(6)
C4 0.047(7) 0.032(7) 0.043(8) -0.009(6) -0.011(6) -0.013(6)
C5 0.045(7) 0.032(7) 0.043(8) -0.011(6) -0.011(6) -0.011(6)
C6 0.042(7) 0.032(7) 0.042(8) -0.011(6) -0.013(6) -0.013(6)
C7 0.028(11) 0.023(10) 0.047(12) -0.007(9) -0.016(9) -0.005(8)
C8 0.030(11) 0.023(10) 0.048(12) -0.007(9) -0.015(9) -0.003(8)
C9 0.041(11) 0.017(9) 0.036(12) -0.012(8) -0.014(8) -0.009(8)
C10 0.041(11) 0.017(10) 0.038(11) -0.011(8) -0.012(8) -0.006(8)
F1 0.053(10) 0.048(11) 0.060(11) 0.007(9) -0.018(8) -0.010(8)
F2 0.039(9) 0.035(9) 0.053(10) -0.015(7) -0.011(7) 0.006(7)
F3 0.036(9) 0.053(10) 0.045(9) -0.014(8) -0.014(7) 0.027(8)
F4 0.026(8) 0.023(8) 0.057(10) -0.020(7) -0.008(7) 0.001(6)
F5 0.039(9) 0.042(10) 0.081(12) -0.036(9) 0.007(8) -0.030(8)
loop_
_atom_type_symbol
_atom_type_description
_atom_type_scat_dispersion_real
_atom_type_scat_dispersion_imag
_atom_type_scat_source
C C 0.0033 0.0016 'International Tables Vol C Tables 4.2.6.8 and 6.1.1.4'
H H 0.0000 0.0000 'International Tables Vol C Tables 4.2.6.8 and 6.1.1.4'
B B 0.0013 0.0007 'International Tables Vol C Tables 4.2.6.8 and 6.1.1.4'
O O 0.0106 0.0060 'International Tables Vol C Tables 4.2.6.8 and 6.1.1.4'
F F 0.0171 0.0103 'International Tables Vol C Tables 4.2.6.8 and 6.1.1.4'
I I -0.4742 1.8119 'International Tables Vol C Tables 4.2.6.8 and 6.1.1.4'
loop_
_geom_angle_atom_site_label_1
_geom_angle_atom_site_label_2
_geom_angle_atom_site_label_3
_geom_angle
O1 I1 C1 91.3(9)
O1 I1 O3 171.0(6)
C1 I1 O3 79.7(8)
C7 O1 I1 117.0(15)
C9 O3 I1 117.4(16)
C9 O4 B1 130(2)
F4 B1 F3 111(2)
F4 B1 F5 111(3)
F3 B1 F5 111(2)
F4 B1 O4 107(2)
F3 B1 O4 110(3)
F5 B1 O4 107(2)
C6 C1 C2 126(3)
C6 C1 I1 118.5(18)
C2 C1 I1 116(2)
C1 C2 C3 116(3)
C1 C2 H2 122.1
C3 C2 H2 122.1
C4 C3 C2 122(3)
C4 C3 H3 118.8
C2 C3 H3 118.8
C3 C4 C5 121(3)
C3 C4 H4 119.7
C5 C4 H4 119.7
C6 C5 C4 121(3)
C6 C5 H5 119.7
C4 C5 H5 119.7
C1 C6 C5 115(2)
C1 C6 H6 122.7
C5 C6 H6 122.7
O2 C7 O1 126(2)
O2 C7 C8 125(2)
O1 C7 C8 109(2)
F1 C8 C7 108(2)
F1 C8 H8A 110.1
C7 C8 H8A 110.1
F1 C8 H8B 110.1
C7 C8 H8B 110.1
H8A C8 H8B 108.5
O3 C9 O4 120(2)
O3 C9 C10 120(2)
O4 C9 C10 120(2)
F2 C10 C9 109(2)
F2 C10 H10A 109.8
C9 C10 H10A 109.8
F2 C10 H10B 109.8
C9 C10 H10B 109.8
H10A C10 H10B 108.2
loop_
_geom_bond_atom_site_label_1
_geom_bond_atom_site_label_2
_geom_bond_distance
I1 O1 2.049(16)
I1 C1 2.09(3)
I1 O3 2.278(17)
O1 C7 1.32(3)
O2 C7 1.17(3)
O3 C9 1.24(3)
O4 C9 1.28(3)
O4 B1 1.50(4)
B1 F4 1.35(4)
B1 F3 1.38(4)
B1 F5 1.39(3)
C1 C6 1.37(4)
C1 C2 1.40(4)
C2 C3 1.43(4)
C2 H2 0.9500
C3 C4 1.25(4)
C3 H3 0.9500
C4 C5 1.48(4)
C4 H4 0.9500
C5 C6 1.38(4)
C5 H5 0.9500
C6 H6 0.9500
C7 C8 1.55(4)
C8 F1 1.36(3)
C8 H8A 0.9900
C8 H8B 0.9900
C9 C10 1.48(4)
C10 F2 1.39(3)
C10 H10A 0.9900
C10 H10B 0.9900
loop_
_geom_torsion_atom_site_label_1
_geom_torsion_atom_site_label_2
_geom_torsion_atom_site_label_3
_geom_torsion_atom_site_label_4
_geom_torsion
C9 O4 B1 F4 159(2)
C9 O4 B1 F3 38(3)
C9 O4 B1 F5 -82(3)
C6 C1 C2 C3 -2(4)
I1 C1 C2 C3 178.1(19)
C1 C2 C3 C4 3(4)
C2 C3 C4 C5 -1(4)
C3 C4 C5 C6 -2(4)
C2 C1 C6 C5 -1(4)
I1 C1 C6 C5 179(2)
C4 C5 C6 C1 3(4)
I1 O1 C7 O2 -12(3)
I1 O1 C7 C8 166.8(15)
O2 C7 C8 F1 -7(4)
O1 C7 C8 F1 175(2)
I1 O3 C9 O4 -10(3)
I1 O3 C9 C10 172.7(16)
B1 O4 C9 O3 170(2)
B1 O4 C9 C10 -12(4)
O3 C9 C10 F2 -3(3)
O4 C9 C10 F2 179.4(19)
