#------------------------------------------------------------------------------
#$Date: 2019-11-25 16:07:49 +0200 (Mon, 25 Nov 2019) $
#$Revision: 241283 $
#$URL: file:///home/coder/svn-repositories/cod/cif/4/13/09/4130956.cif $
#------------------------------------------------------------------------------
#
# This file is available in the Crystallography Open Database (COD),
# http://www.crystallography.net/
#
# All data on this site have been placed in the public domain by the
# contributors.
#
data_4130956
loop_
_publ_author_name
'Pearson, Ryan M.'
'Lim, Chern-Hooi'
'McCarthy, Blaine G.'
'Musgrave, Charles B.'
'Miyake, Garret M.'
_publ_section_title
;
 Organocatalyzed Atom Transfer Radical Polymerization Using N-Aryl
 Phenoxazines as Photoredox Catalysts.
;
_journal_issue                   35
_journal_name_full               'Journal of the American Chemical Society'
_journal_page_first              11399
_journal_page_last               11407
_journal_paper_doi               10.1021/jacs.6b08068
_journal_volume                  138
_journal_year                    2016
_chemical_formula_moiety         'C22 H15 N O'
_chemical_formula_sum            'C22 H15 N O'
_chemical_formula_weight         309.35
_space_group_crystal_system      triclinic
_space_group_IT_number           2
_space_group_name_Hall           '-P 1'
_space_group_name_H-M_alt        'P -1'
_atom_sites_solution_hydrogens   geom
_audit_creation_method           SHELXL-2014/7
_cell_angle_alpha                83.142(4)
_cell_angle_beta                 78.687(4)
_cell_angle_gamma                71.594(4)
_cell_formula_units_Z            2
_cell_length_a                   8.8713(6)
_cell_length_b                   9.1631(6)
_cell_length_c                   11.2812(9)
_cell_measurement_reflns_used    4797
_cell_measurement_temperature    117(2)
_cell_measurement_theta_max      32.43
_cell_measurement_theta_min      2.35
_cell_volume                     851.58(11)
_computing_cell_refinement       'Bruker SAINT'
_computing_data_collection       'Bruker APEX3'
_computing_data_reduction        'Bruker SAINT'
_computing_molecular_graphics    'Bruker SHELXTL'
_computing_publication_material  'Bruker SHELXTL'
_computing_structure_refinement  'SHELXL-2014/7 (Sheldrick, 2014)'
_computing_structure_solution    'SHELXS-97 (Sheldrick 2008)'
_diffrn_ambient_temperature      117(2)
_diffrn_measured_fraction_theta_full 0.999
_diffrn_measured_fraction_theta_max 0.999
_diffrn_measurement_device_type  'Bruker APEX-II CCD'
_diffrn_measurement_method       '\f and \w scans'
_diffrn_radiation_type           MoK\a
_diffrn_radiation_wavelength     0.71073
_diffrn_reflns_av_R_equivalents  0.0632
_diffrn_reflns_av_unetI/netI     0.0731
_diffrn_reflns_Laue_measured_fraction_full 0.999
_diffrn_reflns_Laue_measured_fraction_max 0.999
_diffrn_reflns_limit_h_max       11
_diffrn_reflns_limit_h_min       -11
_diffrn_reflns_limit_k_max       11
_diffrn_reflns_limit_k_min       -11
_diffrn_reflns_limit_l_max       12
_diffrn_reflns_limit_l_min       -14
_diffrn_reflns_number            13754
_diffrn_reflns_point_group_measured_fraction_full 0.999
_diffrn_reflns_point_group_measured_fraction_max 0.999
_diffrn_reflns_theta_full        25.242
_diffrn_reflns_theta_max         27.480
_diffrn_reflns_theta_min         1.844
_exptl_absorpt_coefficient_mu    0.074
_exptl_absorpt_correction_T_max  0.7466
_exptl_absorpt_correction_T_min  0.6543
_exptl_absorpt_correction_type   multi-scan
_exptl_absorpt_process_details   'SCALE (Bruker, 2009)'
_exptl_crystal_colour            colourless
_exptl_crystal_density_diffrn    1.206
_exptl_crystal_density_meas      ?
_exptl_crystal_density_method    'not measured'
_exptl_crystal_description       rod
_exptl_crystal_F_000             324
_exptl_crystal_size_max          0.374
_exptl_crystal_size_mid          0.132
_exptl_crystal_size_min          0.097
_refine_diff_density_max         0.714
_refine_diff_density_min         -0.316
_refine_diff_density_rms         0.063
_refine_ls_extinction_method     none
_refine_ls_goodness_of_fit_ref   1.030
_refine_ls_hydrogen_treatment    constr
_refine_ls_matrix_type           full
_refine_ls_number_parameters     217
_refine_ls_number_reflns         3908
_refine_ls_number_restraints     0
_refine_ls_restrained_S_all      1.030
_refine_ls_R_factor_all          0.0976
_refine_ls_R_factor_gt           0.0569
_refine_ls_shift/su_max          0.000
_refine_ls_shift/su_mean         0.000
_refine_ls_structure_factor_coef Fsqd
_refine_ls_weighting_details
'w=1/[\s^2^(Fo^2^)+(0.0633P)^2^+0.2487P] where P=(Fo^2^+2Fc^2^)/3'
_refine_ls_weighting_scheme      calc
_refine_ls_wR_factor_gt          0.1236
_refine_ls_wR_factor_ref         0.1452
_reflns_Friedel_coverage         0.000
_reflns_number_gt                2555
_reflns_number_total             3908
_reflns_threshold_expression     'I > 2\s(I)'
_cod_data_source_file            ja6b08068_si_003.cif
_cod_data_source_block           gm01
_cod_depositor_comments
;
The following automatic conversions were performed:

data item '_exptl_crystal_density_meas' value 'not measured' was
changed to '?' -- the value is perceived as not measured.

Automatic conversion script
Id: cif_fix_values 6909 2019-04-08 15:41:33Z antanas 
;
_cod_original_cell_volume        851.59(11)
_cod_database_code               4130956
_shelx_shelxl_version_number     2014/7
_shelx_space_group_comment
; 
The symmetry employed for this shelxl refinement is uniquely defined 
by the following loop, which should always be used as a source of 
symmetry information in preference to the above space-group names. 
They are only intended as comments. 
;
_shelx_estimated_absorpt_t_min   0.973
_shelx_estimated_absorpt_t_max   0.993
_shelx_res_file
; 
  
    gm01.res created by SHELXL-2014/7 
  
  
TITL gm01 in P-1 
CELL 0.71073   8.87130   9.16310  11.28120  83.1416  78.6869  71.5941 
ZERR    2.00   0.00060   0.00060   0.00090   0.0038   0.0042   0.0035 
LATT 1 
SFAC C  H  N  O 
UNIT 44  30  2  2 
L.S. 5 
ACTA 
BOND 
FMAP 2 
PLAN 5 
ABIN 
SIZE 0.097 0.132 0.374 
TEMP -155.880 
WGHT    0.063300    0.248700 
FVAR       0.28629 
N1    3    0.659324    0.593644    0.278601    11.00000    0.01719    0.01740 = 
         0.02363    0.00174   -0.00826   -0.00270 
O1    4    0.462582    0.835368    0.148187    11.00000    0.02244    0.02065 = 
         0.05271    0.01109   -0.01727   -0.00434 
C1    1    0.701618    0.729601    0.243113    11.00000    0.01919    0.01858 = 
         0.01449   -0.00265    0.00069   -0.00393 
C2    1    0.838265    0.752424    0.270520    11.00000    0.02426    0.02656 = 
         0.01742   -0.00079   -0.00649   -0.00823 
AFIX  43 
H2    2    0.908534    0.672910    0.313548    11.00000   -1.20000 
AFIX   0 
C3    1    0.872971    0.890206    0.235629    11.00000    0.03015    0.03343 = 
         0.02326   -0.00244   -0.00508   -0.01622 
AFIX  43 
H3    2    0.966891    0.904021    0.254985    11.00000   -1.20000 
AFIX   0 
C4    1    0.772798    1.007431    0.173167    11.00000    0.03538    0.02170 = 
         0.02477   -0.00260    0.00135   -0.01314 
AFIX  43 
H4    2    0.797116    1.101683    0.149940    11.00000   -1.20000 
AFIX   0 
C5    1    0.635933    0.986428    0.144506    11.00000    0.02507    0.01757 = 
         0.02092   -0.00025    0.00233   -0.00005 
AFIX  43 
H5    2    0.566007    1.066590    0.101711    11.00000   -1.20000 
AFIX   0 
C6    1    0.601773    0.849039    0.178282    11.00000    0.01650    0.02093 = 
         0.02327   -0.00281   -0.00137   -0.00283 
C7    1    0.438883    0.690969    0.165339    11.00000    0.01880    0.02053 = 
         0.02213    0.00131   -0.00211   -0.00392 
C8    1    0.312681    0.674316    0.119248    11.00000    0.01878    0.03248 = 
         0.02311    0.00648   -0.00778   -0.00456 
AFIX  43 
H8    2    0.249034    0.758353    0.075227    11.00000   -1.20000 
AFIX   0 
C9    1    0.278794    0.534822    0.137218    11.00000    0.02165    0.04366 = 
         0.02300   -0.00187   -0.00828   -0.01265 
AFIX  43 
H9    2    0.190700    0.523511    0.106941    11.00000   -1.20000 
AFIX   0 
C10   1    0.373957    0.412190    0.199478    11.00000    0.02667    0.02659 = 
         0.02514   -0.00278   -0.00342   -0.01139 
AFIX  43 
H10   2    0.351542    0.316229    0.211275    11.00000   -1.20000 
AFIX   0 
C11   1    0.502565    0.428521    0.245029    11.00000    0.02009    0.01904 = 
         0.02141   -0.00092   -0.00474   -0.00282 
AFIX  43 
H11   2    0.568229    0.343142    0.286546    11.00000   -1.20000 
AFIX   0 
C12   1    0.535394    0.569085    0.230081    11.00000    0.01496    0.02157 = 
         0.01515   -0.00183   -0.00169   -0.00328 
C13   1    0.764541    0.468403    0.341427    11.00000    0.01640    0.01748 = 
         0.02209    0.00146   -0.00737   -0.00453 
C14   1    0.738504    0.457068    0.465087    11.00000    0.01962    0.02407 = 
         0.02010   -0.00431   -0.00264   -0.00315 
AFIX  43 
H14   2    0.650641    0.530465    0.509019    11.00000   -1.20000 
AFIX   0 
C15   1    0.842739    0.335570    0.528097    11.00000    0.02588    0.03476 = 
         0.01687    0.00079   -0.00600   -0.00787 
AFIX  43 
H15   2    0.825319    0.328711    0.614129    11.00000   -1.20000 
AFIX   0 
C16   1    0.967968    0.228564    0.465286    11.00000    0.02188    0.02919 = 
         0.02143    0.00341   -0.00940   -0.00461 
AFIX  43 
H16   2    1.036342    0.147367    0.508410    11.00000   -1.20000 
AFIX   0 
C17   1    0.997815    0.236619    0.336234    11.00000    0.01562    0.01963 = 
         0.02356    0.00192   -0.00778   -0.00609 
C18   1    1.126070    0.127862    0.267887    11.00000    0.01927    0.01914 = 
         0.02825    0.00196   -0.00841   -0.00383 
AFIX  43 
H18   2    1.195493    0.045017    0.308918    11.00000   -1.20000 
AFIX   0 
C19   1    1.152018    0.139625    0.144176    11.00000    0.01728    0.02278 = 
         0.02753   -0.00729   -0.00267   -0.00261 
AFIX  43 
H19   2    1.239017    0.065536    0.100149    11.00000   -1.20000 
AFIX   0 
C20   1    1.049722    0.261763    0.081574    11.00000    0.02522    0.02399 = 
         0.01728   -0.00390   -0.00238   -0.00806 
AFIX  43 
H20   2    1.068196    0.269175   -0.004467    11.00000   -1.20000 
AFIX   0 
C21   1    0.924568    0.369185    0.143747    11.00000    0.01949    0.02024 = 
         0.01959    0.00145   -0.00682   -0.00636 
AFIX  43 
H21   2    0.856893    0.450901    0.100536    11.00000   -1.20000 
AFIX   0 
C22   1    0.894360    0.360035    0.272811    11.00000    0.01644    0.01721 = 
         0.02050   -0.00032   -0.00592   -0.00688 
HKLF 4 
  
REM  gm01 in P-1 
REM R1 =  0.0569 for    2555 Fo > 4sig(Fo)  and  0.0976 for all    3908 data 
REM    217 parameters refined using      0 restraints 
  
END 
  
WGHT      0.0633      0.2489 
  
REM Highest difference peak  0.714,  deepest hole -0.316,  1-sigma level  0.063 
Q1    1   0.5923  0.1124  0.5018  11.00000  0.05    0.71 
Q2    1   0.6849  0.7613  0.1640  11.00000  0.05    0.28 
Q3    1   0.5259  0.6178  0.1525  11.00000  0.05    0.26 
Q4    1   0.6472  0.8819  0.1046  11.00000  0.05    0.25 
Q5    1   0.5103  0.8211  0.0611  11.00000  0.05    0.25 
;
_shelx_res_checksum              38588
_shelx_hkl_file
; 
  -1   0   0   41.35    1.33 
  -1   0   0   39.58    1.34 
   1   0   0   40.38    1.27 
   1   0   0   40.67    1.26 
  -2   0   0   25.90    0.98 
  -2   0   0   25.05    1.11 
  -2   0   0   25.88    0.98 
   2   0   0   24.60    1.16 
   2   0   0   26.49    0.97 
   2   0   0   25.67    0.97 
   2   0   0   25.83    1.08 
  -3   0   0    3.62    0.57 
  -3   0   0    2.58    0.39 
   3   0   0    4.61    0.54 
   3   0   0    2.46    0.56 
  -4   0   0   11.77    0.85 
   4   0   0   13.31    1.14 
   4   0   0   14.91    0.83 
  -5   0   0    0.38    0.57 
   5   0   0    0.59    0.60 
   5   0   0    1.42    0.41 
   5   0   0    0.16    0.57 
  -6   0   0    1.25    0.53 
   6   0   0    0.29    0.83 
   6   0   0    1.36    0.48 
   6   0   0    0.98    0.82 
   7   0   0   11.38    1.09 
   7   0   0   11.96    1.95 
   7   0   0   10.91    1.79 
   8   0   0    3.67    1.36 
   8   0   0    3.15    1.22 
   8   0   0    4.20    0.75 
   9   0   0   -0.50    1.33 
   9   0   0    1.72    1.24 
   9   0   0    1.84    0.75 
  10   0   0   -2.00    1.53 
  10   0   0    1.25    1.51 
  10  -1   0    1.24    1.42 
  10  -1   0    1.06    1.69 
   9  -1   0    1.39    1.35 
   9  -1   0    3.85    1.65 
   8  -1   0    1.23    1.31 
   8  -1   0    0.13    1.14 
   7  -1   0    4.90    1.21 
   7  -1   0    5.74    1.26 
   7  -1   0    9.04    0.99 
   6  -1   0    1.30    0.81 
   6  -1   0    0.20    0.77 
  -6   1   0    1.05    0.62 
   5  -1   0    1.63    0.83 
   5  -1   0    1.28    0.38 
   5  -1   0   -0.42    0.75 
  -5   1   0    0.51    0.55 
   4  -1   0    8.38    1.14 
   4  -1   0    6.87    1.14 
  -4   1   0    7.49    0.81 
   3  -1   0   25.21    1.43 
   3  -1   0   27.13    1.46 
  -3   1   0   25.68    1.21 
   2  -1   0  102.02    3.39 
   2  -1   0  101.44    3.12 
   2  -1   0  102.85    3.45 
  -2   1   0  103.74    3.30 
  -2   1   0  103.04    3.13 
   1  -1   0    0.20    0.22 
   1  -1   0    0.75    0.29 
   1  -1   0    0.62    0.36 
   1  -1   0    1.02    0.20 
  -1   1   0    0.52    0.30 
  -1   1   0    0.93    0.27 
  -1   1   0    1.07    0.36 
  -1   1   0    0.72    0.19 
   0  -1   0    2.96    0.30 
   0   1   0    1.86    0.23 
  -1  -1   0    4.10    0.28 
  -1  -1   0    3.82    0.35 
  -1  -1   0    4.13    0.37 
  -1  -1   0    3.45    0.28 
  -1  -1   0    3.93    0.38 
   1   1   0    4.84    0.29 
   1   1   0    3.79    0.29 
   1   1   0    4.36    0.36 
   1   1   0    4.12    0.35 
   1   1   0    3.95    0.37 
  -2  -1   0    3.36    0.54 
  -2  -1   0    3.33    0.29 
  -2  -1   0    4.20    0.58 
   2   1   0    3.74    0.61 
   2   1   0    3.91    0.50 
   2   1   0    3.85    0.28 
   2   1   0    4.24    0.32 
   2   1   0    3.37    0.57 
   2   1   0    3.57    0.55 
   2   1   0    3.64    0.56 
  -3  -1   0    0.63    0.40 
  -3  -1   0    1.16    0.27 
   3   1   0    1.74    0.47 
   3   1   0    1.39    0.39 
   3   1   0    0.57    0.24 
  -4  -1   0  111.87    3.38 
  -4  -1   0  100.21    3.64 
   4   1   0  104.36    3.50 
   4   1   0  107.63    3.35 
   4   1   0  108.51    3.76 
  -5  -1   0  238.71    7.08 
   5   1   0  231.76    7.52 
   5   1   0  220.49    7.16 
  -6  -1   0    6.37    0.86 
   6   1   0    8.18    0.96 
   6   1   0    7.19    1.24 
   7   1   0    7.79    1.07 
   7   1   0    8.32    1.57 
   8   1   0    0.50    0.63 
   8   1   0    1.59    1.24 
   8   1   0   -0.92    0.88 
   9   1   0   -0.88    1.13 
   9   1   0    2.46    0.82 
   9   1   0    2.93    1.48 
  10   1   0    0.81    1.74 
  10   1   0    2.72    1.51 
  10   1   0    2.19    0.93 
  11   1   0    2.74    1.88 
  11   1   0    3.37    1.58 
  10  -2   0   -1.94    1.60 
  10  -2   0    2.44    1.52 
   9  -2   0   -0.76    1.47 
   9  -2   0   -0.61    1.29 
   8  -2   0   16.65    2.65 
   8  -2   0   17.12    2.39 
   7  -2   0   26.65    2.33 
   7  -2   0   30.54    2.60 
   6  -2   0   43.20    2.57 
   6  -2   0   44.00    2.54 
   5  -2   0    7.59    1.36 
   5  -2   0    6.95    1.34 
  -5   2   0    8.02    1.17 
   4  -2   0   11.91    1.26 
   4  -2   0   12.98    0.64 
   4  -2   0   13.82    1.29 
  -4   2   0   13.36    0.77 
  -4   2   0   12.25    1.10 
   3  -2   0   13.57    1.20 
   3  -2   0   12.02    1.13 
   3  -2   0   13.16    0.66 
  -3   2   0   13.73    0.71 
  -3   2   0   13.33    0.96 
   2  -2   0   66.46    2.15 
   2  -2   0   65.16    2.52 
   2  -2   0   66.91    2.42 
  -2   2   0   67.02    2.18 
  -2   2   0   63.89    2.33 
   1  -2   0   17.48    0.87 
   1  -2   0   17.76    0.94 
   1  -2   0   16.62    1.05 
   1  -2   0   17.05    0.79 
  -1   2   0   16.45    0.92 
  -1   2   0   16.25    0.89 
  -1   2   0   17.22    0.78 
   0  -2   0    0.68    0.32 
   0  -2   0    0.11    0.27 
   0  -2   0    0.13    0.25 
   0  -2   0    0.29    0.26 
   0  -2   0    0.37    0.27 
   0  -2   0    0.36    0.35 
   0   2   0    0.21    0.29 
   0   2   0    0.10    0.29 
   0   2   0    0.21    0.32 
   0   2   0    0.30    0.30 
   0   2   0    0.21    0.27 
   0   2   0    0.68    0.32 
   0   2   0    0.41    0.28 
  -1  -2   0  483.75   14.20 
  -1  -2   0  468.85   14.16 
  -1  -2   0  484.90   14.17 
  -1  -2   0  454.65   14.16 
  -1  -2   0  497.94   14.27 
  -1  -2   0  480.57   14.09 
  -1  -2   0  481.97   14.09 
   1   2   0  486.74   14.17 
   1   2   0  455.21   14.15 
   1   2   0  466.62   14.24 
   1   2   0  482.56   14.19 
   1   2   0  477.28   14.16 
   1   2   0  480.45   14.09 
  -2  -2   0 1000.00   28.08 
  -2  -2   0  861.36   27.94 
  -2  -2   0  958.41   27.96 
  -2  -2   0  972.14   28.05 
   2   2   0  878.79   27.93 
   2   2   0  958.46   27.95 
   2   2   0  972.47   28.04 
   2   2   0  985.69   28.04 
  -3  -2   0    1.09    0.41 
  -3  -2   0    0.53    0.22 
   3   2   0    1.61    0.42 
   3   2   0    1.38    0.44 
   3   2   0    1.31    0.31 
   3   2   0    1.77    0.51 
  -4  -2   0    0.49    0.48 
   4   2   0    2.23    0.50 
   4   2   0    2.65    0.53 
   4   2   0    3.16    0.40 
   4   2   0    1.95    0.54 
  -5  -2   0    9.17    1.01 
  -5  -2   0    9.89    0.66 
   5   2   0    9.96    0.58 
   5   2   0    8.60    0.95 
   5   2   0    9.14    1.02 
   5   2   0    8.66    1.11 
   6   2   0    1.17    0.72 
   6   2   0    0.10    0.51 
   7   2   0    4.98    0.82 
   7   2   0    4.47    1.03 
   8   2   0    5.68    1.30 
   8   2   0    5.14    0.93 
   9   2   0    0.92    1.38 
   9   2   0    0.71    0.78 
  10   2   0    1.58    1.69 
  10   2   0    2.76    1.36 
  11   2   0    3.13    1.91 
  11   2   0    2.93    1.50 
   9  -3   0   17.15    2.88 
   9  -3   0   19.20    3.20 
   8  -3   0   27.74    3.13 
   8  -3   0   29.54    2.91 
   7  -3   0   -0.80    0.99 
   7  -3   0   -0.14    1.22 
   6  -3   0    0.86    0.93 
   6  -3   0    1.15    1.08 
   5  -3   0   25.41    2.05 
   5  -3   0   27.99    2.01 
  -5   3   0   25.65    1.73 
  -5   3   0   26.60    1.19 
   4  -3   0    6.93    1.23 
   4  -3   0    5.28    0.86 
  -4   3   0    5.13    0.64 
  -4   3   0    4.39    0.76 
   3  -3   0   30.85    1.66 
   3  -3   0   28.26    1.71 
  -3   3   0   30.20    1.26 
  -3   3   0   27.35    1.49 
   2  -3   0   20.34    1.36 
   2  -3   0   21.69    1.14 
   2  -3   0   23.28    1.31 
  -2   3   0   19.12    1.21 
  -2   3   0   17.90    1.01 
   1  -3   0    1.11    0.41 
   1  -3   0    1.63    0.49 
   1  -3   0    2.08    0.46 
   1  -3   0    1.56    0.45 
  -1   3   0    1.12    0.43 
  -1   3   0    1.03    0.53 
  -1   3   0    0.87    0.37 
   0  -3   0   16.45    1.09 
   0  -3   0   17.26    0.81 
   0  -3   0   17.55    0.94 
   0  -3   0   16.91    0.88 
   0   3   0   17.97    0.91 
   0   3   0   16.35    0.85 
   0   3   0   17.62    0.93 
   0   3   0   16.59    0.88 
   0   3   0   18.40    0.92 
  -1  -3   0   59.21    1.93 
  -1  -3   0   57.66    2.20 
  -1  -3   0   57.26    2.03 
  -1  -3   0   57.93    2.10 
  -1  -3   0   62.28    2.01 
   1   3   0   60.69    2.04 
   1   3   0   59.53    2.06 
   1   3   0   58.24    2.06 
  -2  -3   0    2.01    0.30 
  -2  -3   0    3.67    0.66 
  -2  -3   0    2.32    0.44 
  -2  -3   0    2.15    0.32 
   2   3   0    2.31    0.47 
   2   3   0    2.58    0.42 
   2   3   0    2.52    0.44 
   2   3   0    2.60    0.42 
  -3  -3   0    0.47    0.45 
  -3  -3   0    0.88    0.38 
  -3  -3   0    0.52    0.47 
   3   3   0    0.76    0.43 
   3   3   0    0.07    0.32 
   3   3   0    0.24    0.43 
  -4  -3   0    8.23    0.85 
   4   3   0    9.56    0.68 
   4   3   0    8.56    0.90 
   4   3   0    9.91    1.11 
   4   3   0    8.36    1.02 
  -5  -3   0    6.29    0.96 
   5   3   0    6.64    0.94 
   5   3   0    7.11    0.59 
   5   3   0    7.73    1.06 
   5   3   0    7.73    0.94 
  -6  -3   0    1.96    0.67 
   6   3   0    2.91    0.48 
   6   3   0    1.42    0.71 
   6   3   0    2.20    0.66 
  -7  -3   0   28.11    1.94 
   7   3   0   34.20    2.17 
   7   3   0   31.71    1.79 
   8   3   0    0.04    1.05 
   8   3   0    0.15    0.70 
   9   3   0    2.71    1.00 
   9   3   0    3.81    1.38 
  10   3   0    1.61    1.14 
  10   3   0    1.77    1.60 
  11   3   0    0.22    1.77 
  11   3   0    0.46    1.28 
   8  -4   0   -0.68    1.36 
   8  -4   0    0.08    1.46 
   7  -4   0    1.45    1.28 
   7  -4   0    1.22    1.20 
   6  -4   0    3.72    1.26 
   6  -4   0    2.54    1.13 
   5  -4   0   16.99    1.99 
   5  -4   0   16.61    1.86 
  -5   4   0   17.94    1.10 
   4  -4   0  118.77    4.43 
   4  -4   0  133.59    4.67 
   4  -4   0  124.91    4.80 
  -4   4   0  122.60    4.12 
   3  -4   0    0.17    0.59 
   3  -4   0    0.72    0.56 
   3  -4   0    0.13    0.47 
  -3   4   0    0.41    0.41 
  -3   4   0   -0.02    0.57 
   2  -4   0    4.84    0.79 
   2  -4   0    4.00    0.72 
   2  -4   0    4.57    0.77 
   2  -4   0    5.87    1.02 
  -2   4   0    3.16    0.65 
  -2   4   0    4.42    0.60 
   1  -4   0   21.85    1.13 
   1  -4   0   16.29    1.21 
   1  -4   0   20.84    1.17 
   1  -4   0   23.46    1.58 
  -1   4   0   21.30    1.22 
  -1   4   0   22.51    1.14 
   0  -4   0   45.98    1.84 
   0  -4   0   45.55    2.02 
   0  -4   0   44.19    1.75 
   0   4   0   45.87    1.67 
   0   4   0   44.68    1.79 
   0   4   0   46.08    1.75 
  -1  -4   0   74.05    2.86 
  -1  -4   0   78.91    2.52 
  -1  -4   0   74.88    2.72 
  -1  -4   0   78.27    2.66 
   1   4   0   79.34    2.69 
   1   4   0   76.32    2.64 
   1   4   0   76.48    2.64 
  -2  -4   0  143.39    4.62 
  -2  -4   0  135.88    4.53 
  -2  -4   0  139.40    4.37 
   2   4   0  144.78    4.52 
   2   4   0  143.82    4.53 
   2   4   0  137.00    4.56 
  -3  -4   0  167.47    5.30 
  -3  -4   0  172.05    5.71 
  -3  -4   0  181.66    5.47 
  -3  -4   0  177.29    5.68 
   3   4   0  176.98    5.63 
   3   4   0  183.14    5.62 
   3   4   0  166.01    5.50 
  -4  -4   0   99.15    3.63 
  -4  -4   0   99.97    3.63 
  -4  -4   0   96.58    3.42 
   4   4   0   98.75    3.53 
   4   4   0  103.03    3.54 
   4   4   0  105.26    3.66 
   4   4   0  103.85    3.37 
  -5  -4   0    7.75    1.05 
   5   4   0    8.73    0.97 
   5   4   0    8.79    0.78 
   5   4   0    8.87    1.49 
   5   4   0   10.06    1.17 
  -6  -4   0    6.51    1.09 
   6   4   0    7.75    0.72 
   6   4   0    5.74    1.00 
   6   4   0    6.55    0.92 
  -7  -4   0   -0.28    0.69 
   7   4   0    0.32    0.79 
   7   4   0   -0.40    0.37 
   7   4   0   -0.02    0.66 
   8   4   0   -0.28    0.79 
   8   4   0    1.12    1.01 
   9   4   0    3.32    1.42 
   9   4   0    3.91    1.13 
  10   4   0   -0.34    1.06 
  10   4   0    1.18    1.53 
  11   4   0    0.25    1.87 
   8  -5   0    0.45    0.89 
   8  -5   0    0.00    1.43 
   7  -5   0    1.72    0.96 
   7  -5   0    2.93    1.43 
   6  -5   0    2.98    0.92 
   6  -5   0    2.75    1.20 
   6  -5   0    3.48    1.23 
   5  -5   0    1.17    0.71 
   5  -5   0    1.98    1.05 
   5  -5   0   -0.07    0.90 
  -5   5   0    0.58    0.51 
   4  -5   0    2.33    0.85 
   4  -5   0    2.16    0.74 
   4  -5   0    1.20    0.73 
   4  -5   0    2.19    0.73 
  -4   5   0    1.84    0.60 
   3  -5   0   39.86    2.31 
   3  -5   0   41.16    2.03 
   3  -5   0   43.15    2.03 
   3  -5   0   45.38    2.16 
  -3   5   0   41.87    1.86 
   2  -5   0    0.70    0.55 
   2  -5   0    0.32    0.48 
   2  -5   0    0.42    0.60 
   2  -5   0    0.87    0.55 
  -2   5   0    1.06    0.52 
   1  -5   0    4.47    0.83 
   1  -5   0    4.23    0.81 
   1  -5   0    4.71    0.74 
  -1   5   0    3.82    0.76 
   0  -5   0    7.69    1.24 
   0  -5   0    7.20    0.79 
   0  -5   0   10.37    0.95 
   0   5   0    8.04    0.90 
   0   5   0    7.57    0.79 
   0   5   0    9.20    0.84 
  -1  -5   0    1.51    0.48 
  -1  -5   0    1.51    0.36 
  -1  -5   0    0.85    0.55 
  -1  -5   0    1.58    0.54 
   1   5   0    1.38    0.50 
   1   5   0    1.87    0.44 
   1   5   0    2.00    0.52 
  -2  -5   0   15.72    1.31 
  -2  -5   0   16.11    0.85 
  -2  -5   0   15.59    1.21 
  -2  -5   0   16.53    1.12 
   2   5   0   14.66    1.12 
   2   5   0   16.03    1.06 
   2   5   0   15.87    0.99 
  -3  -5   0   15.83    1.25 
  -3  -5   0   17.55    0.98 
  -3  -5   0   17.51    1.20 
   3   5   0   16.88    1.23 
   3   5   0   18.11    1.11 
   3   5   0   16.89    1.09 
  -4  -5   0   11.35    1.27 
  -4  -5   0   10.67    1.26 
  -4  -5   0   12.27    1.01 
   4   5   0    9.80    0.92 
   4   5   0    9.30    1.25 
   4   5   0    8.81    0.99 
  -5  -5   0    2.00    0.69 
  -5  -5   0    0.55    0.67 
  -5  -5   0    0.03    0.57 
   5   5   0    0.71    0.74 
   5   5   0   -0.16    0.56 
   5   5   0    0.88    0.47 
  -6  -5   0   30.46    1.72 
   6   5   0   28.54    1.99 
   6   5   0   29.80    1.82 
   6   5   0   30.65    1.44 
  -7  -5   0  118.40    4.32 
   7   5   0  111.80    3.84 
   7   5   0  113.21    4.33 
   7   5   0  117.18    4.56 
  -8  -5   0   15.95    1.79 
   8   5   0   18.31    2.19 
   8   5   0   17.40    1.81 
   9   5   0    7.71    1.28 
   9   5   0    5.79    1.57 
  10   5   0    1.95    1.22 
  10   5   0    0.83    1.60 
  11   5   0    5.49    2.00 
  11   5   0    1.51    1.25 
   7  -6   0    0.94    0.97 
   7  -6   0    2.21    1.03 
   7  -6   0    2.37    1.56 
   6  -6   0   -1.17    0.80 
   6  -6   0    0.94    0.88 
   6  -6   0   -0.50    1.11 
   5  -6   0    2.35    0.98 
   5  -6   0    1.45    0.81 
   5  -6   0    0.50    1.06 
   5  -6   0    1.58    0.85 
  -5   6   0    1.21    0.62 
   4  -6   0    9.82    1.33 
   4  -6   0    9.97    1.28 
   4  -6   0   10.41    1.72 
   4  -6   0   11.27    1.85 
  -4   6   0    9.01    1.23 
   3  -6   0   20.09    1.55 
   3  -6   0   21.97    1.49 
   3  -6   0   20.22    1.89 
   3  -6   0   23.80    1.76 
  -3   6   0   16.37    1.38 
   2  -6   0   97.65    4.12 
   2  -6   0  100.40    3.80 
   2  -6   0   99.36    3.68 
  -2   6   0  104.17    3.68 
   1  -6   0    0.10    0.68 
   1  -6   0    1.50    0.53 
   1  -6   0    1.23    0.58 
  -1   6   0    0.63    0.60 
   0  -6   0    4.04    0.88 
   0  -6   0    4.02    0.64 
   0  -6   0    4.61    0.76 
   0   6   0    3.61    0.72 
   0   6   0    3.64    0.60 
  -1  -6   0    2.53    0.47 
  -1  -6   0    2.17    0.56 
  -1  -6   0    2.88    0.74 
  -1  -6   0    2.47    0.66 
   1   6   0    2.50    0.58 
   1   6   0    2.93    0.67 
   1   6   0    2.62    0.57 
  -2  -6   0   19.27    1.43 
  -2  -6   0   20.74    1.60 
  -2  -6   0   19.55    1.03 
  -2  -6   0   19.25    1.28 
   2   6   0   19.29    1.34 
   2   6   0   19.82    1.16 
   2   6   0   22.83    1.40 
  -3  -6   0    0.13    0.38 
  -3  -6   0   -0.04    0.57 
  -3  -6   0    0.09    0.60 
   3   6   0    0.21    0.57 
   3   6   0    0.36    0.42 
   3   6   0   -0.03    0.53 
  -4  -6   0    6.71    0.89 
  -4  -6   0    5.74    0.94 
  -4  -6   0    6.38    0.97 
   4   6   0    6.59    0.96 
   4   6   0    6.54    1.09 
   4   6   0    7.97    1.22 
  -5  -6   0   10.09    1.32 
  -5  -6   0    9.04    1.19 
  -5  -6   0   11.76    1.15 
   5   6   0    9.72    1.46 
   5   6   0   11.38    1.06 
   5   6   0    8.76    1.27 
  -6  -6   0   12.72    1.28 
  -6  -6   0   13.27    1.48 
   6   6   0   16.48    1.71 
   6   6   0   16.12    1.59 
   6   6   0   14.57    1.16 
  -7  -6   0    0.04    0.73 
   7   6   0    1.12    0.63 
   7   6   0    0.43    0.86 
   7   6   0    1.30    0.99 
  -8  -6   0    1.02    0.93 
   8   6   0    1.08    1.02 
   8   6   0    2.17    1.24 
   8   6   0    0.95    0.60 
  -9  -6   0    1.57    1.12 
   9   6   0    1.70    1.11 
   9   6   0    4.46    1.48 
  10   6   0   -0.53    1.18 
  10   6   0   -0.10    1.52 
  11   6   0    1.27    1.70 
  11   6   0    2.42    1.44 
   6  -7   0   12.94    2.06 
   6  -7   0   11.15    1.67 
   6  -7   0   11.40    1.86 
   5  -7   0   -0.09    0.82 
   5  -7   0   -0.26    1.21 
   5  -7   0    0.41    0.86 
   5  -7   0    1.05    1.00 
  -5   7   0   -1.11    0.73 
   4  -7   0    1.34    0.87 
   4  -7   0    3.38    0.99 
   4  -7   0    2.02    0.89 
   4  -7   0    0.12    1.02 
  -4   7   0    2.54    0.88 
   3  -7   0    2.77    0.86 
   3  -7   0    1.78    1.09 
   3  -7   0    3.79    0.88 
  -3   7   0    2.75    0.83 
   2  -7   0    4.91    0.87 
   2  -7   0    5.14    0.95 
   2  -7   0    4.29    1.15 
  -2   7   0    4.99    0.91 
   1  -7   0  103.89    4.38 
   1  -7   0  104.23    3.88 
   1  -7   0  107.77    4.03 
  -1   7   0  106.30    3.95 
   0  -7   0   31.32    1.69 
   0  -7   0   36.19    1.96 
   0  -7   0   35.24    2.36 
   0   7   0   32.73    1.62 
   0   7   0   32.06    1.85 
  -1  -7   0    1.50    0.80 
  -1  -7   0    1.10    0.44 
  -1  -7   0    0.49    0.52 
  -1  -7   0    1.34    0.71 
   1   7   0   -0.07    0.63 
   1   7   0    0.18    0.56 
  -2  -7   0    4.63    0.79 
  -2  -7   0    4.63    0.93 
  -2  -7   0    4.56    0.97 
  -2  -7   0    4.73    0.73 
   2   7   0    4.01    0.78 
   2   7   0    4.55    0.81 
  -3  -7   0   18.17    1.67 
  -3  -7   0   20.73    1.55 
  -3  -7   0   21.22    1.16 
   3   7   0   17.15    1.35 
   3   7   0   18.56    1.52 
  -4  -7   0    0.04    0.53 
  -4  -7   0   -2.17    0.70 
  -4  -7   0   -1.62    0.78 
   4   7   0    0.20    0.69 
   4   7   0   -0.10    0.63 
  -5  -7   0   -1.09    0.71 
  -5  -7   0   -0.62    0.66 
  -5  -7   0   -0.05    0.84 
   5   7   0   -0.40    0.74 
   5   7   0   -0.27    0.64 
   5   7   0   -0.60    0.70 
  -6  -7   0    6.22    0.96 
  -6  -7   0    6.58    1.15 
  -6  -7   0    9.13    1.28 
   6   7   0    7.60    1.16 
   6   7   0   10.63    1.60 
   6   7   0    6.93    1.17 
  -7  -7   0    1.32    0.91 
   7   7   0    3.61    1.05 
   7   7   0    2.13    1.09 
   7   7   0    1.60    0.77 
  -8  -7   0   -1.01    0.89 
   8   7   0   -0.56    0.62 
   8   7   0    1.11    1.05 
   8   7   0    0.91    1.21 
  -9  -7   0    1.32    1.22 
   9   7   0    3.05    1.29 
   9   7   0    2.19    1.36 
  10   7   0    1.40    1.52 
  10   7   0   -0.22    1.32 
   5  -8   0    0.07    0.92 
   5  -8   0    1.03    0.90 
   5  -8   0    1.16    1.48 
  -5   8   0   -0.25    0.88 
   4  -8   0    4.02    1.15 
   4  -8   0    2.85    1.49 
   4  -8   0    3.59    1.00 
  -4   8   0    1.73    0.99 
   3  -8   0    3.56    0.99 
   3  -8   0    4.54    1.01 
   3  -8   0    2.28    1.25 
  -3   8   0    4.67    1.08 
   2  -8   0    3.70    0.89 
   2  -8   0    4.51    1.37 
   2  -8   0    4.25    1.03 
  -2   8   0    4.61    1.05 
   1  -8   0  109.33    4.72 
   1  -8   0  104.79    4.02 
   1  -8   0  102.00    4.14 
  -1   8   0  105.78    4.10 
   0  -8   0   20.33    1.77 
   0  -8   0   20.41    2.16 
   0  -8   0   20.60    1.50 
   0   8   0   20.76    1.68 
   0   8   0   21.77    1.40 
  -1  -8   0    2.70    0.58 
  -1  -8   0    1.44    0.98 
  -1  -8   0    1.22    0.69 
  -1  -8   0    2.52    0.94 
   1   8   0    3.39    0.90 
   1   8   0    2.19    0.73 
  -2  -8   0    5.37    1.10 
  -2  -8   0    4.98    0.67 
  -2  -8   0    4.05    0.89 
  -2  -8   0    3.33    1.08 
   2   8   0    5.16    0.88 
   2   8   0    4.66    0.97 
  -3  -8   0   -0.33    0.47 
  -3  -8   0    0.29    0.76 
  -3  -8   0   -0.51    0.84 
   3   8   0    0.24    0.74 
   3   8   0   -0.02    0.73 
  -4  -8   0   34.49    2.28 
  -4  -8   0   36.01    1.71 
  -4  -8   0   36.06    2.19 
   4   8   0   29.55    1.92 
   4   8   0   33.41    2.17 
  -5  -8   0    3.04    1.17 
  -5  -8   0    8.88    1.31 
  -5  -8   0    5.03    1.22 
   5   8   0    5.63    1.09 
   5   8   0    6.95    1.06 
  -6  -8   0    9.42    1.42 
  -6  -8   0    7.32    0.96 
  -6  -8   0    9.14    1.65 
   6   8   0    7.66    1.12 
   6   8   0   10.36    1.83 
   6   8   0    6.25    1.22 
  -7  -8   0    4.23    1.23 
  -7  -8   0    4.13    0.82 
   7   8   0    1.90    0.90 
   7   8   0    5.29    1.31 
   7   8   0    3.18    1.18 
  -8  -8   0    1.00    0.85 
   8   8   0    2.01    1.27 
   8   8   0    1.87    1.23 
  -9  -8   0   -1.30    0.99 
   9   8   0   -0.13    1.29 
   9   8   0   -0.74    1.31 
  10   8   0    0.48    1.42 
  10   8   0    0.66    1.46 
   4  -9   0    1.05    0.90 
   4  -9   0    4.02    1.70 
   4  -9   0    1.58    1.07 
  -4   9   0    1.64    1.09 
   3  -9   0    0.84    0.83 
   3  -9   0    0.60    1.35 
   3  -9   0   -0.41    0.95 
  -3   9   0   -1.07    0.97 
   2  -9   0    0.18    1.24 
   2  -9   0   -1.00    0.83 
   2  -9   0    0.51    0.88 
  -2   9   0   -0.82    0.94 
   1  -9   0    0.51    0.74 
   1  -9   0    0.37    0.89 
   1  -9   0    0.28    1.19 
  -1   9   0   -0.71    0.88 
   0  -9   0   16.73    1.83 
   0  -9   0   18.23    2.31 
   0  -9   0   17.69    1.60 
   0   9   0   19.25    1.86 
   0   9   0   20.92    1.62 
  -1  -9   0    0.62    1.07 
  -1  -9   0    0.46    1.00 
  -1  -9   0    1.03    0.54 
  -1  -9   0    0.62    0.76 
   1   9   0   -0.17    0.92 
   1   9   0    1.86    0.80 
  -2  -9   0    0.46    0.47 
  -2  -9   0    1.59    1.10 
  -2  -9   0   -1.29    0.92 
  -2  -9   0    0.22    0.86 
   2   9   0    0.48    0.87 
   2   9   0   -0.40    0.86 
  -3  -9   0    5.49    1.14 
  -3  -9   0    4.06    1.31 
  -3  -9   0    6.77    0.99 
   3   9   0    3.01    1.04 
   3   9   0    4.84    1.11 
  -4  -9   0    1.64    1.18 
  -4  -9   0    3.11    1.06 
  -4  -9   0    1.57    0.64 
   4   9   0    0.20    0.90 
   4   9   0    2.48    1.12 
  -5  -9   0   17.15    2.00 
  -5  -9   0   13.17    1.86 
   5   9   0   17.49    2.16 
   5   9   0   14.49    1.71 
  -6  -9   0    0.09    0.99 
  -6  -9   0   -0.50    1.02 
   6   9   0    1.24    1.05 
   6   9   0    0.24    0.91 
   6   9   0    0.82    1.12 
  -7  -9   0   -0.75    1.11 
   7   9   0   -2.34    1.02 
   7   9   0   -0.27    1.16 
   7   9   0   -0.95    0.94 
   8   9   0    1.43    1.30 
   8   9   0   -0.57    1.31 
   9   9   0    2.68    1.51 
   9   9   0   -0.14    1.34 
   2 -10   0    1.31    1.11 
   2 -10   0    2.31    0.96 
   2 -10   0    2.72    1.76 
  -2  10   0   -0.28    1.11 
   1 -10   0    2.89    1.57 
   1 -10   0    1.72    0.97 
   1 -10   0    3.89    1.30 
  -1  10   0    3.21    1.26 
   0 -10   0    0.56    1.11 
   0 -10   0    2.39    1.36 
   0 -10   0    1.02    0.92 
   0 -10   0    1.83    0.76 
   0  10   0    1.49    1.16 
  -1 -10   0   12.11    1.76 
  -1 -10   0   12.29    1.46 
  -1 -10   0   13.66    2.35 
  -1 -10   0   18.04    2.23 
   1  10   0   16.84    1.94 
   1  10   0   15.17    1.60 
  -2 -10   0    3.83    1.15 
  -2 -10   0    3.48    1.34 
  -2 -10   0    3.34    1.40 
   2  10   0    3.60    1.21 
   2  10   0    5.21    1.12 
  -3 -10   0    1.28    1.28 
  -3 -10   0    1.06    1.04 
   3  10   0    1.40    1.08 
   3  10   0    1.28    1.11 
  -4 -10   0    2.54    1.26 
  -4 -10   0    1.56    1.37 
   4  10   0    3.20    1.26 
   4  10   0    3.86    1.19 
  -5 -10   0    6.79    1.53 
  -5 -10   0    3.78    1.40 
   5  10   0    5.78    1.32 
   5  10   0    6.75    1.43 
  -6 -10   0   -0.49    1.17 
  -6 -10   0    1.62    1.32 
   6  10   0    0.87    1.08 
   6  10   0   -0.46    1.05 
   6  10   0   -0.94    1.29 
  -7 -10   0   -0.46    1.22 
   7  10   0    0.37    1.30 
   7  10   0    0.20    1.06 
   7  10   0   -0.44    1.16 
   8  10   0    7.08    1.68 
   8  10   0    2.30    1.39 
   8  10   0    5.06    1.33 
   0 -11   0    0.32    1.14 
   0 -11   0    1.26    1.37 
   0 -11   0    0.58    1.46 
   0  11   0   -2.62    1.08 
  -1 -11   0    2.87    1.18 
  -1 -11   0    2.93    1.62 
  -1 -11   0    3.59    1.72 
   1  11   0    3.94    1.39 
  -2 -11   0    7.06    1.69 
  -2 -11   0    6.32    1.42 
  -2 -11   0    8.57    1.90 
   2  11   0    6.89    1.54 
   2  11   0    6.50    1.35 
  -3 -11   0    1.66    1.29 
  -3 -11   0    0.64    1.51 
   3  11   0    0.33    1.18 
   3  11   0    1.06    1.21 
  -4 -11   0    3.41    1.47 
  -4 -11   0   -1.12    1.50 
   4  11   0    0.09    1.31 
   4  11   0    1.04    1.26 
  -5 -11   0   -1.86    1.50 
  -5 -11   0   -0.64    1.50 
   5  11   0   -0.07    1.21 
   5  11   0    1.05    1.40 
  -6 -11   0    3.91    1.58 
  -6 -11   0    1.69    1.50 
   6  11   0    5.32    1.45 
   6  11   0    3.84    1.53 
  -7 -11   0    1.11    1.43 
  -7 -11   0    1.17    1.30 
   7  11   0    2.63    1.32 
   7  11   0    0.18    1.43 
   6  11  -1    0.93    1.35 
   6  11  -1   -0.12    1.16 
   6  11  -1    3.52    1.54 
  -6 -11   1    0.89    1.35 
  -6 -11   1    1.04    1.44 
   5  11  -1   -2.04    1.12 
   5  11  -1   -0.16    1.33 
  -5 -11   1    0.65    1.65 
  -5 -11   1   -0.69    1.43 
   4  11  -1    2.28    1.26 
   4  11  -1    3.56    1.42 
  -4 -11   1   -1.92    1.55 
   3  11  -1    4.02    1.33 
   3  11  -1    0.61    1.25 
  -3 -11   1    2.01    1.85 
   2  11  -1    0.51    1.08 
   2  11  -1    2.31    1.30 
  -2 -11   1    2.07    1.82 
  -2 -11   1   -0.45    1.43 
   1  11  -1    1.50    1.27 
  -1 -11   1   -0.43    1.31 
  -1 -11   1    3.26    1.68 
   0  11  -1   -1.18    1.16 
   0 -11   1    0.94    1.46 
   0 -11   1    2.25    1.45 
   8  10  -1    6.42    1.76 
   8  10  -1    4.69    1.55 
   7  10  -1   -1.39    1.00 
   7  10  -1    0.73    1.27 
   7  10  -1    0.60    1.37 
  -7 -10   1    0.14    1.29 
   6  10  -1    5.54    1.52 
   6  10  -1    3.02    1.24 
   6  10  -1    4.81    1.33 
  -6 -10   1    3.79    1.30 
  -6 -10   1    4.38    1.43 
   5  10  -1   -0.52    0.98 
   5  10  -1    0.78    1.21 
  -5 -10   1    0.32    1.12 
  -5 -10   1   -1.43    1.20 
   4  10  -1    4.90    1.33 
   4  10  -1    6.40    1.29 
  -4 -10   1    6.08    1.43 
  -4 -10   1    7.55    1.59 
   3  10  -1    1.17    1.06 
   3  10  -1    2.52    1.16 
  -3 -10   1    1.91    1.39 
  -3 -10   1    3.28    1.21 
   2  10  -1    0.42    0.96 
   2  10  -1    1.79    1.09 
  -2 -10   1    1.55    1.11 
  -2 -10   1    0.00    1.14 
  -2 -10   1   -0.59    1.27 
   1  10  -1   -1.65    0.90 
   1  10  -1   -0.45    0.87 
  -1 -10   1   -1.29    0.85 
  -1 -10   1    0.20    1.21 
  -1 -10   1    0.86    1.26 
   0  10  -1   -0.05    1.04 
   0 -10   1    0.37    1.14 
   0 -10   1    0.65    1.30 
   0 -10   1    0.34    0.85 
  -1  10  -1    2.83    1.20 
   1 -10   1    2.32    1.54 
   1 -10   1    2.44    1.18 
   1 -10   1    0.78    0.90 
  -2  10  -1    0.69    1.14 
   2 -10   1    4.10    1.71 
   2 -10   1    2.29    1.19 
   9   9  -1    1.87    1.50 
   9   9  -1    2.29    1.59 
   8   9  -1    0.86    1.38 
   8   9  -1    0.21    1.31 
   7   9  -1    2.51    1.29 
   7   9  -1    0.92    1.29 
   7   9  -1    3.35    1.08 
   6   9  -1    0.97    0.97 
   6   9  -1   -1.49    1.04 
   6   9  -1    0.59    1.12 
  -6  -9   1    0.72    1.01 
  -6  -9   1    0.00    1.11 
   5   9  -1   22.38    2.21 
   5   9  -1   20.38    1.86 
  -5  -9   1   21.76    2.09 
  -5  -9   1   20.29    1.96 
   4   9  -1    3.10    1.11 
   4   9  -1    5.20    1.19 
  -4  -9   1    4.87    1.25 
  -4  -9   1    9.46    1.64 
   3   9  -1    2.40    1.04 
   3   9  -1    3.20    1.01 
  -3  -9   1    2.04    1.18 
  -3  -9   1    2.94    0.97 
   2   9  -1    5.21    1.10 
   2   9  -1    3.05    0.99 
  -2  -9   1    1.86    1.15 
  -2  -9   1    5.74    1.35 
  -2  -9   1    3.74    0.96 
   1   9  -1    2.49    0.87 
   1   9  -1    1.26    0.99 
  -1  -9   1    2.92    0.86 
  -1  -9   1    1.99    1.14 
  -1  -9   1    2.97    0.55 
  -1  -9   1    3.88    1.17 
   0   9  -1    1.50    0.63 
   0   9  -1    2.05    1.01 
   0  -9   1    1.18    0.93 
   0  -9   1    1.41    0.79 
   0  -9   1    0.58    1.07 
  -1   9  -1   16.15    1.80 
   1  -9   1   13.69    1.45 
   1  -9   1   11.88    1.74 
   1  -9   1   14.39    2.42 
  -2   9  -1    1.09    0.99 
   2  -9   1    0.85    0.98 
   2  -9   1    2.63    0.87 
   2  -9   1    1.80    1.39 
  -3   9  -1    1.56    1.09 
   3  -9   1    0.09    0.82 
   3  -9   1   -0.08    1.36 
   3  -9   1    0.41    0.96 
  -4   9  -1    1.80    1.12 
   4  -9   1    2.30    0.95 
   4  -9   1    4.46    1.77 
   4  -9   1    2.98    1.15 
   9   8  -1   -1.94    1.36 
   9   8  -1    1.91    1.39 
   8   8  -1    3.39    1.38 
   8   8  -1    0.26    1.19 
   7   8  -1    3.67    0.95 
   7   8  -1    2.27    1.12 
   7   8  -1    0.87    1.15 
   6   8  -1   -0.27    0.95 
   6   8  -1    0.30    1.08 
   6   8  -1    1.70    0.90 
  -6  -8   1    0.32    1.01 
   5   8  -1   -0.48    0.83 
   5   8  -1   -1.49    0.73 
  -5  -8   1   -0.42    0.86 
  -5  -8   1   -1.34    0.81 
  -5  -8   1   -0.36    0.55 
   4   8  -1    9.43    1.38 
   4   8  -1    6.03    1.07 
  -4  -8   1    6.53    1.30 
  -4  -8   1    7.14    1.27 
  -4  -8   1   10.62    1.09 
   3   8  -1    3.70    0.94 
   3   8  -1    4.30    0.98 
  -3  -8   1    5.71    0.77 
  -3  -8   1    3.22    1.05 
  -3  -8   1    4.85    0.95 
   2   8  -1    5.64    0.93 
   2   8  -1    3.78    0.94 
  -2  -8   1    5.20    1.11 
  -2  -8   1    6.27    0.95 
  -2  -8   1    6.05    0.70 
  -2  -8   1    3.78    1.03 
   1   8  -1    5.65    1.05 
   1   8  -1    6.14    0.90 
  -1  -8   1    6.47    0.79 
  -1  -8   1    6.55    1.11 
  -1  -8   1    6.20    1.18 
  -1  -8   1    5.78    1.08 
   0   8  -1   15.91    1.30 
   0   8  -1    9.05    1.46 
   0  -8   1   15.21    1.65 
   0  -8   1   13.72    1.28 
   0  -8   1   12.25    2.08 
  -1   8  -1   25.06    1.85 
  -1   8  -1   24.00    1.33 
   1  -8   1   23.16    1.82 
   1  -8   1   25.35    1.65 
   1  -8   1   26.70    2.60 
  -2   8  -1    5.15    1.02 
   2  -8   1    6.85    1.18 
   2  -8   1    6.02    1.07 
   2  -8   1    4.36    1.35 
  -3   8  -1    1.94    0.92 
   3  -8   1    1.64    0.80 
   3  -8   1    1.64    1.24 
   3  -8   1    2.17    0.90 
  -4   8  -1    1.87    0.97 
   4  -8   1    2.54    0.94 
   4  -8   1    1.28    0.91 
   4  -8   1    1.00    1.40 
  -5   8  -1    2.57    1.03 
   5  -8   1    4.36    1.70 
   5  -8   1    3.86    1.08 
   5  -8   1    2.84    1.06 
  10   7  -1    0.85    1.53 
  10   7  -1    0.79    1.31 
   9   7  -1   -0.60    1.21 
   9   7  -1    0.99    1.56 
   8   7  -1    4.35    1.39 
   8   7  -1    4.13    0.86 
   8   7  -1    3.72    1.27 
  -8  -7   1    5.44    1.04 
   7   7  -1   -0.02    0.90 
   7   7  -1    1.11    0.73 
   7   7  -1   -0.16    1.08 
  -7  -7   1   -0.14    0.61 
   6   7  -1    0.33    0.71 
   6   7  -1   -0.31    0.80 
   6   7  -1    1.35    0.97 
  -6  -7   1   -1.41    0.54 
  -6  -7   1    1.38    1.01 
   5   7  -1    6.05    0.96 
   5   7  -1    5.54    1.00 
  -5  -7   1    8.38    0.96 
  -5  -7   1    7.54    1.12 
  -5  -7   1    5.67    1.06 
   4   7  -1   -0.17    0.65 
   4   7  -1    0.90    0.71 
  -4  -7   1    0.65    0.72 
  -4  -7   1    0.38    0.79 
  -4  -7   1    0.41    0.50 
   3   7  -1   27.98    1.79 
   3   7  -1   27.93    1.50 
   3   7  -1   28.35    1.66 
  -3  -7   1   26.51    1.79 
  -3  -7   1   32.88    1.39 
  -3  -7   1   30.07    2.07 
   2   7  -1    2.76    0.71 
   2   7  -1    3.20    0.75 
   2   7  -1    2.55    0.56 
  -2  -7   1    4.70    1.02 
  -2  -7   1    2.81    0.47 
  -2  -7   1    2.03    0.84 
  -2  -7   1    5.00    0.88 
   1   7  -1    3.48    0.61 
   1   7  -1    2.56    0.67 
   1   7  -1    2.63    0.75 
  -1  -7   1    3.73    0.73 
  -1  -7   1    3.56    0.97 
  -1  -7   1   10.65    1.42 
  -1  -7   1    3.30    0.50 
   0   7  -1    1.65    0.72 
   0   7  -1    2.44    0.61 
   0  -7   1    1.80    0.72 
   0  -7   1    0.80    0.83 
   0  -7   1    1.15    0.54 
  -1   7  -1    1.17    0.68 
  -1   7  -1    0.44    0.47 
   1  -7   1    1.97    0.91 
   1  -7   1    0.32    0.52 
   1  -7   1   -0.10    0.59 
  -2   7  -1    8.48    1.22 
   2  -7   1    9.07    1.80 
   2  -7   1    8.93    1.23 
   2  -7   1    8.40    1.07 
  -3   7  -1   40.53    2.18 
   3  -7   1   40.51    2.24 
   3  -7   1   41.64    2.16 
   3  -7   1   42.97    2.89 
  -4   7  -1    0.26    0.74 
   4  -7   1    0.25    0.74 
   4  -7   1    0.50    0.75 
   4  -7   1    0.85    0.91 
   4  -7   1    0.39    1.10 
  -5   7  -1   -0.26    0.83 
   5  -7   1    0.18    0.86 
   5  -7   1    0.00    0.78 
   5  -7   1    0.08    1.16 
   6  -7   1    2.85    0.96 
   6  -7   1    4.40    1.55 
   6  -7   1    2.93    1.04 
  10   6  -1    6.18    1.88 
  10   6  -1    5.04    1.51 
   9   6  -1    3.03    1.22 
   9   6  -1    1.30    1.41 
   8   6  -1    0.96    0.61 
   8   6  -1    0.56    1.25 
   8   6  -1    0.31    1.02 
   7   6  -1   33.32    2.49 
   7   6  -1   34.54    2.16 
   7   6  -1   32.43    1.66 
  -7  -6   1   27.56    1.88 
   6   6  -1   50.47    2.11 
   6   6  -1   44.11    2.40 
   6   6  -1   49.53    2.72 
  -6  -6   1   44.91    2.14 
   5   6  -1    1.57    0.62 
   5   6  -1    2.02    0.72 
  -5  -6   1    0.26    0.58 
  -5  -6   1    0.26    0.75 
   4   6  -1    5.45    0.86 
   4   6  -1    6.83    1.20 
   4   6  -1    5.92    0.91 
  -4  -6   1    4.69    0.61 
  -4  -6   1    5.58    0.90 
  -4  -6   1    5.40    0.86 
  -4  -6   1    3.03    0.56 
   3   6  -1   22.43    1.43 
   3   6  -1   21.82    1.23 
   3   6  -1   21.47    1.28 
  -3  -6   1   20.57    1.09 
  -3  -6   1   22.03    1.57 
  -3  -6   1   21.67    1.47 
   2   6  -1    6.21    0.73 
   2   6  -1    5.34    0.88 
   2   6  -1    3.95    0.69 
  -2  -6   1    6.65    1.07 
  -2  -6   1    6.70    1.23 
  -2  -6   1    6.30    0.63 
  -2  -6   1    7.15    0.95 
   1   6  -1    0.06    0.48 
   1   6  -1    0.18    0.51 
   1   6  -1   -0.09    0.38 
  -1  -6   1    0.25    0.56 
  -1  -6   1    0.02    0.32 
  -1  -6   1   -0.30    0.42 
  -1  -6   1    0.55    0.62 
   0   6  -1   51.35    2.07 
   0   6  -1   52.39    2.20 
   0   6  -1   47.68    2.17 
   0  -6   1   49.78    2.55 
   0  -6   1   51.59    2.28 
   0  -6   1   51.48    2.07 
  -1   6  -1   56.39    2.45 
  -1   6  -1   54.22    2.09 
  -1   6  -1   55.07    2.33 
   1  -6   1   53.92    2.74 
   1  -6   1   56.97    2.38 
   1  -6   1   56.05    2.23 
  -2   6  -1   23.24    1.65 
  -2   6  -1   20.44    1.41 
   2  -6   1   25.11    1.95 
   2  -6   1   20.48    1.43 
   2  -6   1   21.63    1.34 
  -3   6  -1    0.78    0.59 
  -3   6  -1    0.09    0.68 
   3  -6   1   -0.83    0.74 
   3  -6   1    0.92    0.61 
   3  -6   1    0.58    0.57 
   3  -6   1    0.43    0.74 
  -4   6  -1    5.23    0.84 
   4  -6   1    6.28    1.18 
   4  -6   1    4.20    1.19 
   4  -6   1    5.94    0.98 
   4  -6   1    5.91    1.09 
  -5   6  -1   -0.11    0.60 
   5  -6   1   -1.61    0.89 
   5  -6   1   -0.29    0.67 
   5  -6   1   -0.23    0.93 
   5  -6   1    0.02    0.71 
   6  -6   1    0.84    0.86 
   6  -6   1   -0.89    0.80 
   6  -6   1    2.22    1.28 
   7  -6   1   -0.23    1.47 
   7  -6   1   -0.06    0.87 
   7  -6   1    0.08    0.85 
  11   5  -1   -1.57    1.19 
  11   5  -1    0.78    1.80 
  10   5  -1    1.95    1.65 
  10   5  -1    0.90    1.14 
   9   5  -1    1.71    1.09 
   9   5  -1    0.29    1.36 
   8   5  -1   25.18    2.47 
   8   5  -1   21.51    1.26 
   8   5  -1   26.03    2.07 
   7   5  -1   17.80    1.66 
   7   5  -1   17.98    1.94 
   7   5  -1   18.35    1.13 
  -7  -5   1   14.53    1.56 
   6   5  -1   19.72    1.81 
   6   5  -1   17.89    1.51 
   6   5  -1   16.82    1.11 
  -6  -5   1   16.48    1.36 
   5   5  -1    3.34    0.77 
   5   5  -1    4.34    0.66 
  -5  -5   1    5.72    0.87 
   4   5  -1    6.27    0.88 
   4   5  -1    9.32    1.12 
   4   5  -1    6.98    0.83 
  -4  -5   1    8.19    1.08 
  -4  -5   1    8.18    0.84 
  -4  -5   1    6.95    1.05 
   3   5  -1    1.63    0.53 
   3   5  -1    1.19    0.45 
   3   5  -1    1.71    0.55 
  -3  -5   1    2.24    0.65 
  -3  -5   1    0.94    0.59 
  -3  -5   1    1.24    0.48 
   2   5  -1   31.34    1.36 
   2   5  -1   30.82    1.48 
   2   5  -1   30.65    1.52 
  -2  -5   1   29.74    1.58 
  -2  -5   1   30.70    1.78 
  -2  -5   1   28.83    1.43 
  -2  -5   1   31.50    1.19 
   1   5  -1  143.00    4.54 
   1   5  -1  138.62    4.60 
   1   5  -1  137.27    4.56 
   1   5  -1  142.41    4.66 
  -1  -5   1  143.73    4.56 
  -1  -5   1  142.26    4.39 
  -1  -5   1  139.76    4.94 
  -1  -5   1  140.39    4.70 
   0   5  -1   24.08    1.31 
   0   5  -1   24.58    1.17 
   0   5  -1   24.91    1.30 
   0   5  -1   22.46    1.26 
   0  -5   1   22.67    1.16 
   0  -5   1   23.39    1.33 
   0  -5   1   23.65    1.65 
  -1   5  -1   23.88    1.47 
  -1   5  -1   26.04    1.21 
  -1   5  -1   21.88    1.40 
   1  -5   1   21.04    1.71 
   1  -5   1   23.68    1.40 
   1  -5   1   23.82    1.28 
  -2   5  -1    8.59    0.92 
  -2   5  -1    8.05    1.09 
   2  -5   1    8.87    0.92 
   2  -5   1    9.62    1.01 
   2  -5   1    9.46    1.32 
   2  -5   1   11.70    1.23 
  -3   5  -1    0.73    0.62 
  -3   5  -1    0.54    0.48 
   3  -5   1    0.70    0.53 
   3  -5   1    2.04    0.72 
   3  -5   1    0.72    0.65 
   3  -5   1    0.81    0.54 
  -4   5  -1   24.17    1.73 
  -4   5  -1   20.61    1.34 
   4  -5   1   22.11    1.50 
   4  -5   1   23.38    1.87 
   4  -5   1   21.02    1.84 
  -5   5  -1   62.32    2.96 
  -5   5  -1   62.69    2.43 
   5  -5   1   60.89    3.19 
   5  -5   1   59.38    2.73 
   5  -5   1   54.25    3.10 
   6  -5   1    1.68    1.05 
   6  -5   1    4.46    0.97 
   6  -5   1    6.44    1.39 
   7  -5   1    0.52    1.30 
   7  -5   1   -0.92    1.26 
   7  -5   1    0.47    0.88 
   8  -5   1   -0.51    0.85 
   8  -5   1   -0.33    1.37 
   8  -5   1   -0.69    1.44 
  11   4  -1   -1.32    1.74 
  10   4  -1    1.79    1.71 
  10   4  -1   -2.76    0.93 
   9   4  -1    4.73    1.10 
   9   4  -1    2.56    1.39 
   8   4  -1   11.42    1.59 
   8   4  -1   10.86    2.00 
   7   4  -1    2.77    0.51 
   7   4  -1    2.91    0.99 
   7   4  -1    3.67    0.87 
   6   4  -1   11.19    0.81 
   6   4  -1   12.34    1.26 
   6   4  -1    8.85    1.54 
  -6  -4   1    7.44    1.11 
   5   4  -1   25.16    1.42 
   5   4  -1   22.83    1.78 
   5   4  -1   25.68    1.18 
   5   4  -1   23.84    1.50 
  -5  -4   1   22.42    1.37 
   4   4  -1    2.88    0.67 
   4   4  -1    3.10    0.51 
   4   4  -1    2.45    0.54 
  -4  -4   1    2.52    0.67 
  -4  -4   1    2.58    0.52 
   3   4  -1    5.70    0.73 
   3   4  -1    2.96    0.57 
  -3  -4   1    3.04    0.45 
  -3  -4   1    4.60    0.83 
  -3  -4   1    2.97    0.62 
   2   4  -1    2.03    0.47 
   2   4  -1    1.82    0.51 
   2   4  -1    2.86    0.46 
  -2  -4   1    3.81    0.76 
  -2  -4   1    2.20    0.50 
   1   4  -1  105.26    3.48 
   1   4  -1  103.23    3.39 
   1   4  -1  104.52    3.38 
   1   4  -1  105.76    3.47 
  -1  -4   1  104.29    3.24 
  -1  -4   1  106.02    3.72 
  -1  -4   1  101.86    3.39 
  -1  -4   1  103.89    3.51 
   0   4  -1    5.07    0.63 
   0   4  -1    5.71    0.77 
   0   4  -1    6.25    0.72 
   0   4  -1    4.96    0.71 
   0  -4   1    5.72    0.62 
   0  -4   1    6.79    1.13 
   0  -4   1    6.72    0.79 
  -1   4  -1   10.65    0.73 
  -1   4  -1   10.40    0.81 
  -1   4  -1    9.39    0.91 
   1  -4   1   10.44    0.86 
   1  -4   1    8.69    0.75 
   1  -4   1    9.88    1.22 
  -2   4  -1    2.94    0.58 
  -2   4  -1    2.57    0.51 
   2  -4   1    3.37    0.57 
   2  -4   1    2.11    0.64 
   2  -4   1    2.48    0.69 
   2  -4   1    2.96    0.56 
  -3   4  -1    2.07    0.47 
  -3   4  -1    2.43    0.61 
   3  -4   1    2.70    0.70 
   3  -4   1    2.00    0.56 
   3  -4   1    1.89    0.63 
  -4   4  -1   43.01    2.11 
  -4   4  -1   43.75    1.78 
   4  -4   1   44.04    2.34 
   4  -4   1   42.70    2.35 
   4  -4   1   42.21    2.00 
  -5   4  -1   -0.06    0.44 
  -5   4  -1    0.72    0.71 
   5  -4   1   -0.10    0.70 
   5  -4   1    0.05    0.86 
  -6   4  -1   11.48    1.66 
  -6   4  -1    8.67    0.78 
   6  -4   1   10.65    2.05 
   6  -4   1    8.47    1.44 
   7  -4   1    0.93    1.28 
   7  -4   1    0.35    1.16 
   8  -4   1   -0.35    1.36 
   8  -4   1   -2.16    1.33 
   9  -4   1    3.98    1.68 
   9  -4   1    0.56    1.63 
  11   3  -1    1.78    1.37 
  11   3  -1    3.44    1.96 
  10   3  -1    6.41    1.92 
   9   3  -1   -0.47    0.83 
   9   3  -1    0.48    1.30 
   8   3  -1    1.69    0.82 
   8   3  -1    0.12    1.02 
   7   3  -1    5.94    0.89 
   7   3  -1    4.08    1.03 
   6   3  -1    2.69    0.81 
   6   3  -1    4.72    0.55 
   6   3  -1    3.63    0.74 
   5   3  -1    5.28    0.54 
   5   3  -1    4.51    0.72 
   5   3  -1    5.64    0.95 
   5   3  -1    2.79    0.88 
  -5  -3   1    2.79    0.73 
   4   3  -1   14.49    1.03 
   4   3  -1   15.58    0.80 
   4   3  -1   13.37    1.06 
  -4  -3   1   12.39    0.95 
   3   3  -1    2.98    0.54 
   3   3  -1    3.65    0.65 
   3   3  -1    3.39    0.55 
  -3  -3   1    2.58    0.56 
  -3  -3   1    2.23    0.43 
   2   3  -1    2.98    0.45 
   2   3  -1    2.37    0.47 
   2   3  -1    1.91    0.29 
   2   3  -1    2.82    0.36 
   2   3  -1    2.99    0.45 
  -2  -3   1    1.97    0.31 
  -2  -3   1    3.63    0.64 
  -2  -3   1    3.01    0.51 
  -2  -3   1    1.95    0.28 
   1   3  -1   99.08    3.15 
   1   3  -1  101.19    3.26 
   1   3  -1   92.96    3.15 
   1   3  -1  100.38    3.25 
  -1  -3   1   98.17    3.15 
  -1  -3   1  100.46    3.03 
  -1  -3   1  102.99    3.45 
  -1  -3   1  101.23    3.26 
  -1  -3   1   98.04    3.16 
   0   3  -1   88.31    2.99 
   0   3  -1   93.65    2.97 
   0   3  -1   93.18    3.06 
   0   3  -1   97.78    3.07 
   0  -3   1   92.02    3.24 
   0  -3   1   93.69    2.97 
   0  -3   1   90.17    3.04 
  -1   3  -1   16.61    0.89 
  -1   3  -1   16.68    0.99 
   1  -3   1   14.67    1.14 
   1  -3   1   15.70    1.05 
   1  -3   1   13.87    0.88 
   1  -3   1   14.99    0.84 
  -2   3  -1   31.15    1.29 
  -2   3  -1   31.58    1.48 
   2  -3   1   30.10    1.36 
   2  -3   1   28.42    1.54 
   2  -3   1   31.66    1.65 
  -3   3  -1    5.57    0.63 
  -3   3  -1    5.18    0.71 
   3  -3   1    5.59    0.91 
   3  -3   1    7.60    1.08 
  -4   3  -1   12.10    0.80 
  -4   3  -1   13.53    1.19 
   4  -3   1   11.63    1.44 
   4  -3   1   11.62    1.40 
  -5   3  -1    1.71    0.41 
  -5   3  -1    3.10    0.71 
   5  -3   1    3.05    0.94 
   5  -3   1    2.51    0.81 
  -6   3  -1   31.69    2.00 
  -6   3  -1   27.59    1.19 
   6  -3   1   27.11    2.17 
   6  -3   1   28.78    2.35 
  -7   3  -1   15.60    1.80 
   7  -3   1   16.44    2.20 
   7  -3   1   20.19    2.56 
   8  -3   1   -0.80    1.33 
   8  -3   1   -0.65    1.15 
   9  -3   1    1.39    1.44 
   9  -3   1   -1.29    1.51 
  11   2  -1    0.63    1.85 
  11   2  -1    0.51    1.36 
  10   2  -1    9.48    2.13 
  10   2  -1    7.39    1.66 
   9   2  -1    2.74    0.91 
   9   2  -1    5.60    1.53 
   8   2  -1    0.30    0.64 
   8   2  -1    0.23    1.07 
   7   2  -1   18.24    1.39 
   7   2  -1   20.40    1.80 
   6   2  -1   18.05    1.22 
   6   2  -1   16.06    1.55 
   5   2  -1    1.30    0.62 
   5   2  -1    2.07    0.52 
   4   2  -1    6.18    0.85 
   4   2  -1    8.39    1.07 
   4   2  -1   10.18    0.52 
   4   2  -1    7.85    0.81 
   3   2  -1   24.53    1.17 
   3   2  -1   24.98    0.94 
   3   2  -1   23.61    1.18 
  -3  -2   1   22.14    1.09 
  -3  -2   1   21.62    0.93 
   2   2  -1    6.89    0.74 
   2   2  -1    5.97    0.46 
   2   2  -1    5.79    0.61 
   2   2  -1    6.49    0.52 
  -2  -2   1    6.20    0.52 
  -2  -2   1    7.47    0.71 
   1   2  -1    0.71    0.29 
   1   2  -1    0.99    0.42 
   1   2  -1    1.01    0.30 
   1   2  -1    0.58    0.33 
   1   2  -1    0.67    0.37 
   1   2  -1    1.06    0.24 
  -1  -2   1    0.42    0.30 
  -1  -2   1    0.82    0.34 
  -1  -2   1    0.49    0.23 
  -1  -2   1    0.78    0.25 
   0   2  -1   11.97    0.89 
   0   2  -1   13.27    0.73 
   0   2  -1   14.23    0.72 
   0   2  -1   13.00    0.62 
   0  -2   1   14.47    0.70 
   0  -2   1   13.52    0.70 
   0  -2   1   13.03    0.74 
   0  -2   1   13.84    0.62 
   0  -2   1   13.30    0.94 
  -1   2  -1  127.11    3.94 
  -1   2  -1  115.58    4.15 
  -1   2  -1  126.11    4.01 
   1  -2   1  129.36    3.95 
   1  -2   1  128.90    4.15 
   1  -2   1  130.50    4.10 
  -2   2  -1  220.93    6.50 
  -2   2  -1  212.02    6.64 
   2  -2   1  207.75    6.75 
   2  -2   1  212.79    6.80 
  -3   2  -1   81.87    2.85 
  -3   2  -1   79.70    2.58 
   3  -2   1   75.73    2.99 
   3  -2   1   80.47    3.05 
  -4   2  -1    3.36    0.63 
  -4   2  -1    3.76    0.55 
   4  -2   1    4.11    0.78 
   4  -2   1    6.10    1.20 
  -5   2  -1   10.00    1.11 
  -5   2  -1    9.60    0.62 
   5  -2   1   10.60    1.45 
   5  -2   1   10.79    1.49 
  -6   2  -1   62.15    2.60 
   6  -2   1   58.13    2.94 
   6  -2   1   58.83    3.04 
  -7   2  -1    0.64    0.78 
   7  -2   1    4.01    1.19 
   7  -2   1    2.77    1.20 
   8  -2   1    2.61    1.49 
   8  -2   1    3.79    1.35 
   9  -2   1    0.90    1.62 
   9  -2   1   -0.12    1.33 
  10  -2   1    1.37    1.72 
  10  -2   1   -0.61    1.36 
  10   1  -1    1.48    1.76 
  10   1  -1    0.87    1.39 
   9   1  -1    0.64    1.43 
   9   1  -1    0.43    0.76 
   9   1  -1    0.74    1.25 
   8   1  -1    1.84    0.69 
   8   1  -1    1.51    1.16 
   8   1  -1    1.62    1.01 
   7   1  -1   -1.17    0.78 
   7   1  -1    0.68    0.51 
   6   1  -1   38.85    1.70 
   6   1  -1   34.86    2.08 
   5   1  -1    3.33    0.74 
   5   1  -1    5.85    0.73 
   4   1  -1   13.50    0.87 
   4   1  -1   13.07    1.07 
   3   1  -1   20.77    0.76 
   3   1  -1   21.78    1.03 
   3   1  -1   20.88    1.26 
   2   1  -1    0.00    0.25 
   2   1  -1    0.53    0.34 
   2   1  -1    0.24    0.20 
  -2  -1   1    0.37    0.35 
  -2  -1   1    0.06    0.18 
   1   1  -1  166.61    4.75 
   1   1  -1  143.86    4.69 
   1   1  -1  164.35    4.80 
   1   1  -1  155.10    4.79 
   1   1  -1  153.93    4.67 
  -1  -1   1  160.25    4.75 
  -1  -1   1  160.39    4.67 
   0   1  -1   38.26    1.24 
   0   1  -1   35.41    1.31 
   0   1  -1   37.87    1.24 
   0   1  -1   36.50    1.20 
   0  -1   1   38.17    1.25 
   0  -1   1   37.55    1.33 
   0  -1   1   38.12    1.15 
   0  -1   1   36.23    1.19 
   0  -1   1   39.32    1.24 
  -1   1  -1  574.61   16.63 
  -1   1  -1  563.75   16.54 
  -1   1  -1  539.30   16.62 
  -1   1  -1  560.22   16.48 
   1  -1   1  556.48   16.63 
   1  -1   1  566.60   16.53 
   1  -1   1  534.92   16.53 
   1  -1   1  555.89   16.62 
   1  -1   1  572.30   16.48 
  -2   1  -1   37.15    1.23 
  -2   1  -1   35.14    1.39 
   2  -1   1   36.52    1.23 
   2  -1   1   37.09    1.60 
   2  -1   1   34.60    1.57 
  -3   1  -1    0.29    0.36 
  -3   1  -1    0.03    0.19 
  -3   1  -1    0.64    0.31 
   3  -1   1    0.37    0.31 
   3  -1   1    0.55    0.54 
   3  -1   1    0.20    0.21 
   3  -1   1   -0.08    0.47 
  -4   1  -1    4.38    0.75 
   4  -1   1    4.05    0.74 
   4  -1   1    5.77    1.12 
   4  -1   1    4.33    0.66 
  -5   1  -1    4.58    0.73 
   5  -1   1    3.77    0.96 
   5  -1   1    4.15    0.58 
   5  -1   1    3.56    0.93 
  -6   1  -1   57.34    2.40 
   6  -1   1   53.56    2.79 
   6  -1   1   59.59    2.21 
   6  -1   1   56.71    2.90 
  -7   1  -1   41.35    2.11 
   7  -1   1   42.24    1.86 
   7  -1   1   41.67    2.74 
   7  -1   1   37.26    2.60 
  -8   1  -1  120.75    4.59 
   8  -1   1  120.25    5.32 
   8  -1   1  124.42    5.23 
   9  -1   1    1.27    1.45 
   9  -1   1    2.91    1.30 
  10  -1   1    2.83    1.71 
  10  -1   1    1.80    1.39 
  10   0  -1   -0.20    1.62 
  10   0  -1    4.31    1.66 
   9   0  -1   -1.93    1.18 
   9   0  -1    0.66    1.38 
   8   0  -1   -0.05    0.56 
   8   0  -1    0.43    1.10 
   8   0  -1    0.25    1.22 
   7   0  -1    1.62    0.97 
   7   0  -1    1.32    0.53 
   7   0  -1    2.75    1.00 
   6   0  -1    0.51    0.40 
   6   0  -1    0.80    0.77 
   6   0  -1    0.02    0.72 
   5   0  -1   24.46    1.14 
   5   0  -1   24.68    1.68 
   4   0  -1    5.27    0.55 
   4   0  -1    4.67    0.90 
   3   0  -1    1.37    0.47 
   3   0  -1    0.64    0.28 
  -3   0   1    0.59    0.36 
   2   0  -1   19.40    1.00 
   2   0  -1   19.16    0.81 
  -2   0   1   19.24    0.85 
   1   0  -1   95.70    2.96 
  -1   0   1   90.91    2.95 
   0   0  -1    0.07    0.05 
   0   0  -1   -0.01    0.07 
   0   0   1   -0.02    0.07 
  -1   0  -1   94.59    2.89 
  -1   0  -1   94.29    2.91 
  -1   0  -1   97.85    2.98 
  -1   0  -1   98.93    2.92 
  -1   0  -1   94.42    2.92 
   1   0   1   94.58    2.99 
   1   0   1   94.62    2.89 
   1   0   1   93.85    2.91 
   1   0   1   92.90    2.91 
   1   0   1   94.11    2.91 
   1   0   1   92.64    2.91 
  -2   0  -1   -0.14    0.31 
  -2   0  -1    0.57    0.36 
  -2   0  -1    0.56    0.27 
  -2   0  -1    0.53    0.30 
   2   0   1    0.69    0.42 
   2   0   1    0.19    0.37 
   2   0   1    0.23    0.27 
   2   0   1    0.70    0.33 
   2   0   1    1.18    0.34 
  -3   0  -1   -0.47    0.36 
  -3   0  -1    0.37    0.36 
  -3   0  -1   -0.03    0.31 
   3   0   1    0.10    0.34 
   3   0   1    0.68    0.47 
   3   0   1   -0.18    0.52 
  -4   0  -1    7.90    0.85 
  -4   0  -1   13.79    1.06 
   4   0   1   13.09    1.23 
   4   0   1   12.70    0.87 
   4   0   1   12.47    1.16 
  -5   0  -1   42.48    1.79 
   5   0   1   42.26    1.77 
   5   0   1   43.69    2.22 
  -6   0  -1   12.98    1.17 
   6   0   1   16.47    1.66 
   6   0   1   13.27    1.11 
   6   0   1   14.67    1.66 
  -7   0  -1   21.06    1.46 
   7   0   1   23.01    1.43 
   7   0   1   18.87    1.94 
   7   0   1   21.39    1.99 
  -8   0  -1   19.71    1.58 
   8   0   1   20.52    2.24 
   8   0   1   17.81    2.35 
   8   0   1   20.34    1.54 
   9   0   1    0.54    1.43 
   9   0   1    1.75    0.83 
   9   0   1    0.12    1.19 
  10   0   1    1.03    1.43 
  10   0   1   -0.80    1.57 
  10  -1  -1    3.37    1.77 
  10  -1  -1    3.91    1.89 
   9  -1  -1    4.04    1.58 
   9  -1  -1    7.72    1.81 
   8  -1  -1    0.98    1.23 
   8  -1  -1    0.27    1.27 
   7  -1  -1    2.20    1.09 
   7  -1  -1    0.26    1.01 
   6  -1  -1    8.76    1.60 
   6  -1  -1   10.03    1.67 
   5  -1  -1   -0.01    0.68 
   5  -1  -1    0.53    0.66 
   4  -1  -1    0.01    0.59 
   4  -1  -1    0.70    0.53 
   3  -1  -1    7.98    1.06 
   3  -1  -1   10.44    0.94 
   2  -1  -1   20.20    0.78 
   2  -1  -1   22.01    1.05 
   2  -1  -1   21.18    1.20 
   1  -1  -1   21.65    0.89 
   1  -1  -1   22.78    1.06 
  -1   1   1   23.49    0.90 
  -1   1   1   22.60    1.03 
   0  -1  -1    9.12    0.46 
   0  -1  -1   10.48    0.51 
   0  -1  -1   10.85    0.52 
   0  -1  -1   10.31    0.49 
   0   1   1   10.80    0.51 
   0   1   1   10.86    0.53 
   0   1   1   10.92    0.49 
   0   1   1   11.14    0.53 
  -1  -1  -1  177.05    5.38 
  -1  -1  -1  177.69    5.39 
  -1  -1  -1  187.26    5.36 
  -1  -1  -1  178.91    5.37 
  -1  -1  -1  180.11    5.36 
  -1  -1  -1  173.35    5.39 
   1   1   1  175.44    5.39 
   1   1   1  175.72    5.37 
   1   1   1  180.34    5.37 
   1   1   1  182.14    5.38 
   1   1   1  179.39    5.40 
  -2  -1  -1  494.42   14.98 
  -2  -1  -1  501.97   14.97 
  -2  -1  -1  502.93   14.99 
  -2  -1  -1  496.49   14.86 
  -2  -1  -1  506.39   15.02 
  -2  -1  -1  487.29   15.01 
  -2  -1  -1  518.54   14.86 
   2   1   1  519.36   14.98 
   2   1   1  506.43   14.98 
   2   1   1  513.91   15.01 
   2   1   1  510.07   15.04 
   2   1   1  489.00   14.86 
   2   1   1  501.53   14.98 
  -3  -1  -1  146.35    4.47 
  -3  -1  -1  141.43    4.17 
  -3  -1  -1  136.65    4.25 
   3   1   1  137.85    4.24 
   3   1   1  134.16    4.39 
   3   1   1  137.63    4.47 
   3   1   1  137.38    4.53 
  -4  -1  -1   12.96    0.78 
  -4  -1  -1   13.97    1.01 
   4   1   1   12.84    0.94 
   4   1   1   13.76    1.15 
   4   1   1   12.83    0.97 
  -5  -1  -1   14.73    0.92 
  -5  -1  -1   15.45    1.18 
   5   1   1   16.26    1.09 
   5   1   1   15.49    1.35 
  -6  -1  -1    7.81    1.26 
  -6  -1  -1    7.94    0.93 
   6   1   1    7.39    0.99 
   6   1   1    9.15    1.41 
  -7  -1  -1   -0.29    0.50 
   7   1   1    1.02    0.55 
   7   1   1   -0.43    0.92 
   7   1   1   -0.86    0.72 
  -8  -1  -1    7.32    1.16 
   8   1   1    5.97    1.27 
   8   1   1    6.09    0.94 
   8   1   1    6.66    1.42 
   9   1   1    2.62    0.87 
   9   1   1    1.22    1.34 
   9   1   1    2.13    1.17 
  10   1   1   11.80    2.17 
  10   1   1   12.80    1.70 
  10   1   1   13.11    2.63 
  11   1   1    0.94    1.43 
  11   1   1    2.60    1.88 
   9  -2  -1   24.10    3.30 
   9  -2  -1   26.24    2.91 
   8  -2  -1   67.49    3.94 
   8  -2  -1   67.24    3.87 
   7  -2  -1   21.17    2.34 
   7  -2  -1   20.12    2.33 
   6  -2  -1    0.19    0.82 
   6  -2  -1    1.74    0.93 
   5  -2  -1    1.07    0.78 
   5  -2  -1    1.51    0.77 
   4  -2  -1    1.35    0.65 
   4  -2  -1    0.88    0.30 
   4  -2  -1    1.91    0.61 
   3  -2  -1   13.01    1.00 
   3  -2  -1   11.76    1.16 
   3  -2  -1    7.82    0.61 
   2  -2  -1    6.05    0.92 
   2  -2  -1    6.37    0.69 
   2  -2  -1    4.49    0.47 
  -2   2   1    4.52    0.53 
   1  -2  -1   29.42    1.25 
   1  -2  -1   29.32    1.14 
   1  -2  -1   30.42    1.16 
   1  -2  -1   30.66    1.39 
  -1   2   1   29.82    1.15 
  -1   2   1   27.97    1.15 
   0  -2  -1    0.39    0.32 
   0  -2  -1    0.77    0.26 
   0  -2  -1    1.14    0.36 
   0  -2  -1    0.29    0.31 
   0  -2  -1    1.06    0.31 
   0   2   1    0.62    0.34 
   0   2   1    0.66    0.33 
   0   2   1    0.49    0.27 
   0   2   1    0.64    0.35 
   0   2   1    0.47    0.33 
  -1  -2  -1   16.33    0.80 
  -1  -2  -1   14.59    0.78 
  -1  -2  -1   16.50    0.71 
  -1  -2  -1   17.53    0.83 
  -1  -2  -1   16.48    0.79 
  -1  -2  -1   14.64    0.74 
   1   2   1   15.78    0.78 
   1   2   1   15.60    0.70 
   1   2   1   15.35    0.83 
   1   2   1   15.57    0.80 
   1   2   1   16.46    0.80 
   1   2   1   14.22    0.79 
  -2  -2  -1  115.60    3.68 
  -2  -2  -1  117.65    3.72 
  -2  -2  -1  116.00    3.78 
  -2  -2  -1  116.22    3.79 
   2   2   1  120.97    3.80 
   2   2   1  116.93    3.75 
   2   2   1  124.66    3.70 
   2   2   1  116.47    3.71 
   2   2   1  122.27    3.79 
  -3  -2  -1   33.82    1.39 
  -3  -2  -1   32.88    1.18 
  -3  -2  -1   32.07    1.46 
  -3  -2  -1   31.80    1.12 
  -3  -2  -1   31.44    1.41 
   3   2   1   31.14    1.42 
   3   2   1   30.54    1.40 
   3   2   1   33.30    1.47 
   3   2   1   32.71    1.20 
  -4  -2  -1   30.00    1.07 
  -4  -2  -1   25.60    0.99 
  -4  -2  -1   26.13    1.39 
   4   2   1   27.68    1.36 
   4   2   1   24.31    1.44 
   4   2   1   25.85    0.98 
   4   2   1   25.00    1.33 
  -5  -2  -1   35.47    1.35 
  -5  -2  -1   34.06    1.68 
   5   2   1   35.17    1.86 
   5   2   1   33.55    1.63 
   5   2   1   36.68    1.73 
  -6  -2  -1    1.16    0.61 
  -6  -2  -1    1.08    0.42 
   6   2   1    1.94    0.76 
   6   2   1    1.63    0.63 
  -7  -2  -1   -0.41    0.73 
  -7  -2  -1    0.24    0.45 
   7   2   1    0.25    0.82 
   7   2   1   -1.03    0.50 
  -8  -2  -1    4.47    0.64 
   8   2   1    4.41    1.31 
   8   2   1    5.22    0.89 
   9   2   1   13.01    2.55 
   9   2   1    8.56    1.51 
   9   2   1    7.03    1.36 
  10   2   1    6.94    1.57 
  10   2   1   10.28    2.02 
  11   2   1   -1.18    1.69 
  11   2   1    0.12    1.33 
   9  -3  -1    0.80    1.68 
   9  -3  -1    1.49    1.59 
   8  -3  -1    4.01    1.56 
   8  -3  -1    2.99    1.49 
   7  -3  -1    9.50    1.65 
   7  -3  -1   14.27    2.32 
   6  -3  -1    0.85    0.99 
   6  -3  -1   -0.14    0.94 
   5  -3  -1    8.31    1.53 
   5  -3  -1    8.85    1.56 
   4  -3  -1   19.86    1.51 
   4  -3  -1   19.46    1.68 
   3  -3  -1   87.19    3.16 
   3  -3  -1   86.60    3.36 
  -3   3   1   85.16    2.89 
   2  -3  -1   33.25    1.48 
   2  -3  -1   31.24    1.68 
   2  -3  -1   31.81    1.52 
  -2   3   1   31.60    1.34 
   1  -3  -1   -0.07    0.39 
   1  -3  -1    0.17    0.37 
   1  -3  -1    0.28    0.40 
   1  -3  -1    0.56    0.46 
  -1   3   1    0.97    0.40 
  -1   3   1    0.90    0.40 
   0  -3  -1    0.32    0.41 
   0  -3  -1    0.86    0.38 
   0  -3  -1    0.69    0.41 
   0  -3  -1    1.30    0.29 
   0   3   1    0.40    0.39 
   0   3   1    1.24    0.34 
   0   3   1    0.42    0.32 
   0   3   1    0.98    0.40 
  -1  -3  -1    0.73    0.39 
  -1  -3  -1    0.86    0.37 
  -1  -3  -1    0.60    0.30 
  -1  -3  -1    0.52    0.38 
   1   3   1    0.64    0.39 
   1   3   1    0.72    0.39 
   1   3   1    0.79    0.39 
  -2  -3  -1  250.23    7.59 
  -2  -3  -1  240.99    7.56 
  -2  -3  -1  236.32    7.45 
   2   3   1  252.75    7.57 
   2   3   1  249.35    7.56 
   2   3   1  246.90    7.50 
  -3  -3  -1  246.26    7.70 
  -3  -3  -1  236.59    7.57 
  -3  -3  -1  256.45    7.72 
   3   3   1  248.66    7.67 
   3   3   1  245.54    7.53 
   3   3   1  247.17    7.66 
   3   3   1  251.16    7.69 
  -4  -3  -1  119.36    3.51 
  -4  -3  -1  105.13    3.86 
  -4  -3  -1  110.99    3.98 
  -4  -3  -1  117.84    3.95 
   4   3   1  118.31    3.65 
   4   3   1  115.43    3.92 
   4   3   1  113.03    3.93 
   4   3   1  115.66    3.89 
  -5  -3  -1   20.69    0.91 
  -5  -3  -1   15.59    1.20 
   5   3   1   19.54    1.29 
   5   3   1   20.38    0.94 
   5   3   1   20.31    1.34 
   5   3   1   21.80    1.44 
  -6  -3  -1   12.20    0.74 
  -6  -3  -1   11.70    1.21 
   6   3   1    8.92    1.16 
   6   3   1   12.25    1.48 
  -7  -3  -1    7.13    0.68 
  -7  -3  -1    7.39    1.30 
   7   3   1    6.96    0.97 
   7   3   1    6.21    1.13 
  -8  -3  -1    8.04    1.25 
  -8  -3  -1    8.55    0.77 
   8   3   1    9.40    1.85 
   8   3   1    6.83    1.06 
   9   3   1   14.43    1.76 
   9   3   1   17.42    2.55 
  10   3   1    0.21    0.94 
  10   3   1    1.42    1.64 
  11   3   1    2.11    1.38 
  11   3   1    3.52    1.90 
   8  -4  -1    0.50    1.32 
   8  -4  -1   -1.51    1.46 
   7  -4  -1    0.82    1.19 
   7  -4  -1    0.29    1.30 
   6  -4  -1    0.11    1.08 
   6  -4  -1    0.12    0.96 
   5  -4  -1    3.27    0.97 
   5  -4  -1    5.44    1.14 
   4  -4  -1    2.22    0.79 
   4  -4  -1    1.05    0.72 
  -4   4   1    0.76    0.48 
   3  -4  -1   28.24    1.65 
   3  -4  -1   28.68    1.87 
   3  -4  -1   27.52    1.56 
  -3   4   1   27.70    1.35 
   2  -4  -1    0.67    0.58 
   2  -4  -1   -0.02    0.43 
   2  -4  -1   -0.64    0.45 
   2  -4  -1    0.23    0.50 
  -2   4   1    0.28    0.46 
   1  -4  -1   42.83    1.82 
   1  -4  -1   44.91    2.05 
   1  -4  -1   43.82    1.85 
   1  -4  -1   40.13    1.74 
  -1   4   1   44.10    1.76 
  -1   4   1   45.79    2.12 
   0  -4  -1   20.04    1.18 
   0  -4  -1   20.47    1.31 
   0  -4  -1   20.09    1.13 
   0   4   1   22.57    1.15 
   0   4   1   21.28    1.15 
   0   4   1   23.57    1.04 
   0   4   1   22.19    1.14 
  -1  -4  -1    2.16    0.49 
  -1  -4  -1    1.82    0.50 
  -1  -4  -1    1.71    0.51 
  -1  -4  -1    2.50    0.38 
   1   4   1    1.40    0.47 
   1   4   1    1.48    0.45 
   1   4   1    1.90    0.47 
  -2  -4  -1    7.75    0.92 
  -2  -4  -1    6.65    0.80 
  -2  -4  -1    6.90    0.64 
  -2  -4  -1    7.47    0.85 
   2   4   1    7.21    0.88 
   2   4   1    8.37    0.80 
   2   4   1    6.12    0.72 
  -3  -4  -1   33.19    1.75 
  -3  -4  -1   35.53    1.48 
  -3  -4  -1   34.42    1.69 
   3   4   1   32.60    1.58 
   3   4   1   33.30    1.53 
   3   4   1   31.63    1.51 
   3   4   1   31.43    1.41 
  -4  -4  -1   41.59    1.92 
  -4  -4  -1   45.40    1.82 
  -4  -4  -1   42.08    1.95 
   4   4   1   44.68    1.89 
   4   4   1   41.17    1.89 
   4   4   1   44.40    1.70 
   4   4   1   42.90    1.92 
  -5  -4  -1    9.73    1.33 
  -5  -4  -1    9.33    1.18 
  -5  -4  -1    8.37    1.17 
   5   4   1   10.63    0.80 
   5   4   1    6.64    0.99 
   5   4   1    9.44    1.20 
   5   4   1    7.24    1.37 
  -6  -4  -1    2.30    0.71 
   6   4   1    2.50    0.73 
   6   4   1    1.19    0.77 
   6   4   1    3.49    0.54 
  -7  -4  -1    1.92    0.77 
   7   4   1    3.38    0.80 
   7   4   1    4.04    0.97 
  -8  -4  -1    0.98    0.92 
   8   4   1    1.37    1.08 
   8   4   1    0.45    0.84 
   9   4   1    0.19    0.91 
   9   4   1    0.35    1.29 
  10   4   1    5.06    1.73 
  10   4   1    5.29    1.30 
  11   4   1    6.38    2.08 
  11   4   1    4.37    1.31 
   8  -5  -1    0.67    1.48 
   8  -5  -1   -1.74    0.81 
   7  -5  -1    1.01    1.40 
   7  -5  -1    0.07    0.89 
   6  -5  -1   -0.28    1.16 
   6  -5  -1    1.61    0.86 
   6  -5  -1    1.08    1.10 
   5  -5  -1    6.30    1.30 
   5  -5  -1    6.90    1.23 
   5  -5  -1    5.51    1.01 
   4  -5  -1    5.31    0.96 
   4  -5  -1    5.73    1.08 
   4  -5  -1    7.05    1.06 
   4  -5  -1    7.07    1.18 
  -4   5   1    7.31    1.00 
   3  -5  -1   17.22    1.35 
   3  -5  -1   19.19    1.49 
   3  -5  -1   17.62    1.38 
   3  -5  -1   17.76    1.58 
  -3   5   1   20.11    1.26 
   2  -5  -1    0.63    0.58 
   2  -5  -1    0.25    0.49 
   2  -5  -1    1.01    0.57 
   2  -5  -1    0.99    0.60 
  -2   5   1    1.11    0.57 
   1  -5  -1   22.24    1.46 
   1  -5  -1   19.04    1.47 
   1  -5  -1   17.53    1.35 
  -1   5   1   19.41    1.37 
   0  -5  -1   17.76    1.47 
   0  -5  -1   18.18    1.15 
   0  -5  -1   18.74    1.22 
   0   5   1   18.64    1.18 
   0   5   1   20.76    1.15 
   0   5   1   19.95    1.05 
   0   5   1   16.64    1.30 
  -1  -5  -1    6.21    0.91 
  -1  -5  -1    3.23    0.57 
  -1  -5  -1    3.51    0.68 
  -1  -5  -1    3.80    0.51 
   1   5   1    1.28    0.52 
   1   5   1    3.93    0.71 
   1   5   1    5.49    0.82 
   1   5   1    3.18    0.60 
  -2  -5  -1   21.05    1.32 
  -2  -5  -1   21.94    1.26 
  -2  -5  -1   20.60    1.38 
  -2  -5  -1   19.91    1.05 
   2   5   1   20.45    1.26 
   2   5   1   21.89    1.23 
   2   5   1   21.02    1.17 
  -3  -5  -1    1.55    0.63 
  -3  -5  -1    1.92    0.62 
  -3  -5  -1    1.99    0.44 
   3   5   1    1.62    0.60 
   3   5   1    2.29    0.53 
   3   5   1    2.13    0.55 
  -4  -5  -1  122.84    4.23 
  -4  -5  -1  131.93    4.49 
  -4  -5  -1  129.18    4.48 
   4   5   1  123.66    4.43 
   4   5   1  129.09    4.37 
   4   5   1  124.53    4.43 
   4   5   1  128.39    4.23 
  -5  -5  -1   32.07    1.76 
  -5  -5  -1   32.82    1.82 
  -5  -5  -1   32.34    1.67 
   5   5   1   32.20    1.77 
   5   5   1   31.06    1.48 
   5   5   1   32.11    1.78 
  -6  -5  -1   11.14    1.24 
   6   5   1   15.72    1.54 
   6   5   1   15.51    1.45 
   6   5   1   13.74    0.99 
  -7  -5  -1    0.54    0.78 
   7   5   1    1.53    0.94 
   7   5   1    1.03    0.82 
   7   5   1    0.47    0.53 
  -8  -5  -1    0.31    0.87 
   8   5   1    0.37    0.84 
   8   5   1   -0.96    0.99 
  -9  -5  -1    4.19    1.25 
   9   5   1    5.01    1.25 
   9   5   1    5.64    1.51 
  10   5   1   -0.67    1.04 
  10   5   1    0.02    1.52 
  11   5   1    0.11    1.18 
  11   5   1    0.68    1.77 
   7  -6  -1   26.27    3.17 
   7  -6  -1   23.13    2.12 
   6  -6  -1    6.98    1.60 
   6  -6  -1    8.95    1.40 
   6  -6  -1    7.35    1.32 
   5  -6  -1    0.82    1.04 
   5  -6  -1    0.55    0.80 
   5  -6  -1    0.43    0.78 
   5  -6  -1    0.70    0.92 
   4  -6  -1    0.65    0.70 
   4  -6  -1    0.41    0.70 
   4  -6  -1    0.50    0.84 
   4  -6  -1    0.95    0.84 
  -4   6   1    0.68    0.63 
   3  -6  -1    2.26    0.74 
   3  -6  -1    2.79    0.80 
   3  -6  -1    2.41    0.80 
   3  -6  -1    1.03    0.78 
  -3   6   1    1.46    0.69 
   2  -6  -1    1.51    0.62 
   2  -6  -1    2.66    0.75 
   2  -6  -1    1.65    0.63 
   2  -6  -1    1.07    0.73 
  -2   6   1    2.44    0.67 
   1  -6  -1   16.44    1.37 
   1  -6  -1   19.02    1.67 
   1  -6  -1   17.80    1.26 
  -1   6   1   18.87    1.34 
   0  -6  -1    2.81    0.75 
   0  -6  -1    4.23    0.78 
   0  -6  -1    3.83    0.67 
   0   6   1    5.18    0.83 
   0   6   1    3.30    0.71 
   0   6   1    4.18    0.61 
  -1  -6  -1    9.18    1.11 
  -1  -6  -1    8.85    0.85 
  -1  -6  -1    9.57    1.24 
  -1  -6  -1    9.65    1.00 
   1   6   1    8.58    1.07 
   1   6   1   10.29    1.01 
   1   6   1    9.16    0.93 
  -2  -6  -1    1.10    0.66 
  -2  -6  -1    0.94    0.40 
  -2  -6  -1    1.27    0.57 
  -2  -6  -1    0.99    0.62 
   2   6   1    1.89    0.52 
   2   6   1    1.25    0.61 
   2   6   1    1.32    0.60 
  -3  -6  -1    2.71    0.68 
  -3  -6  -1    2.97    0.53 
  -3  -6  -1    2.90    0.74 
   3   6   1    2.83    0.66 
   3   6   1    3.80    0.66 
   3   6   1    3.25    0.71 
  -4  -6  -1    0.07    0.54 
  -4  -6  -1    0.45    0.67 
  -4  -6  -1    0.35    0.73 
   4   6   1    1.42    0.69 
   4   6   1    1.18    0.68 
   4   6   1    1.90    0.62 
  -5  -6  -1   25.19    1.66 
  -5  -6  -1   24.89    1.64 
  -5  -6  -1   23.20    1.44 
   5   6   1   27.52    1.45 
   5   6   1   24.15    1.69 
   5   6   1   21.47    1.65 
  -6  -6  -1   59.92    2.79 
  -6  -6  -1   64.23    2.64 
  -6  -6  -1   67.38    2.88 
   6   6   1   58.36    2.78 
   6   6   1   57.21    2.41 
   6   6   1   60.66    2.83 
  -7  -6  -1   49.26    2.55 
   7   6   1   56.74    2.75 
   7   6   1   57.33    2.27 
   7   6   1   58.16    2.92 
  -8  -6  -1    2.61    1.05 
   8   6   1    2.63    1.18 
   8   6   1    1.42    0.94 
  -9  -6  -1   -0.43    1.10 
   9   6   1   -0.21    1.04 
   9   6   1   -0.02    1.25 
 -10  -6  -1    0.61    1.31 
  10   6   1    2.30    1.61 
  10   6   1    2.41    1.29 
  11   6   1    2.18    1.35 
  11   6   1    2.29    1.79 
   6  -7  -1    0.30    1.00 
   6  -7  -1    1.30    1.53 
   6  -7  -1    0.04    0.88 
   5  -7  -1    0.52    0.96 
   5  -7  -1   -0.60    0.86 
   5  -7  -1   -0.57    0.86 
   5  -7  -1   -1.37    1.11 
   4  -7  -1    1.44    1.13 
   4  -7  -1    0.54    0.86 
   4  -7  -1    1.32    0.83 
   4  -7  -1    0.39    0.88 
  -4   7   1    0.89    0.82 
   3  -7  -1    1.44    1.00 
   3  -7  -1    0.30    0.78 
   3  -7  -1    1.60    0.81 
   3  -7  -1    1.99    0.79 
  -3   7   1    0.51    0.76 
   2  -7  -1  114.53    4.33 
   2  -7  -1  115.27    4.43 
   2  -7  -1  118.07    4.82 
  -2   7   1  112.09    4.24 
   1  -7  -1    4.03    0.78 
   1  -7  -1    4.73    1.02 
   1  -7  -1    3.12    0.81 
  -1   7   1    4.49    0.87 
   0  -7  -1   25.38    1.69 
   0  -7  -1   26.40    1.57 
   0  -7  -1   24.24    1.97 
   0   7   1   25.30    1.42 
   0   7   1   25.45    1.63 
  -1  -7  -1    0.12    0.69 
  -1  -7  -1    0.88    0.58 
  -1  -7  -1   -0.08    0.61 
  -1  -7  -1    1.11    0.49 
   1   7   1   -0.21    0.55 
   1   7   1    0.01    0.62 
  -2  -7  -1    4.37    0.88 
  -2  -7  -1    3.97    0.86 
  -2  -7  -1    3.23    0.71 
  -2  -7  -1    2.92    0.54 
   2   7   1    3.82    0.77 
   2   7   1    3.38    0.74 
  -3  -7  -1    2.22    0.83 
  -3  -7  -1    2.93    0.56 
  -3  -7  -1    2.25    0.75 
   3   7   1    2.90    0.77 
   3   7   1    1.51    0.73 
  -4  -7  -1   -0.55    0.90 
  -4  -7  -1    0.90    0.61 
  -4  -7  -1    1.44    0.92 
   4   7   1    1.01    0.75 
   4   7   1   -0.07    0.62 
  -5  -7  -1   18.51    1.41 
  -5  -7  -1   16.53    1.59 
  -5  -7  -1   13.59    1.52 
   5   7   1   17.71    1.36 
   5   7   1   16.27    1.63 
   5   7   1   14.60    1.50 
  -6  -7  -1    1.42    0.85 
  -6  -7  -1    2.04    0.81 
  -6  -7  -1    2.16    0.93 
   6   7   1    2.86    0.93 
   6   7   1    2.39    0.76 
   6   7   1    0.77    0.85 
  -7  -7  -1    7.77    1.20 
  -7  -7  -1    6.87    1.19 
   7   7   1   11.53    1.78 
   7   7   1    8.01    1.14 
   7   7   1   12.89    1.76 
  -8  -7  -1    0.54    0.90 
   8   7   1   -0.28    0.64 
   8   7   1    2.10    1.17 
   8   7   1    0.79    1.06 
  -9  -7  -1    2.98    1.24 
   9   7   1    3.61    1.41 
   9   7   1    0.39    1.14 
 -10  -7  -1   -0.24    1.25 
  10   7   1   -0.58    1.26 
  10   7   1   -0.83    1.43 
   5  -8  -1    4.99    1.63 
   5  -8  -1    5.19    1.19 
   5  -8  -1    4.53    1.27 
   4  -8  -1    1.67    0.94 
   4  -8  -1    1.71    1.05 
   4  -8  -1    1.19    1.37 
  -4   8   1    0.93    0.96 
   3  -8  -1   -0.89    1.09 
   3  -8  -1    0.78    0.81 
   3  -8  -1   -0.61    0.77 
  -3   8   1   -0.70    0.83 
   2  -8  -1   -0.55    1.00 
   2  -8  -1    0.43    0.70 
   2  -8  -1    0.88    0.82 
  -2   8   1    0.77    0.92 
   1  -8  -1    6.34    1.31 
   1  -8  -1    5.39    1.06 
   1  -8  -1    7.81    1.26 
  -1   8   1    4.37    1.02 
   0  -8  -1    2.08    0.73 
   0  -8  -1    1.44    1.04 
   0  -8  -1    2.09    0.88 
   0   8   1    2.70    0.91 
   0   8   1    5.95    1.02 
  -1  -8  -1   19.53    1.72 
  -1  -8  -1   20.83    1.56 
  -1  -8  -1   23.13    1.39 
  -1  -8  -1   21.44    2.07 
   1   8   1   20.37    1.55 
   1   8   1   20.76    1.67 
  -2  -8  -1    2.57    0.83 
  -2  -8  -1    2.97    0.62 
  -2  -8  -1    3.61    1.04 
  -2  -8  -1    2.55    1.04 
   2   8   1    3.61    0.90 
   2   8   1    2.36    0.79 
  -3  -8  -1    3.62    1.08 
  -3  -8  -1    4.98    0.99 
  -3  -8  -1    4.81    0.71 
   3   8   1    3.77    0.91 
   3   8   1    3.69    0.93 
  -4  -8  -1   -0.34    0.85 
  -4  -8  -1    0.74    0.60 
  -4  -8  -1    1.04    0.85 
   4   8   1    0.88    0.78 
   4   8   1    0.44    0.86 
  -5  -8  -1    2.20    1.14 
  -5  -8  -1    0.66    1.02 
  -5  -8  -1    3.24    0.88 
   5   8   1   -0.18    0.88 
   5   8   1    1.34    0.83 
   5   8   1    0.93    0.79 
  -6  -8  -1   -0.69    0.99 
  -6  -8  -1    0.79    0.92 
  -6  -8  -1   -1.54    0.84 
   6   8   1    0.15    0.76 
   6   8   1    0.00    0.87 
   6   8   1   -1.72    0.89 
  -7  -8  -1    9.57    1.67 
  -7  -8  -1    5.50    1.24 
  -7  -8  -1    8.70    1.47 
   7   8   1    6.65    1.29 
   7   8   1    6.33    1.36 
   7   8   1    7.73    1.15 
  -8  -8  -1   -0.31    0.92 
   8   8   1    0.15    1.19 
   8   8   1   -0.16    1.01 
   8   8   1    0.55    1.15 
  -9  -8  -1    1.20    1.13 
   9   8   1    0.36    1.28 
   9   8   1   -0.26    1.30 
 -10  -8  -1    0.85    1.24 
  10   8   1    0.47    1.48 
  10   8   1    2.13    1.44 
   4  -9  -1    1.37    1.01 
   4  -9  -1    2.24    1.60 
   4  -9  -1   -0.48    0.97 
  -4   9   1    1.19    1.10 
   3  -9  -1   -0.60    1.25 
   3  -9  -1    0.34    0.86 
   3  -9  -1    0.26    1.00 
  -3   9   1   -0.38    1.02 
   2  -9  -1    8.27    1.74 
   2  -9  -1    9.50    1.64 
   2  -9  -1   11.27    1.72 
  -2   9   1    8.93    1.38 
   1  -9  -1    0.59    0.79 
   1  -9  -1   -0.45    1.07 
   1  -9  -1    0.14    0.87 
  -1   9   1   -0.62    0.93 
   0  -9  -1   36.83    2.76 
   0  -9  -1   32.24    2.10 
   0  -9  -1   33.75    2.31 
   0   9   1   35.36    2.33 
  -1  -9  -1   12.55    1.82 
  -1  -9  -1   11.32    1.49 
  -1  -9  -1   12.22    1.32 
  -1  -9  -1   14.01    2.08 
   1   9   1   11.85    1.44 
   1   9   1   12.22    1.66 
  -2  -9  -1    2.60    0.73 
  -2  -9  -1    2.85    1.14 
  -2  -9  -1    0.89    1.01 
  -2  -9  -1    3.41    1.03 
   2   9   1    3.33    1.05 
   2   9   1    2.68    0.98 
  -3  -9  -1    1.67    0.67 
  -3  -9  -1    0.19    1.05 
  -3  -9  -1   -0.27    0.94 
   3   9   1   -0.18    0.92 
   3   9   1    0.25    0.93 
  -4  -9  -1    3.17    0.72 
  -4  -9  -1    3.91    1.15 
  -4  -9  -1    2.24    1.21 
   4   9   1    2.59    1.11 
   4   9   1    1.98    0.99 
  -5  -9  -1   -0.39    0.97 
  -5  -9  -1    0.78    0.99 
  -5  -9  -1    0.51    0.67 
   5   9   1    0.65    1.11 
   5   9   1    0.46    0.97 
   5   9   1    0.25    0.72 
  -6  -9  -1    5.74    0.97 
  -6  -9  -1    6.30    1.31 
  -6  -9  -1    5.32    1.26 
   6   9   1    4.21    1.13 
   6   9   1    5.75    1.19 
   6   9   1    5.67    1.32 
  -7  -9  -1    2.18    0.93 
  -7  -9  -1    2.74    1.28 
  -7  -9  -1    2.22    1.25 
   7   9   1    2.82    1.05 
   7   9   1    1.80    1.32 
   7   9   1    2.71    1.16 
  -8  -9  -1    3.08    1.10 
   8   9   1    2.88    1.45 
   8   9   1    0.71    1.25 
   9   9   1    0.84    1.49 
   9   9   1   -0.74    1.28 
   2 -10  -1    2.86    1.03 
   2 -10  -1    4.84    1.75 
   2 -10  -1    3.42    1.23 
  -2  10   1    4.49    1.32 
   1 -10  -1    1.68    0.98 
   1 -10  -1    0.32    1.10 
   1 -10  -1    2.76    1.42 
  -1  10   1    2.85    1.23 
   0 -10  -1    0.61    1.08 
   0 -10  -1    0.41    0.91 
   0 -10  -1    0.34    0.83 
   0 -10  -1    0.52    1.28 
   0  10   1   -0.51    1.09 
  -1 -10  -1    1.51    1.16 
  -1 -10  -1    1.68    1.00 
  -1 -10  -1    3.01    1.25 
  -1 -10  -1    0.98    0.79 
   1  10   1    2.02    1.21 
   1  10   1    1.40    1.15 
  -2 -10  -1    0.95    1.19 
  -2 -10  -1    0.63    0.61 
  -2 -10  -1    0.79    1.04 
  -2 -10  -1   -0.04    0.92 
   2  10   1    0.74    1.12 
   2  10   1    0.67    0.98 
  -3 -10  -1    7.67    1.37 
  -3 -10  -1   10.75    1.69 
  -3 -10  -1   10.09    1.19 
   3  10   1    6.66    1.35 
   3  10   1    8.41    1.34 
  -4 -10  -1    3.15    0.81 
  -4 -10  -1    3.26    1.37 
  -4 -10  -1    4.77    1.26 
   4  10   1    2.56    1.16 
   4  10   1    2.23    1.22 
  -5 -10  -1   -0.19    1.20 
  -5 -10  -1    1.41    1.31 
   5  10   1    1.14    1.24 
   5  10   1    0.83    1.08 
  -6 -10  -1    0.10    1.15 
  -6 -10  -1    0.20    1.15 
   6  10   1    0.37    1.05 
   6  10   1   -1.15    1.26 
   6  10   1   -0.29    0.83 
  -7 -10  -1    3.05    1.36 
  -7 -10  -1    0.26    1.23 
   7  10   1   -0.06    1.34 
   7  10   1    0.95    1.17 
   7  10   1    0.33    1.08 
  -8 -10  -1    1.33    1.40 
   8  10   1    3.28    1.61 
   8  10   1    3.41    1.22 
   8  10   1    2.91    1.33 
   0 -11  -1    0.61    0.99 
   0 -11  -1   -0.18    1.36 
   0 -11  -1    2.54    1.39 
   0 -11  -1   -1.08    0.95 
   0  11   1    1.47    1.30 
  -1 -11  -1   12.82    1.96 
  -1 -11  -1   20.11    2.75 
  -1 -11  -1   21.24    2.59 
   1  11   1   14.09    2.20 
  -2 -11  -1   26.23    2.87 
  -2 -11  -1   20.00    2.26 
  -2 -11  -1   31.72    2.92 
   2  11   1   25.46    3.21 
   2  11   1   17.18    2.39 
  -3 -11  -1    1.74    1.25 
  -3 -11  -1    3.62    1.65 
   3  11   1    3.21    1.34 
   3  11   1    2.38    1.28 
  -4 -11  -1    3.62    1.41 
  -4 -11  -1    1.48    1.55 
   4  11   1    2.18    1.40 
   4  11   1    3.57    1.34 
  -5 -11  -1    3.65    1.68 
  -5 -11  -1    2.23    1.55 
   5  11   1   -0.52    1.21 
   5  11   1    0.67    1.41 
  -6 -11  -1   -1.61    1.37 
  -6 -11  -1    0.51    1.48 
   6  11   1    1.03    1.47 
   6  11   1    0.40    1.19 
  -7 -11  -1    3.73    1.56 
  -7 -11  -1    6.85    1.68 
   7  11   1    5.97    1.74 
   7  11   1    3.60    1.31 
   6  11  -2   -0.16    1.28 
   6  11  -2    0.89    1.27 
  -6 -11   2    0.72    1.40 
   5  11  -2    4.81    1.47 
   5  11  -2    3.32    1.40 
  -5 -11   2    1.76    1.54 
   4  11  -2   -1.17    1.17 
   4  11  -2   -0.77    1.18 
  -4 -11   2   -3.60    1.38 
   3  11  -2   -0.63    1.16 
   3  11  -2    0.66    1.18 
  -3 -11   2    0.41    1.58 
   2  11  -2    3.04    1.17 
   2  11  -2    3.95    1.35 
  -2 -11   2    3.98    1.83 
   1  11  -2    7.08    1.51 
  -1 -11   2   10.61    2.03 
  -1 -11   2    5.65    1.79 
   0  11  -2   -1.24    1.11 
   0 -11   2    0.62    1.49 
   0 -11   2    2.27    1.52 
   7  10  -2    0.97    1.39 
   7  10  -2    0.28    1.11 
   7  10  -2    2.07    1.40 
   6  10  -2    3.56    1.39 
   6  10  -2    1.68    1.18 
  -6 -10   2    0.11    1.35 
   5  10  -2   -2.04    1.05 
   5  10  -2   -1.27    1.21 
  -5 -10   2    0.22    1.07 
  -5 -10   2   -0.21    1.23 
   4  10  -2   -0.28    1.06 
   4  10  -2    1.43    1.21 
  -4 -10   2    1.22    1.26 
  -4 -10   2   -0.75    0.98 
   3  10  -2    0.97    1.14 
   3  10  -2    1.03    1.12 
  -3 -10   2    4.32    1.22 
  -3 -10   2    0.06    1.31 
   2  10  -2    1.26    1.10 
   2  10  -2    2.39    1.12 
  -2 -10   2   -0.45    1.28 
  -2 -10   2    1.16    1.28 
   1  10  -2    0.43    0.95 
   1  10  -2    0.88    1.07 
  -1 -10   2    1.08    1.43 
  -1 -10   2    0.07    1.23 
   0  10  -2   -0.58    1.06 
   0 -10   2    3.22    1.30 
   0 -10   2    0.92    1.38 
  -1  10  -2    4.81    1.31 
   1 -10   2    6.95    1.49 
   1 -10   2    6.44    1.87 
  -2  10  -2    0.05    1.01 
   2 -10   2   -0.20    1.58 
   2 -10   2    0.84    1.13 
   8   9  -2    0.51    1.34 
   8   9  -2   -1.31    1.33 
   7   9  -2    2.66    1.12 
   7   9  -2    3.20    1.52 
   7   9  -2    0.61    1.31 
   6   9  -2    4.32    1.27 
   6   9  -2    4.94    1.23 
  -6  -9   2    4.26    1.35 
   5   9  -2    0.89    1.06 
   5   9  -2    1.39    0.99 
  -5  -9   2    0.04    0.93 
  -5  -9   2   -0.54    1.00 
   4   9  -2    1.79    1.00 
   4   9  -2    0.86    1.02 
  -4  -9   2    2.23    1.12 
  -4  -9   2    2.13    0.99 
   3   9  -2    0.10    0.94 
   3   9  -2    0.13    0.93 
  -3  -9   2   -0.15    1.01 
  -3  -9   2    1.26    0.87 
   2   9  -2    2.36    1.01 
   2   9  -2    1.50    0.92 
  -2  -9   2    1.23    0.77 
  -2  -9   2    1.11    1.08 
  -2  -9   2    0.53    1.10 
   1   9  -2    1.94    0.89 
   1   9  -2    1.53    0.98 
  -1  -9   2    1.47    0.76 
  -1  -9   2    1.98    1.12 
  -1  -9   2    2.90    1.17 
   0   9  -2    2.58    1.02 
   0   9  -2    2.11    0.73 
   0  -9   2    1.65    0.67 
   0  -9   2    1.67    1.00 
   0  -9   2    2.18    1.19 
  -1   9  -2    1.45    0.91 
   1  -9   2    0.64    1.18 
   1  -9   2   -0.49    0.55 
   1  -9   2    1.14    0.93 
  -2   9  -2    2.25    1.06 
   2  -9   2    0.23    0.98 
   2  -9   2    0.86    0.73 
   2  -9   2   -0.27    1.33 
  -3   9  -2    1.39    1.02 
   3  -9   2    1.31    0.97 
   3  -9   2    0.42    1.43 
  -4   9  -2    0.68    1.03 
   4  -9   2    1.34    0.98 
   4  -9   2    3.33    1.74 
   9   8  -2   -0.73    1.44 
   9   8  -2   -1.01    1.34 
   8   8  -2   -0.56    1.22 
   8   8  -2   -1.43    1.31 
   7   8  -2    0.61    1.27 
   7   8  -2   -0.34    0.89 
   7   8  -2    0.56    1.08 
   6   8  -2   -0.42    0.83 
   6   8  -2    0.05    0.99 
  -6  -8   2   -0.71    0.93 
   5   8  -2    0.13    0.86 
   5   8  -2    0.54    0.81 
  -5  -8   2    1.46    1.05 
   4   8  -2   19.08    1.60 
   4   8  -2   21.91    1.87 
  -4  -8   2   17.65    1.65 
  -4  -8   2   16.73    1.82 
   3   8  -2    0.88    0.74 
   3   8  -2    1.87    0.81 
  -3  -8   2    3.02    1.08 
  -3  -8   2    2.01    1.18 
   2   8  -2    3.31    0.83 
   2   8  -2    4.10    0.90 
   2   8  -2    3.22    0.83 
  -2  -8   2    9.63    1.37 
  -2  -8   2    3.67    0.58 
  -2  -8   2    3.46    1.10 
  -2  -8   2    2.45    1.06 
   1   8  -2   10.73    1.36 
   1   8  -2   12.37    1.39 
  -1  -8   2   12.53    0.85 
  -1  -8   2   15.64    1.86 
  -1  -8   2   15.86    1.38 
  -1  -8   2    9.69    1.52 
   0   8  -2    2.35    0.74 
   0   8  -2    2.38    0.87 
   0  -8   2    2.87    0.94 
   0  -8   2    2.64    1.23 
   0  -8   2    2.75    0.72 
  -1   8  -2    1.26    0.54 
  -1   8  -2    0.50    0.81 
   1  -8   2    2.49    0.95 
   1  -8   2    1.61    0.65 
   1  -8   2    0.97    1.06 
  -2   8  -2    0.03    0.74 
   2  -8   2    1.24    0.66 
   2  -8   2   -0.33    1.03 
   2  -8   2    1.01    0.77 
  -3   8  -2    5.60    1.10 
   3  -8   2    8.49    1.66 
   3  -8   2    7.81    1.23 
   3  -8   2    5.00    1.04 
  -4   8  -2    4.64    1.04 
   4  -8   2    2.53    0.87 
   4  -8   2    1.98    1.42 
   4  -8   2    2.33    0.94 
  -5   8  -2    7.74    1.20 
   5  -8   2    8.47    1.86 
   5  -8   2    6.43    1.27 
   5  -8   2    9.45    1.48 
  10   7  -2    0.84    1.65 
  10   7  -2   -1.39    1.31 
   9   7  -2    0.95    1.55 
   9   7  -2    1.81    1.40 
   8   7  -2   -0.50    1.26 
   8   7  -2   -1.09    1.04 
   7   7  -2    9.09    1.60 
   7   7  -2    8.75    1.37 
   7   7  -2    6.35    1.00 
   6   7  -2    1.60    0.75 
   6   7  -2    1.65    0.92 
  -6  -7   2    1.58    0.55 
   5   7  -2    7.30    1.13 
   5   7  -2    8.26    1.46 
  -5  -7   2    5.94    0.75 
  -5  -7   2    5.05    1.10 
   4   7  -2    1.05    0.65 
   4   7  -2    0.59    0.70 
  -4  -7   2   -0.11    0.78 
  -4  -7   2   -0.24    0.38 
  -4  -7   2   -0.63    0.80 
   3   7  -2    1.12    0.48 
   3   7  -2    1.37    0.70 
   3   7  -2    2.00    0.74 
  -3  -7   2    1.61    0.72 
  -3  -7   2    1.15    0.79 
   2   7  -2   17.26    1.06 
   2   7  -2   18.70    1.42 
   2   7  -2   14.46    1.41 
  -2  -7   2   16.42    0.84 
  -2  -7   2   14.93    1.57 
  -2  -7   2   17.09    1.35 
  -2  -7   2   14.95    1.80 
   1   7  -2    4.39    0.83 
   1   7  -2    3.51    0.74 
   1   7  -2    3.98    0.72 
   1   7  -2    4.07    0.78 
  -1  -7   2    4.87    0.59 
  -1  -7   2    2.57    0.96 
  -1  -7   2    4.24    0.73 
  -1  -7   2    4.25    0.94 
   0   7  -2   87.62    3.38 
   0   7  -2   86.74    3.24 
   0   7  -2   86.87    3.39 
   0  -7   2   88.16    3.91 
   0  -7   2   86.37    3.42 
   0  -7   2   88.01    3.18 
  -1   7  -2   80.95    3.34 
  -1   7  -2   82.98    3.02 
  -1   7  -2   79.15    3.23 
   1  -7   2   82.75    3.29 
   1  -7   2   81.44    3.91 
   1  -7   2   79.83    3.03 
  -2   7  -2    9.69    1.44 
  -2   7  -2    7.35    1.23 
   2  -7   2   10.76    1.24 
   2  -7   2    7.83    0.99 
   2  -7   2   10.91    2.00 
  -3   7  -2    3.17    0.98 
  -3   7  -2    2.77    0.85 
   3  -7   2    2.46    1.14 
   3  -7   2    4.79    0.85 
   3  -7   2    3.83    0.87 
  -4   7  -2    0.63    0.91 
  -4   7  -2    2.46    0.85 
   4  -7   2    4.60    1.31 
   4  -7   2    3.66    0.95 
   4  -7   2    3.70    1.13 
   4  -7   2    2.14    0.79 
  -5   7  -2   -0.45    0.79 
   5  -7   2    0.42    0.73 
   5  -7   2   -0.29    0.80 
   5  -7   2   -1.78    1.07 
   6  -7   2   -1.69    1.36 
   6  -7   2   -0.71    0.79 
   6  -7   2   -0.71    0.73 
  10   6  -2   -2.55    1.17 
  10   6  -2    0.40    1.63 
   9   6  -2   -0.74    1.36 
   9   6  -2    0.52    1.15 
   8   6  -2    1.01    1.08 
   8   6  -2    3.44    0.76 
   8   6  -2    1.06    1.23 
   7   6  -2   17.56    1.33 
   7   6  -2   18.40    1.84 
   7   6  -2   16.11    2.18 
   6   6  -2   -0.13    0.59 
   6   6  -2    0.85    0.79 
   5   6  -2    4.42    0.78 
   5   6  -2    2.89    0.75 
  -5  -6   2    2.52    0.88 
  -5  -6   2    3.26    0.59 
   4   6  -2    1.23    0.66 
   4   6  -2    1.88    0.63 
   4   6  -2   -0.02    0.47 
  -4  -6   2    2.11    0.75 
  -4  -6   2    0.02    0.62 
  -4  -6   2    0.60    0.39 
   3   6  -2   19.77    1.30 
   3   6  -2   17.65    1.51 
   3   6  -2   19.42    1.15 
  -3  -6   2   20.41    1.46 
  -3  -6   2   21.26    1.33 
   2   6  -2   13.96    0.92 
   2   6  -2   14.79    1.18 
   2   6  -2   15.10    1.02 
   2   6  -2   13.64    1.30 
  -2  -6   2   13.30    1.55 
  -2  -6   2   13.33    1.36 
  -2  -6   2   13.97    1.12 
  -2  -6   2   15.12    0.74 
   1   6  -2   37.98    1.87 
   1   6  -2   35.89    1.73 
   1   6  -2   39.85    1.64 
   1   6  -2   40.03    1.88 
  -1  -6   2   41.56    2.01 
  -1  -6   2   39.59    1.72 
  -1  -6   2   39.19    1.44 
  -1  -6   2   41.85    2.30 
   0   6  -2    9.74    1.14 
   0   6  -2   11.36    1.10 
   0   6  -2    9.66    1.08 
   0  -6   2   10.96    1.10 
   0  -6   2   11.15    0.89 
   0  -6   2    9.28    1.51 
  -1   6  -2    5.38    0.81 
  -1   6  -2    7.56    0.96 
  -1   6  -2    6.13    0.92 
   1  -6   2    6.52    0.95 
   1  -6   2    7.75    1.45 
   1  -6   2    5.90    0.77 
  -2   6  -2   10.99    1.11 
  -2   6  -2   11.29    1.31 
   2  -6   2    8.87    0.92 
   2  -6   2    9.65    1.03 
   2  -6   2   12.16    1.67 
  -3   6  -2    4.89    0.95 
  -3   6  -2    4.96    0.79 
   3  -6   2    5.94    1.17 
   3  -6   2    5.84    0.91 
   3  -6   2    5.83    1.05 
   3  -6   2    5.86    1.10 
  -4   6  -2    0.97    0.81 
  -4   6  -2    0.97    0.62 
   4  -6   2    2.02    1.08 
   4  -6   2    2.52    0.71 
   4  -6   2    1.31    1.01 
   4  -6   2    2.81    0.76 
  -5   6  -2   20.43    2.06 
  -5   6  -2   19.10    1.47 
   5  -6   2   14.69    2.25 
   5  -6   2   18.28    1.57 
   5  -6   2   22.44    2.33 
   5  -6   2   19.36    1.63 
  -6   6  -2    7.03    1.29 
   6  -6   2   13.47    2.15 
   6  -6   2    8.96    1.47 
   6  -6   2    8.75    1.50 
   6  -6   2    9.05    1.78 
   7  -6   2   16.95    1.78 
   7  -6   2   17.19    2.91 
   7  -6   2   14.68    1.72 
  10   5  -2   -0.64    1.14 
  10   5  -2    2.96    1.71 
   9   5  -2    4.42    1.58 
   9   5  -2    4.65    1.28 
   8   5  -2    5.60    1.16 
   8   5  -2    7.06    0.88 
   8   5  -2    6.11    1.49 
   7   5  -2   11.05    1.58 
   7   5  -2    8.27    1.43 
   7   5  -2    8.70    0.97 
   6   5  -2    1.32    0.71 
   6   5  -2    1.91    0.98 
   6   5  -2    1.68    0.56 
   5   5  -2   12.37    0.99 
   5   5  -2   13.51    1.28 
  -5  -5   2   12.39    1.04 
   4   5  -2    0.81    0.58 
   4   5  -2    1.17    0.51 
   4   5  -2    0.12    0.46 
  -4  -5   2    0.73    0.63 
  -4  -5   2    0.59    0.44 
   3   5  -2    2.79    0.54 
   3   5  -2    3.06    0.64 
   3   5  -2    3.21    0.76 
  -3  -5   2    2.48    0.73 
  -3  -5   2    3.89    0.52 
  -3  -5   2    3.19    0.68 
   2   5  -2    0.59    0.35 
   2   5  -2   -0.29    0.42 
   2   5  -2    0.23    0.37 
   2   5  -2   -0.18    0.52 
  -2  -5   2    0.13    0.62 
  -2  -5   2    0.29    0.57 
   1   5  -2   -0.23    0.49 
   1   5  -2    0.28    0.41 
   1   5  -2    0.31    0.45 
   1   5  -2    0.55    0.33 
  -1  -5   2    0.88    0.31 
  -1  -5   2    0.62    0.59 
  -1  -5   2    0.47    0.55 
  -1  -5   2    0.09    0.47 
   0   5  -2   57.21    2.30 
   0   5  -2   56.77    2.29 
   0   5  -2   58.49    2.27 
   0  -5   2   56.33    2.13 
   0  -5   2   56.07    2.63 
   0  -5   2   59.58    2.33 
  -1   5  -2   16.35    1.15 
  -1   5  -2   18.33    1.29 
  -1   5  -2   17.62    1.09 
   1  -5   2   17.06    1.57 
   1  -5   2   17.04    1.11 
   1  -5   2   16.74    0.97 
  -2   5  -2    0.72    0.56 
  -2   5  -2    0.70    0.52 
  -2   5  -2   -0.15    0.40 
   2  -5   2    0.07    0.49 
   2  -5   2    0.28    0.61 
   2  -5   2    0.34    0.41 
   2  -5   2    0.34    0.67 
  -3   5  -2    1.02    0.61 
  -3   5  -2    0.90    0.52 
   3  -5   2    1.48    0.55 
   3  -5   2    1.91    0.80 
   3  -5   2    0.87    0.70 
   3  -5   2    1.50    0.52 
  -4   5  -2    0.94    0.68 
  -4   5  -2    0.66    0.49 
   4  -5   2    1.33    0.84 
   4  -5   2    1.36    0.81 
   4  -5   2    1.47    0.60 
  -5   5  -2    8.76    1.02 
  -5   5  -2    7.73    1.16 
   5  -5   2    8.27    1.15 
   5  -5   2    7.98    1.35 
   5  -5   2   11.99    1.97 
  -6   5  -2    2.31    1.01 
  -6   5  -2    4.05    0.65 
   6  -5   2    3.06    0.87 
   6  -5   2    4.11    1.27 
   6  -5   2    3.47    1.26 
  -7   5  -2   -0.99    0.95 
   7  -5   2    2.00    0.94 
   7  -5   2    2.15    1.36 
   7  -5   2    0.86    1.34 
   8  -5   2   -0.28    1.41 
   8  -5   2    0.09    1.48 
   8  -5   2    0.01    0.83 
  10   4  -2    2.78    1.69 
  10   4  -2   -0.02    1.08 
   9   4  -2    3.07    1.50 
   9   4  -2    4.22    1.19 
   8   4  -2   41.99    2.39 
   8   4  -2   44.10    2.99 
   7   4  -2   10.40    1.41 
   7   4  -2   11.64    1.85 
   7   4  -2   11.82    0.87 
   6   4  -2   -0.87    0.82 
   6   4  -2    0.77    0.43 
   6   4  -2    0.29    0.65 
   5   4  -2    7.14    0.95 
   5   4  -2    6.98    0.73 
   5   4  -2    6.44    1.02 
   4   4  -2   15.38    0.95 
   4   4  -2   14.16    1.23 
   4   4  -2   14.88    1.07 
  -4  -4   2   12.24    1.00 
   3   4  -2    4.78    0.44 
   3   4  -2    5.86    0.73 
   3   4  -2    5.32    0.71 
   3   4  -2    6.70    0.92 
  -3  -4   2    4.09    0.55 
  -3  -4   2    4.36    0.73 
   2   4  -2   71.28    2.53 
   2   4  -2   66.95    2.59 
   2   4  -2   67.27    2.34 
   2   4  -2   75.20    2.45 
  -2  -4   2   70.11    2.59 
  -2  -4   2   71.52    2.46 
   1   4  -2   36.24    1.56 
   1   4  -2   36.98    1.61 
   1   4  -2   37.08    1.39 
   1   4  -2   37.51    1.49 
  -1  -4   2   34.97    1.70 
  -1  -4   2   38.60    1.49 
   0   4  -2   10.60    0.91 
   0   4  -2   12.67    0.89 
   0  -4   2   12.13    0.73 
   0  -4   2   13.10    0.92 
   0  -4   2   12.19    1.42 
  -1   4  -2   50.38    2.03 
  -1   4  -2   51.35    1.99 
   1  -4   2   51.24    1.95 
   1  -4   2   50.37    1.83 
   1  -4   2   49.77    2.31 
  -2   4  -2    3.06    0.60 
  -2   4  -2    2.28    0.58 
   2  -4   2    4.46    0.71 
   2  -4   2    3.28    0.74 
   2  -4   2    3.59    0.74 
   2  -4   2    5.00    0.67 
  -3   4  -2    0.73    0.41 
  -3   4  -2    1.40    0.59 
   3  -4   2    1.29    0.49 
   3  -4   2    1.55    0.70 
   3  -4   2    0.81    0.60 
  -4   4  -2    2.95    0.74 
  -4   4  -2    2.18    0.49 
   4  -4   2    2.71    0.83 
   4  -4   2    2.72    0.61 
   4  -4   2    0.90    0.64 
  -5   4  -2   27.88    1.84 
  -5   4  -2   29.20    1.40 
   5  -4   2   27.22    1.63 
   5  -4   2   26.06    2.08 
   5  -4   2   29.32    2.04 
  -6   4  -2    1.75    0.45 
  -6   4  -2    1.98    0.83 
   6  -4   2    1.14    0.98 
   6  -4   2    1.65    1.11 
  -7   4  -2    0.28    0.87 
   7  -4   2    0.35    1.08 
   7  -4   2   -0.07    1.19 
  -8   4  -2    0.23    1.01 
   8  -4   2   -2.49    1.22 
   8  -4   2   -3.19    1.28 
   9  -4   2    8.23    2.10 
   9  -4   2    5.78    1.82 
  10   3  -2    5.14    1.89 
   9   3  -2    0.02    0.88 
   9   3  -2    1.36    1.40 
   8   3  -2    1.20    1.11 
   8   3  -2    2.26    0.84 
   7   3  -2    1.89    0.92 
   7   3  -2    1.25    0.75 
   6   3  -2   23.53    1.58 
   6   3  -2   23.54    1.94 
   6   3  -2   27.88    1.10 
   5   3  -2    5.81    0.84 
   5   3  -2    5.07    0.55 
   5   3  -2    3.75    0.92 
   5   3  -2    4.35    0.75 
   4   3  -2    6.15    0.77 
   4   3  -2    7.39    0.60 
   4   3  -2    5.59    0.92 
   3   3  -2   59.01    2.01 
   3   3  -2   55.96    2.08 
   3   3  -2   54.50    1.89 
   3   3  -2   56.20    2.19 
   2   3  -2   54.81    1.94 
   2   3  -2   55.38    2.12 
   2   3  -2   54.42    1.99 
   2   3  -2   53.56    1.81 
  -2  -3   2   57.12    2.08 
  -2  -3   2   56.84    1.82 
   1   3  -2   10.33    0.67 
   1   3  -2    9.93    0.73 
   1   3  -2    9.43    0.86 
   1   3  -2    8.10    0.57 
  -1  -3   2   10.18    0.63 
  -1  -3   2    9.92    0.75 
  -1  -3   2   10.27    1.03 
   0   3  -2    3.22    0.44 
   0   3  -2    3.89    0.62 
   0   3  -2    4.24    0.63 
   0  -3   2    3.01    0.42 
   0  -3   2    2.93    0.42 
   0  -3   2    3.14    0.60 
   0  -3   2    3.82    0.45 
  -1   3  -2   16.80    1.02 
  -1   3  -2   17.20    0.97 
   1  -3   2   17.58    1.23 
   1  -3   2   18.10    1.18 
   1  -3   2   17.22    0.83 
   1  -3   2   19.42    0.92 
  -2   3  -2  139.95    4.38 
  -2   3  -2  135.63    4.51 
   2  -3   2  137.66    4.70 
   2  -3   2  131.93    4.71 
   2  -3   2  135.95    4.37 
  -3   3  -2  117.11    3.81 
  -3   3  -2  117.67    4.03 
   3  -3   2  116.29    4.22 
   3  -3   2  115.15    4.23 
   3  -3   2  116.63    3.91 
  -4   3  -2   -0.17    0.48 
  -4   3  -2    0.48    0.34 
   4  -3   2    0.24    0.59 
   4  -3   2    1.05    0.69 
  -5   3  -2    6.28    0.67 
  -5   3  -2    5.36    0.89 
   5  -3   2    7.56    1.21 
   5  -3   2    5.88    1.03 
  -6   3  -2   17.33    0.91 
  -6   3  -2   16.13    1.61 
   6  -3   2   15.63    1.91 
   6  -3   2   17.67    2.15 
  -7   3  -2    7.01    1.16 
   7  -3   2   10.03    1.68 
   7  -3   2    8.32    1.47 
  -8   3  -2   -0.42    0.85 
   8  -3   2   -0.37    1.18 
   8  -3   2   -0.22    1.32 
   9  -3   2    3.07    1.57 
   9  -3   2    3.19    1.79 
  10   2  -2    2.89    1.42 
  10   2  -2    6.40    1.91 
   9   2  -2    3.70    1.52 
   9   2  -2    3.98    1.10 
   8   2  -2    2.98    1.20 
   8   2  -2    3.29    0.82 
   7   2  -2    3.16    0.71 
   7   2  -2    3.58    1.03 
   6   2  -2    2.40    0.81 
   6   2  -2    5.59    0.98 
   5   2  -2    0.57    0.24 
   5   2  -2    0.32    0.80 
   5   2  -2    1.46    0.48 
   4   2  -2    2.18    0.51 
   4   2  -2    2.04    0.31 
   3   2  -2    5.85    0.84 
   3   2  -2    6.94    0.53 
   2   2  -2   35.45    1.34 
   2   2  -2   33.81    1.19 
   2   2  -2   34.23    1.15 
   2   2  -2   36.79    1.49 
   2   2  -2   33.50    1.30 
   1   2  -2    0.33    0.31 
   1   2  -2    0.91    0.25 
   1   2  -2    0.14    0.31 
   1   2  -2   -0.18    0.23 
  -1  -2   2    0.30    0.32 
  -1  -2   2    0.70    0.25 
   0   2  -2   20.04    0.86 
   0   2  -2   21.86    0.96 
   0   2  -2   20.63    0.95 
   0  -2   2   22.04    0.77 
   0  -2   2   22.71    1.03 
   0  -2   2   21.45    1.16 
   0  -2   2   21.24    0.87 
  -1   2  -2    3.69    0.54 
  -1   2  -2    2.79    0.43 
   1  -2   2    3.41    0.51 
   1  -2   2    2.97    0.56 
   1  -2   2    2.38    0.43 
   1  -2   2    3.83    0.60 
  -2   2  -2  183.87    5.88 
  -2   2  -2  187.42    5.75 
   2  -2   2  187.37    6.04 
   2  -2   2  188.53    6.04 
  -3   2  -2    8.52    0.89 
  -3   2  -2    9.60    0.64 
  -3   2  -2    8.61    0.81 
   3  -2   2    9.59    1.11 
   3  -2   2    8.24    1.45 
  -4   2  -2    3.50    0.63 
  -4   2  -2    4.57    0.64 
   4  -2   2    5.48    0.90 
   4  -2   2    4.38    0.80 
  -5   2  -2   -0.33    0.51 
  -5   2  -2    0.05    0.25 
   5  -2   2    0.17    0.76 
   5  -2   2    0.53    0.67 
  -6   2  -2    0.54    0.64 
   6  -2   2    0.51    0.78 
   6  -2   2   -0.19    0.89 
  -7   2  -2  167.41    5.86 
   7  -2   2  167.37    6.44 
   7  -2   2  164.74    6.24 
  -8   2  -2   16.73    1.89 
   8  -2   2   19.92    2.45 
   8  -2   2   19.91    2.82 
  -9   2  -2    3.77    1.19 
   9  -2   2    7.95    1.90 
   9  -2   2    4.96    1.57 
  10  -2   2    0.04    1.38 
  10  -2   2   -2.50    1.63 
  10   1  -2   -2.44    1.56 
  10   1  -2    0.65    1.40 
   9   1  -2    4.53    1.39 
   9   1  -2    4.52    1.58 
   9   1  -2    4.84    0.94 
   8   1  -2    6.55    1.43 
   8   1  -2    7.16    1.18 
   7   1  -2    1.51    0.93 
   7   1  -2    2.65    0.62 
   6   1  -2    7.17    1.30 
   6   1  -2    8.94    0.89 
   5   1  -2   16.30    1.00 
   5   1  -2   16.11    1.45 
   4   1  -2   57.69    2.39 
   4   1  -2   56.06    2.08 
   4   1  -2   55.90    1.83 
   3   1  -2   46.25    1.74 
   3   1  -2   43.91    1.52 
   2   1  -2   90.37    2.89 
   2   1  -2   94.00    3.02 
   1   1  -2   14.35    0.71 
   1   1  -2   14.88    0.62 
   0   1  -2    5.76    0.47 
   0   1  -2    4.43    0.29 
   0   1  -2    5.16    0.47 
   0   1  -2    4.85    0.57 
   0  -1   2    4.81    0.29 
   0  -1   2    4.04    0.63 
   0  -1   2    4.89    0.46 
  -1   1  -2   45.05    1.54 
  -1   1  -2   45.32    1.81 
  -1   1  -2   44.99    1.55 
  -1   1  -2   44.20    1.60 
  -1   1  -2   44.29    1.67 
   1  -1   2   43.01    1.68 
   1  -1   2   45.72    1.78 
   1  -1   2   43.90    1.66 
   1  -1   2   46.19    1.55 
  -2   1  -2   -0.17    0.32 
  -2   1  -2    0.24    0.25 
  -2   1  -2   -0.16    0.30 
   2  -1   2    0.71    0.52 
   2  -1   2    0.19    0.41 
  -3   1  -2   39.50    1.63 
  -3   1  -2   38.06    1.33 
  -3   1  -2   38.47    1.56 
   3  -1   2   36.16    1.82 
   3  -1   2   37.08    1.72 
  -4   1  -2    3.00    0.52 
  -4   1  -2    3.93    0.40 
  -4   1  -2    4.94    0.87 
   4  -1   2    3.99    0.85 
   4  -1   2    3.98    0.72 
  -5   1  -2   27.02    1.47 
   5  -1   2   23.98    1.75 
   5  -1   2   25.30    1.92 
  -6   1  -2    0.19    0.56 
   6  -1   2    1.57    0.91 
   6  -1   2    1.45    0.76 
  -7   1  -2   44.27    2.25 
   7  -1   2   42.01    2.56 
   7  -1   2   47.05    2.91 
  -8   1  -2   24.20    1.93 
   8  -1   2   22.80    2.35 
   8  -1   2   24.02    2.66 
  -9   1  -2    6.07    1.17 
   9  -1   2    8.12    1.59 
   9  -1   2    4.16    1.70 
  10  -1   2    1.26    1.83 
  10  -1   2    1.78    1.43 
  10   0  -2    0.03    1.38 
  10   0  -2   -0.29    1.64 
   9   0  -2    1.81    1.60 
   9   0  -2    1.63    1.33 
   8   0  -2    2.64    1.25 
   8   0  -2    0.02    1.17 
   8   0  -2    1.50    0.61 
   7   0  -2   18.84    2.02 
   7   0  -2   16.66    2.01 
   7   0  -2   19.83    1.20 
   6   0  -2   49.94    1.95 
   6   0  -2   50.73    2.55 
   5   0  -2   85.45    3.33 
   5   0  -2   84.79    2.90 
   4   0  -2   10.81    0.73 
   4   0  -2   10.91    1.02 
   3   0  -2    7.42    0.64 
   3   0  -2    8.01    0.88 
   2   0  -2   -0.22    0.38 
  -2   0   2    0.08    0.47 
   1   0  -2   69.99    2.46 
   0   0  -2  265.86    7.90 
   0   0  -2  269.84    7.89 
   0   0   2  261.52    7.89 
  -1   0  -2   45.59    1.66 
  -1   0  -2   46.15    1.51 
  -1   0  -2   45.69    1.54 
  -1   0  -2   47.32    1.52 
  -1   0  -2   45.23    1.55 
   1   0   2   44.83    1.53 
   1   0   2   46.33    1.52 
   1   0   2   44.84    1.50 
   1   0   2   46.11    1.67 
   1   0   2   47.25    1.54 
  -2   0  -2   18.45    0.88 
  -2   0  -2   18.59    0.98 
  -2   0  -2   18.11    0.94 
   2   0   2   17.87    1.15 
   2   0   2   17.72    0.91 
   2   0   2   17.58    0.96 
  -3   0  -2   63.77    2.25 
  -3   0  -2   67.22    2.37 
   3   0   2   65.83    2.30 
   3   0   2   66.34    2.39 
   3   0   2   64.93    2.54 
  -4   0  -2    0.27    0.45 
  -4   0  -2    0.88    0.20 
  -4   0  -2    2.03    0.51 
   4   0   2    0.68    0.53 
   4   0   2    1.68    0.69 
   4   0   2   -0.18    0.42 
  -5   0  -2   13.41    1.15 
  -5   0  -2   13.95    1.07 
   5   0   2   11.45    1.04 
   5   0   2   11.80    1.38 
   5   0   2   13.25    1.35 
  -6   0  -2    1.44    0.58 
   6   0   2    1.76    0.84 
   6   0   2    2.43    0.62 
   6   0   2    2.34    0.92 
  -7   0  -2    1.61    0.66 
   7   0   2    2.45    1.08 
   7   0   2    2.19    0.67 
   7   0   2    1.09    0.91 
  -8   0  -2   10.55    1.39 
   8   0   2   10.30    1.43 
   8   0   2   12.75    2.26 
   8   0   2   10.06    1.98 
  -9   0  -2   22.07    1.90 
   9   0   2   24.53    2.68 
   9   0   2   20.07    1.79 
   9   0   2   20.07    2.99 
  10   0   2    1.64    1.37 
  10   0   2   -0.70    1.53 
  10  -1  -2    1.36    1.62 
  10  -1  -2    1.81    1.80 
   9  -1  -2    1.15    1.45 
   9  -1  -2    1.18    1.55 
   8  -1  -2   11.80    2.33 
   8  -1  -2   17.02    2.59 
   7  -1  -2   14.76    2.05 
   7  -1  -2   12.24    2.07 
   6  -1  -2    6.50    1.13 
   6  -1  -2    4.65    0.98 
   5  -1  -2   18.76    1.47 
   5  -1  -2   19.77    1.72 
   4  -1  -2   19.36    1.45 
   4  -1  -2   17.00    0.82 
   4  -1  -2   16.96    1.18 
   4  -1  -2   17.25    0.71 
   3  -1  -2   19.30    0.86 
   3  -1  -2   19.60    1.13 
   3  -1  -2   20.02    1.33 
   2  -1  -2  440.75   13.24 
   0  -1  -2  241.34    7.17 
   0  -1  -2  236.14    7.23 
   0  -1  -2  245.31    7.21 
   0   1   2  236.53    7.23 
  -1  -1  -2    6.69    0.51 
  -1  -1  -2    7.45    0.55 
  -1  -1  -2    7.26    0.46 
  -1  -1  -2    7.07    0.62 
  -1  -1  -2    6.03    0.49 
   1   1   2    6.87    0.47 
   1   1   2    7.10    0.53 
   1   1   2    7.21    0.67 
   1   1   2    5.92    0.57 
  -2  -1  -2    9.13    0.64 
  -2  -1  -2    7.86    0.68 
  -2  -1  -2    7.56    0.56 
  -2  -1  -2    7.23    0.73 
  -2  -1  -2    8.30    0.72 
   2   1   2    7.40    0.85 
   2   1   2    7.30    0.79 
   2   1   2    7.27    0.53 
   2   1   2    8.41    0.69 
   2   1   2    8.71    0.62 
  -3  -1  -2   18.77    1.03 
  -3  -1  -2   17.27    0.85 
   3   1   2   16.74    1.00 
   3   1   2   17.84    1.06 
   3   1   2   18.40    1.19 
  -4  -1  -2   13.36    1.04 
  -4  -1  -2   16.35    0.90 
   4   1   2   13.84    1.04 
   4   1   2   13.18    1.27 
   4   1   2   12.37    0.97 
  -5  -1  -2   13.34    0.96 
  -5  -1  -2   13.62    1.12 
   5   1   2   14.67    1.42 
   5   1   2   14.02    1.21 
   5   1   2   13.90    1.13 
   5   1   2   15.60    1.14 
  -6  -1  -2    0.39    0.50 
  -6  -1  -2    0.37    0.55 
   6   1   2    0.82    0.81 
   6   1   2    0.44    0.67 
   6   1   2    0.99    0.57 
  -7  -1  -2    3.87    0.67 
  -7  -1  -2    2.35    0.86 
   7   1   2    2.58    0.96 
   7   1   2    3.45    0.77 
   7   1   2    3.96    0.98 
  -8  -1  -2   11.86    1.35 
   8   1   2   12.15    1.47 
   8   1   2   11.90    2.06 
   8   1   2   11.12    1.89 
  -9  -1  -2   18.62    1.56 
   9   1   2   16.41    2.32 
   9   1   2   17.36    1.73 
   9   1   2   16.38    2.81 
 -10  -1  -2   15.68    1.55 
  10   1   2   12.85    2.21 
  10   1   2   10.62    1.83 
  10   1   2   17.38    2.54 
  11   1   2    2.42    1.94 
  11   1   2    1.69    1.58 
   9  -2  -2   -0.06    1.43 
   9  -2  -2    0.20    1.51 
   8  -2  -2    3.29    1.60 
   8  -2  -2    5.95    1.58 
   7  -2  -2    7.73    1.45 
   7  -2  -2   14.32    2.16 
   6  -2  -2    3.84    1.06 
   6  -2  -2    2.45    1.02 
   5  -2  -2    0.73    0.79 
   5  -2  -2    1.93    0.76 
   4  -2  -2   -0.06    0.75 
   4  -2  -2    0.70    0.49 
   3  -2  -2  141.52    4.70 
   3  -2  -2  144.67    4.92 
   2  -2  -2    0.66    0.34 
   2  -2  -2    1.29    0.53 
   1  -2  -2   46.26    1.82 
   1  -2  -2   48.29    1.79 
   1  -2  -2   47.71    1.79 
   1  -2  -2   43.67    1.58 
   0  -2  -2    5.14    0.62 
   0  -2  -2    5.01    0.60 
   0  -2  -2    3.24    0.51 
   0  -2  -2    5.44    0.62 
   0   2   2    5.33    0.73 
   0   2   2    4.76    0.63 
   0   2   2    4.36    0.63 
  -1  -2  -2    2.57    0.39 
  -1  -2  -2    2.87    0.32 
  -1  -2  -2    3.29    0.48 
  -1  -2  -2    2.48    0.36 
  -1  -2  -2    3.08    0.55 
  -1  -2  -2    2.51    0.40 
   1   2   2    2.25    0.39 
   1   2   2    1.87    0.30 
   1   2   2    2.39    0.46 
   1   2   2    1.52    0.31 
   1   2   2    2.38    0.41 
  -2  -2  -2   60.97    2.00 
  -2  -2  -2   58.06    2.07 
  -2  -2  -2   60.70    2.05 
  -2  -2  -2   58.54    2.01 
   2   2   2   52.80    2.06 
   2   2   2   59.41    2.11 
   2   2   2   59.28    2.07 
  -3  -2  -2  327.92    9.93 
  -3  -2  -2  340.06   10.01 
  -3  -2  -2  333.03   10.11 
  -3  -2  -2  329.03   10.15 
  -3  -2  -2  324.77   10.10 
   3   2   2  329.13   10.13 
   3   2   2  335.87   10.16 
   3   2   2  340.46   10.19 
  -4  -2  -2   85.95    2.78 
  -4  -2  -2   83.10    3.07 
  -4  -2  -2   91.45    2.83 
   4   2   2   84.72    3.05 
   4   2   2   87.25    3.11 
   4   2   2   88.18    3.22 
  -5  -2  -2    7.53    0.61 
  -5  -2  -2    5.30    0.75 
  -5  -2  -2    7.33    0.70 
   5   2   2    6.03    1.17 
   5   2   2    6.67    0.96 
   5   2   2    8.10    1.00 
  -6  -2  -2    1.95    0.50 
  -6  -2  -2    1.19    0.61 
   6   2   2    1.27    0.81 
   6   2   2    2.11    0.60 
  -7  -2  -2    0.39    0.65 
  -7  -2  -2   -1.14    0.45 
   7   2   2    0.39    0.89 
   7   2   2   -0.45    0.60 
  -8  -2  -2    0.71    0.61 
  -8  -2  -2    0.84    0.90 
   8   2   2    1.11    0.78 
   8   2   2    1.49    0.90 
   8   2   2    1.07    1.12 
  -9  -2  -2    2.05    0.59 
   9   2   2    4.86    1.58 
   9   2   2    2.76    1.19 
   9   2   2    1.96    0.90 
  10   2   2   15.94    2.48 
  10   2   2   17.06    3.07 
  11   2   2   11.02    1.84 
  11   2   2   10.74    2.21 
   9  -3  -2   18.86    3.10 
   9  -3  -2   15.38    3.07 
   8  -3  -2    1.64    1.43 
   8  -3  -2    3.66    1.47 
   7  -3  -2    3.57    1.26 
   7  -3  -2    7.75    1.49 
   6  -3  -2   -1.17    0.87 
   6  -3  -2   -0.14    0.87 
   5  -3  -2   10.54    1.48 
   5  -3  -2    7.84    1.49 
   4  -3  -2   17.78    1.58 
   4  -3  -2   18.31    1.35 
   3  -3  -2   84.53    3.32 
   3  -3  -2   83.76    3.03 
   2  -3  -2    0.99    0.51 
   2  -3  -2    4.41    0.66 
   2  -3  -2    2.45    0.61 
   1  -3  -2   68.96    2.54 
   1  -3  -2   71.13    2.57 
   1  -3  -2   70.76    2.66 
   1  -3  -2   70.10    2.32 
  -1   3   2   67.11    2.44 
  -1   3   2   71.78    2.31 
   0  -3  -2   19.32    1.03 
   0  -3  -2   18.85    1.07 
   0  -3  -2   17.69    0.84 
   0  -3  -2   18.61    1.03 
   0   3   2   18.79    0.96 
   0   3   2   19.05    1.02 
   0   3   2   18.21    1.04 
  -1  -3  -2  147.95    4.72 
  -1  -3  -2  148.88    4.77 
  -1  -3  -2  148.42    4.69 
  -1  -3  -2  148.31    4.76 
   1   3   2  151.72    4.71 
   1   3   2  153.33    4.75 
   1   3   2  149.06    4.75 
  -2  -3  -2   31.07    1.37 
  -2  -3  -2   31.03    1.37 
  -2  -3  -2   31.44    1.27 
   2   3   2   32.28    1.24 
   2   3   2   27.92    1.31 
   2   3   2   31.77    1.41 
   2   3   2   30.20    1.35 
  -3  -3  -2    9.05    0.81 
  -3  -3  -2   10.34    0.87 
  -3  -3  -2    9.23    0.87 
   3   3   2    9.43    0.92 
   3   3   2    8.71    0.84 
   3   3   2    8.70    0.90 
  -4  -3  -2   18.70    1.25 
  -4  -3  -2   15.33    1.16 
  -4  -3  -2   18.89    0.84 
  -4  -3  -2   14.38    1.31 
   4   3   2   20.04    1.31 
   4   3   2   20.39    1.31 
   4   3   2   20.11    1.33 
  -5  -3  -2    1.71    0.42 
  -5  -3  -2    1.75    0.55 
   5   3   2    1.66    0.61 
   5   3   2    1.47    0.67 
   5   3   2    0.67    0.53 
  -6  -3  -2    6.15    1.06 
  -6  -3  -2    4.72    0.72 
   6   3   2    6.56    1.26 
   6   3   2    3.61    0.69 
  -7  -3  -2    1.24    0.76 
  -7  -3  -2    1.13    0.48 
   7   3   2    2.05    0.94 
   7   3   2    1.21    0.70 
  -8  -3  -2   -0.65    0.38 
  -8  -3  -2    1.22    0.82 
   8   3   2   -0.61    1.06 
   8   3   2   -0.27    0.71 
  -9  -3  -2    4.08    1.36 
   9   3   2    5.51    1.68 
   9   3   2    6.82    1.17 
  10   3   2   12.79    2.13 
  10   3   2   13.82    2.28 
  10   3   2   13.83    1.95 
  11   3   2    0.89    1.75 
  11   3   2    4.34    1.51 
   8  -4  -2    1.63    1.44 
   7  -4  -2    3.25    1.44 
   7  -4  -2    2.68    1.65 
   6  -4  -2    6.59    1.38 
   6  -4  -2   12.19    2.09 
   5  -4  -2    0.98    0.86 
   5  -4  -2   -0.70    0.82 
   4  -4  -2    9.21    1.27 
   4  -4  -2    4.57    0.99 
   3  -4  -2    6.70    0.99 
   3  -4  -2    5.34    0.92 
   3  -4  -2    7.21    1.07 
   2  -4  -2   10.63    0.92 
   2  -4  -2    8.47    0.99 
   2  -4  -2    8.04    1.08 
   2  -4  -2    9.55    1.22 
  -2   4   2    9.17    1.09 
   1  -4  -2   22.39    1.32 
   1  -4  -2   23.76    1.32 
   1  -4  -2   25.55    1.09 
   1  -4  -2   22.77    1.38 
  -1   4   2   23.26    1.23 
  -1   4   2   22.41    1.03 
   0  -4  -2    4.35    0.78 
   0  -4  -2    5.38    0.92 
   0  -4  -2    3.21    0.56 
   0   4   2    3.33    0.56 
   0   4   2    1.87    0.51 
   0   4   2    4.25    0.74 
  -1  -4  -2    9.61    0.76 
  -1  -4  -2    9.69    0.84 
  -1  -4  -2    9.49    0.93 
  -1  -4  -2    9.62    0.87 
   1   4   2   12.33    0.92 
   1   4   2    8.52    0.84 
   1   4   2    9.33    0.84 
  -2  -4  -2    2.47    0.53 
  -2  -4  -2    2.12    0.51 
  -2  -4  -2    1.63    0.49 
  -2  -4  -2    2.05    0.40 
   2   4   2    1.65    0.49 
   2   4   2    1.82    0.55 
   2   4   2    2.32    0.38 
   2   4   2    2.12    0.51 
  -3  -4  -2    0.98    0.46 
  -3  -4  -2    0.14    0.70 
  -3  -4  -2    1.27    0.70 
   3   4   2   -0.25    0.41 
   3   4   2    0.19    0.40 
   3   4   2    0.99    0.56 
  -4  -4  -2  109.97    3.74 
  -4  -4  -2  106.57    3.86 
  -4  -4  -2  107.27    3.84 
   4   4   2  111.30    3.85 
   4   4   2  108.97    3.76 
   4   4   2  105.82    3.82 
   4   4   2  115.43    3.66 
  -5  -4  -2  140.09    4.93 
  -5  -4  -2  147.76    4.93 
  -5  -4  -2  139.40    4.82 
  -5  -4  -2  141.21    4.39 
   5   4   2  145.18    4.89 
   5   4   2  137.76    4.94 
  -6  -4  -2   -0.09    0.66 
  -6  -4  -2    0.05    0.34 
   6   4   2    1.66    0.87 
   6   4   2    1.37    0.72 
  -7  -4  -2    2.46    0.42 
  -7  -4  -2    2.32    0.81 
   7   4   2    2.57    0.95 
   7   4   2    2.27    0.76 
  -8  -4  -2   -0.75    0.86 
  -8  -4  -2   -0.41    0.47 
   8   4   2    0.27    1.05 
   8   4   2   -0.84    0.71 
  -9  -4  -2    4.83    1.29 
   9   4   2    3.36    1.07 
   9   4   2    4.50    1.58 
  10   4   2    0.85    1.07 
  10   4   2    0.20    1.57 
  11   4   2    0.58    1.26 
  11   4   2    1.18    1.81 
  11   4   2    0.68    1.17 
   8  -5  -2    3.78    1.25 
   8  -5  -2    3.45    1.75 
   7  -5  -2    1.30    1.53 
   7  -5  -2    0.61    0.94 
   6  -5  -2    3.53    1.38 
   6  -5  -2    3.52    1.06 
   6  -5  -2    3.77    1.41 
   5  -5  -2   15.38    1.64 
   5  -5  -2   16.98    2.20 
   5  -5  -2   20.93    2.13 
   5  -5  -2   13.96    1.59 
   4  -5  -2    0.87    0.85 
   4  -5  -2    0.42    0.68 
   4  -5  -2   -0.10    0.84 
   4  -5  -2   -0.28    0.70 
   3  -5  -2    4.23    0.83 
   3  -5  -2    3.56    0.76 
   3  -5  -2    4.00    0.81 
   3  -5  -2    3.18    0.88 
  -3   5   2    3.88    0.70 
   2  -5  -2   16.64    1.14 
   2  -5  -2   14.64    1.39 
   2  -5  -2   14.62    1.30 
   2  -5  -2   14.30    1.30 
  -2   5   2   14.15    1.18 
   1  -5  -2   39.86    1.98 
   1  -5  -2   39.70    2.10 
   1  -5  -2   40.54    2.01 
   1  -5  -2   44.52    1.67 
  -1   5   2   43.21    1.64 
  -1   5   2   41.57    1.91 
   0  -5  -2   30.31    1.75 
   0  -5  -2   30.07    1.54 
   0  -5  -2   29.19    1.51 
   0   5   2   28.47    1.49 
   0   5   2   28.99    1.48 
   0   5   2   29.14    1.43 
  -1  -5  -2  258.20    8.18 
  -1  -5  -2  250.53    8.12 
  -1  -5  -2  263.33    8.02 
  -1  -5  -2  256.26    8.21 
   1   5   2  257.55    7.99 
   1   5   2  257.57    8.11 
   1   5   2  262.02    8.11 
  -2  -5  -2   37.31    1.55 
  -2  -5  -2   38.22    1.83 
  -2  -5  -2   37.03    1.79 
  -2  -5  -2   35.19    1.70 
   2   5   2   40.04    1.71 
   2   5   2   36.03    1.42 
   2   5   2   35.12    1.66 
   2   5   2   38.99    1.75 
  -3  -5  -2   10.76    1.08 
  -3  -5  -2    8.16    1.05 
  -3  -5  -2    9.83    0.85 
   3   5   2    9.41    0.91 
   3   5   2   10.19    1.09 
   3   5   2    9.12    0.87 
   3   5   2    8.57    0.91 
  -4  -5  -2   37.93    1.86 
  -4  -5  -2   41.79    2.04 
  -4  -5  -2   44.40    2.02 
   4   5   2   42.99    1.98 
   4   5   2   38.84    1.74 
   4   5   2   38.53    2.03 
   4   5   2   38.89    1.87 
  -5  -5  -2    0.85    0.58 
  -5  -5  -2    0.92    0.33 
  -5  -5  -2    0.82    0.66 
  -5  -5  -2    1.25    0.63 
   5   5   2    1.31    0.66 
   5   5   2    1.68    0.53 
   5   5   2    1.62    0.67 
  -6  -5  -2    0.21    0.64 
  -6  -5  -2    0.13    0.31 
  -6  -5  -2    0.69    0.65 
  -6  -5  -2    0.31    0.67 
   6   5   2    0.80    0.73 
   6   5   2   -0.27    0.70 
  -7  -5  -2   16.52    1.62 
   7   5   2   19.00    1.84 
   7   5   2   21.51    1.74 
  -8  -5  -2   -0.86    0.83 
   8   5   2    0.14    1.03 
   8   5   2    0.59    0.81 
  -9  -5  -2   -1.03    0.94 
   9   5   2   -0.97    0.91 
   9   5   2    0.27    1.25 
 -10  -5  -2    3.05    1.44 
  10   5   2    4.99    1.85 
  10   5   2    2.27    1.18 
  11   5   2    0.59    1.22 
  11   5   2   -0.92    1.69 
   7  -6  -2    0.43    0.96 
   7  -6  -2    0.37    1.46 
   6  -6  -2    0.33    0.96 
   6  -6  -2   -1.49    1.21 
   6  -6  -2    1.37    1.13 
   6  -6  -2    1.71    1.08 
   5  -6  -2   -0.32    1.14 
   5  -6  -2   -1.50    0.77 
   5  -6  -2   -0.43    0.94 
   5  -6  -2   -0.50    0.81 
   4  -6  -2   10.97    1.64 
   4  -6  -2   11.74    1.82 
   4  -6  -2    9.85    1.46 
   4  -6  -2    8.68    1.44 
   3  -6  -2    1.04    0.78 
   3  -6  -2    1.87    0.84 
   3  -6  -2    2.44    0.84 
   3  -6  -2    1.90    0.70 
  -3   6   2    1.27    0.70 
   2  -6  -2    0.07    0.58 
   2  -6  -2    0.15    0.51 
   2  -6  -2    1.02    0.75 
   2  -6  -2    0.50    0.68 
  -2   6   2    0.27    0.61 
   1  -6  -2   19.69    1.49 
   1  -6  -2   21.23    1.70 
   1  -6  -2   22.28    1.46 
  -1   6   2   20.98    1.39 
   0  -6  -2    2.98    0.75 
   0  -6  -2    1.81    0.65 
   0  -6  -2    5.25    0.97 
   0   6   2    3.67    0.75 
   0   6   2    3.74    0.62 
  -1  -6  -2    1.56    0.71 
  -1  -6  -2    2.55    0.64 
  -1  -6  -2    2.73    0.55 
  -1  -6  -2    2.39    0.67 
   1   6   2    1.75    0.63 
   1   6   2    2.37    0.60 
  -2  -6  -2    0.07    0.54 
  -2  -6  -2    1.98    0.65 
  -2  -6  -2   -0.30    0.57 
  -2  -6  -2    0.62    0.41 
   2   6   2    1.18    0.59 
   2   6   2    0.46    0.60 
   2   6   2    0.21    0.58 
  -3  -6  -2   14.36    1.25 
  -3  -6  -2   14.70    1.04 
  -3  -6  -2   14.34    1.25 
   3   6   2   16.22    1.34 
   3   6   2   14.26    1.18 
   3   6   2   14.17    1.06 
  -4  -6  -2    3.41    0.67 
  -4  -6  -2    3.51    0.84 
  -4  -6  -2    4.12    0.85 
   4   6   2    3.78    0.84 
   4   6   2    2.35    0.67 
   4   6   2    2.70    0.66 
  -5  -6  -2    8.58    1.16 
  -5  -6  -2   10.16    1.30 
  -5  -6  -2    8.96    1.21 
   5   6   2    8.64    1.34 
   5   6   2    7.05    1.22 
   5   6   2    7.64    0.99 
  -6  -6  -2  312.73   10.20 
  -6  -6  -2  325.71   10.45 
  -6  -6  -2  326.57    9.68 
  -6  -6  -2  332.19   10.47 
   6   6   2  323.76   10.37 
   6   6   2  311.29   10.04 
   6   6   2  325.98   10.32 
  -7  -6  -2    1.74    0.89 
   7   6   2    2.66    1.02 
   7   6   2    1.65    0.92 
  -8  -6  -2    2.03    0.99 
   8   6   2    2.32    1.17 
   8   6   2    3.11    0.98 
  -9  -6  -2   -1.64    0.98 
   9   6   2   -0.68    0.97 
   9   6   2   -1.17    1.21 
 -10  -6  -2    2.83    1.35 
  10   6   2   -0.53    1.55 
  10   6   2    0.06    1.18 
 -11  -6  -2    1.52    1.50 
  11   6   2    2.87    1.93 
  11   6   2    0.67    1.31 
   6  -7  -2   18.14    3.09 
   6  -7  -2   18.63    2.11 
   5  -7  -2    1.68    1.01 
   5  -7  -2   -1.00    1.23 
   5  -7  -2    0.25    1.05 
   4  -7  -2    1.86    1.18 
   4  -7  -2    3.74    0.94 
   4  -7  -2    3.36    1.03 
   4  -7  -2    4.17    1.14 
   3  -7  -2   23.84    2.34 
   3  -7  -2   28.17    1.78 
   3  -7  -2   22.24    1.94 
   3  -7  -2   23.84    1.90 
  -3   7   2   21.85    1.77 
   2  -7  -2    6.02    0.99 
   2  -7  -2    4.48    1.00 
   2  -7  -2    3.68    1.08 
  -2   7   2    6.15    0.99 
   1  -7  -2   11.95    1.36 
   1  -7  -2   12.96    1.31 
   1  -7  -2   11.96    1.67 
  -1   7   2   12.80    1.37 
   0  -7  -2   -0.08    0.55 
   0  -7  -2    0.33    0.68 
   0  -7  -2    0.08    0.76 
   0   7   2    0.46    0.57 
   0   7   2   -0.19    0.69 
  -1  -7  -2    8.47    0.98 
  -1  -7  -2    7.46    1.21 
  -1  -7  -2    8.11    1.39 
  -1  -7  -2    8.85    1.12 
   1   7   2    7.70    1.19 
   1   7   2   10.90    1.22 
  -2  -7  -2    0.51    0.48 
  -2  -7  -2    0.06    0.57 
  -2  -7  -2    0.61    0.67 
  -2  -7  -2   -0.17    0.65 
   2   7   2   -0.73    0.63 
   2   7   2   -0.45    0.60 
  -3  -7  -2   12.54    1.07 
  -3  -7  -2   11.17    1.32 
  -3  -7  -2   13.32    1.35 
   3   7   2   12.93    1.41 
   3   7   2   10.03    1.22 
   3   7   2   11.18    1.03 
  -4  -7  -2    9.57    1.51 
  -4  -7  -2    6.00    1.06 
  -4  -7  -2    6.25    1.06 
   4   7   2    4.75    0.93 
   4   7   2    3.58    0.81 
   4   7   2    3.09    0.68 
  -5  -7  -2    1.31    0.71 
  -5  -7  -2    0.61    0.74 
  -5  -7  -2    0.40    0.81 
   5   7   2   -0.15    0.63 
   5   7   2    0.57    0.69 
   5   7   2    0.84    0.84 
  -6  -7  -2    2.80    0.91 
  -6  -7  -2    3.55    0.52 
  -6  -7  -2    3.07    1.00 
  -6  -7  -2    3.79    0.89 
   6   7   2    2.81    0.79 
   6   7   2    3.89    0.99 
   6   7   2    3.40    0.93 
  -7  -7  -2    4.05    1.03 
  -7  -7  -2    4.36    1.12 
  -7  -7  -2    4.35    1.08 
   7   7   2    4.85    0.92 
   7   7   2    4.63    1.12 
   7   7   2    4.08    1.07 
  -8  -7  -2    7.04    1.22 
   8   7   2    6.77    1.38 
   8   7   2    5.04    1.32 
  -9  -7  -2   -0.04    1.03 
   9   7   2   -0.21    1.10 
   9   7   2    0.64    1.26 
 -10  -7  -2    1.74    1.36 
  10   7   2    2.56    1.36 
  10   7   2   -0.71    1.45 
   5  -8  -2    2.21    1.13 
   5  -8  -2    1.73    1.57 
   4  -8  -2    2.50    1.07 
   4  -8  -2    2.44    1.49 
   4  -8  -2    3.44    1.20 
   3  -8  -2   -1.88    1.14 
   3  -8  -2    1.08    0.88 
   3  -8  -2   -0.13    0.89 
  -3   8   2    0.06    0.91 
   2  -8  -2   58.23    3.00 
   2  -8  -2   60.59    2.91 
   2  -8  -2   58.17    3.41 
  -2   8   2   61.01    2.88 
   1  -8  -2   64.49    3.10 
   1  -8  -2   69.95    3.46 
   1  -8  -2   63.14    2.99 
  -1   8   2   62.60    2.95 
   0  -8  -2    4.12    1.02 
   0  -8  -2    4.73    1.16 
   0  -8  -2    4.78    0.90 
   0   8   2    3.80    1.00 
   0   8   2    3.33    0.73 
  -1  -8  -2   19.56    1.74 
  -1  -8  -2   19.88    1.99 
  -1  -8  -2   19.07    1.42 
  -1  -8  -2   17.73    1.54 
   1   8   2   22.05    1.60 
   1   8   2   17.59    1.59 
  -2  -8  -2    4.18    1.03 
  -2  -8  -2    4.92    1.06 
  -2  -8  -2    3.62    0.89 
  -2  -8  -2    4.70    0.73 
   2   8   2    3.85    0.89 
   2   8   2    4.74    0.97 
  -3  -8  -2    1.41    0.60 
  -3  -8  -2    0.47    0.81 
  -3  -8  -2    2.51    0.98 
  -3  -8  -2    0.10    0.85 
   3   8   2    0.68    0.81 
   3   8   2    1.27    0.47 
   3   8   2    0.87    0.77 
  -4  -8  -2    4.72    1.01 
  -4  -8  -2    3.53    1.04 
  -4  -8  -2    5.35    0.82 
   4   8   2    5.17    1.06 
   4   8   2    6.83    1.03 
   4   8   2    4.44    1.01 
  -5  -8  -2    0.09    0.97 
  -5  -8  -2    2.03    0.86 
  -5  -8  -2    0.44    1.03 
   5   8   2    1.45    0.81 
   5   8   2    0.97    0.93 
   5   8   2    0.01    0.72 
  -6  -8  -2    0.39    1.03 
  -6  -8  -2    0.70    0.90 
  -6  -8  -2    1.03    0.91 
   6   8   2    0.34    0.80 
   6   8   2    0.38    0.89 
   6   8   2    1.50    1.02 
  -7  -8  -2   14.08    1.82 
  -7  -8  -2   11.16    1.68 
  -7  -8  -2   10.48    1.75 
   7   8   2    9.70    1.51 
   7   8   2    9.80    1.31 
   7   8   2   11.66    1.79 
  -8  -8  -2   30.48    2.35 
   8   8   2   37.79    2.82 
   8   8   2   37.71    2.72 
  -9  -8  -2    6.67    1.37 
   9   8   2    6.79    1.57 
   9   8   2    6.40    1.54 
 -10  -8  -2   -1.33    1.21 
  10   8   2   -1.29    1.36 
  10   8   2   -0.57    1.33 
   4  -9  -2    3.48    1.26 
   4  -9  -2    1.62    1.57 
   3  -9  -2    9.14    1.47 
   3  -9  -2    9.63    1.53 
   3  -9  -2    8.75    1.78 
   2  -9  -2    2.89    1.12 
   2  -9  -2    3.00    1.17 
   2  -9  -2    2.44    1.42 
  -2   9   2    3.60    1.23 
   1  -9  -2    8.84    1.49 
   1  -9  -2    7.80    1.32 
   1  -9  -2    7.11    1.48 
  -1   9   2   10.90    1.77 
   0  -9  -2    4.33    1.16 
   0  -9  -2    4.08    0.98 
   0  -9  -2    5.34    1.31 
   0   9   2    5.65    1.22 
  -1  -9  -2    4.07    1.23 
  -1  -9  -2    5.40    1.23 
  -1  -9  -2    5.51    1.05 
  -1  -9  -2    5.79    0.92 
   1   9   2    4.89    0.90 
   1   9   2    6.61    1.27 
  -2  -9  -2    0.44    0.84 
  -2  -9  -2    0.14    0.69 
  -2  -9  -2    1.50    1.03 
  -2  -9  -2    1.02    0.98 
   2   9   2    1.20    0.96 
   2   9   2   -0.06    0.89 
  -3  -9  -2   15.00    1.46 
  -3  -9  -2   19.34    2.11 
  -3  -9  -2   17.88    1.99 
  -3  -9  -2   14.32    1.82 
   3   9   2   12.11    1.59 
   3   9   2   17.53    2.01 
  -4  -9  -2   14.36    1.48 
  -4  -9  -2   10.69    1.50 
  -4  -9  -2    9.93    1.53 
   4   9   2    9.25    1.52 
   4   9   2    8.41    1.29 
   4   9   2   12.46    2.00 
  -5  -9  -2    4.20    1.19 
  -5  -9  -2    4.47    0.97 
  -5  -9  -2    2.02    1.17 
   5   9   2    4.28    1.31 
   5   9   2    3.17    0.75 
   5   9   2    2.02    1.04 
  -6  -9  -2    1.96    1.18 
  -6  -9  -2    3.40    1.01 
  -6  -9  -2    2.06    1.13 
   6   9   2    2.95    0.91 
   6   9   2    2.76    1.21 
   6   9   2    3.14    1.06 
  -7  -9  -2    3.44    1.17 
  -7  -9  -2    3.51    1.31 
  -7  -9  -2    1.29    1.16 
   7   9   2    1.76    1.30 
   7   9   2    2.79    1.10 
   7   9   2    2.66    1.04 
  -8  -9  -2    3.91    1.41 
  -8  -9  -2    5.97    1.31 
   8   9   2    5.87    1.60 
   8   9   2    5.52    1.33 
  -9  -9  -2   -1.63    1.15 
   9   9   2    0.64    1.42 
   9   9   2   -1.10    1.24 
   2 -10  -2    2.40    1.56 
   2 -10  -2    1.32    1.01 
   2 -10  -2    0.94    1.13 
  -2  10   2    1.81    1.27 
   1 -10  -2    5.12    1.60 
   1 -10  -2    8.85    1.63 
   1 -10  -2    5.36    1.40 
  -1  10   2    6.54    1.41 
   0 -10  -2    0.21    0.91 
   0 -10  -2    0.07    1.08 
   0 -10  -2    1.05    0.93 
   0 -10  -2    1.24    1.27 
   0  10   2   -0.30    1.14 
  -1 -10  -2   13.10    2.23 
  -1 -10  -2   10.79    1.94 
  -1 -10  -2   10.15    1.63 
  -1 -10  -2    9.76    1.75 
   1  10   2   11.98    1.91 
  -2 -10  -2   27.85    1.91 
  -2 -10  -2   29.63    2.57 
  -2 -10  -2   26.64    2.15 
  -2 -10  -2   27.07    2.44 
   2  10   2   27.20    2.25 
   2  10   2   27.46    2.24 
  -3 -10  -2    9.40    1.45 
  -3 -10  -2    9.73    1.67 
  -3 -10  -2   14.62    2.23 
  -3 -10  -2   10.87    1.83 
   3  10   2    8.83    1.41 
   3  10   2    9.58    1.49 
  -4 -10  -2    3.04    1.21 
  -4 -10  -2    4.19    0.95 
  -4 -10  -2    6.59    1.49 
   4  10   2    3.12    1.28 
   4  10   2    1.05    1.14 
  -5 -10  -2    0.90    1.28 
  -5 -10  -2    1.15    1.24 
  -5 -10  -2   -0.07    0.96 
   5  10   2    0.23    1.08 
   5  10   2    0.50    1.23 
  -6 -10  -2   -0.82    1.13 
  -6 -10  -2   -1.14    0.98 
  -6 -10  -2    1.21    1.29 
   6  10   2   -0.83    0.96 
   6  10   2    0.66    1.34 
  -7 -10  -2    2.65    1.30 
  -7 -10  -2    1.54    1.19 
  -7 -10  -2    2.37    1.39 
   7  10   2    2.00    1.17 
   7  10   2    0.45    1.41 
   7  10   2   -1.91    1.68 
  -8 -10  -2    4.75    1.53 
  -8 -10  -2    4.68    2.20 
   8  10   2    5.09    1.67 
   8  10   2    2.27    1.17 
   8  10   2    3.70    1.30 
   0 -11  -2    0.73    1.05 
   0 -11  -2    0.78    0.96 
   0 -11  -2   -0.83    1.30 
   0 -11  -2    2.01    1.35 
   0  11   2    0.65    1.26 
  -1 -11  -2    0.22    0.91 
  -1 -11  -2   -0.54    1.17 
  -1 -11  -2   -0.55    0.99 
  -1 -11  -2    3.66    1.45 
   1  11   2    0.55    1.24 
  -2 -11  -2    1.33    0.95 
  -2 -11  -2   -0.43    1.05 
  -2 -11  -2    2.68    1.31 
  -2 -11  -2    3.11    1.48 
   2  11   2    1.94    1.31 
  -3 -11  -2    6.97    1.77 
  -3 -11  -2    6.39    1.16 
  -3 -11  -2    5.44    1.39 
   3  11   2    6.45    1.46 
   3  11   2    6.32    1.51 
  -4 -11  -2    1.82    1.45 
  -4 -11  -2    0.25    1.25 
   4  11   2   -0.09    1.33 
   4  11   2   -0.44    1.15 
  -5 -11  -2    3.21    1.50 
  -5 -11  -2   -0.89    1.48 
   5  11   2   -1.37    1.36 
   5  11   2    1.41    1.25 
  -6 -11  -2    0.18    1.44 
  -6 -11  -2   -2.70    1.34 
   6  11   2   -1.31    1.38 
   6  11   2   -1.77    1.09 
  -7 -11  -2   -0.90    1.31 
   7  11   2   -1.28    1.20 
   7  11   2   -1.15    1.46 
   5  11  -3    0.44    1.29 
   5  11  -3   -0.32    1.25 
  -5 -11   3    3.37    1.54 
   4  11  -3   -0.90    1.20 
   4  11  -3   -0.65    1.24 
  -4 -11   3    0.05    1.33 
   3  11  -3    4.62    1.40 
   3  11  -3    4.34    1.41 
  -3 -11   3    2.69    1.59 
   2  11  -3   10.75    1.76 
   2  11  -3    7.58    1.45 
  -2 -11   3    7.18    1.85 
   1  11  -3   -0.70    1.16 
  -1 -11   3    0.74    1.50 
  -1 -11   3   -1.38    1.38 
   7  10  -3   -0.65    1.14 
   7  10  -3   -1.16    1.30 
   6  10  -3   -0.39    1.25 
   6  10  -3    0.20    1.17 
   5  10  -3    3.23    1.26 
   5  10  -3    2.86    1.35 
  -5 -10   3    1.05    1.33 
   4  10  -3    1.98    1.29 
   4  10  -3    3.18    1.26 
  -4 -10   3    2.57    1.28 
   3  10  -3    0.43    1.23 
   3  10  -3    2.34    1.23 
  -3 -10   3    2.97    1.32 
   2  10  -3   -0.89    1.03 
   2  10  -3   -0.96    1.06 
  -2 -10   3   -0.26    1.28 
   1  10  -3   -0.40    1.11 
   1  10  -3    0.12    1.00 
  -1 -10   3    1.09    1.39 
  -1 -10   3    0.51    1.31 
   0  10  -3    4.82    1.30 
   0 -10   3    4.55    1.65 
   0 -10   3    6.43    1.61 
  -1  10  -3    3.24    1.27 
   1 -10   3    5.05    1.50 
   1 -10   3    3.02    1.70 
  -2  10  -3    0.56    1.08 
   2 -10   3   -0.55    1.11 
   2 -10   3    0.28    1.62 
   8   9  -3    2.66    1.48 
   8   9  -3    0.68    1.46 
   7   9  -3    2.84    1.14 
   7   9  -3    0.61    1.25 
   6   9  -3    1.54    1.24 
   6   9  -3    1.59    1.07 
   5   9  -3    4.26    1.20 
   5   9  -3    3.21    1.26 
  -5  -9   3    2.88    1.24 
   4   9  -3   -1.36    0.83 
   4   9  -3   -0.61    0.97 
  -4  -9   3   -0.76    0.99 
  -4  -9   3   -0.18    0.63 
   3   9  -3   -0.49    0.86 
   3   9  -3    0.19    0.91 
  -3  -9   3   -0.18    1.00 
  -3  -9   3    0.29    0.67 
   2   9  -3    0.15    0.88 
   2   9  -3    1.80    0.92 
  -2  -9   3    2.07    1.12 
  -2  -9   3    1.21    1.08 
   1   9  -3    1.87    0.93 
   1   9  -3    2.46    1.00 
  -1  -9   3    2.24    1.21 
  -1  -9   3    1.67    1.16 
   0   9  -3    5.13    0.96 
   0   9  -3    3.61    1.06 
   0  -9   3    2.29    1.22 
   0  -9   3    4.89    1.26 
  -1   9  -3    1.08    0.96 
   1  -9   3    0.97    1.07 
   1  -9   3    2.29    1.38 
  -2   9  -3    1.54    1.06 
   2  -9   3    2.81    1.58 
   2  -9   3    2.08    1.03 
  -3   9  -3    1.88    1.03 
   3  -9   3    0.73    0.99 
   3  -9   3    5.83    1.79 
  -4   9  -3   14.29    1.86 
   4  -9   3   14.79    1.79 
   4  -9   3    9.65    2.08 
   9   8  -3   -0.19    1.53 
   9   8  -3   -0.15    1.39 
   8   8  -3   10.98    1.74 
   8   8  -3    7.58    1.79 
   7   8  -3    0.94    0.95 
   7   8  -3    0.97    1.21 
   7   8  -3    2.18    1.37 
   6   8  -3   13.23    2.13 
   6   8  -3   16.59    1.57 
   5   8  -3   19.99    2.06 
   5   8  -3   14.72    1.58 
  -5  -8   3   16.63    1.88 
   4   8  -3    1.78    0.86 
   4   8  -3    1.66    0.92 
  -4  -8   3    2.71    1.04 
   3   8  -3    5.18    1.01 
   3   8  -3    4.03    0.98 
  -3  -8   3    5.11    1.11 
  -3  -8   3    4.20    0.90 
   2   8  -3    0.48    0.78 
   2   8  -3    0.56    0.81 
  -2  -8   3   -0.48    0.94 
  -2  -8   3    0.83    0.68 
   1   8  -3    7.19    1.14 
   1   8  -3    8.55    1.29 
   1   8  -3    7.05    1.05 
  -1  -8   3    9.72    1.65 
  -1  -8   3    6.18    1.38 
  -1  -8   3   11.73    1.12 
   0   8  -3    0.61    0.76 
   0   8  -3    0.04    0.75 
   0   8  -3    0.04    0.77 
   0  -8   3   -0.38    0.98 
   0  -8   3    0.77    0.94 
   0  -8   3    0.35    0.51 
  -1   8  -3    4.42    0.74 
  -1   8  -3    3.12    0.99 
  -1   8  -3    3.18    1.00 
   1  -8   3    4.32    0.96 
   1  -8   3    2.91    1.33 
   1  -8   3    3.36    0.63 
  -2   8  -3    1.06    0.81 
  -2   8  -3   -0.96    0.81 
   2  -8   3   -1.09    1.06 
   2  -8   3    0.45    0.80 
   2  -8   3    0.24    0.45 
  -3   8  -3    0.87    0.99 
  -3   8  -3   -0.56    0.76 
   3  -8   3    1.32    1.36 
   3  -8   3    1.78    0.83 
   3  -8   3    1.15    0.58 
  -4   8  -3    0.77    0.89 
  -4   8  -3   -0.42    0.98 
   4  -8   3   -0.67    1.23 
   4  -8   3   -0.18    0.74 
  -5   8  -3   -0.77    0.83 
   5  -8   3    2.51    0.93 
   5  -8   3    2.60    1.56 
   9   7  -3   -0.59    1.27 
   9   7  -3   -0.57    1.50 
   8   7  -3    0.12    1.17 
   8   7  -3    0.34    1.34 
   7   7  -3    0.29    1.08 
   7   7  -3   -0.09    0.74 
   7   7  -3   -0.09    1.17 
   6   7  -3    0.87    0.91 
   6   7  -3    2.83    0.88 
   5   7  -3   -0.39    0.68 
   5   7  -3   -0.20    0.76 
   4   7  -3    0.13    0.47 
   4   7  -3    0.09    0.75 
   4   7  -3    0.30    0.70 
  -4  -7   3   -0.19    0.81 
   3   7  -3    4.64    0.88 
   3   7  -3    4.07    0.75 
   3   7  -3    5.18    0.92 
  -3  -7   3    2.50    0.93 
  -3  -7   3    3.64    0.81 
   2   7  -3    5.92    0.99 
   2   7  -3    6.84    0.74 
   2   7  -3    6.37    0.96 
   2   7  -3    6.06    0.92 
  -2  -7   3    6.09    1.09 
  -2  -7   3    6.30    1.04 
   1   7  -3    8.75    1.15 
   1   7  -3    7.45    0.79 
   1   7  -3    5.79    0.88 
   1   7  -3    5.51    0.90 
  -1  -7   3    8.37    1.04 
  -1  -7   3    6.83    1.19 
  -1  -7   3    6.39    1.04 
   0   7  -3   66.81    2.74 
   0   7  -3   60.45    2.70 
   0   7  -3   61.27    2.63 
   0  -7   3   65.07    2.79 
   0  -7   3   60.94    2.41 
   0  -7   3   66.04    3.35 
  -1   7  -3    1.57    0.80 
  -1   7  -3    1.86    0.66 
  -1   7  -3    1.42    0.71 
   1  -7   3    1.27    0.94 
   1  -7   3    2.16    0.71 
   1  -7   3    1.91    0.49 
  -2   7  -3    3.44    0.91 
  -2   7  -3    3.63    0.85 
  -2   7  -3    4.09    0.64 
   2  -7   3    4.57    0.86 
   2  -7   3    5.70    1.37 
   2  -7   3    4.56    0.76 
  -3   7  -3    4.96    0.93 
  -3   7  -3    6.00    1.11 
   3  -7   3    7.21    1.15 
   3  -7   3    4.76    1.35 
   3  -7   3    5.10    0.84 
  -4   7  -3    0.09    0.69 
  -4   7  -3   -0.85    0.79 
   4  -7   3   -0.22    0.55 
   4  -7   3    0.28    0.67 
   4  -7   3   -0.27    1.12 
  -5   7  -3    2.59    0.85 
  -5   7  -3    3.38    1.13 
   5  -7   3    2.78    1.42 
   5  -7   3    4.82    0.98 
   5  -7   3    2.88    0.92 
  -6   7  -3   11.73    1.68 
   6  -7   3   15.42    1.66 
   6  -7   3   21.10    3.11 
  10   6  -3    1.25    1.33 
  10   6  -3    1.57    1.79 
   9   6  -3    5.96    1.50 
   9   6  -3    5.46    1.81 
   8   6  -3    2.27    1.14 
   8   6  -3    1.67    0.73 
   8   6  -3    1.07    1.39 
   7   6  -3   14.13    1.28 
   7   6  -3   14.29    2.34 
   7   6  -3   11.78    1.95 
   6   6  -3    9.72    1.10 
   6   6  -3    8.88    1.51 
   5   6  -3    1.62    0.78 
   5   6  -3    0.81    0.62 
   4   6  -3    7.09    1.00 
   4   6  -3    5.42    0.92 
   4   6  -3    6.05    0.92 
  -4  -6   3    6.41    1.04 
   3   6  -3    4.85    0.70 
   3   6  -3    5.09    0.70 
   3   6  -3    3.99    0.76 
   3   6  -3    4.52    0.83 
  -3  -6   3    6.00    1.08 
  -3  -6   3    4.17    0.72 
   2   6  -3    6.70    0.88 
   2   6  -3    7.24    0.70 
   2   6  -3    9.04    1.04 
   2   6  -3    6.11    0.86 
  -2  -6   3    7.40    1.06 
  -2  -6   3    7.59    0.89 
   1   6  -3   -0.11    0.58 
   1   6  -3    0.18    0.53 
   1   6  -3    0.67    0.34 
   1   6  -3   -0.11    0.53 
  -1  -6   3    0.14    0.58 
  -1  -6   3    0.79    0.69 
  -1  -6   3    0.62    0.46 
   0   6  -3   24.42    1.52 
   0   6  -3   22.37    1.47 
   0   6  -3   24.77    1.50 
   0  -6   3   26.00    1.50 
   0  -6   3   25.52    1.93 
   0  -6   3   23.40    1.19 
  -1   6  -3    0.39    0.54 
  -1   6  -3   -0.35    0.52 
  -1   6  -3   -0.04    0.57 
   1  -6   3    1.64    0.68 
   1  -6   3    0.18    0.35 
   1  -6   3    0.85    0.90 
  -2   6  -3   24.43    1.40 
  -2   6  -3   23.10    1.62 
  -2   6  -3   22.37    1.48 
   2  -6   3   22.23    1.40 
   2  -6   3   23.44    2.08 
   2  -6   3   22.45    1.22 
  -3   6  -3   -0.20    0.67 
  -3   6  -3    0.31    0.56 
   3  -6   3    0.52    0.86 
   3  -6   3    1.45    0.55 
   3  -6   3    0.51    0.47 
  -4   6  -3    1.00    0.82 
  -4   6  -3    1.95    0.72 
   4  -6   3    2.04    0.72 
   4  -6   3    2.78    1.08 
   4  -6   3    2.88    0.75 
   4  -6   3    2.10    1.10 
  -5   6  -3    0.58    0.82 
  -5   6  -3   -0.37    0.61 
   5  -6   3    0.39    1.08 
   5  -6   3    0.19    0.65 
   5  -6   3   -0.23    0.62 
   5  -6   3    1.45    1.09 
  -6   6  -3   -0.14    0.53 
  -6   6  -3   -0.39    0.92 
   6  -6   3    0.20    0.72 
   6  -6   3    0.65    1.21 
   6  -6   3    0.71    1.19 
   6  -6   3   -0.02    0.74 
  -7   6  -3    2.17    1.18 
   7  -6   3    1.77    1.51 
   7  -6   3    1.53    0.94 
   7  -6   3    2.43    0.96 
   7  -6   3    3.56    1.58 
  10   5  -3   -0.51    1.20 
  10   5  -3   -1.10    1.59 
   9   5  -3    2.44    1.18 
   9   5  -3    1.42    1.55 
   8   5  -3   57.65    3.53 
   8   5  -3   59.76    2.94 
   8   5  -3   43.17    2.43 
   7   5  -3   54.02    3.33 
   7   5  -3   54.15    2.79 
   7   5  -3   54.89    2.23 
   6   5  -3    1.23    0.58 
   6   5  -3   -0.07    0.70 
   5   5  -3    2.09    0.60 
   5   5  -3    1.06    0.71 
   4   5  -3   27.82    1.44 
   4   5  -3   26.20    1.70 
   4   5  -3   28.08    1.50 
   3   5  -3    4.18    0.68 
   3   5  -3    3.63    0.72 
   3   5  -3    5.41    0.62 
   3   5  -3    4.75    0.61 
  -3  -5   3    4.39    0.78 
   2   5  -3    2.45    0.61 
   2   5  -3    2.95    0.72 
   2   5  -3    2.31    0.50 
   2   5  -3    2.26    0.43 
  -2  -5   3    2.08    0.50 
  -2  -5   3    2.54    0.63 
   1   5  -3    4.37    0.79 
   1   5  -3    5.43    0.59 
   1   5  -3    5.41    0.80 
   1   5  -3    3.89    0.69 
  -1  -5   3    4.56    0.66 
  -1  -5   3    3.88    0.88 
  -1  -5   3    5.52    0.92 
   0   5  -3   77.19    2.96 
   0   5  -3   79.47    3.00 
   0   5  -3   80.19    2.97 
   0  -5   3   80.58    2.70 
   0  -5   3   80.03    3.37 
   0  -5   3   79.30    2.90 
   0  -5   3   87.74    2.68 
  -1   5  -3    0.44    0.49 
  -1   5  -3    0.09    0.50 
  -1   5  -3    0.75    0.49 
   1  -5   3    0.22    0.32 
   1  -5   3    0.45    0.46 
   1  -5   3    0.43    0.72 
  -2   5  -3    9.70    1.02 
  -2   5  -3   10.83    1.18 
   2  -5   3    9.44    0.78 
   2  -5   3    9.02    1.43 
   2  -5   3   10.18    0.89 
  -3   5  -3    1.51    0.70 
  -3   5  -3    2.51    0.59 
   3  -5   3    2.55    0.59 
   3  -5   3    1.63    0.85 
   3  -5   3    1.76    0.50 
   3  -5   3    3.78    1.00 
  -4   5  -3    0.43    0.68 
  -4   5  -3    0.33    0.47 
   4  -5   3    0.46    0.49 
   4  -5   3   -0.56    0.77 
   4  -5   3    0.25    0.82 
  -5   5  -3    0.29    0.74 
  -5   5  -3   -0.04    0.51 
   5  -5   3   -0.09    0.94 
   5  -5   3    0.90    0.95 
   5  -5   3    0.51    0.61 
  -6   5  -3    0.50    0.46 
  -6   5  -3    1.01    0.89 
   6  -5   3    0.01    1.02 
   6  -5   3   -0.60    1.06 
   6  -5   3    0.19    0.67 
  -7   5  -3   19.07    2.34 
   7  -5   3   16.11    1.64 
   7  -5   3   17.62    2.68 
   7  -5   3   13.63    2.63 
  -8   5  -3    1.91    1.10 
   8  -5   3    4.04    1.70 
   8  -5   3    2.36    1.59 
   8  -5   3    2.46    0.98 
  10   4  -3   -0.12    1.68 
  10   4  -3    0.41    1.13 
   9   4  -3    5.76    1.23 
   9   4  -3    3.77    1.68 
   8   4  -3    1.48    0.98 
   8   4  -3    2.05    1.34 
   7   4  -3   11.80    1.61 
   7   4  -3   14.55    0.97 
   7   4  -3   12.13    2.00 
   6   4  -3    7.32    1.30 
   6   4  -3    4.51    1.11 
   6   4  -3    8.44    0.80 
   5   4  -3   26.49    1.30 
   5   4  -3   27.14    1.70 
   5   4  -3   25.54    1.47 
   4   4  -3    7.49    0.81 
   4   4  -3    8.07    0.82 
   4   4  -3    7.70    1.13 
   3   4  -3   58.23    2.28 
   3   4  -3   60.82    2.48 
   3   4  -3   63.81    2.26 
   3   4  -3   61.78    2.03 
  -3  -4   3   61.74    2.01 
   2   4  -3   96.79    3.10 
   2   4  -3   89.13    3.25 
   2   4  -3   94.49    3.09 
   2   4  -3   96.03    3.37 
  -2  -4   3   97.00    3.32 
   1   4  -3   32.22    1.48 
   1   4  -3   33.84    1.42 
   1   4  -3   32.32    1.57 
  -1  -4   3   33.98    1.52 
  -1  -4   3   31.04    1.82 
   0   4  -3   44.14    1.77 
   0   4  -3   41.68    1.78 
   0  -4   3   43.01    2.14 
   0  -4   3   42.67    1.50 
   0  -4   3   42.48    1.74 
  -1   4  -3   -0.14    0.42 
  -1   4  -3    0.62    0.44 
   1  -4   3    0.12    0.28 
   1  -4   3    0.84    0.40 
   1  -4   3    0.01    0.57 
  -2   4  -3   19.60    1.26 
  -2   4  -3   18.94    1.30 
   2  -4   3   19.25    1.09 
   2  -4   3   18.95    1.56 
   2  -4   3   19.50    1.00 
   2  -4   3   18.09    1.66 
  -3   4  -3   -0.41    0.47 
  -3   4  -3    0.12    0.44 
   3  -4   3    0.20    0.40 
   3  -4   3    0.75    0.68 
   3  -4   3    0.74    0.65 
  -4   4  -3   12.10    1.30 
  -4   4  -3   15.82    1.06 
   4  -4   3   14.89    1.61 
   4  -4   3   16.24    1.62 
   4  -4   3   15.95    1.10 
  -5   4  -3    2.76    0.54 
  -5   4  -3    2.78    0.84 
   5  -4   3    2.20    0.90 
   5  -4   3    2.66    0.67 
   5  -4   3    2.98    1.02 
  -6   4  -3    1.20    0.77 
  -6   4  -3    0.76    0.39 
   6  -4   3    0.25    1.05 
   6  -4   3    1.04    0.89 
  -7   4  -3    0.28    0.89 
   7  -4   3    0.62    1.23 
   7  -4   3    0.50    1.03 
  -8   4  -3    0.17    1.02 
   8  -4   3   -0.74    1.38 
   8  -4   3    0.29    1.24 
  -9   4  -3    6.39    1.42 
   9  -4   3    9.01    2.18 
   9  -4   3    9.56    1.96 
  10   3  -3    1.11    1.70 
   9   3  -3    3.32    1.56 
   9   3  -3    4.67    1.08 
   8   3  -3   -0.35    0.82 
   8   3  -3    2.23    1.26 
   7   3  -3   17.54    1.57 
   7   3  -3   14.32    1.97 
   7   3  -3   16.69    0.88 
   6   3  -3    6.59    1.17 
   6   3  -3    7.49    0.67 
   6   3  -3    6.75    1.18 
   5   3  -3    1.92    0.40 
   5   3  -3    1.65    0.62 
   5   3  -3    2.12    0.59 
   4   3  -3   -0.23    0.40 
   4   3  -3    0.57    0.33 
   4   3  -3    0.09    0.51 
   3   3  -3    5.26    0.71 
   3   3  -3    6.28    0.45 
   3   3  -3    5.39    0.65 
   3   3  -3    6.52    0.64 
   2   3  -3   70.10    2.38 
   2   3  -3   69.65    2.60 
   2   3  -3   72.05    2.30 
   2   3  -3   69.02    2.49 
  -2  -3   3   71.64    2.30 
   1   3  -3   39.60    1.48 
   1   3  -3   40.17    1.61 
  -1  -3   3   37.63    1.54 
   0   3  -3    0.25    0.30 
   0   3  -3    0.23    0.36 
   0   3  -3    0.48    0.38 
   0  -3   3    0.34    0.50 
   0  -3   3    0.11    0.35 
  -1   3  -3   68.27    2.50 
  -1   3  -3   68.11    2.55 
   1  -3   3   67.17    2.44 
   1  -3   3   74.47    2.39 
   1  -3   3   76.88    2.94 
  -2   3  -3    7.44    0.71 
  -2   3  -3    7.24    0.85 
   2  -3   3    6.99    0.63 
   2  -3   3    6.93    1.11 
   2  -3   3    7.75    1.13 
  -3   3  -3   -0.07    0.46 
  -3   3  -3   -0.17    0.45 
   3  -3   3   -0.19    0.44 
   3  -3   3   -0.23    0.61 
   3  -3   3    0.37    0.60 
  -4   3  -3    8.70    0.78 
  -4   3  -3    9.44    1.11 
   4  -3   3    9.26    1.25 
   4  -3   3    8.43    1.28 
  -5   3  -3    2.26    0.71 
  -5   3  -3    3.23    0.51 
   5  -3   3    3.81    0.90 
   5  -3   3    3.91    1.05 
  -6   3  -3    1.21    0.76 
  -6   3  -3    0.67    0.34 
   6  -3   3    0.17    0.99 
   6  -3   3    0.34    0.85 
  -7   3  -3    0.15    0.83 
   7  -3   3    0.32    1.04 
   7  -3   3   -0.68    1.18 
  -8   3  -3    0.41    0.91 
   8  -3   3   -0.06    1.17 
   8  -3   3   -0.69    1.34 
  -9   3  -3    0.01    1.05 
   9  -3   3    1.03    1.47 
   9  -3   3    2.22    1.76 
  10   2  -3    1.00    1.66 
   9   2  -3   -1.50    1.31 
   8   2  -3    8.06    1.32 
   8   2  -3    1.63    1.18 
   7   2  -3    8.20    1.19 
   7   2  -3    3.55    1.08 
   6   2  -3    1.39    0.56 
   6   2  -3   -0.05    0.28 
   6   2  -3    0.27    0.81 
   5   2  -3    7.16    1.35 
   5   2  -3    7.69    0.95 
   5   2  -3    6.87    0.48 
   5   2  -3    7.18    0.55 
   4   2  -3    2.60    0.56 
   4   2  -3    3.25    0.45 
   3   2  -3   56.88    1.82 
   3   2  -3   54.87    2.18 
   3   2  -3   56.07    1.97 
   2   2  -3   42.97    1.53 
   2   2  -3   46.74    1.69 
   2   2  -3   46.75    1.53 
   1   2  -3    7.02    0.56 
   1   2  -3    8.99    0.57 
   1   2  -3    7.85    0.69 
  -1  -2   3    8.34    0.65 
   0   2  -3   -0.03    0.25 
   0   2  -3    0.38    0.18 
   0   2  -3    0.00    0.31 
   0   2  -3   -0.29    0.31 
   0  -2   3    0.66    0.26 
   0  -2   3    0.28    0.43 
  -1   2  -3   16.46    0.89 
  -1   2  -3   15.61    0.78 
  -1   2  -3   16.05    0.92 
   1  -2   3   15.84    0.79 
   1  -2   3   16.60    1.12 
  -2   2  -3    4.45    0.58 
  -2   2  -3    4.69    0.67 
  -2   2  -3    4.25    0.57 
   2  -2   3    5.31    0.95 
   2  -2   3    4.59    0.49 
   2  -2   3    3.53    0.65 
  -3   2  -3    3.67    0.56 
  -3   2  -3    3.96    0.48 
   3  -2   3    2.79    0.67 
   3  -2   3    4.12    0.68 
  -4   2  -3   24.69    1.13 
  -4   2  -3   25.43    1.49 
   4  -2   3   24.58    1.80 
   4  -2   3   21.39    1.73 
  -5   2  -3    0.09    0.29 
  -5   2  -3    0.27    0.59 
   5  -2   3    0.87    0.72 
   5  -2   3    0.10    0.87 
  -6   2  -3    1.20    0.66 
  -6   2  -3    2.12    0.35 
   6  -2   3    1.00    1.00 
   6  -2   3    2.42    0.88 
  -7   2  -3    0.04    0.73 
   7  -2   3    0.74    0.91 
   7  -2   3    1.33    1.24 
  -8   2  -3    0.47    0.83 
   8  -2   3    1.65    1.11 
   8  -2   3    0.81    1.31 
  -9   2  -3    1.49    1.06 
   9  -2   3   -0.89    1.29 
   9  -2   3   -1.99    1.47 
 -10   2  -3   -0.80    1.04 
  10  -2   3   -0.17    1.78 
  10  -2   3   -1.19    1.42 
  10   1  -3    5.55    1.89 
  10   1  -3    2.88    1.50 
   9   1  -3    4.62    0.90 
   9   1  -3    2.35    1.39 
   9   1  -3    3.38    1.59 
   8   1  -3    2.93    1.34 
   8   1  -3    6.94    1.17 
   7   1  -3    5.68    1.15 
   7   1  -3    7.87    1.04 
   6   1  -3   25.17    1.36 
   6   1  -3   21.14    1.78 
   5   1  -3   36.06    1.33 
   5   1  -3   37.74    2.07 
   5   1  -3   37.50    1.65 
   4   1  -3   13.54    0.72 
   4   1  -3   13.57    0.94 
   4   1  -3   12.77    1.29 
   3   1  -3    3.23    0.47 
   3   1  -3    2.65    0.51 
   2   1  -3    4.66    0.51 
   1   1  -3    7.34    0.62 
   1   1  -3    7.05    0.52 
   0   1  -3   10.33    0.50 
   0   1  -3   11.35    0.70 
   0   1  -3   11.06    0.78 
   0   1  -3   10.38    0.66 
   0  -1   3   10.65    0.50 
  -1   1  -3  322.17    9.48 
  -1   1  -3  313.80    9.42 
  -1   1  -3  310.96    9.53 
  -1   1  -3  304.25    9.48 
   1  -1   3  315.48    9.55 
   1  -1   3  314.11    9.69 
   1  -1   3  321.64    9.41 
  -2   1  -3   22.92    1.08 
  -2   1  -3   20.80    0.94 
  -2   1  -3   21.42    1.02 
   2  -1   3   20.75    1.17 
   2  -1   3   21.55    0.95 
   2  -1   3   19.85    1.25 
  -3   1  -3   97.45    3.19 
  -3   1  -3   97.68    3.36 
  -3   1  -3  100.26    3.37 
   3  -1   3  100.88    3.67 
   3  -1   3  100.47    3.48 
  -4   1  -3   18.10    0.86 
  -4   1  -3   20.34    1.25 
  -4   1  -3   18.95    1.18 
   4  -1   3   16.86    1.28 
   4  -1   3   18.90    1.55 
  -5   1  -3    3.70    0.48 
  -5   1  -3    4.05    0.66 
  -5   1  -3    4.18    0.76 
   5  -1   3    4.51    1.00 
   5  -1   3    4.26    0.82 
  -6   1  -3   -0.54    0.55 
   6  -1   3    0.08    0.86 
   6  -1   3    0.14    0.68 
  -7   1  -3   30.14    1.83 
   7  -1   3   28.10    2.24 
   7  -1   3   27.72    2.48 
  -8   1  -3   10.57    1.69 
   8  -1   3   12.99    1.96 
   8  -1   3   13.00    2.19 
  -9   1  -3    6.77    1.20 
   9  -1   3    7.11    1.56 
   9  -1   3    6.80    1.87 
 -10   1  -3    1.36    1.06 
  10  -1   3   -0.74    1.72 
  10  -1   3    2.55    1.44 
  10   0  -3    1.56    1.53 
  10   0  -3    0.09    1.65 
   9   0  -3    5.49    1.68 
   9   0  -3    3.41    1.51 
   8   0  -3    1.21    1.26 
   8   0  -3    1.64    1.19 
   8   0  -3    2.42    0.62 
   7   0  -3    0.54    0.91 
   7   0  -3    1.40    1.01 
   7   0  -3    1.94    0.52 
   6   0  -3    0.32    0.71 
   6   0  -3   -0.08    0.40 
   5   0  -3   10.53    0.84 
   5   0  -3   10.88    1.22 
   4   0  -3   13.72    1.18 
   4   0  -3   13.39    0.87 
   3   0  -3    7.52    0.69 
   2   0  -3    6.85    0.82 
  -2   0   3    5.72    0.93 
   1   0  -3  697.01   20.95 
   0   0  -3  911.39   26.99 
   0   0  -3  921.14   27.01 
  -1   0  -3   22.22    0.86 
  -1   0  -3   22.57    1.20 
  -1   0  -3   20.72    0.90 
  -1   0  -3   22.30    0.92 
  -1   0  -3   21.77    0.97 
   1   0   3   21.94    0.92 
   1   0   3   22.81    1.14 
   1   0   3   23.32    0.92 
   1   0   3   21.68    0.87 
  -2   0  -3   17.68    0.91 
  -2   0  -3   17.30    0.92 
  -2   0  -3   19.38    0.92 
  -2   0  -3   17.45    0.88 
   2   0   3   18.21    1.14 
   2   0   3   17.93    0.93 
   2   0   3   18.51    0.75 
   2   0   3   18.76    0.88 
  -3   0  -3    2.72    0.45 
  -3   0  -3    2.08    0.48 
   3   0   3    2.26    0.50 
   3   0   3    3.38    0.50 
   3   0   3    3.29    0.71 
  -4   0  -3   16.87    1.06 
  -4   0  -3   16.03    1.12 
   4   0   3   19.09    1.55 
   4   0   3   17.27    1.13 
   4   0   3   19.14    1.18 
   4   0   3   17.09    1.14 
  -5   0  -3    4.55    0.72 
  -5   0  -3    4.43    0.48 
  -5   0  -3    4.41    0.76 
   5   0   3    5.58    0.97 
   5   0   3    3.84    0.93 
   5   0   3    4.21    0.71 
   5   0   3    5.01    0.93 
  -6   0  -3   78.97    3.12 
  -6   0  -3   75.13    2.88 
   6   0   3   72.59    3.15 
   6   0   3   75.94    3.40 
   6   0   3   74.03    2.89 
  -7   0  -3   40.54    2.00 
   7   0   3   39.49    2.03 
   7   0   3   39.86    2.39 
   7   0   3   42.31    2.67 
  -8   0  -3    2.51    0.81 
   8   0   3    2.87    1.06 
   8   0   3    3.00    0.82 
   8   0   3    4.14    1.43 
  -9   0  -3   15.04    1.79 
   9   0   3   15.00    2.94 
   9   0   3   16.44    2.31 
 -10   0  -3   -1.02    0.91 
  10   0   3    0.07    1.83 
  10   0   3    0.40    1.28 
   9  -1  -3    0.28    1.36 
   9  -1  -3    0.56    1.52 
   8  -1  -3    5.07    1.50 
   8  -1  -3    5.24    1.52 
   7  -1  -3    0.21    1.04 
   7  -1  -3   -1.11    0.95 
   6  -1  -3    1.94    0.41 
   6  -1  -3    1.10    0.92 
   6  -1  -3    2.47    0.89 
   5  -1  -3    2.33    0.41 
   5  -1  -3    1.88    0.65 
   5  -1  -3    2.09    0.83 
   4  -1  -3    0.75    0.36 
   4  -1  -3    1.02    0.47 
   3  -1  -3    3.81    0.56 
   3  -1  -3    3.40    0.68 
   2  -1  -3    5.29    0.78 
   0  -1  -3  192.92    5.83 
   0  -1  -3  188.32    5.79 
   0   1   3  188.29    5.82 
  -1  -1  -3    3.64    0.50 
  -1  -1  -3    3.50    0.50 
  -1  -1  -3    4.00    0.41 
  -1  -1  -3    1.95    0.39 
   1   1   3    4.14    0.65 
   1   1   3    3.61    0.53 
   1   1   3    4.19    0.47 
  -2  -1  -3    8.48    0.57 
  -2  -1  -3    7.65    0.67 
  -2  -1  -3    7.60    0.62 
  -2  -1  -3    6.98    0.66 
   2   1   3    7.03    0.54 
   2   1   3    6.83    0.92 
   2   1   3    6.60    0.64 
   2   1   3    8.29    0.87 
  -3  -1  -3   37.09    1.54 
  -3  -1  -3   34.68    1.42 
  -3  -1  -3   36.75    1.54 
   3   1   3   37.51    1.53 
   3   1   3   36.77    1.44 
   3   1   3   37.70    1.62 
   3   1   3   37.99    1.78 
  -4  -1  -3   30.90    1.33 
  -4  -1  -3   32.33    1.55 
   4   1   3   35.37    1.83 
   4   1   3   27.69    1.51 
   4   1   3   30.63    1.44 
   4   1   3   25.56    1.56 
  -5  -1  -3  161.45    5.21 
  -5  -1  -3  164.47    5.45 
   5   1   3  160.83    5.36 
   5   1   3  161.85    5.39 
   5   1   3  168.87    5.69 
   5   1   3  160.44    5.43 
  -6  -1  -3    1.24    0.60 
  -6  -1  -3    2.21    0.66 
   6   1   3    1.46    0.66 
   6   1   3    1.17    0.71 
   6   1   3    1.18    0.84 
  -7  -1  -3    0.51    0.64 
  -7  -1  -3   -0.56    0.54 
   7   1   3    0.27    0.73 
   7   1   3    0.42    0.98 
   7   1   3   -0.70    0.63 
  -8  -1  -3   -0.06    0.86 
  -8  -1  -3    0.09    0.70 
   8   1   3    2.34    1.27 
   8   1   3    0.91    0.93 
   8   1   3    2.10    0.85 
  -9  -1  -3   -0.03    0.78 
   9   1   3    0.23    1.42 
   9   1   3    0.71    1.11 
   9   1   3    0.41    0.86 
 -10  -1  -3    0.61    0.90 
  10   1   3    3.46    1.58 
  10   1   3    1.42    1.74 
  11   1   3   15.29    2.65 
  11   1   3   12.81    2.41 
   9  -2  -3    3.57    1.77 
   9  -2  -3    3.26    1.65 
   8  -2  -3   19.99    2.80 
   8  -2  -3   18.72    2.79 
   7  -2  -3    6.37    1.38 
   7  -2  -3    6.18    1.48 
   6  -2  -3    2.08    0.91 
   6  -2  -3    0.96    0.99 
   5  -2  -3    4.23    1.01 
   5  -2  -3    4.32    0.82 
   4  -2  -3   14.36    1.53 
   4  -2  -3   12.95    1.11 
   3  -2  -3    9.14    1.14 
   3  -2  -3    7.67    0.78 
   2  -2  -3   19.17    1.00 
   2  -2  -3   18.50    1.23 
   1  -2  -3   79.54    2.57 
   1  -2  -3   78.36    2.77 
   1  -2  -3   78.39    2.77 
   0  -2  -3   55.66    1.93 
   0  -2  -3   49.70    1.90 
   0  -2  -3   56.39    1.97 
   0  -2  -3   55.02    2.01 
   0   2   3   56.67    2.00 
  -1  -2  -3   37.51    1.45 
  -1  -2  -3   32.59    1.27 
  -1  -2  -3   36.20    1.38 
   1   2   3   37.07    1.53 
   1   2   3   37.13    1.45 
   1   2   3   35.57    1.29 
  -2  -2  -3   97.33    3.29 
  -2  -2  -3  101.60    3.26 
  -2  -2  -3   99.09    3.23 
   2   2   3   94.10    3.29 
   2   2   3  102.26    3.30 
   2   2   3  103.91    3.38 
  -3  -2  -3   16.48    0.96 
  -3  -2  -3   16.66    1.04 
  -3  -2  -3   16.06    0.99 
  -3  -2  -3   17.20    0.87 
   3   2   3   17.23    1.23 
   3   2   3   16.12    1.02 
   3   2   3   17.12    1.18 
  -4  -2  -3   63.40    2.16 
  -4  -2  -3   61.50    2.41 
  -4  -2  -3   59.25    2.44 
   4   2   3   63.97    2.45 
   4   2   3   55.19    2.45 
   4   2   3   65.45    2.57 
  -5  -2  -3   35.64    1.47 
  -5  -2  -3   34.89    1.69 
   5   2   3   32.35    1.73 
   5   2   3   34.12    1.74 
   5   2   3   32.13    1.89 
  -6  -2  -3    2.54    0.69 
  -6  -2  -3    3.07    0.58 
   6   2   3    2.47    0.85 
   6   2   3    2.24    0.71 
  -7  -2  -3    0.51    0.55 
  -7  -2  -3    0.51    0.71 
   7   2   3    0.11    0.70 
   7   2   3   -0.16    0.88 
   7   2   3    0.23    0.67 
  -8  -2  -3    0.94    0.82 
  -8  -2  -3    0.33    0.64 
   8   2   3    0.07    0.86 
   8   2   3    2.49    0.89 
   8   2   3    1.68    1.20 
  -9  -2  -3   -1.37    1.05 
  -9  -2  -3    0.45    0.59 
   9   2   3    2.58    0.99 
   9   2   3   -0.03    0.97 
   9   2   3   -0.75    1.41 
  10   2   3   17.52    2.55 
  10   2   3   12.75    2.16 
  11   2   3   21.23    2.88 
  11   2   3   16.26    2.56 
   9  -3  -3   35.86    3.43 
   8  -3  -3    1.38    1.41 
   8  -3  -3    2.18    1.86 
   7  -3  -3    0.91    1.20 
   7  -3  -3    0.23    1.17 
   6  -3  -3    0.75    1.00 
   6  -3  -3    2.53    1.01 
   5  -3  -3    0.87    0.83 
   5  -3  -3    1.43    0.78 
   4  -3  -3    1.59    0.78 
   4  -3  -3    1.25    0.60 
   3  -3  -3    0.98    0.47 
   3  -3  -3    2.52    0.71 
   2  -3  -3   12.00    1.06 
   2  -3  -3   13.62    1.14 
   2  -3  -3   12.80    1.07 
   2  -3  -3   12.31    0.82 
   1  -3  -3   10.30    0.66 
   1  -3  -3   11.62    0.94 
   1  -3  -3   13.16    1.02 
   1  -3  -3   10.47    0.96 
   0  -3  -3   26.44    1.25 
   0  -3  -3   25.91    1.29 
   0  -3  -3   26.75    1.30 
   0   3   3   26.45    1.28 
  -1  -3  -3   26.48    1.28 
  -1  -3  -3   27.59    1.28 
  -1  -3  -3   27.36    1.24 
  -1  -3  -3   29.04    1.18 
   1   3   3   25.47    1.29 
   1   3   3   29.49    1.25 
   1   3   3   26.36    1.33 
  -2  -3  -3   43.16    1.68 
  -2  -3  -3   44.64    1.77 
  -2  -3  -3   45.82    1.75 
  -2  -3  -3   45.38    1.54 
   2   3   3   46.22    1.77 
   2   3   3   39.87    1.61 
   2   3   3   40.68    1.81 
  -3  -3  -3    1.36    0.49 
  -3  -3  -3    1.09    0.42 
  -3  -3  -3    1.60    0.47 
   3   3   3    1.64    0.58 
   3   3   3    1.16    0.46 
   3   3   3    1.43    0.56 
   3   3   3    1.04    0.37 
  -4  -3  -3   13.98    0.80 
  -4  -3  -3   12.87    1.04 
  -4  -3  -3   14.89    1.15 
  -4  -3  -3   13.02    1.04 
   4   3   3   14.40    1.18 
   4   3   3   15.90    1.13 
   4   3   3   16.87    1.29 
  -5  -3  -3    1.20    0.51 
  -5  -3  -3    0.91    0.54 
  -5  -3  -3    0.75    0.58 
   5   3   3    0.42    0.54 
   5   3   3    1.39    0.83 
   5   3   3    0.73    0.61 
  -6  -3  -3    1.39    0.66 
  -6  -3  -3    2.33    0.52 
   6   3   3    2.26    0.69 
   6   3   3    2.35    0.89 
  -7  -3  -3   19.62    1.64 
  -7  -3  -3   20.98    1.26 
   7   3   3   22.83    1.67 
   7   3   3   21.25    2.07 
  -8  -3  -3    0.37    0.80 
  -8  -3  -3   -0.76    0.47 
   8   3   3    1.11    1.16 
   8   3   3    0.22    0.82 
  -9  -3  -3    3.29    1.17 
  -9  -3  -3    6.40    0.93 
   9   3   3    5.05    1.16 
   9   3   3    5.49    1.62 
   9   3   3    6.77    1.25 
 -10  -3  -3    0.39    1.23 
  10   3   3    0.73    1.65 
  10   3   3    1.70    1.10 
  10   3   3    1.69    1.19 
  11   3   3    1.59    1.24 
  11   3   3   -0.31    1.76 
   8  -4  -3    1.16    1.49 
   7  -4  -3    4.08    1.47 
   6  -4  -3    0.38    1.11 
   6  -4  -3    1.15    1.04 
   5  -4  -3   17.74    1.75 
   5  -4  -3   15.02    2.01 
   4  -4  -3   26.01    1.66 
   4  -4  -3   26.59    2.03 
   3  -4  -3   -0.66    0.64 
   3  -4  -3    0.61    0.61 
   3  -4  -3   -0.05    0.44 
   3  -4  -3    0.35    0.67 
   2  -4  -3    8.45    0.75 
   2  -4  -3    8.37    1.10 
   2  -4  -3    6.85    1.13 
   2  -4  -3   11.59    1.27 
   1  -4  -3    0.60    0.51 
   1  -4  -3    0.72    0.52 
   1  -4  -3    0.83    0.48 
   0  -4  -3   74.74    2.81 
   0  -4  -3   77.80    2.84 
   0  -4  -3   77.33    2.84 
   0   4   3   75.80    2.81 
   0   4   3   77.29    2.66 
  -1  -4  -3   13.04    0.90 
  -1  -4  -3   13.61    0.99 
  -1  -4  -3   15.18    1.05 
   1   4   3   13.46    0.96 
   1   4   3    9.60    1.07 
  -2  -4  -3    4.88    0.92 
  -2  -4  -3   10.36    0.97 
  -2  -4  -3    8.17    0.79 
  -2  -4  -3   14.85    1.13 
   2   4   3    7.86    1.09 
   2   4   3    9.48    0.71 
   2   4   3    8.25    0.85 
  -3  -4  -3    4.27    0.69 
  -3  -4  -3    2.55    0.65 
  -3  -4  -3    2.00    0.62 
   3   4   3    2.25    0.58 
   3   4   3    3.39    0.58 
   3   4   3    2.07    0.51 
  -4  -4  -3    6.10    0.90 
  -4  -4  -3    7.42    1.07 
  -4  -4  -3    6.93    0.98 
   4   4   3    9.34    1.03 
   4   4   3    4.35    0.73 
   4   4   3    7.43    1.04 
  -5  -4  -3   24.66    1.50 
  -5  -4  -3   25.73    1.52 
  -5  -4  -3   23.94    1.60 
  -5  -4  -3   25.70    1.12 
   5   4   3   23.96    1.64 
   5   4   3   25.86    1.80 
  -6  -4  -3    8.70    0.77 
  -6  -4  -3    8.42    1.18 
  -6  -4  -3    7.23    1.23 
   6   4   3    7.87    1.27 
   6   4   3    7.86    1.52 
  -7  -4  -3   11.17    0.92 
  -7  -4  -3   10.28    1.37 
   7   4   3   10.55    1.42 
   7   4   3    9.95    1.78 
  -8  -4  -3    8.01    1.23 
  -8  -4  -3   11.83    1.03 
   8   4   3    9.56    1.54 
   8   4   3   15.60    1.67 
  -9  -4  -3    3.67    1.20 
   9   4   3    6.56    1.69 
   9   4   3    3.21    1.09 
 -10  -4  -3   -1.45    1.07 
  10   4   3   -1.94    1.40 
  10   4   3    0.51    1.05 
  11   4   3   -1.03    1.71 
  11   4   3   -0.12    1.21 
  11   4   3   -0.18    1.19 
   7  -5  -3    1.31    1.08 
   7  -5  -3    1.38    1.44 
   6  -5  -3    0.81    1.22 
   6  -5  -3    0.20    0.88 
   6  -5  -3    1.30    1.24 
   6  -5  -3    0.15    0.94 
   5  -5  -3    3.11    1.11 
   5  -5  -3   -0.07    0.83 
   5  -5  -3    1.00    0.93 
   5  -5  -3    2.13    1.16 
   4  -5  -3    4.17    0.95 
   4  -5  -3    4.36    1.17 
   4  -5  -3    1.65    0.83 
   4  -5  -3    3.57    0.92 
   3  -5  -3    3.73    0.96 
   3  -5  -3    6.39    1.21 
   3  -5  -3    3.85    0.86 
   3  -5  -3    4.07    0.88 
   2  -5  -3   11.01    1.02 
   2  -5  -3    9.42    1.18 
   2  -5  -3    9.81    1.39 
   2  -5  -3    9.32    1.20 
   1  -5  -3   36.40    1.96 
   1  -5  -3   38.94    1.91 
   1  -5  -3   38.28    1.92 
   0  -5  -3   15.37    1.27 
   0  -5  -3   15.93    1.27 
   0  -5  -3   17.21    1.32 
   0   5   3   19.51    1.40 
   0   5   3   14.34    1.21 
   0   5   3   15.58    1.20 
  -1  -5  -3   16.38    1.20 
  -1  -5  -3   13.04    1.01 
  -1  -5  -3   15.65    1.35 
  -1  -5  -3   14.89    1.11 
   1   5   3   14.61    1.15 
   1   5   3   14.68    1.11 
   1   5   3   14.98    1.21 
  -2  -5  -3    0.54    0.39 
  -2  -5  -3    0.17    0.50 
  -2  -5  -3   -0.79    0.54 
  -2  -5  -3    0.41    0.58 
   2   5   3   -0.31    0.53 
   2   5   3   -0.44    0.42 
   2   5   3   -0.07    0.52 
  -3  -5  -3   15.72    1.09 
  -3  -5  -3   16.09    1.24 
  -3  -5  -3   14.62    1.16 
   3   5   3   14.51    1.14 
   3   5   3   16.51    1.19 
   3   5   3   17.62    1.32 
   3   5   3   15.40    1.16 
  -4  -5  -3    6.54    1.02 
  -4  -5  -3    7.92    1.13 
  -4  -5  -3    9.38    1.18 
   4   5   3    6.17    1.00 
   4   5   3    9.71    1.14 
  -5  -5  -3   18.59    0.99 
  -5  -5  -3   16.76    1.38 
  -5  -5  -3   18.64    1.49 
  -5  -5  -3   20.72    1.41 
   5   5   3   18.93    1.51 
   5   5   3   16.80    1.44 
  -6  -5  -3   -0.31    0.63 
  -6  -5  -3   -0.22    0.70 
  -6  -5  -3    1.21    0.71 
  -6  -5  -3    0.80    0.38 
   6   5   3   -0.49    0.70 
   6   5   3    0.31    0.62 
  -7  -5  -3   15.45    0.88 
  -7  -5  -3   12.61    1.49 
   7   5   3   15.34    1.82 
   7   5   3   14.47    1.59 
  -8  -5  -3   -0.54    0.87 
   8   5   3   -0.03    0.82 
   8   5   3    1.61    1.22 
  -9  -5  -3    5.90    1.26 
   9   5   3    3.50    1.11 
   9   5   3    4.31    1.51 
 -10  -5  -3    3.54    1.38 
  10   5   3    3.39    1.68 
  10   5   3    3.96    1.30 
 -11  -5  -3    0.32    1.42 
  11   5   3   -0.75    1.65 
  11   5   3    0.35    1.21 
   7  -6  -3   -0.52    1.03 
   7  -6  -3   -0.06    1.48 
   6  -6  -3    1.94    1.07 
   6  -6  -3    0.63    1.40 
   6  -6  -3    0.15    1.11 
   6  -6  -3    1.40    1.06 
   5  -6  -3    2.36    1.34 
   5  -6  -3    2.29    1.02 
   5  -6  -3    0.02    0.90 
   5  -6  -3    2.00    1.01 
   4  -6  -3   -0.30    0.99 
   4  -6  -3    0.32    0.87 
   4  -6  -3   -0.10    0.87 
   4  -6  -3    0.56    0.81 
   3  -6  -3    4.74    0.80 
   3  -6  -3    6.99    1.11 
   3  -6  -3    2.91    0.95 
   3  -6  -3    4.71    1.02 
   2  -6  -3   15.22    1.47 
   2  -6  -3   15.88    1.54 
   2  -6  -3   18.80    1.17 
   2  -6  -3   15.29    1.68 
   1  -6  -3    5.20    0.86 
   1  -6  -3    3.36    0.84 
   1  -6  -3    3.83    0.83 
  -1   6   3    4.99    0.85 
   0  -6  -3    7.79    1.14 
   0  -6  -3    6.03    1.09 
   0  -6  -3    6.75    1.28 
   0   6   3    7.10    1.00 
   0   6   3    5.84    0.91 
  -1  -6  -3    4.94    0.69 
  -1  -6  -3    5.10    0.81 
  -1  -6  -3    4.15    0.78 
  -1  -6  -3    6.24    0.98 
   1   6   3    5.08    0.83 
   1   6   3    4.36    0.79 
  -2  -6  -3   22.84    1.45 
  -2  -6  -3   20.75    1.46 
  -2  -6  -3   21.45    1.28 
  -2  -6  -3   24.85    1.52 
   2   6   3   24.02    1.49 
   2   6   3   21.07    1.40 
  -3  -6  -3    3.56    0.76 
  -3  -6  -3    3.02    0.60 
  -3  -6  -3    3.92    0.80 
   3   6   3    3.45    0.75 
   3   6   3    3.99    0.75 
   3   6   3    3.95    0.79 
  -4  -6  -3    4.47    0.90 
  -4  -6  -3    3.35    0.82 
  -4  -6  -3    3.96    0.69 
   4   6   3    3.22    0.66 
   4   6   3    3.29    0.82 
   4   6   3    2.56    0.74 
  -5  -6  -3   -0.13    0.65 
  -5  -6  -3    1.32    0.76 
  -5  -6  -3    0.10    0.62 
   5   6   3    0.36    0.67 
   5   6   3    0.72    0.68 
  -6  -6  -3   36.13    1.44 
  -6  -6  -3   34.98    2.08 
  -6  -6  -3   36.33    1.97 
  -6  -6  -3   33.45    2.03 
   6   6   3   35.65    2.14 
   6   6   3   34.67    2.11 
  -7  -6  -3    0.57    0.82 
  -7  -6  -3   -1.13    0.79 
  -7  -6  -3   -0.18    0.29 
  -7  -6  -3   -0.43    0.74 
   7   6   3    0.30    0.79 
   7   6   3    0.45    0.92 
  -8  -6  -3    4.06    1.12 
   8   6   3    2.24    1.23 
   8   6   3    2.06    1.05 
  -9  -6  -3    0.35    1.02 
   9   6   3    0.55    1.02 
   9   6   3    0.92    1.42 
 -10  -6  -3   -0.81    1.19 
  10   6   3    0.31    1.65 
  10   6   3    0.81    1.24 
 -11  -6  -3    2.11    1.47 
  11   6   3   -0.53    1.63 
  11   6   3   -0.05    1.25 
   6  -7  -3    0.39    1.05 
   6  -7  -3   -0.90    1.43 
   5  -7  -3   -0.23    0.96 
   5  -7  -3   -0.01    1.44 
   5  -7  -3    1.68    1.11 
   4  -7  -3   -1.95    1.06 
   4  -7  -3   -0.04    0.81 
   4  -7  -3    0.96    1.05 
   3  -7  -3    0.85    0.85 
   3  -7  -3    1.11    0.98 
   3  -7  -3    0.97    1.07 
   2  -7  -3    1.04    0.93 
   2  -7  -3   -0.37    0.73 
   2  -7  -3   -0.52    0.66 
   1  -7  -3    8.18    1.30 
   1  -7  -3    7.17    1.21 
   1  -7  -3   10.16    1.30 
  -1   7   3    8.25    1.33 
   0  -7  -3   -0.24    0.61 
   0  -7  -3   -0.32    0.71 
   0  -7  -3   -0.13    0.59 
   0   7   3    0.45    0.73 
   0   7   3   -0.16    0.60 
  -1  -7  -3   17.61    1.68 
  -1  -7  -3   17.52    1.42 
  -1  -7  -3   17.75    1.28 
  -1  -7  -3   14.73    1.46 
   1   7   3   16.24    1.39 
   1   7   3   14.79    1.35 
  -2  -7  -3   -0.17    0.59 
  -2  -7  -3   -0.03    0.63 
  -2  -7  -3    0.19    0.65 
  -2  -7  -3   -0.23    0.49 
   2   7   3    0.40    0.64 
   2   7   3    0.21    0.70 
  -3  -7  -3   20.20    1.34 
  -3  -7  -3   19.44    1.52 
  -3  -7  -3   20.68    1.65 
  -3  -7  -3   20.52    1.64 
   3   7   3   15.95    1.41 
   3   7   3   20.70    1.12 
   3   7   3   19.90    1.65 
  -4  -7  -3    2.37    0.87 
  -4  -7  -3    2.71    0.96 
  -4  -7  -3    1.74    0.65 
   4   7   3    1.11    0.78 
   4   7   3    1.44    0.59 
   4   7   3    2.23    0.78 
  -5  -7  -3   39.39    2.02 
  -5  -7  -3   36.75    2.19 
  -5  -7  -3   36.45    2.16 
   5   7   3   33.55    2.14 
   5   7   3   40.09    2.00 
   5   7   3   34.17    1.95 
  -6  -7  -3   43.04    2.23 
  -6  -7  -3   41.66    2.38 
  -6  -7  -3   37.42    2.28 
   6   7   3   39.21    2.23 
  -7  -7  -3   19.72    1.96 
  -7  -7  -3   15.92    1.78 
  -7  -7  -3   16.94    1.81 
   7   7   3   19.35    1.95 
   7   7   3   19.41    1.97 
  -8  -7  -3   12.29    1.80 
   8   7   3   12.50    2.05 
   8   7   3   15.25    2.17 
  -9  -7  -3    2.01    1.24 
   9   7   3    2.04    1.36 
   9   7   3    3.09    1.27 
 -10  -7  -3   -0.51    1.22 
  10   7   3    0.40    1.69 
  10   7   3    1.15    1.24 
   5  -8  -3   -0.06    1.09 
   5  -8  -3    1.19    1.57 
   4  -8  -3   10.06    1.86 
   4  -8  -3    9.09    1.54 
   4  -8  -3   10.97    1.80 
   3  -8  -3   13.28    1.86 
   3  -8  -3   13.28    1.82 
   3  -8  -3    8.96    1.52 
   2  -8  -3   15.52    1.81 
   2  -8  -3   18.12    1.79 
   2  -8  -3   13.91    2.26 
   1  -8  -3   -0.14    0.83 
   1  -8  -3    1.56    1.04 
   1  -8  -3    1.26    0.87 
  -1   8   3    0.43    0.97 
   0  -8  -3    2.52    0.90 
   0  -8  -3    2.23    0.81 
   0  -8  -3    4.36    1.15 
   0   8   3    1.85    0.64 
   0   8   3    0.20    0.87 
  -1  -8  -3    1.33    0.67 
  -1  -8  -3    1.28    0.84 
  -1  -8  -3    0.74    0.71 
  -1  -8  -3    0.37    0.83 
   1   8   3    1.38    0.80 
   1   8   3   -0.24    0.79 
  -2  -8  -3    1.26    0.63 
  -2  -8  -3    0.83    0.81 
  -2  -8  -3    1.33    0.83 
  -2  -8  -3    0.08    0.69 
   2   8   3    1.89    0.83 
   2   8   3    1.19    0.81 
  -3  -8  -3   -0.17    0.76 
  -3  -8  -3    0.49    0.59 
  -3  -8  -3    0.44    0.76 
  -3  -8  -3    1.22    0.90 
   3   8   3   -0.70    0.70 
   3   8   3   -0.76    0.77 
  -4  -8  -3    5.26    0.87 
  -4  -8  -3    5.38    1.09 
  -4  -8  -3    4.67    1.09 
   4   8   3    3.60    1.02 
   4   8   3    6.14    0.89 
   4   8   3    3.98    0.97 
  -5  -8  -3    0.98    1.04 
  -5  -8  -3   -0.54    0.97 
  -5  -8  -3    2.00    0.88 
   5   8   3    0.56    0.60 
   5   8   3    1.22    0.90 
   5   8   3    1.32    1.00 
  -6  -8  -3    3.68    0.99 
  -6  -8  -3    2.47    1.11 
  -6  -8  -3    1.31    1.08 
   6   8   3    2.43    0.92 
   6   8   3    2.62    0.94 
   6   8   3    2.50    1.06 
  -7  -8  -3    0.88    0.99 
  -7  -8  -3    1.58    0.99 
  -7  -8  -3    3.56    1.14 
   7   8   3    1.44    1.05 
   7   8   3    1.88    1.17 
  -8  -8  -3   17.33    2.00 
  -8  -8  -3   19.40    2.19 
  -8  -8  -3   16.95    1.99 
   8   8   3   17.23    2.32 
   8   8   3   17.34    2.25 
  -9  -8  -3   -0.29    1.14 
   9   8   3    2.93    1.47 
   9   8   3    2.20    1.43 
 -10  -8  -3    5.27    1.54 
  10   8   3    6.13    1.88 
  10   8   3    9.47    1.83 
   3  -9  -3   -0.57    1.37 
   3  -9  -3    0.26    0.99 
   3  -9  -3    0.32    1.04 
   2  -9  -3    4.76    1.28 
   2  -9  -3    5.21    1.52 
   2  -9  -3    5.71    1.25 
   1  -9  -3   -0.30    1.09 
   1  -9  -3    0.34    0.92 
   1  -9  -3   -1.01    0.89 
  -1   9   3   -1.14    1.02 
   0  -9  -3    8.86    1.48 
   0  -9  -3   11.31    1.58 
   0  -9  -3    7.00    1.29 
   0   9   3    9.87    1.43 
  -1  -9  -3    2.20    1.06 
  -1  -9  -3    2.63    0.85 
  -1  -9  -3    3.00    0.99 
  -1  -9  -3    2.95    1.18 
   1   9   3    3.14    1.14 
   1   9   3    3.87    0.85 
  -2  -9  -3    0.00    0.97 
  -2  -9  -3   -0.34    0.68 
  -2  -9  -3    0.02    0.84 
  -2  -9  -3   -0.60    0.89 
   2   9   3   -0.51    0.91 
   2   9   3   -0.91    0.89 
  -3  -9  -3   -0.17    0.97 
  -3  -9  -3   -0.77    1.02 
  -3  -9  -3    0.92    0.74 
  -3  -9  -3   -0.47    0.92 
   3   9   3    0.27    0.94 
   3   9   3   -0.35    1.06 
  -4  -9  -3    0.24    1.00 
  -4  -9  -3    1.58    1.10 
  -4  -9  -3    0.57    0.79 
   4   9   3    0.83    1.12 
   4   9   3    0.62    0.97 
  -5  -9  -3    4.27    1.17 
  -5  -9  -3    2.33    1.21 
  -5  -9  -3    5.02    1.00 
   5   9   3    4.44    1.18 
   5   9   3    4.31    1.26 
  -6  -9  -3    0.56    1.07 
  -6  -9  -3    0.82    0.99 
  -6  -9  -3    2.49    1.03 
   6   9   3    1.37    1.04 
   6   9   3    0.84    0.75 
   6   9   3    0.70    1.17 
  -7  -9  -3    0.92    1.12 
  -7  -9  -3    0.77    1.17 
  -7  -9  -3    1.60    1.14 
   7   9   3    0.18    0.87 
   7   9   3   -0.71    1.14 
  -8  -9  -3   -0.08    1.14 
  -8  -9  -3   -0.26    1.10 
  -8  -9  -3    0.70    1.12 
   8   9   3   -0.05    1.20 
   8   9   3   -0.44    1.34 
  -9  -9  -3    7.83    1.66 
   9   9   3    7.38    1.77 
   9   9   3    8.93    1.66 
   2 -10  -3    4.02    1.65 
   2 -10  -3    3.01    1.32 
   1 -10  -3   -0.83    1.01 
   1 -10  -3   -0.41    1.26 
   1 -10  -3    0.08    0.95 
   0 -10  -3   -0.15    0.94 
   0 -10  -3    0.04    1.16 
   0 -10  -3   -0.19    1.22 
   0 -10  -3   -0.31    0.92 
   0  10   3    0.51    1.27 
  -1 -10  -3    0.94    1.05 
  -1 -10  -3   -0.46    0.90 
  -1 -10  -3   -0.28    1.12 
  -1 -10  -3   -0.31    1.07 
   1  10   3   -0.47    1.10 
  -2 -10  -3    1.12    1.07 
  -2 -10  -3   -1.38    0.73 
  -2 -10  -3    1.46    1.17 
  -2 -10  -3   -0.88    0.92 
   2  10   3   -0.10    0.93 
   2  10   3   -0.24    1.06 
  -3 -10  -3    2.04    1.23 
  -3 -10  -3    3.18    1.22 
  -3 -10  -3    1.46    1.10 
  -3 -10  -3    0.79    0.80 
   3  10   3    3.43    1.28 
   3  10   3    2.28    1.18 
  -4 -10  -3    1.63    1.13 
  -4 -10  -3    2.00    1.28 
  -4 -10  -3    1.06    0.89 
   4  10   3   -0.49    1.12 
   4  10   3    1.03    1.25 
  -5 -10  -3    7.73    1.64 
  -5 -10  -3   12.51    2.07 
  -5 -10  -3   10.72    1.36 
   5  10   3    7.00    1.46 
   5  10   3   10.95    1.69 
  -6 -10  -3    3.17    1.32 
  -6 -10  -3    1.04    1.17 
  -6 -10  -3    0.36    1.09 
   6  10   3    1.78    1.13 
   6  10   3    1.60    1.41 
  -7 -10  -3   -0.10    1.21 
  -7 -10  -3    1.19    1.19 
  -7 -10  -3   -1.06    1.07 
   7  10   3    0.11    1.40 
  -8 -10  -3   -0.03    1.40 
  -8 -10  -3   -0.91    1.28 
   8  10   3    0.34    1.48 
   0 -11  -3    1.07    1.27 
   0 -11  -3    0.48    1.04 
   0 -11  -3    1.08    1.41 
   0  11   3   -0.73    1.26 
  -1 -11  -3    0.32    1.28 
  -1 -11  -3    0.81    1.00 
  -1 -11  -3   -0.43    1.04 
  -1 -11  -3   -0.09    1.22 
   1  11   3    1.13    1.35 
  -2 -11  -3    0.08    1.06 
  -2 -11  -3    1.78    1.26 
  -2 -11  -3    0.49    0.95 
  -2 -11  -3    0.54    1.36 
   2  11   3    0.30    1.33 
  -3 -11  -3    7.67    1.72 
  -3 -11  -3    7.00    1.19 
  -3 -11  -3   13.91    2.46 
  -3 -11  -3    9.53    1.63 
   3  11   3    7.85    1.62 
   3  11   3    9.34    1.58 
  -4 -11  -3    1.96    1.26 
  -4 -11  -3    2.09    1.04 
  -4 -11  -3    2.66    1.48 
   4  11   3   -0.21    1.34 
   4  11   3    2.25    1.39 
  -5 -11  -3    1.80    1.43 
  -5 -11  -3   -0.02    1.03 
  -5 -11  -3    1.85    1.60 
   5  11   3    0.05    1.26 
   5  11   3   -0.52    1.43 
  -6 -11  -3   -1.24    1.38 
  -6 -11  -3    3.36    1.33 
  -6 -11  -3    0.66    1.55 
   6  11   3   -0.50    1.51 
   6  11   3   -1.13    1.18 
  -7 -11  -3    6.71    1.71 
   7  11   3   10.10    1.95 
   6  10  -4   -0.87    1.34 
   6  10  -4   -0.03    1.15 
   5  10  -4    2.93    1.42 
   5  10  -4   -2.21    1.12 
  -5 -10   4    1.16    1.39 
   4  10  -4    4.08    1.41 
   4  10  -4    4.41    1.32 
  -4 -10   4    3.06    1.40 
   3  10  -4    0.87    1.20 
   3  10  -4    1.61    1.15 
  -3 -10   4    0.58    1.20 
   2  10  -4    5.21    1.35 
   2  10  -4    7.67    1.38 
  -2 -10   4    4.74    1.40 
   1  10  -4   -1.44    0.98 
   1  10  -4    0.10    1.03 
  -1 -10   4   -0.41    1.33 
  -1 -10   4   -1.38    1.33 
   0  10  -4    0.71    1.21 
   0  10  -4    0.70    1.10 
   0 -10   4    0.08    1.61 
   0 -10   4   -1.02    1.41 
  -1  10  -4    1.29    1.15 
   1 -10   4   -0.59    1.45 
   1 -10   4    3.75    1.56 
   7   9  -4    0.33    1.42 
   7   9  -4   -0.30    1.01 
   6   9  -4    2.80    1.22 
   6   9  -4    2.66    1.38 
   5   9  -4   -0.33    1.03 
   5   9  -4    0.71    1.07 
   4   9  -4    4.67    1.25 
   4   9  -4    3.15    1.16 
  -4  -9   4    1.68    1.19 
   3   9  -4   -1.58    0.96 
   3   9  -4   -0.39    0.93 
  -3  -9   4   -0.11    0.99 
   2   9  -4    2.00    1.03 
   2   9  -4    1.89    1.05 
  -2  -9   4    2.49    1.11 
   1   9  -4   -0.26    0.79 
   1   9  -4   -0.06    0.90 
   1   9  -4    1.03    1.00 
  -1  -9   4   -0.52    1.14 
  -1  -9   4   -0.59    1.06 
   0   9  -4   17.82    1.93 
   0   9  -4   17.94    2.01 
   0   9  -4   18.58    1.95 
   0  -9   4   20.82    2.71 
   0  -9   4   21.87    2.25 
  -1   9  -4    4.06    1.10 
  -1   9  -4    4.29    1.18 
   1  -9   4    4.42    1.46 
   1  -9   4    3.03    1.20 
  -2   9  -4   22.21    2.08 
  -2   9  -4   28.27    2.51 
   2  -9   4   26.17    2.18 
   2  -9   4   28.24    3.23 
  -3   9  -4    3.61    1.11 
  -3   9  -4    5.17    1.43 
   3  -9   4    5.57    1.25 
   3  -9   4    7.23    1.93 
   8   8  -4    4.84    1.73 
   8   8  -4    3.89    1.51 
   7   8  -4    8.56    1.71 
   6   8  -4    0.71    1.09 
   6   8  -4    1.19    0.96 
   5   8  -4   -0.01    0.87 
   5   8  -4   -0.46    0.94 
   4   8  -4   -1.56    0.79 
   4   8  -4    1.35    1.00 
  -4  -8   4    0.83    0.97 
   3   8  -4    1.17    0.96 
   3   8  -4    0.05    0.80 
  -3  -8   4   -0.16    0.90 
   2   8  -4    6.72    1.11 
   2   8  -4    4.22    1.06 
   2   8  -4    6.01    0.91 
  -2  -8   4    5.15    0.92 
  -2  -8   4    4.62    1.10 
   1   8  -4    0.29    0.82 
   1   8  -4    2.10    0.94 
   1   8  -4    1.80    0.81 
  -1  -8   4    1.46    1.02 
  -1  -8   4   -0.45    1.01 
   0   8  -4    2.37    0.95 
   0   8  -4    1.91    0.85 
   0   8  -4    1.44    0.90 
   0  -8   4    2.52    1.20 
   0  -8   4    1.64    0.95 
  -1   8  -4    2.71    0.88 
  -1   8  -4    2.75    0.85 
  -1   8  -4    2.34    0.97 
   1  -8   4    2.56    0.92 
   1  -8   4    1.89    1.15 
  -2   8  -4   -1.00    0.85 
  -2   8  -4   -0.39    0.79 
   2  -8   4   -0.49    0.76 
   2  -8   4    1.23    1.25 
  -3   8  -4    0.21    0.84 
  -3   8  -4   -0.01    0.96 
   3  -8   4    1.01    1.33 
   3  -8   4   -0.82    0.78 
  -4   8  -4    1.46    1.16 
  -4   8  -4    2.31    0.96 
   4  -8   4    4.91    1.66 
   4  -8   4    3.28    0.94 
  -5   8  -4   -0.02    0.84 
  -5   8  -4    1.59    1.12 
   5  -8   4   -0.77    1.47 
   9   7  -4   -1.01    1.38 
   9   7  -4   -0.06    1.59 
   8   7  -4    1.85    1.60 
   8   7  -4   -0.08    1.36 
   7   7  -4    6.30    1.08 
   7   7  -4    3.71    1.27 
   6   7  -4   -0.19    0.94 
   6   7  -4   -0.37    0.79 
   5   7  -4   19.88    1.95 
   5   7  -4   18.19    1.59 
   4   7  -4    1.42    0.81 
   4   7  -4    1.69    0.91 
  -4  -7   4    0.42    0.91 
   3   7  -4    2.94    0.63 
   3   7  -4    2.81    0.86 
   3   7  -4    3.54    0.64 
   3   7  -4    5.21    0.99 
  -3  -7   4    3.28    0.90 
   2   7  -4   20.68    1.74 
   2   7  -4   21.61    1.36 
   2   7  -4   20.91    1.55 
  -2  -7   4   18.43    1.53 
  -2  -7   4   19.07    1.16 
   1   7  -4    9.26    1.29 
   1   7  -4    6.74    1.13 
   1   7  -4    6.50    1.02 
  -1  -7   4    5.45    1.13 
  -1  -7   4    6.63    1.04 
   0   7  -4    9.88    1.31 
   0   7  -4    8.76    1.32 
   0   7  -4   11.07    1.43 
   0  -7   4   10.89    1.46 
   0  -7   4   10.52    1.81 
  -1   7  -4   20.63    1.58 
  -1   7  -4   17.22    1.68 
  -1   7  -4   18.49    1.56 
   1  -7   4   19.01    1.09 
   1  -7   4   23.75    1.73 
   1  -7   4   19.96    2.42 
  -2   7  -4   11.14    1.28 
  -2   7  -4   10.16    1.35 
  -2   7  -4   11.55    1.60 
   2  -7   4   12.81    2.16 
   2  -7   4   10.36    0.83 
   2  -7   4   10.85    1.34 
  -3   7  -4    0.26    0.85 
  -3   7  -4    0.88    0.71 
   3  -7   4    0.18    1.07 
   3  -7   4    1.20    0.65 
   3  -7   4    1.72    0.48 
  -4   7  -4   -0.35    0.85 
  -4   7  -4    0.90    0.72 
   4  -7   4   -0.13    0.61 
   4  -7   4    0.49    1.22 
  -5   7  -4    2.62    0.90 
  -5   7  -4    2.63    1.15 
   5  -7   4    3.44    0.88 
   5  -7   4    5.55    1.63 
  -6   7  -4    1.13    1.11 
   6  -7   4    0.82    1.25 
   6  -7   4    1.69    1.60 
   6  -7   4    0.39    0.73 
   9   6  -4   -0.23    1.52 
   9   6  -4    2.60    1.38 
   8   6  -4    0.19    1.36 
   8   6  -4    0.04    1.17 
   8   6  -4    1.94    0.77 
   7   6  -4    1.75    1.07 
   7   6  -4    1.05    1.31 
   7   6  -4    0.66    0.72 
   6   6  -4   -0.38    0.86 
   6   6  -4    0.03    0.68 
   5   6  -4    5.24    1.01 
   5   6  -4    7.36    1.16 
   4   6  -4    4.22    0.90 
   4   6  -4    5.69    0.89 
   4   6  -4    4.89    0.65 
   4   6  -4    5.53    0.75 
   3   6  -4    5.74    0.79 
   3   6  -4    5.25    0.70 
   3   6  -4    8.39    1.32 
   3   6  -4    5.19    0.83 
  -3  -6   4    3.82    0.84 
   2   6  -4    3.95    0.62 
   2   6  -4    3.86    0.75 
   2   6  -4    4.17    0.82 
  -2  -6   4    2.37    0.77 
   1   6  -4   65.12    2.69 
   1   6  -4   66.90    2.57 
   1   6  -4   68.25    2.76 
  -1  -6   4   65.48    3.21 
  -1  -6   4   62.22    2.69 
   0   6  -4  120.25    4.22 
   0   6  -4  116.33    4.25 
   0   6  -4  116.61    4.21 
   0  -6   4  123.76    4.22 
   0  -6   4  118.12    4.79 
  -1   6  -4   16.98    1.35 
  -1   6  -4   20.30    1.46 
  -1   6  -4   16.95    1.42 
   1  -6   4   18.81    1.32 
   1  -6   4   17.11    1.91 
   1  -6   4   17.27    0.93 
  -2   6  -4    0.91    0.64 
  -2   6  -4    0.76    0.63 
  -2   6  -4    1.06    0.69 
   2  -6   4    1.32    0.57 
   2  -6   4    1.19    0.37 
   2  -6   4    1.77    1.10 
  -3   6  -4    4.89    0.85 
  -3   6  -4    6.39    0.98 
  -3   6  -4    7.58    1.13 
   3  -6   4    4.67    1.29 
   3  -6   4    5.95    0.95 
   3  -6   4    6.20    0.72 
  -4   6  -4    1.45    0.90 
  -4   6  -4    2.07    0.72 
   4  -6   4    0.97    1.07 
   4  -6   4    1.29    0.59 
   4  -6   4   -0.06    1.07 
   4  -6   4    1.64    0.51 
  -5   6  -4    5.72    1.23 
  -5   6  -4    5.49    0.90 
   5  -6   4    5.66    1.54 
   5  -6   4    5.44    0.91 
   5  -6   4    6.79    0.95 
   5  -6   4    6.23    1.43 
  -6   6  -4    2.95    1.13 
  -6   6  -4    0.80    0.69 
   6  -6   4    1.05    1.39 
   6  -6   4    0.67    0.72 
   6  -6   4    0.82    0.77 
   6  -6   4    3.50    1.43 
  -7   6  -4    0.71    1.14 
   7  -6   4    3.35    1.69 
   7  -6   4    2.19    0.88 
   7  -6   4    2.23    1.39 
  10   5  -4    0.41    1.75 
  10   5  -4   -0.14    1.17 
   9   5  -4   -1.70    1.47 
   9   5  -4    1.66    1.23 
   8   5  -4    9.17    1.49 
   8   5  -4    8.05    1.73 
   7   5  -4    2.54    0.99 
   7   5  -4    5.25    0.81 
   7   5  -4    4.09    1.40 
   6   5  -4   21.08    1.35 
   6   5  -4   22.55    1.91 
   5   5  -4    2.16    0.78 
   5   5  -4    2.83    0.68 
   4   5  -4   33.03    1.62 
   4   5  -4   33.69    1.70 
   4   5  -4   37.65    2.01 
   3   5  -4    4.41    0.59 
   3   5  -4    5.23    0.76 
   3   5  -4    5.22    0.92 
   3   5  -4    5.05    0.65 
   2   5  -4    0.31    0.31 
   2   5  -4    1.01    0.45 
   2   5  -4    0.47    0.64 
   2   5  -4    1.14    0.56 
  -2  -5   4    0.22    0.59 
   1   5  -4    0.68    0.48 
   1   5  -4    0.00    0.58 
   1   5  -4    0.86    0.51 
  -1  -5   4    0.67    0.57 
  -1  -5   4    0.24    0.66 
   0   5  -4   25.55    1.48 
   0   5  -4   25.91    1.45 
   0  -5   4   26.66    1.43 
   0  -5   4   24.46    1.88 
  -1   5  -4   26.02    1.49 
  -1   5  -4   24.03    1.47 
   1  -5   4   24.56    1.94 
   1  -5   4   25.34    1.32 
  -2   5  -4    2.55    0.61 
  -2   5  -4    2.65    0.68 
   2  -5   4    4.27    0.75 
   2  -5   4    2.13    0.86 
   2  -5   4    3.23    0.46 
  -3   5  -4    1.46    0.57 
  -3   5  -4    2.22    0.72 
   3  -5   4    2.08    0.90 
   3  -5   4    1.79    0.92 
   3  -5   4    2.91    0.54 
   3  -5   4    1.27    0.49 
  -4   5  -4   14.81    1.54 
  -4   5  -4   14.22    1.21 
   4  -5   4   15.38    1.11 
   4  -5   4   13.18    1.92 
   4  -5   4   14.79    1.86 
   4  -5   4   14.96    1.14 
  -5   5  -4   29.42    2.15 
  -5   5  -4   27.99    1.59 
   5  -5   4   29.10    1.67 
   5  -5   4   28.96    2.58 
   5  -5   4   26.20    2.54 
  -6   5  -4    5.53    1.16 
  -6   5  -4    5.19    0.83 
   6  -5   4    3.81    0.84 
   6  -5   4    3.06    1.37 
   6  -5   4    4.22    1.38 
  -7   5  -4   10.65    1.53 
   7  -5   4   11.73    1.95 
   7  -5   4   10.95    2.00 
   7  -5   4    8.43    1.34 
  -8   5  -4    0.12    1.05 
   8  -5   4    0.04    1.40 
   8  -5   4    0.20    0.76 
   8  -5   4    1.22    1.59 
  10   4  -4    4.19    1.88 
  10   4  -4    5.55    1.40 
   9   4  -4   -0.30    1.12 
   9   4  -4   -1.01    1.54 
   8   4  -4   21.72    2.09 
   8   4  -4   20.72    2.68 
   7   4  -4    1.34    0.53 
   7   4  -4   -0.25    0.81 
   7   4  -4   -0.24    1.14 
   6   4  -4   24.76    1.30 
   6   4  -4   22.10    1.79 
   5   4  -4    1.53    0.72 
   5   4  -4    2.48    0.55 
   4   4  -4   -0.69    0.40 
   4   4  -4    0.87    0.47 
   4   4  -4   -0.47    0.63 
   3   4  -4    8.20    1.21 
   3   4  -4    8.56    0.87 
   3   4  -4    9.61    0.65 
   3   4  -4    6.87    0.73 
   2   4  -4   23.73    1.56 
   2   4  -4   23.20    1.05 
   2   4  -4   25.36    1.15 
   2   4  -4   24.79    1.34 
   1   4  -4   56.42    2.19 
   1   4  -4   53.28    2.07 
  -1  -4   4   55.11    2.14 
   0   4  -4   20.62    1.21 
   0   4  -4   22.19    1.27 
   0  -4   4   20.44    1.59 
   0  -4   4   22.75    1.22 
  -1   4  -4    0.85    0.49 
  -1   4  -4    0.46    0.51 
   1  -4   4    0.24    0.36 
   1  -4   4   -0.22    0.72 
  -2   4  -4    0.00    0.45 
  -2   4  -4    0.13    0.41 
   2  -4   4    0.02    0.35 
   2  -4   4    0.11    0.27 
   2  -4   4    0.43    0.62 
  -3   4  -4    5.27    0.85 
  -3   4  -4    5.47    0.84 
   3  -4   4    7.44    1.35 
   3  -4   4    5.75    0.99 
   3  -4   4    6.15    0.71 
  -4   4  -4    6.68    1.13 
  -4   4  -4    6.44    0.83 
   4  -4   4    7.63    1.20 
   4  -4   4   11.98    1.67 
   4  -4   4    7.10    0.82 
  -5   4  -4    8.44    0.92 
  -5   4  -4   11.24    1.35 
   5  -4   4    8.54    1.37 
   5  -4   4    8.39    0.96 
   5  -4   4    8.33    1.34 
  -6   4  -4    1.47    0.45 
  -6   4  -4    0.55    0.83 
   6  -4   4    1.61    0.65 
   6  -4   4    1.21    1.08 
   6  -4   4    1.05    1.09 
  -7   4  -4    2.38    1.01 
   7  -4   4   -0.37    1.11 
   7  -4   4    2.12    0.74 
   7  -4   4    1.19    1.26 
  -8   4  -4    1.89    1.14 
   8  -4   4    3.46    1.50 
   8  -4   4    2.01    1.58 
  10   3  -4   -0.32    1.72 
   9   3  -4    4.55    1.15 
   9   3  -4    4.82    1.70 
   8   3  -4    1.66    1.29 
   8   3  -4    4.66    1.07 
   7   3  -4    0.00    0.73 
   7   3  -4    1.01    0.44 
   7   3  -4    1.71    1.17 
   6   3  -4    4.39    0.87 
   6   3  -4    2.86    1.08 
   6   3  -4    4.77    0.66 
   5   3  -4    1.43    0.40 
   5   3  -4    1.48    0.67 
   4   3  -4    0.93    0.27 
   4   3  -4    2.47    0.50 
   4   3  -4    1.80    0.43 
   4   3  -4    2.05    0.67 
   3   3  -4   94.77    3.14 
   3   3  -4  102.38    3.35 
   3   3  -4  101.58    3.15 
   3   3  -4   96.45    3.35 
   3   3  -4  101.74    3.59 
   2   3  -4   39.62    1.46 
   2   3  -4   39.03    1.45 
   2   3  -4   39.25    1.63 
   1   3  -4   17.91    0.96 
   1   3  -4   16.46    1.03 
   0   3  -4   24.85    1.24 
   0   3  -4   22.82    1.19 
   0  -3   4   23.82    1.04 
   0  -3   4   24.44    1.51 
  -1   3  -4    2.22    0.49 
  -1   3  -4    1.67    0.46 
   1  -3   4    1.87    0.40 
   1  -3   4    3.75    0.74 
  -2   3  -4    0.27    0.39 
  -2   3  -4   -0.21    0.40 
   2  -3   4   -0.48    0.53 
   2  -3   4    0.39    0.34 
   2  -3   4    0.09    0.59 
  -3   3  -4   15.50    1.19 
  -3   3  -4   15.15    1.01 
   3  -3   4   15.16    0.87 
   3  -3   4   16.65    1.51 
   3  -3   4   15.77    1.56 
  -4   3  -4   17.71    1.07 
  -4   3  -4   19.13    1.42 
   4  -3   4   19.13    1.70 
   4  -3   4   19.05    1.60 
   4  -3   4   19.81    1.08 
  -5   3  -4    2.45    0.51 
  -5   3  -4    1.67    0.70 
   5  -3   4    3.43    0.98 
   5  -3   4    3.03    0.88 
  -6   3  -4   -0.49    0.32 
  -6   3  -4   -0.26    0.67 
   6  -3   4    0.05    0.88 
   6  -3   4    0.54    0.81 
  -7   3  -4    3.61    1.06 
   7  -3   4    4.43    1.49 
   7  -3   4    5.73    1.31 
  -8   3  -4    0.94    0.97 
   8  -3   4    0.69    1.22 
   8  -3   4    1.78    1.58 
  -9   3  -4    2.46    1.15 
   9  -3   4    0.97    1.82 
   9  -3   4    2.46    1.58 
  10   2  -4   -1.73    1.68 
   9   2  -4    0.66    1.51 
   8   2  -4    2.55    0.83 
   8   2  -4    4.43    1.44 
   7   2  -4    1.50    1.04 
   6   2  -4    0.10    0.56 
   6   2  -4   -0.04    0.34 
   6   2  -4    1.61    0.95 
   5   2  -4    0.46    0.52 
   5   2  -4    0.20    0.31 
   4   2  -4   26.93    1.17 
   4   2  -4   24.12    1.46 
   3   2  -4   16.73    0.93 
   3   2  -4   18.10    0.82 
   3   2  -4   16.10    1.21 
   2   2  -4    3.95    0.48 
   2   2  -4    3.14    0.51 
   1   2  -4    0.42    0.28 
   1   2  -4    0.78    0.40 
   1   2  -4    1.17    0.32 
   1   2  -4    0.75    0.20 
   0   2  -4    8.78    0.46 
   0   2  -4    9.08    0.77 
   0   2  -4    7.99    0.71 
   0  -2   4    7.80    0.45 
  -1   2  -4  179.13    5.84 
  -1   2  -4  193.51    5.71 
  -1   2  -4  183.84    5.86 
   1  -2   4  184.58    6.04 
   1  -2   4  188.90    5.69 
  -2   2  -4  277.49    8.45 
  -2   2  -4  270.65    8.54 
  -2   2  -4  279.63    8.48 
   2  -2   4  275.31    8.71 
   2  -2   4  277.03    8.87 
  -3   2  -4    3.56    0.55 
  -3   2  -4    3.64    0.60 
  -3   2  -4    2.90    0.48 
   3  -2   4    2.95    0.79 
   3  -2   4    4.12    0.73 
  -4   2  -4    7.52    0.68 
  -4   2  -4    6.14    0.99 
  -4   2  -4    6.70    1.01 
   4  -2   4    5.46    1.09 
   4  -2   4    6.34    1.00 
  -5   2  -4   -0.09    0.31 
  -5   2  -4   -0.26    0.51 
   5  -2   4    0.57    0.82 
   5  -2   4    0.44    0.67 
  -6   2  -4    0.42    0.34 
  -6   2  -4    0.36    0.64 
   6  -2   4    1.36    1.02 
   6  -2   4    0.46    0.78 
  -7   2  -4    2.27    0.89 
   7  -2   4    3.20    1.10 
   7  -2   4    4.26    1.52 
  -8   2  -4   -0.12    0.90 
   8  -2   4    0.03    1.12 
   8  -2   4    0.72    1.44 
  -9   2  -4    3.74    1.12 
   9  -2   4    6.15    1.62 
   9  -2   4    5.06    2.01 
 -10   2  -4    4.99    1.31 
  10  -2   4    4.97    2.18 
  10  -2   4    4.34    1.68 
  10   1  -4   11.05    2.15 
  10   1  -4    6.56    1.74 
   9   1  -4    3.29    0.87 
   9   1  -4    4.18    1.73 
   8   1  -4    0.05    1.10 
   8   1  -4    0.88    0.67 
   7   1  -4   -2.26    0.83 
   7   1  -4    0.79    0.58 
   6   1  -4   -0.28    0.80 
   6   1  -4   -0.43    0.32 
   6   1  -4    0.54    0.54 
   5   1  -4   -0.14    0.33 
   5   1  -4   -0.38    0.79 
   5   1  -4    0.45    0.45 
   4   1  -4   12.51    0.99 
   4   1  -4   13.12    0.77 
   3   1  -4    6.29    0.57 
   3   1  -4    6.26    0.86 
   2   1  -4    8.08    1.12 
  -2  -1   4    8.47    1.13 
   1   1  -4   30.85    1.22 
   0   1  -4   18.64    0.77 
   0   1  -4   18.60    0.95 
  -1   1  -4    0.87    0.37 
  -1   1  -4    1.96    0.34 
   1  -1   4    2.09    0.47 
   1  -1   4    1.57    0.32 
  -2   1  -4   13.35    0.81 
  -2   1  -4   13.17    0.89 
  -2   1  -4   13.73    0.83 
   2  -1   4   13.54    1.03 
   2  -1   4   14.84    1.21 
   2  -1   4   13.54    0.73 
  -3   1  -4    4.34    0.55 
  -3   1  -4    2.97    0.64 
  -3   1  -4    5.46    0.79 
   3  -1   4    4.51    0.88 
   3  -1   4    3.95    0.66 
   3  -1   4    3.19    0.72 
  -4   1  -4    0.34    0.45 
  -4   1  -4    0.56    0.45 
  -4   1  -4    0.55    0.38 
   4  -1   4    1.24    0.56 
   4  -1   4    0.34    0.67 
   4  -1   4    0.84    0.58 
  -5   1  -4   28.87    1.24 
  -5   1  -4   30.64    1.64 
  -5   1  -4   30.43    1.66 
   5  -1   4   28.83    2.10 
   5  -1   4   27.50    1.80 
   5  -1   4   30.20    1.58 
  -6   1  -4  169.55    5.64 
  -6   1  -4  155.12    4.97 
  -6   1  -4  154.86    5.44 
   6  -1   4  154.98    5.91 
   6  -1   4  159.74    5.65 
  -7   1  -4   89.70    3.62 
  -7   1  -4   91.58    2.96 
   7  -1   4   89.01    4.21 
   7  -1   4   92.89    3.93 
  -8   1  -4    6.75    1.11 
   8  -1   4    9.09    1.47 
   8  -1   4    9.43    1.82 
  -9   1  -4    1.84    0.99 
   9  -1   4   -0.90    1.47 
   9  -1   4   -0.53    1.14 
 -10   1  -4    1.11    1.03 
  10  -1   4    0.49    1.36 
  10  -1   4    0.11    1.82 
   9   0  -4    0.60    1.39 
   9   0  -4    3.17    1.54 
   8   0  -4    9.03    1.10 
   8   0  -4    4.16    1.39 
   8   0  -4    4.72    1.43 
   7   0  -4    1.98    1.05 
   7   0  -4    1.01    0.51 
   6   0  -4    3.97    0.97 
   6   0  -4    5.36    0.86 
   5   0  -4    9.30    0.62 
   5   0  -4    5.61    0.95 
   5   0  -4    6.76    0.82 
   4   0  -4    2.19    0.69 
   4   0  -4    3.41    0.53 
   3   0  -4   20.83    1.37 
   2   0  -4   34.34    1.75 
   1   0  -4   16.25    1.28 
   0   0  -4   82.46    2.71 
   0   0  -4   80.36    2.63 
   0   0  -4   81.36    2.64 
  -1   0  -4    4.10    0.44 
  -1   0  -4    4.71    0.63 
  -1   0  -4    5.96    0.55 
   1   0   4    5.79    0.52 
  -2   0  -4    1.41    0.41 
  -2   0  -4    1.67    0.38 
  -2   0  -4    1.34    0.38 
  -2   0  -4    0.94    0.38 
   2   0   4    0.75    0.35 
   2   0   4    1.00    0.53 
   2   0   4    1.12    0.36 
  -3   0  -4    1.15    0.41 
  -3   0  -4    0.98    0.43 
   3   0   4   -0.22    0.45 
   3   0   4    1.03    0.41 
   3   0   4    1.25    0.69 
  -4   0  -4  119.72    4.06 
  -4   0  -4  119.22    4.16 
   4   0   4  124.21    4.50 
   4   0   4  122.44    4.12 
   4   0   4  124.84    4.14 
  -5   0  -4   13.35    0.73 
  -5   0  -4   12.87    1.17 
  -5   0  -4   13.15    1.19 
   5   0   4   14.07    1.07 
   5   0   4   13.03    1.76 
   5   0   4   13.10    1.26 
  -6   0  -4    5.40    0.80 
  -6   0  -4    5.81    0.88 
  -6   0  -4    6.04    0.54 
   6   0   4    5.29    0.90 
   6   0   4    5.66    1.17 
  -7   0  -4    9.17    1.37 
  -7   0  -4   10.20    1.31 
   7   0   4    8.94    1.58 
   7   0   4   10.03    1.97 
  -8   0  -4    0.67    0.77 
   8   0   4    0.35    0.96 
   8   0   4    1.63    1.36 
  -9   0  -4    0.08    0.85 
   9   0   4    1.59    1.22 
   9   0   4   -0.46    1.50 
 -10   0  -4    0.07    0.97 
  10   0   4    2.09    1.41 
  10   0   4    5.13    2.00 
   9  -1  -4    0.13    1.54 
   9  -1  -4    0.66    1.50 
   8  -1  -4   14.04    2.53 
   8  -1  -4   13.71    2.43 
   7  -1  -4    3.68    1.15 
   7  -1  -4    3.03    0.56 
   7  -1  -4    3.05    1.27 
   6  -1  -4   17.68    1.99 
   6  -1  -4   19.07    1.72 
   6  -1  -4   15.34    1.07 
   5  -1  -4    1.33    0.79 
   5  -1  -4    1.63    0.64 
   5  -1  -4    0.58    0.43 
   4  -1  -4   -0.53    0.34 
   4  -1  -4   -0.40    0.38 
   3  -1  -4    0.06    0.40 
   2  -1  -4   38.89    1.83 
   1  -1  -4  222.92    6.92 
   0  -1  -4   27.56    1.11 
   0  -1  -4   27.13    1.15 
   0  -1  -4   25.70    1.17 
   0   1   4   27.47    1.19 
  -1  -1  -4   49.14    1.70 
  -1  -1  -4   51.27    1.80 
  -1  -1  -4   49.74    1.82 
   1   1   4   52.32    1.82 
  -2  -1  -4   16.79    0.91 
  -2  -1  -4   16.01    0.88 
  -2  -1  -4   17.04    0.76 
  -2  -1  -4   15.44    0.89 
   2   1   4   15.22    0.89 
   2   1   4   16.17    1.12 
  -3  -1  -4   40.80    1.58 
  -3  -1  -4   37.68    1.64 
  -3  -1  -4   38.44    1.62 
  -3  -1  -4   39.15    1.49 
   3   1   4   42.97    2.01 
   3   1   4   36.43    1.56 
   3   1   4   39.76    1.62 
  -4  -1  -4   30.72    1.38 
  -4  -1  -4   28.60    1.49 
   4   1   4   30.87    1.39 
   4   1   4   31.29    1.48 
   4   1   4   29.63    1.59 
   4   1   4   32.91    1.82 
  -5  -1  -4   24.17    1.43 
  -5  -1  -4   20.43    1.36 
   5   1   4   18.48    1.42 
   5   1   4   20.27    1.33 
   5   1   4   20.25    1.98 
   5   1   4   19.67    1.50 
  -6  -1  -4    4.17    0.79 
  -6  -1  -4    2.61    0.63 
   6   1   4    3.98    0.80 
   6   1   4    4.21    1.13 
   6   1   4    2.99    0.78 
  -7  -1  -4    0.04    0.62 
  -7  -1  -4   -0.42    0.59 
   7   1   4   -0.27    0.67 
   7   1   4    0.25    0.72 
   7   1   4   -0.45    0.97 
  -8  -1  -4    4.44    0.91 
  -8  -1  -4    3.37    0.97 
   8   1   4    5.13    1.13 
   8   1   4    7.15    1.62 
   8   1   4    5.18    1.03 
  -9  -1  -4    3.97    1.00 
   9   1   4    3.75    1.05 
   9   1   4    4.14    1.67 
   9   1   4    3.20    1.17 
 -10  -1  -4    1.61    0.98 
  10   1   4   -0.58    1.79 
  10   1   4   -0.72    1.17 
  11   1   4    4.57    1.52 
  11   1   4    5.31    2.14 
   9  -2  -4   11.61    2.09 
   9  -2  -4   10.18    2.15 
   8  -2  -4   14.79    2.86 
   8  -2  -4   14.11    2.64 
   7  -2  -4    0.19    1.06 
   7  -2  -4   -0.97    1.12 
   6  -2  -4   14.91    1.70 
   6  -2  -4   11.98    1.99 
   5  -2  -4    2.28    0.95 
   5  -2  -4    3.45    0.79 
   4  -2  -4   -0.04    0.42 
   4  -2  -4    0.59    0.70 
   3  -2  -4   54.26    2.14 
   3  -2  -4   52.32    2.36 
   2  -2  -4  253.56    8.03 
   2  -2  -4  253.72    7.85 
   1  -2  -4   21.18    1.14 
   1  -2  -4   20.70    1.19 
   1  -2  -4   20.67    1.16 
   0  -2  -4   13.08    0.81 
   0  -2  -4   12.49    0.89 
   0  -2  -4   12.01    0.84 
   0   2   4   11.90    0.88 
  -1  -2  -4    4.06    0.63 
  -1  -2  -4    3.82    0.61 
  -1  -2  -4    3.86    0.52 
   1   2   4    3.22    0.53 
  -2  -2  -4   17.28    0.89 
  -2  -2  -4   16.70    0.95 
  -2  -2  -4   16.84    1.00 
   2   2   4   17.44    0.99 
   2   2   4   17.83    1.18 
   2   2   4   15.98    1.04 
  -3  -2  -4    4.34    0.73 
  -3  -2  -4    5.15    0.65 
  -3  -2  -4    4.73    0.63 
  -3  -2  -4    5.24    0.77 
   3   2   4    4.07    0.63 
   3   2   4    5.81    0.78 
   3   2   4    7.35    1.18 
  -4  -2  -4  101.52    3.34 
  -4  -2  -4  100.59    3.50 
  -4  -2  -4  100.23    3.52 
  -4  -2  -4  102.63    3.42 
   4   2   4   94.35    3.69 
   4   2   4  100.75    3.28 
   4   2   4  103.02    3.54 
   4   2   4  100.35    3.59 
  -5  -2  -4    0.42    0.55 
  -5  -2  -4    0.19    0.54 
   5   2   4    0.65    0.64 
   5   2   4    1.46    0.99 
   5   2   4    0.12    0.59 
   5   2   4   -0.37    0.53 
  -6  -2  -4   43.67    1.87 
  -6  -2  -4   41.03    2.11 
   6   2   4   45.54    2.20 
   6   2   4   42.58    2.52 
   6   2   4   43.94    2.08 
  -7  -2  -4    2.31    0.76 
  -7  -2  -4    2.27    0.66 
   7   2   4    4.78    1.21 
   7   2   4    3.09    0.86 
   7   2   4    3.49    0.81 
  -8  -2  -4    1.68    0.81 
  -8  -2  -4    0.89    0.83 
   8   2   4    0.99    1.22 
   8   2   4    1.65    0.92 
   8   2   4    1.65    0.88 
  -9  -2  -4    1.21    0.76 
  -9  -2  -4    1.03    1.04 
   9   2   4    1.03    1.02 
   9   2   4    0.23    0.97 
   9   2   4    0.65    1.46 
 -10  -2  -4    0.02    0.72 
  10   2   4    1.09    1.33 
  10   2   4   -1.41    1.61 
  11   2   4    0.67    1.34 
  11   2   4   -0.71    1.82 
   8  -3  -4   14.06    2.63 
   7  -3  -4    5.76    1.51 
   7  -3  -4    4.34    1.52 
   6  -3  -4   12.24    1.81 
   6  -3  -4    6.83    1.45 
   5  -3  -4    0.67    0.89 
   5  -3  -4    1.67    0.73 
   4  -3  -4   27.38    1.97 
   4  -3  -4   26.72    1.56 
   3  -3  -4    6.11    0.78 
   3  -3  -4    8.19    1.18 
   2  -3  -4    8.22    1.03 
   2  -3  -4    9.15    1.03 
   2  -3  -4    9.04    1.03 
   2  -3  -4    7.20    0.72 
   1  -3  -4   -0.26    0.37 
   1  -3  -4    0.25    0.27 
   1  -3  -4    0.45    0.51 
   1  -3  -4    0.07    0.44 
   0  -3  -4    0.42    0.46 
   0  -3  -4    0.41    0.44 
   0  -3  -4   -0.46    0.35 
   0   3   4    0.19    0.43 
  -1  -3  -4    3.04    0.49 
  -1  -3  -4    4.48    0.67 
  -1  -3  -4    3.19    0.55 
   1   3   4    3.50    0.57 
  -2  -3  -4   24.37    1.22 
  -2  -3  -4   24.44    1.26 
  -2  -3  -4   25.02    1.22 
   2   3   4   24.85    1.26 
   2   3   4   25.95    1.42 
   2   3   4   24.41    1.36 
  -3  -3  -4   28.29    1.54 
  -3  -3  -4   26.09    1.46 
  -3  -3  -4   25.88    1.34 
   3   3   4   26.21    1.37 
   3   3   4   23.47    1.52 
   3   3   4   31.21    1.59 
  -4  -3  -4    3.46    0.63 
  -4  -3  -4    4.30    0.67 
  -4  -3  -4    4.28    0.65 
  -4  -3  -4    3.57    0.70 
   4   3   4    3.39    0.73 
   4   3   4    6.04    1.20 
   4   3   4    3.26    0.69 
  -5  -3  -4   10.56    1.17 
  -5  -3  -4    7.34    1.14 
  -5  -3  -4    9.51    0.90 
  -5  -3  -4    9.80    1.03 
   5   3   4    8.55    1.68 
   5   3   4    9.13    1.05 
   5   3   4    9.66    1.37 
  -6  -3  -4    1.56    0.69 
  -6  -3  -4    0.65    0.46 
   6   3   4    0.00    0.99 
   6   3   4    0.88    0.75 
  -7  -3  -4    5.03    0.94 
  -7  -3  -4    6.25    0.94 
   7   3   4    5.31    1.02 
   7   3   4    4.42    1.22 
  -8  -3  -4   25.49    1.57 
  -8  -3  -4   19.59    1.86 
   8   3   4   21.94    2.39 
   8   3   4   22.51    1.93 
   8   3   4   20.70    1.80 
  -9  -3  -4   10.61    1.85 
  -9  -3  -4   10.16    1.14 
   9   3   4    9.28    1.36 
   9   3   4    6.17    1.77 
   9   3   4    7.76    1.27 
 -10  -3  -4    3.01    1.34 
  10   3   4    1.04    1.70 
  10   3   4    2.23    1.11 
  10   3   4   -0.73    1.10 
  11   3   4    6.16    2.06 
  11   3   4    6.42    1.54 
   8  -4  -4    1.67    1.69 
   7  -4  -4    2.26    1.48 
   6  -4  -4    3.75    1.34 
   6  -4  -4    5.60    1.27 
   5  -4  -4    9.56    1.54 
   5  -4  -4    4.10    1.17 
   4  -4  -4   48.82    2.22 
   4  -4  -4   45.85    2.69 
   4  -4  -4   46.76    2.40 
   3  -4  -4   13.66    1.47 
   3  -4  -4    8.54    1.19 
   3  -4  -4    9.60    1.17 
   3  -4  -4   10.48    0.98 
   2  -4  -4    0.40    0.55 
   2  -4  -4    0.34    0.53 
   2  -4  -4   -0.01    0.32 
   2  -4  -4    0.48    0.58 
   1  -4  -4    7.98    0.99 
   1  -4  -4    6.70    0.96 
   1  -4  -4    7.22    1.10 
   0  -4  -4   80.16    2.84 
   0  -4  -4   74.39    2.89 
   0  -4  -4   78.02    2.89 
   0   4   4   77.24    2.89 
  -1  -4  -4    0.16    0.43 
  -1  -4  -4    0.14    0.39 
  -1  -4  -4    0.89    0.50 
   1   4   4    0.32    0.53 
   1   4   4    0.26    0.41 
  -2  -4  -4    2.44    0.57 
  -2  -4  -4    2.53    0.57 
  -2  -4  -4    0.72    0.41 
  -2  -4  -4    1.51    0.44 
   2   4   4    0.98    0.61 
   2   4   4    1.44    0.41 
   2   4   4    1.98    0.51 
  -3  -4  -4    1.22    0.48 
  -3  -4  -4    0.67    0.50 
  -3  -4  -4    0.97    0.57 
   3   4   4    0.23    0.43 
   3   4   4   -0.62    0.59 
   3   4   4    1.51    0.59 
  -4  -4  -4    4.19    0.66 
  -4  -4  -4    4.78    0.87 
  -4  -4  -4    4.84    0.89 
   4   4   4    3.90    0.76 
   4   4   4    5.15    0.95 
   4   4   4    3.72    0.96 
  -5  -4  -4   11.55    1.08 
  -5  -4  -4    9.99    0.82 
  -5  -4  -4    9.65    1.17 
  -5  -4  -4   11.45    1.14 
   5   4   4    8.89    1.42 
   5   4   4   11.10    1.33 
  -6  -4  -4   -0.67    0.61 
  -6  -4  -4    0.00    0.41 
  -6  -4  -4    0.12    0.61 
  -6  -4  -4   -0.19    0.67 
   6   4   4    0.82    0.87 
   6   4   4    0.02    0.69 
  -7  -4  -4    4.60    0.63 
  -7  -4  -4    3.45    0.89 
   7   4   4    4.69    1.17 
   7   4   4    2.98    0.89 
  -8  -4  -4   25.80    1.45 
  -8  -4  -4   21.54    2.09 
   8   4   4   24.06    2.04 
   8   4   4   23.04    2.43 
  -9  -4  -4   -1.25    0.88 
   9   4   4    0.73    1.46 
   9   4   4    1.50    1.03 
 -10  -4  -4    1.78    1.27 
  10   4   4    3.28    1.29 
  10   4   4    2.46    1.75 
  10   4   4    2.54    1.21 
 -11  -4  -4   -0.58    1.36 
  11   4   4    0.26    1.79 
  11   4   4    0.32    1.20 
  11   4   4    0.59    1.19 
   7  -5  -4    0.55    1.46 
   7  -5  -4    2.00    1.71 
   7  -5  -4    0.25    1.06 
   6  -5  -4    1.88    1.23 
   6  -5  -4   -0.92    0.96 
   6  -5  -4    0.68    1.07 
   6  -5  -4   -0.73    1.18 
   5  -5  -4   -0.13    0.85 
   5  -5  -4    0.23    0.82 
   5  -5  -4    0.32    1.09 
   5  -5  -4    1.66    0.95 
   4  -5  -4    6.17    1.15 
   4  -5  -4    7.11    1.17 
   4  -5  -4   10.01    1.80 
   4  -5  -4   11.10    1.47 
   3  -5  -4    2.55    0.94 
   3  -5  -4    2.70    0.86 
   3  -5  -4    7.82    1.10 
   3  -5  -4    3.52    0.88 
   2  -5  -4    0.95    0.63 
   2  -5  -4    1.15    0.69 
   2  -5  -4    0.50    0.70 
   1  -5  -4    1.99    0.62 
   1  -5  -4    2.53    0.73 
   1  -5  -4    3.11    0.74 
   0  -5  -4   -0.43    0.55 
   0  -5  -4    0.96    0.53 
   0  -5  -4    0.92    0.60 
  -1  -5  -4   37.77    1.81 
  -1  -5  -4   37.60    1.81 
  -1  -5  -4   38.27    1.89 
  -1  -5  -4   39.24    1.91 
   1   5   4   37.31    1.92 
  -2  -5  -4    4.44    0.74 
  -2  -5  -4    5.99    0.91 
  -2  -5  -4    3.98    0.68 
  -2  -5  -4    4.73    0.79 
   2   5   4    4.69    0.94 
   2   5   4    5.83    1.00 
  -3  -5  -4   -0.08    0.59 
  -3  -5  -4    0.38    0.65 
  -3  -5  -4   -0.85    0.54 
   3   5   4    1.39    0.82 
   3   5   4    0.61    0.51 
  -4  -5  -4   42.48    2.05 
  -4  -5  -4   43.48    1.91 
  -4  -5  -4   46.53    2.05 
   4   5   4   44.89    2.16 
   4   5   4   38.35    1.99 
  -5  -5  -4    6.65    1.21 
  -5  -5  -4    8.31    0.81 
  -5  -5  -4    8.94    1.19 
  -5  -5  -4    6.90    1.10 
   5   5   4    7.56    1.37 
   5   5   4    8.01    1.34 
  -6  -5  -4    8.04    1.22 
  -6  -5  -4    8.65    0.84 
  -6  -5  -4   10.40    1.41 
  -6  -5  -4   12.57    1.39 
   6   5   4   11.62    1.51 
   6   5   4   10.09    1.59 
  -7  -5  -4   -0.27    0.43 
  -7  -5  -4    0.22    0.81 
  -7  -5  -4   -1.04    0.77 
   7   5   4   -0.11    1.02 
   7   5   4    0.62    0.87 
  -8  -5  -4    8.50    0.85 
  -8  -5  -4    4.33    1.10 
   8   5   4    6.27    1.48 
   8   5   4    4.72    1.16 
  -9  -5  -4   -0.43    0.99 
   9   5   4    0.41    1.04 
   9   5   4   -0.89    1.37 
 -10  -5  -4    0.28    1.27 
  10   5   4    0.38    1.63 
  10   5   4    1.12    1.25 
 -11  -5  -4    1.52    1.45 
  11   5   4    1.75    1.21 
  11   5   4    1.44    1.32 
  11   5   4    0.84    1.79 
   6  -6  -4    2.97    1.61 
   6  -6  -4    1.93    1.20 
   5  -6  -4    0.58    0.93 
   5  -6  -4    0.99    1.01 
   5  -6  -4    0.93    1.30 
   4  -6  -4    0.23    0.78 
   4  -6  -4    1.90    0.97 
   4  -6  -4    2.81    1.01 
   4  -6  -4    2.29    1.20 
   3  -6  -4    2.86    0.95 
   3  -6  -4    2.18    0.72 
   3  -6  -4    2.06    1.00 
   3  -6  -4    1.28    0.84 
   2  -6  -4   15.38    1.51 
   2  -6  -4   15.97    1.73 
   2  -6  -4   13.73    1.53 
   1  -6  -4   23.16    1.62 
   1  -6  -4   22.01    1.62 
   1  -6  -4   21.49    1.78 
   0  -6  -4   36.32    1.97 
   0  -6  -4   36.91    2.10 
   0  -6  -4   37.56    1.97 
  -1  -6  -4   30.76    1.83 
  -1  -6  -4   30.56    1.78 
  -1  -6  -4   31.67    1.65 
  -1  -6  -4   29.60    1.75 
   1   6   4   30.07    1.71 
  -2  -6  -4   34.96    1.76 
  -2  -6  -4   35.01    1.92 
  -2  -6  -4   36.84    1.96 
  -2  -6  -4   38.82    1.89 
   2   6   4   39.57    2.00 
  -3  -6  -4   -0.89    0.62 
  -3  -6  -4    0.41    0.54 
  -3  -6  -4    0.20    0.63 
   3   6   4   -0.43    0.46 
   3   6   4    0.37    0.76 
  -4  -6  -4    4.55    0.75 
  -4  -6  -4    4.76    0.86 
  -4  -6  -4    4.17    0.86 
   4   6   4    6.04    1.14 
   4   6   4    3.94    0.88 
  -5  -6  -4   17.92    1.48 
  -5  -6  -4   16.43    1.54 
  -5  -6  -4   16.17    1.45 
   5   6   4   15.45    1.58 
   5   6   4   16.65    1.66 
  -6  -6  -4   67.59    3.03 
  -6  -6  -4   74.76    3.06 
  -6  -6  -4   76.78    3.19 
  -6  -6  -4   70.42    2.54 
   6   6   4   68.17    3.14 
   6   6   4   68.08    3.20 
  -7  -6  -4    2.78    1.01 
  -7  -6  -4    4.44    1.10 
  -7  -6  -4    3.74    0.99 
  -7  -6  -4    4.16    0.66 
   7   6   4    2.78    1.00 
   7   6   4    2.65    1.19 
  -8  -6  -4   -0.49    0.98 
   8   6   4    0.26    1.30 
   8   6   4    1.95    1.09 
  -9  -6  -4    8.69    1.49 
   9   6   4    4.23    1.29 
   9   6   4    6.34    1.69 
 -10  -6  -4    2.62    1.33 
  10   6   4    3.27    1.44 
  10   6   4    1.19    1.65 
 -11  -6  -4    1.97    1.47 
  11   6   4    3.48    1.56 
  11   6   4    1.09    1.83 
   5  -7  -4    1.12    1.14 
   5  -7  -4   -0.62    1.35 
   4  -7  -4    0.21    1.01 
   4  -7  -4    0.53    0.98 
   4  -7  -4    0.24    1.21 
   3  -7  -4    4.53    1.13 
   3  -7  -4    2.88    1.22 
   3  -7  -4    3.60    1.09 
   2  -7  -4    5.74    1.11 
   2  -7  -4    6.11    1.21 
   2  -7  -4    3.41    1.04 
   1  -7  -4    3.64    0.94 
   1  -7  -4    3.78    0.90 
   1  -7  -4    4.95    1.09 
   0  -7  -4    0.23    0.77 
   0  -7  -4    1.64    0.74 
   0  -7  -4    1.25    0.71 
   0   7   4    0.82    0.62 
  -1  -7  -4    0.51    0.64 
  -1  -7  -4   -0.05    0.55 
  -1  -7  -4    0.82    0.73 
  -1  -7  -4   -0.70    0.61 
   1   7   4    0.21    0.70 
  -2  -7  -4   15.31    1.24 
  -2  -7  -4   15.61    1.44 
  -2  -7  -4   15.78    1.54 
  -2  -7  -4   15.30    1.51 
   2   7   4   16.13    1.56 
  -3  -7  -4    0.52    0.57 
  -3  -7  -4    1.43    0.73 
  -3  -7  -4    0.93    0.76 
  -3  -7  -4    1.08    0.76 
   3   7   4    1.21    0.79 
  -4  -7  -4   36.18    1.89 
  -4  -7  -4   31.21    2.02 
  -4  -7  -4   35.62    2.08 
   4   7   4   33.68    2.15 
   4   7   4   39.19    1.75 
  -5  -7  -4   72.97    3.27 
  -5  -7  -4   73.22    3.22 
  -5  -7  -4   69.55    3.03 
   5   7   4   74.82    3.25 
  -6  -7  -4    1.29    0.91 
  -6  -7  -4   -0.46    0.83 
  -6  -7  -4   -0.70    0.82 
   6   7   4   -0.01    0.91 
   6   7   4   -1.04    0.83 
  -7  -7  -4    0.95    0.39 
  -7  -7  -4    1.38    0.99 
  -7  -7  -4    0.22    0.95 
  -7  -7  -4    2.05    0.92 
   7   7   4    0.10    1.18 
   7   7   4    0.74    1.03 
  -8  -7  -4   -0.10    0.91 
  -8  -7  -4    2.47    1.06 
  -8  -7  -4   -0.08    1.01 
   8   7   4    0.60    1.12 
   8   7   4   -0.02    1.27 
  -9  -7  -4   -0.44    1.16 
   9   7   4    1.78    1.24 
   9   7   4    0.48    1.46 
 -10  -7  -4    3.82    1.50 
  10   7   4    4.08    1.53 
  10   7   4    2.53    1.73 
   4  -8  -4    7.57    1.84 
   4  -8  -4    7.90    1.54 
   3  -8  -4    5.86    1.42 
   3  -8  -4    6.04    1.34 
   3  -8  -4    3.11    1.45 
   2  -8  -4   17.46    1.95 
   2  -8  -4   18.15    1.88 
   2  -8  -4   15.46    2.37 
   1  -8  -4    4.99    1.12 
   1  -8  -4    3.92    1.20 
   1  -8  -4    3.71    1.09 
   0  -8  -4    1.10    0.80 
   0  -8  -4    1.42    0.89 
   0  -8  -4    1.20    1.00 
  -1  -8  -4    3.74    1.00 
  -1  -8  -4    1.30    0.79 
  -1  -8  -4    3.09    0.92 
  -1  -8  -4    1.18    0.72 
   1   8   4    0.37    0.84 
  -2  -8  -4    0.63    0.82 
  -2  -8  -4   -0.23    0.62 
  -2  -8  -4   -1.47    0.67 
  -2  -8  -4    0.48    0.77 
   2   8   4    0.51    0.86 
  -3  -8  -4   17.87    1.69 
  -3  -8  -4   13.40    1.65 
  -3  -8  -4   16.13    1.47 
  -3  -8  -4   14.13    1.59 
   3   8   4   13.84    1.76 
  -4  -8  -4   12.06    1.65 
  -4  -8  -4   11.67    1.38 
  -4  -8  -4    9.22    1.59 
   4   8   4   11.07    1.79 
  -5  -8  -4    4.45    0.94 
  -5  -8  -4    2.06    1.16 
  -5  -8  -4    4.67    1.21 
   5   8   4    3.36    0.72 
   5   8   4    2.74    1.10 
  -6  -8  -4   -0.26    1.03 
  -6  -8  -4   -1.07    0.87 
  -6  -8  -4   -0.14    0.89 
   6   8   4    0.74    0.76 
   6   8   4    0.42    1.08 
  -7  -8  -4    2.93    1.14 
  -7  -8  -4    4.72    1.17 
  -7  -8  -4    5.34    1.18 
   7   8   4    3.03    1.15 
   7   8   4    2.52    1.19 
  -8  -8  -4    3.22    1.21 
  -8  -8  -4    3.28    1.28 
  -8  -8  -4    2.92    1.24 
   8   8   4    4.79    1.37 
   8   8   4    4.85    1.53 
  -9  -8  -4    3.44    1.37 
   9   8   4    3.78    1.64 
   9   8   4    3.94    1.61 
 -10  -8  -4   -1.82    1.29 
  10   8   4    0.68    1.61 
  10   8   4   -0.86    1.37 
   3  -9  -4   30.20    3.27 
   3  -9  -4   34.00    2.69 
   2  -9  -4    9.14    1.53 
   2  -9  -4    9.77    1.57 
   2  -9  -4    6.73    1.60 
   1  -9  -4    0.80    1.15 
   1  -9  -4   -0.93    0.91 
   1  -9  -4    0.60    1.02 
   0  -9  -4    0.30    0.94 
   0  -9  -4   -0.04    0.86 
   0  -9  -4   -1.41    0.96 
   0  -9  -4    0.46    0.94 
  -1  -9  -4    0.49    0.91 
  -1  -9  -4    1.18    0.98 
  -1  -9  -4    0.82    0.86 
  -1  -9  -4    0.80    0.83 
   1   9   4    0.28    0.74 
  -2  -9  -4    4.11    1.09 
  -2  -9  -4    3.94    1.04 
  -2  -9  -4    3.51    0.95 
  -2  -9  -4    1.93    1.09 
   2   9   4    3.17    1.06 
  -3  -9  -4    6.65    1.31 
  -3  -9  -4    7.63    1.09 
  -3  -9  -4    9.36    1.79 
  -3  -9  -4    9.41    1.66 
   3   9   4    8.61    1.34 
  -4  -9  -4   -0.28    0.74 
  -4  -9  -4   -0.72    1.06 
  -4  -9  -4    0.97    0.98 
   4   9   4    1.06    1.09 
  -5  -9  -4    2.31    1.04 
  -5  -9  -4    1.89    0.89 
  -5  -9  -4    2.94    1.15 
   5   9   4    1.52    1.16 
  -6  -9  -4    0.67    1.06 
  -6  -9  -4    0.70    1.06 
  -6  -9  -4   -0.01    1.10 
   6   9   4    0.44    1.19 
  -7  -9  -4    4.04    1.47 
  -7  -9  -4    5.08    1.29 
  -7  -9  -4    4.19    1.33 
   7   9   4    3.70    1.40 
   7   9   4    1.91    1.54 
  -8  -9  -4    0.95    1.15 
  -8  -9  -4    0.29    1.15 
  -8  -9  -4    0.74    1.26 
   8   9   4   -1.30    1.36 
   8   9   4    0.07    1.38 
  -9  -9  -4    3.30    1.53 
   9   9   4    6.72    1.71 
   9   9   4    3.83    1.66 
   2 -10  -4    5.67    1.70 
   2 -10  -4    6.55    1.51 
   1 -10  -4    2.36    1.39 
   1 -10  -4    1.94    1.37 
   1 -10  -4    1.38    1.21 
   0 -10  -4    2.21    1.24 
   0 -10  -4    2.34    1.10 
   0 -10  -4    2.70    1.31 
   0 -10  -4    2.95    1.15 
  -1 -10  -4    0.94    1.12 
  -1 -10  -4   -0.60    1.07 
  -1 -10  -4    0.03    1.01 
  -1 -10  -4   -0.04    0.98 
  -2 -10  -4    7.04    1.22 
  -2 -10  -4   11.73    1.99 
  -2 -10  -4    5.82    1.33 
  -2 -10  -4   13.81    2.07 
   2  10   4   10.16    1.39 
  -3 -10  -4    7.83    1.51 
  -3 -10  -4    7.39    1.15 
  -3 -10  -4   12.46    2.06 
  -3 -10  -4    5.67    1.36 
   3  10   4    7.78    1.45 
  -4 -10  -4    3.16    1.37 
  -4 -10  -4    1.77    1.18 
  -4 -10  -4    0.43    0.90 
   4  10   4    0.39    1.22 
  -5 -10  -4    5.13    1.46 
  -5 -10  -4    6.77    1.53 
  -5 -10  -4    5.35    1.20 
   5  10   4    5.94    1.55 
  -6 -10  -4    1.31    1.23 
  -6 -10  -4    0.85    1.13 
  -6 -10  -4    2.18    1.30 
   6  10   4    1.72    1.50 
  -7 -10  -4    3.51    1.32 
  -7 -10  -4    0.05    1.20 
  -7 -10  -4    1.23    1.31 
   7  10   4   -0.45    1.43 
  -8 -10  -4    4.66    1.54 
  -8 -10  -4    3.08    1.59 
   8  10   4    3.56    1.66 
   0 -11  -4   -0.08    1.13 
   0 -11  -4   -0.63    1.17 
   0 -11  -4    0.81    1.32 
  -1 -11  -4    1.55    1.11 
  -1 -11  -4    1.66    1.36 
  -1 -11  -4    0.57    1.22 
  -2 -11  -4    0.73    1.09 
  -2 -11  -4    0.30    1.14 
  -2 -11  -4    3.96    1.52 
  -3 -11  -4    2.01    1.26 
  -3 -11  -4    0.74    0.98 
  -3 -11  -4    1.50    1.47 
   3  11   4   -0.26    1.29 
  -4 -11  -4    1.43    1.29 
  -4 -11  -4    1.61    1.05 
  -4 -11  -4    2.78    1.53 
   4  11   4   -0.22    1.42 
  -5 -11  -4    2.46    1.71 
  -5 -11  -4    1.72    1.59 
  -5 -11  -4    0.10    1.06 
   5  11   4   -1.25    1.46 
  -6 -11  -4    1.08    1.23 
  -6 -11  -4    1.52    1.45 
   6  11   4    1.40    1.61 
  -7 -11  -4   13.91    2.45 
  -7 -11  -4    9.55    1.92 
   7  11   4   11.01    2.03 
   5  10  -5    2.75    1.33 
   5  10  -5    2.43    1.35 
   4  10  -5    1.95    1.30 
   4  10  -5    0.27    1.19 
  -4 -10   5   -1.25    1.26 
   3  10  -5    4.96    1.38 
   3  10  -5    2.68    1.31 
  -3 -10   5    3.05    1.36 
   2  10  -5    0.42    1.18 
   2  10  -5   -0.73    1.08 
  -2 -10   5   -1.22    1.14 
   1  10  -5    6.57    1.36 
   1  10  -5   12.64    2.03 
  -1 -10   5    7.15    1.59 
   0  10  -5   -0.21    1.02 
   0  10  -5   -0.02    1.06 
   0 -10   5    0.21    1.47 
  -1  10  -5    1.49    1.15 
  -1  10  -5    2.05    1.23 
   1 -10   5    1.55    1.55 
   7   9  -5    2.77    1.61 
   7   9  -5    2.80    1.18 
   6   9  -5    1.24    1.41 
   6   9  -5   -0.37    1.09 
   5   9  -5   13.23    1.93 
   5   9  -5   15.48    2.57 
   4   9  -5    3.04    1.33 
   4   9  -5    1.40    1.08 
  -4  -9   5    0.83    1.14 
   3   9  -5    1.31    1.04 
   3   9  -5    0.74    1.11 
  -3  -9   5   -0.31    1.11 
   2   9  -5   -0.80    0.98 
   2   9  -5    0.51    1.10 
  -2  -9   5    1.04    1.10 
   1   9  -5    2.90    1.09 
   1   9  -5    1.57    1.14 
  -1  -9   5    1.85    1.08 
   0   9  -5    8.90    1.33 
   0   9  -5    7.92    1.35 
   0   9  -5    9.82    1.46 
   0  -9   5    7.13    1.69 
   0  -9   5    8.24    1.40 
  -1   9  -5    0.67    1.00 
  -1   9  -5   -0.17    0.93 
  -1   9  -5   -1.66    1.02 
   1  -9   5    0.33    1.29 
   1  -9   5   -0.71    1.44 
  -2   9  -5   -0.71    0.91 
  -2   9  -5   -0.33    1.08 
   2  -9   5   -0.55    1.55 
  -3   9  -5    2.09    1.25 
  -3   9  -5    0.64    0.93 
   3  -9   5   -0.46    1.53 
   8   8  -5   -2.27    1.46 
   8   8  -5    1.08    1.54 
   7   8  -5    5.05    1.53 
   7   8  -5   -0.88    1.01 
   6   8  -5    0.12    1.28 
   6   8  -5    0.02    0.94 
   5   8  -5    9.99    1.56 
   5   8  -5   10.32    1.60 
   4   8  -5    2.51    1.04 
   4   8  -5    1.24    1.07 
   3   8  -5   -1.02    0.84 
   3   8  -5    0.28    0.98 
   3   8  -5    0.25    0.64 
  -3  -8   5    0.63    0.90 
   2   8  -5    5.72    1.15 
   2   8  -5    4.18    0.87 
   2   8  -5    4.93    1.12 
  -2  -8   5    3.96    0.99 
   1   8  -5    8.42    1.16 
   1   8  -5    9.50    1.57 
   1   8  -5   11.93    1.41 
  -1  -8   5    9.85    1.46 
   0   8  -5    5.36    1.10 
   0   8  -5    6.02    1.11 
   0   8  -5    5.81    1.13 
   0  -8   5    4.92    1.05 
   0  -8   5    5.13    1.40 
  -1   8  -5   11.93    1.71 
  -1   8  -5    7.69    1.13 
  -1   8  -5    6.43    1.14 
   1  -8   5    8.20    1.58 
   1  -8   5    9.62    1.49 
  -2   8  -5    0.70    0.83 
  -2   8  -5    0.39    0.70 
  -2   8  -5   -0.38    0.89 
   2  -8   5    2.28    0.96 
   2  -8   5    2.07    1.38 
  -3   8  -5    6.33    1.33 
  -3   8  -5    6.07    1.14 
   3  -8   5    7.19    1.80 
  -4   8  -5    1.21    0.85 
  -4   8  -5    0.47    1.03 
   4  -8   5    0.95    1.64 
   8   7  -5   -0.70    1.42 
   8   7  -5    1.54    1.44 
   7   7  -5    3.55    1.37 
   6   7  -5    8.89    1.21 
   6   7  -5    9.66    1.52 
   5   7  -5   -0.09    0.86 
   5   7  -5    0.10    1.00 
   4   7  -5    0.10    0.90 
   4   7  -5    1.61    0.87 
   3   7  -5   13.19    1.46 
   3   7  -5   11.91    1.74 
   3   7  -5   11.88    1.13 
  -3  -7   5   10.85    1.46 
   2   7  -5    1.72    0.91 
   2   7  -5    1.84    0.71 
   2   7  -5    1.99    0.85 
  -2  -7   5    0.08    0.74 
   1   7  -5   11.22    1.37 
   1   7  -5   10.93    1.61 
   1   7  -5    8.16    1.30 
  -1  -7   5    7.63    1.11 
   0   7  -5   33.76    2.13 
   0   7  -5   35.92    2.07 
   0   7  -5   33.78    2.07 
   0  -7   5   34.44    2.66 
   0  -7   5   33.66    2.00 
  -1   7  -5    0.92    0.84 
  -1   7  -5    1.11    0.80 
  -1   7  -5    0.77    0.84 
   1  -7   5    0.51    1.02 
   1  -7   5    4.33    0.93 
  -2   7  -5    5.04    1.14 
  -2   7  -5    3.66    0.96 
  -2   7  -5    4.08    0.91 
   2  -7   5    3.70    0.77 
   2  -7   5    4.85    1.38 
  -3   7  -5    2.89    1.02 
  -3   7  -5    2.25    0.73 
  -3   7  -5    2.85    0.86 
   3  -7   5    2.95    1.28 
   3  -7   5    2.99    0.72 
  -4   7  -5    0.95    0.93 
  -4   7  -5    1.53    0.75 
   4  -7   5    0.65    1.27 
  -5   7  -5    0.30    0.80 
  -5   7  -5   -0.79    0.88 
   5  -7   5    2.10    1.46 
  -6   7  -5    5.39    1.36 
   6  -7   5    8.28    2.02 
   9   6  -5    0.54    1.43 
   9   6  -5    1.01    1.56 
   8   6  -5    0.57    1.52 
   8   6  -5    2.09    1.36 
   7   6  -5    0.23    1.13 
   6   6  -5    1.53    0.86 
   6   6  -5    0.36    1.01 
   5   6  -5    3.67    1.03 
   5   6  -5    4.73    0.93 
   4   6  -5    5.74    0.72 
   4   6  -5    3.25    0.82 
   4   6  -5    3.07    0.70 
   4   6  -5    3.67    0.95 
   3   6  -5    1.09    0.72 
   3   6  -5   -0.01    0.75 
   3   6  -5    0.83    0.47 
   2   6  -5    8.99    1.24 
   2   6  -5   12.32    1.07 
   2   6  -5    9.74    1.47 
  -2  -6   5    8.72    1.16 
   1   6  -5   25.18    1.80 
   1   6  -5   28.01    1.72 
   1   6  -5   27.10    1.60 
  -1  -6   5   26.74    1.57 
   0   6  -5    0.24    0.67 
   0   6  -5    1.44    0.64 
   0   6  -5    0.43    0.72 
   0  -6   5   -0.58    0.82 
   0  -6   5   -0.46    0.67 
  -1   6  -5   16.26    1.46 
  -1   6  -5   15.21    1.39 
   1  -6   5   16.20    1.34 
   1  -6   5   14.72    2.02 
  -2   6  -5   10.43    1.26 
  -2   6  -5    9.93    1.46 
   2  -6   5   12.94    1.15 
   2  -6   5   15.23    2.16 
  -3   6  -5    0.05    0.73 
  -3   6  -5    1.68    0.71 
   3  -6   5    1.38    0.55 
   3  -6   5    1.74    1.09 
  -4   6  -5   -0.47    0.81 
  -4   6  -5   -1.08    0.56 
   4  -6   5   -0.46    0.54 
   4  -6   5   -0.33    1.02 
   4  -6   5    0.17    0.43 
  -5   6  -5   18.72    1.48 
  -5   6  -5   15.52    2.10 
   5  -6   5   17.18    2.48 
   5  -6   5   18.43    2.68 
   5  -6   5   18.26    1.28 
  -6   6  -5    4.47    1.17 
  -6   6  -5    5.31    0.95 
   6  -6   5    4.50    1.61 
   6  -6   5    8.52    1.76 
  -7   6  -5    1.29    1.04 
   7  -6   5    2.98    1.62 
   7  -6   5    2.86    1.57 
   9   5  -5   40.33    3.04 
   9   5  -5   41.42    3.62 
   8   5  -5    0.17    1.09 
   8   5  -5    1.51    1.46 
   7   5  -5    3.41    1.16 
   7   5  -5    1.07    1.30 
   7   5  -5    4.83    0.87 
   6   5  -5    3.34    1.04 
   6   5  -5    4.55    0.84 
   5   5  -5    0.66    0.65 
   5   5  -5    0.73    0.84 
   4   5  -5    0.04    0.61 
   4   5  -5    0.57    0.75 
   4   5  -5   -0.43    0.48 
   4   5  -5    1.25    0.36 
   3   5  -5    3.27    0.55 
   3   5  -5    2.64    0.83 
   3   5  -5    4.85    0.75 
   3   5  -5    3.46    0.71 
   2   5  -5   -0.11    0.69 
   2   5  -5    0.51    0.53 
   2   5  -5    0.91    0.50 
   1   5  -5    3.89    0.81 
   1   5  -5    3.47    0.68 
   1   5  -5    3.78    0.67 
  -1  -5   5    4.92    0.83 
   0   5  -5    4.36    0.70 
   0   5  -5    3.54    0.67 
   0  -5   5    5.26    0.81 
   0  -5   5    5.52    1.00 
  -1   5  -5   13.11    1.21 
  -1   5  -5   12.08    1.13 
   1  -5   5   12.63    1.07 
   1  -5   5   10.71    1.67 
  -2   5  -5    0.03    0.58 
  -2   5  -5    1.08    0.59 
   2  -5   5   -0.51    0.78 
   2  -5   5    0.90    0.46 
  -3   5  -5    1.36    0.59 
  -3   5  -5    1.56    0.69 
   3  -5   5    2.34    1.00 
   3  -5   5    1.41    0.45 
  -4   5  -5    2.01    0.84 
  -4   5  -5    2.50    0.68 
   4  -5   5    2.63    0.54 
   4  -5   5    2.24    1.13 
   4  -5   5    2.69    0.52 
   4  -5   5    3.89    1.30 
  -5   5  -5    6.87    1.16 
  -5   5  -5    8.45    1.10 
   5  -5   5    8.64    0.90 
   5  -5   5   11.51    2.21 
   5  -5   5    8.09    1.53 
  -6   5  -5    5.10    0.83 
  -6   5  -5    6.92    1.33 
   6  -5   5    7.70    1.58 
   6  -5   5    4.79    0.87 
   6  -5   5    7.41    1.61 
  -7   5  -5   -0.03    0.95 
   7  -5   5    0.23    1.40 
   7  -5   5    1.24    1.47 
  -8   5  -5    3.23    1.22 
   8  -5   5    2.24    1.71 
   8  -5   5   -0.20    1.44 
   9   4  -5   59.39    4.05 
   9   4  -5   51.63    3.17 
   8   4  -5   25.31    2.85 
   8   4  -5   21.45    2.19 
   7   4  -5    0.45    0.95 
   7   4  -5    0.76    0.56 
   7   4  -5    0.20    1.32 
   6   4  -5    1.19    0.91 
   6   4  -5    1.13    0.56 
   5   4  -5   12.94    1.04 
   5   4  -5    8.13    1.47 
   4   4  -5   39.35    2.14 
   4   4  -5   36.81    1.68 
   4   4  -5   41.57    1.80 
   4   4  -5   38.41    1.45 
   3   4  -5    0.53    0.56 
   3   4  -5   -0.31    0.31 
   3   4  -5    0.00    0.68 
   2   4  -5    1.16    0.40 
   2   4  -5    0.65    0.55 
   2   4  -5    0.10    0.63 
   1   4  -5   11.81    0.96 
   1   4  -5   10.61    1.07 
   0   4  -5    2.94    0.67 
   0   4  -5    2.61    0.56 
   0  -4   5    1.87    0.73 
   0  -4   5    3.07    0.48 
  -1   4  -5   10.29    1.00 
  -1   4  -5    8.42    0.96 
   1  -4   5    8.83    1.38 
  -2   4  -5    0.66    0.53 
  -2   4  -5    0.27    0.53 
   2  -4   5    0.15    0.67 
  -3   4  -5    0.71    0.45 
  -3   4  -5    1.08    0.59 
   3  -4   5    1.72    0.41 
   3  -4   5   -0.08    0.78 
   3  -4   5    0.85    0.89 
  -4   4  -5    3.91    0.82 
  -4   4  -5    5.94    0.90 
   4  -4   5    4.75    0.72 
   4  -4   5    5.84    1.14 
   4  -4   5    5.12    1.15 
  -5   4  -5    0.53    0.49 
  -5   4  -5   -0.03    0.68 
   5  -4   5    1.79    1.10 
   5  -4   5    0.05    0.37 
   5  -4   5   -0.61    0.98 
  -6   4  -5    8.06    1.26 
  -6   4  -5    8.62    0.96 
   6  -4   5    8.67    0.90 
   6  -4   5   11.97    1.77 
   6  -4   5    9.19    1.52 
  -7   4  -5   -0.23    0.90 
   7  -4   5    0.88    0.61 
   7  -4   5    1.00    1.25 
   7  -4   5    0.20    1.33 
  -8   4  -5    0.97    1.11 
   8  -4   5    2.56    1.68 
   8  -4   5    4.40    1.55 
   8  -4   5    1.28    0.75 
   9   3  -5    2.56    1.65 
   8   3  -5    1.18    0.91 
   8   3  -5    0.35    1.35 
   7   3  -5   33.33    2.10 
   7   3  -5   30.64    2.85 
   7   3  -5   31.39    1.49 
   6   3  -5    0.78    0.45 
   6   3  -5    1.24    0.78 
   5   3  -5   -0.16    0.30 
   5   3  -5   -0.42    0.38 
   5   3  -5   -0.59    0.67 
   4   3  -5   37.07    1.45 
   4   3  -5   41.32    2.09 
   4   3  -5   39.45    1.67 
   3   3  -5   28.88    1.73 
   3   3  -5   28.25    1.28 
   3   3  -5   27.74    1.18 
   3   3  -5   29.90    1.42 
   2   3  -5    3.87    0.64 
   2   3  -5    4.68    0.48 
   2   3  -5    5.05    0.62 
   1   3  -5   19.00    1.02 
   1   3  -5   18.00    1.14 
   0   3  -5    5.50    0.77 
   0   3  -5    3.30    0.56 
   0  -3   5    5.48    1.10 
  -1   3  -5    3.27    0.56 
  -1   3  -5    2.76    0.57 
  -1   3  -5    4.08    0.54 
   1  -3   5    3.69    0.78 
  -2   3  -5   31.69    1.59 
  -2   3  -5   32.00    1.41 
  -2   3  -5   28.54    1.50 
   2  -3   5   29.59    1.88 
  -3   3  -5   13.63    1.12 
  -3   3  -5   11.93    0.99 
   3  -3   5   11.57    1.53 
   3  -3   5   11.81    1.54 
   3  -3   5   11.26    0.81 
  -4   3  -5    0.45    0.53 
  -4   3  -5    0.72    0.44 
   4  -3   5    0.45    0.75 
   4  -3   5    0.67    0.79 
   4  -3   5    0.01    0.33 
  -5   3  -5    3.37    0.57 
  -5   3  -5    2.16    0.74 
   5  -3   5    2.05    0.96 
   5  -3   5    2.79    0.56 
   5  -3   5    3.59    0.98 
  -6   3  -5    0.08    0.41 
  -6   3  -5   -0.17    0.70 
   6  -3   5    0.68    0.91 
   6  -3   5    0.38    1.01 
  -7   3  -5    0.33    0.83 
   7  -3   5    0.35    1.04 
   7  -3   5    3.06    1.31 
  -8   3  -5   13.59    2.12 
   8  -3   5   13.94    2.63 
   8  -3   5   16.10    2.87 
  -9   3  -5    8.62    1.49 
   9  -3   5   15.81    2.60 
   9  -3   5   15.66    2.97 
   9   2  -5    0.50    1.43 
   8   2  -5   15.08    2.67 
   8   2  -5   17.70    1.71 
   7   2  -5    0.84    1.18 
   7   2  -5    0.77    0.69 
   6   2  -5   -0.04    0.57 
   6   2  -5   -0.15    0.37 
   6   2  -5    0.25    1.01 
   5   2  -5   -0.19    0.36 
   5   2  -5    0.10    0.58 
   4   2  -5    3.79    0.77 
   4   2  -5    3.88    0.57 
   4   2  -5    7.38    0.64 
   3   2  -5    9.70    0.82 
   3   2  -5    9.92    0.71 
   2   2  -5   83.95    2.89 
   2   2  -5   79.02    2.71 
   1   2  -5   27.19    1.03 
   1   2  -5   27.48    1.21 
   1   2  -5   29.36    1.37 
   0   2  -5   11.28    0.82 
   0   2  -5   11.47    0.66 
   0   2  -5   10.29    0.88 
  -1   2  -5    4.50    0.57 
  -1   2  -5    4.48    0.72 
  -1   2  -5    3.84    0.54 
   1  -2   5    2.77    0.66 
  -2   2  -5    0.01    0.39 
  -2   2  -5    0.96    0.44 
  -2   2  -5   -0.02    0.34 
   2  -2   5    0.69    0.63 
   2  -2   5   -0.72    0.54 
  -3   2  -5   11.97    1.02 
  -3   2  -5   10.73    0.93 
  -3   2  -5   10.22    1.07 
   3  -2   5    9.39    1.40 
   3  -2   5   10.68    1.50 
   3  -2   5   11.18    0.79 
  -4   2  -5   -0.49    0.46 
  -4   2  -5    0.54    0.46 
  -4   2  -5    0.47    0.41 
   4  -2   5    0.62    0.68 
   4  -2   5    0.00    0.41 
   4  -2   5    1.23    0.74 
  -5   2  -5    1.96    0.44 
  -5   2  -5    3.43    0.75 
  -5   2  -5    2.62    0.73 
   5  -2   5    2.51    0.68 
   5  -2   5    7.22    1.40 
   5  -2   5    8.11    1.53 
  -6   2  -5    9.53    0.80 
  -6   2  -5    8.95    1.30 
   6  -2   5    8.26    1.34 
   6  -2   5    7.88    1.52 
  -7   2  -5   13.97    1.69 
  -7   2  -5   16.15    0.94 
   7  -2   5   16.74    2.06 
   7  -2   5   18.02    2.50 
  -8   2  -5    1.37    0.95 
   8  -2   5    3.11    1.58 
   8  -2   5    0.77    1.18 
  -9   2  -5   -0.10    1.04 
   9  -2   5   -1.41    1.64 
   9  -2   5    0.83    1.35 
   9   1  -5    6.39    1.38 
   9   1  -5   10.06    1.98 
   8   1  -5    4.32    1.42 
   8   1  -5    3.33    0.84 
   7   1  -5    0.89    0.61 
   7   1  -5   -0.87    0.99 
   6   1  -5    4.55    0.77 
   6   1  -5    4.40    1.17 
   6   1  -5    4.53    0.60 
   5   1  -5    8.01    1.55 
   5   1  -5    8.49    0.77 
   5   1  -5   10.10    1.06 
   4   1  -5   25.08    1.17 
   4   1  -5   24.36    1.43 
   3   1  -5    7.36    0.69 
   2   1  -5    5.34    1.14 
   1   1  -5   -0.19    0.29 
   1   1  -5    0.69    0.27 
   0   1  -5    0.02    0.23 
   0   1  -5    0.73    0.37 
  -1   1  -5    0.65    0.39 
  -1   1  -5    1.36    0.33 
  -2   1  -5    1.85    0.48 
  -2   1  -5    6.25    0.92 
   2  -1   5    1.60    0.51 
   2  -1   5    0.79    0.64 
  -3   1  -5   17.63    1.15 
  -3   1  -5   16.10    0.96 
  -3   1  -5   18.33    1.11 
   3  -1   5   17.45    1.00 
   3  -1   5   19.14    1.30 
   3  -1   5   16.70    1.49 
  -4   1  -5    1.54    0.56 
  -4   1  -5    1.63    0.43 
  -4   1  -5    1.74    0.58 
   4  -1   5    2.04    0.52 
   4  -1   5    0.90    0.55 
   4  -1   5    1.21    0.73 
  -5   1  -5   12.68    1.26 
  -5   1  -5   15.92    1.28 
  -5   1  -5   14.86    0.89 
   5  -1   5   13.88    1.80 
   5  -1   5   12.01    1.31 
   5  -1   5   15.18    1.14 
  -6   1  -5    0.49    0.64 
  -6   1  -5    1.07    0.63 
  -6   1  -5    0.66    0.36 
   6  -1   5    0.75    0.71 
   6  -1   5    1.03    1.00 
  -7   1  -5   10.22    1.60 
  -7   1  -5    7.26    0.63 
  -7   1  -5    7.43    1.11 
   7  -1   5    7.79    1.24 
   7  -1   5    8.98    1.63 
  -8   1  -5    1.73    0.85 
   8  -1   5   -1.70    1.39 
   8  -1   5    1.22    1.01 
  -9   1  -5    0.73    0.99 
   9  -1   5   -2.80    1.53 
   9  -1   5    0.44    1.29 
 -10   1  -5    0.18    1.11 
  10  -1   5    2.27    1.97 
  10  -1   5    1.42    1.44 
   9   0  -5   -0.22    1.40 
   9   0  -5   -2.53    1.32 
   8   0  -5    0.40    1.23 
   8   0  -5   -1.03    0.54 
   8   0  -5   -1.52    1.08 
   7   0  -5   29.05    1.62 
   7   0  -5   25.80    2.42 
   6   0  -5   41.55    1.95 
   6   0  -5   42.61    2.50 
   6   0  -5   43.00    1.67 
   5   0  -5    1.70    0.55 
   5   0  -5    1.60    0.73 
   4   0  -5    3.44    0.61 
   3   0  -5    3.85    0.88 
   2   0  -5    1.31    0.66 
   1   0  -5   43.14    1.66 
   0   0  -5  173.76    5.35 
   0   0  -5  175.99    5.38 
   0   0  -5  168.96    5.44 
  -1   0  -5    0.30    0.31 
  -1   0  -5    0.93    0.31 
  -1   0  -5    1.01    0.30 
  -1   0  -5    1.57    0.41 
   1   0   5    1.18    0.34 
  -2   0  -5    4.38    0.58 
  -2   0  -5    4.14    0.66 
  -2   0  -5    3.58    0.53 
  -2   0  -5    3.83    0.60 
   2   0   5    5.97    0.61 
  -3   0  -5    6.30    0.68 
  -3   0  -5    5.68    0.79 
  -3   0  -5    5.60    0.82 
   3   0   5    6.12    0.84 
   3   0   5    5.56    0.72 
   3   0   5    7.10    1.13 
  -4   0  -5    6.53    0.90 
  -4   0  -5    5.90    0.84 
   4   0   5    7.08    0.99 
   4   0   5    8.20    1.23 
   4   0   5    7.65    1.13 
  -5   0  -5   -0.25    0.47 
  -5   0  -5    0.25    0.49 
   5   0   5    0.23    0.58 
   5   0   5    0.29    0.83 
   5   0   5   -0.42    0.51 
  -6   0  -5   52.49    2.40 
  -6   0  -5   49.53    1.90 
  -6   0  -5   50.30    2.31 
   6   0   5   53.56    2.47 
   6   0   5   55.16    3.02 
  -7   0  -5    5.80    0.98 
  -7   0  -5    5.08    0.53 
  -7   0  -5    6.65    1.02 
   7   0   5    5.85    1.40 
   7   0   5    6.80    1.08 
  -8   0  -5   -0.06    0.86 
  -8   0  -5    2.94    0.94 
   8   0   5    1.85    1.45 
   8   0   5    2.22    1.10 
  -9   0  -5    2.53    0.95 
   9   0   5    3.47    1.76 
   9   0   5    2.10    1.21 
 -10   0  -5   -0.82    0.97 
  10   0   5    1.63    1.90 
  10   0   5    0.42    1.30 
   9  -1  -5   -0.51    1.50 
   9  -1  -5   -0.38    1.44 
   8  -1  -5    1.59    1.31 
   8  -1  -5    1.82    1.39 
   7  -1  -5    6.25    1.28 
   7  -1  -5    5.94    1.46 
   7  -1  -5    3.56    0.67 
   6  -1  -5    6.11    1.25 
   6  -1  -5    6.88    1.37 
   6  -1  -5    5.33    0.74 
   5  -1  -5    1.27    0.67 
   5  -1  -5    1.10    0.51 
   4  -1  -5    0.05    0.49 
   4  -1  -5   -0.27    0.37 
   3  -1  -5    5.50    0.95 
   2  -1  -5  390.86   12.31 
   1  -1  -5  319.26    9.80 
   0  -1  -5    1.04    0.37 
   0  -1  -5    0.64    0.36 
   0  -1  -5    1.13    0.33 
  -1  -1  -5    7.50    0.70 
  -1  -1  -5    5.45    0.51 
  -1  -1  -5    6.53    0.61 
   1   1   5    7.87    0.69 
  -2  -1  -5    0.59    0.26 
  -2  -1  -5    0.39    0.37 
  -2  -1  -5    0.88    0.38 
  -2  -1  -5   -0.17    0.34 
   2   1   5    0.43    0.27 
   2   1   5    0.02    0.34 
  -3  -1  -5    3.10    0.74 
  -3  -1  -5    4.12    0.75 
  -3  -1  -5    2.77    0.51 
  -3  -1  -5    0.40    0.44 
   3   1   5    2.04    0.38 
   3   1   5    2.65    0.69 
   3   1   5    2.81    0.52 
  -4  -1  -5    0.56    0.52 
  -4  -1  -5    0.14    0.40 
  -4  -1  -5   -0.25    0.49 
   4   1   5    0.08    0.75 
   4   1   5    0.47    0.51 
   4   1   5    0.25    0.42 
  -5  -1  -5    8.53    1.09 
  -5  -1  -5    8.30    0.96 
   5   1   5    9.68    1.59 
   5   1   5    7.58    0.99 
   5   1   5   10.87    1.02 
  -6  -1  -5   25.12    1.48 
  -6  -1  -5   26.17    1.64 
   6   1   5   26.64    1.62 
   6   1   5   24.72    2.12 
  -7  -1  -5   13.11    1.42 
  -7  -1  -5   11.06    1.30 
   7   1   5   10.14    2.03 
   7   1   5   12.14    1.48 
  -8  -1  -5    0.86    0.79 
  -8  -1  -5    1.40    0.91 
   8   1   5    0.45    0.85 
   8   1   5    0.97    1.36 
  -9  -1  -5    2.57    0.98 
  -9  -1  -5    1.43    1.05 
   9   1   5    2.07    1.14 
   9   1   5    1.14    1.60 
 -10  -1  -5   -0.98    0.90 
  10   1   5   -0.68    1.16 
  10   1   5    0.18    1.90 
 -11  -1  -5    6.04    1.34 
  11   1   5    4.93    2.20 
  11   1   5    6.94    1.65 
   8  -2  -5    2.85    1.56 
   8  -2  -5    3.43    1.63 
   7  -2  -5    0.49    1.18 
   7  -2  -5    1.05    1.03 
   6  -2  -5   18.58    2.30 
   6  -2  -5   19.12    1.83 
   5  -2  -5    0.34    0.60 
   5  -2  -5    0.92    0.87 
   4  -2  -5    8.50    0.83 
   4  -2  -5    5.70    0.95 
   4  -2  -5    4.84    0.93 
   3  -2  -5    7.25    0.85 
   3  -2  -5    5.27    0.79 
   2  -2  -5   41.86    1.89 
   2  -2  -5   42.79    1.90 
   1  -2  -5   81.11    2.87 
   1  -2  -5   80.86    2.95 
   1  -2  -5   81.31    2.91 
   0  -2  -5    0.64    0.40 
   0  -2  -5    0.72    0.34 
   0  -2  -5    1.62    0.39 
   0   2   5    0.43    0.42 
  -1  -2  -5   16.76    1.00 
  -1  -2  -5   17.36    1.00 
  -1  -2  -5   17.43    0.89 
   1   2   5   17.50    1.03 
  -2  -2  -5   60.40    2.20 
  -2  -2  -5   60.47    2.08 
  -2  -2  -5   59.36    2.19 
   2   2   5   61.95    2.21 
   2   2   5   49.63    2.34 
  -3  -2  -5   40.36    1.84 
  -3  -2  -5   37.71    1.68 
  -3  -2  -5   39.91    1.64 
  -3  -2  -5   42.94    1.79 
   3   2   5   42.13    1.73 
   3   2   5   36.15    1.87 
  -4  -2  -5   42.98    1.92 
  -4  -2  -5   42.69    1.75 
  -4  -2  -5   40.98    1.89 
  -4  -2  -5   42.10    1.75 
   4   2   5   42.46    2.26 
   4   2   5   44.58    1.92 
   4   2   5   43.77    2.04 
  -5  -2  -5    2.93    0.69 
  -5  -2  -5    2.72    0.55 
  -5  -2  -5    3.18    0.72 
   5   2   5    2.15    0.51 
   5   2   5    2.16    0.92 
   5   2   5    3.37    0.78 
   5   2   5    2.21    0.68 
  -6  -2  -5    0.01    0.58 
  -6  -2  -5    0.66    0.51 
   6   2   5    0.56    0.57 
   6   2   5   -0.35    0.96 
   6   2   5    1.12    0.74 
  -7  -2  -5    1.83    0.66 
  -7  -2  -5    1.47    0.77 
   7   2   5    2.35    0.89 
   7   2   5    1.97    0.77 
   7   2   5    2.62    1.25 
  -8  -2  -5   -0.32    0.78 
  -8  -2  -5    0.60    0.72 
   8   2   5    0.35    0.81 
   8   2   5   -0.10    0.88 
   8   2   5    2.26    1.51 
  -9  -2  -5    0.22    0.80 
  -9  -2  -5   -0.94    0.89 
   9   2   5    1.76    1.07 
   9   2   5   -1.84    1.56 
   9   2   5   -1.41    0.92 
 -10  -2  -5    2.36    0.99 
 -10  -2  -5    2.93    1.32 
  10   2   5    1.75    1.19 
  10   2   5    1.03    1.97 
  10   2   5    1.82    1.21 
  11   2   5   -0.19    2.07 
  11   2   5    0.41    1.20 
   8  -3  -5    0.26    1.49 
   7  -3  -5   -0.01    1.31 
   6  -3  -5    2.58    0.95 
   6  -3  -5    2.81    1.25 
   5  -3  -5   17.58    1.56 
   5  -3  -5   18.34    2.08 
   4  -3  -5   11.33    1.18 
   4  -3  -5   12.89    1.59 
   3  -3  -5   16.86    1.46 
   3  -3  -5   18.79    1.17 
   3  -3  -5   16.31    1.38 
   2  -3  -5    0.55    0.59 
   2  -3  -5    0.59    0.55 
   2  -3  -5   -0.02    0.38 
   2  -3  -5    0.57    0.50 
   1  -3  -5   33.38    1.32 
   1  -3  -5   32.40    1.58 
   1  -3  -5   30.19    1.56 
   1  -3  -5   31.41    1.63 
   0  -3  -5    0.79    0.41 
   0  -3  -5    0.46    0.49 
   0  -3  -5    1.45    0.48 
   0   3   5    1.22    0.52 
  -1  -3  -5   28.67    1.42 
  -1  -3  -5   33.02    1.38 
  -1  -3  -5   29.86    1.40 
  -1  -3  -5   24.36    1.18 
   1   3   5   31.10    1.45 
  -2  -3  -5    5.15    0.83 
  -2  -3  -5    3.30    0.63 
  -2  -3  -5    2.36    0.58 
  -2  -3  -5    2.17    0.48 
   2   3   5    2.13    0.53 
   2   3   5    1.29    0.51 
  -3  -3  -5   39.24    1.75 
  -3  -3  -5   42.03    1.84 
  -3  -3  -5   40.03    1.72 
   3   3   5   43.78    2.08 
   3   3   5   43.11    1.99 
   3   3   5   39.84    1.80 
  -4  -3  -5   26.64    1.32 
  -4  -3  -5   24.04    1.29 
  -4  -3  -5   23.95    1.41 
  -4  -3  -5   25.42    1.43 
   4   3   5   25.34    1.49 
   4   3   5   21.51    1.82 
   4   3   5   26.62    1.64 
  -5  -3  -5    0.62    0.55 
  -5  -3  -5    1.69    0.57 
  -5  -3  -5    1.17    0.63 
  -5  -3  -5    1.18    0.47 
   5   3   5    0.49    0.72 
   5   3   5    1.23    0.86 
  -6  -3  -5    9.87    1.01 
  -6  -3  -5    8.62    1.17 
  -6  -3  -5    9.34    1.22 
   6   3   5   10.90    1.06 
   6   3   5   10.49    1.49 
   6   3   5    9.71    1.71 
  -7  -3  -5    1.55    0.65 
  -7  -3  -5    2.70    0.83 
   7   3   5    3.34    1.17 
   7   3   5    2.10    0.97 
   7   3   5    2.95    0.73 
  -8  -3  -5   12.78    1.36 
  -8  -3  -5   12.17    1.70 
   8   3   5   14.72    2.46 
   8   3   5   12.61    1.61 
   8   3   5   12.58    1.86 
  -9  -3  -5    0.60    0.94 
  -9  -3  -5    0.43    0.78 
   9   3   5    2.63    1.62 
   9   3   5    0.52    0.93 
   9   3   5    0.75    1.05 
 -10  -3  -5    1.97    1.22 
 -10  -3  -5    0.82    0.73 
  10   3   5   -0.65    1.74 
  10   3   5    2.34    1.25 
  10   3   5    2.24    1.22 
 -11  -3  -5    0.02    1.36 
  11   3   5    2.35    2.06 
  11   3   5    1.69    1.35 
   7  -4  -5    1.74    1.48 
   6  -4  -5    2.15    1.01 
   6  -4  -5    0.85    1.20 
   5  -4  -5   10.09    1.97 
   5  -4  -5   15.34    1.56 
   5  -4  -5    8.82    1.60 
   4  -4  -5    0.18    0.56 
   4  -4  -5    0.94    0.84 
   4  -4  -5   -0.43    0.76 
   4  -4  -5    0.46    0.79 
   3  -4  -5    1.87    0.72 
   3  -4  -5   -0.10    0.47 
   3  -4  -5    0.04    0.68 
   3  -4  -5    1.11    0.71 
   2  -4  -5    1.15    0.60 
   2  -4  -5    1.13    0.69 
   2  -4  -5   -0.07    0.35 
   2  -4  -5    1.03    0.65 
   1  -4  -5    3.37    0.76 
   1  -4  -5    5.41    0.90 
   1  -4  -5    3.80    0.72 
   0  -4  -5   14.17    1.22 
   0  -4  -5   12.27    0.99 
   0  -4  -5   13.85    1.12 
   0   4   5   11.04    1.73 
  -1  -4  -5   11.66    1.01 
  -1  -4  -5   12.99    1.06 
  -1  -4  -5   13.07    1.05 
  -1  -4  -5   15.69    0.95 
   1   4   5   12.37    1.12 
  -2  -4  -5    0.53    0.42 
  -2  -4  -5    0.13    0.49 
  -2  -4  -5    1.59    0.57 
   2   4   5    0.32    0.50 
   2   4   5    0.21    0.61 
  -3  -4  -5    9.03    0.93 
  -3  -4  -5    7.40    0.95 
  -3  -4  -5   10.25    1.05 
   3   4   5    8.25    1.26 
   3   4   5    8.04    1.33 
   3   4   5    9.91    1.02 
  -4  -4  -5    0.61    0.65 
  -4  -4  -5    0.80    0.56 
  -4  -4  -5    0.49    0.55 
   4   4   5    0.19    0.75 
   4   4   5   -0.66    0.74 
  -5  -4  -5    3.01    0.72 
  -5  -4  -5    2.22    0.67 
  -5  -4  -5    1.69    0.52 
  -5  -4  -5    2.09    0.74 
   5   4   5    2.43    0.80 
   5   4   5    3.35    0.99 
  -6  -4  -5    1.25    0.49 
  -6  -4  -5    1.35    0.65 
  -6  -4  -5    1.91    0.79 
  -6  -4  -5    2.60    0.77 
   6   4   5    2.89    0.91 
   6   4   5    2.54    1.06 
  -7  -4  -5    0.83    0.83 
  -7  -4  -5    0.05    0.51 
   7   4   5    1.16    1.11 
   7   4   5   -1.51    0.79 
  -8  -4  -5   17.89    1.35 
  -8  -4  -5   18.81    1.89 
   8   4   5   16.49    1.96 
   8   4   5   19.39    2.51 
   8   4   5   17.50    1.58 
  -9  -4  -5    5.62    0.80 
  -9  -4  -5    4.45    1.25 
   9   4   5    5.74    1.12 
   9   4   5    8.50    1.47 
   9   4   5    6.52    1.72 
 -10  -4  -5   -1.11    1.09 
  10   4   5    0.93    1.79 
  10   4   5    0.11    1.20 
  10   4   5    0.42    1.00 
 -11  -4  -5    0.75    1.41 
  11   4   5    1.44    1.24 
  11   4   5   -0.11    1.86 
  11   4   5   -0.61    1.22 
   7  -5  -5    0.90    1.16 
   7  -5  -5    1.78    1.59 
   6  -5  -5    6.77    1.49 
   6  -5  -5    7.53    1.43 
   6  -5  -5    5.65    1.37 
   6  -5  -5    6.82    1.73 
   5  -5  -5    7.01    1.43 
   5  -5  -5    7.24    1.33 
   5  -5  -5    6.82    1.31 
   5  -5  -5   11.22    1.71 
   4  -5  -5    0.02    0.92 
   4  -5  -5   -0.65    0.85 
   4  -5  -5    0.79    0.86 
   4  -5  -5    1.36    0.68 
   3  -5  -5    9.52    1.06 
   3  -5  -5   10.76    1.48 
   3  -5  -5   13.79    1.69 
   3  -5  -5   10.70    1.41 
   2  -5  -5    0.52    0.67 
   2  -5  -5    1.51    0.74 
   2  -5  -5    1.84    0.75 
   1  -5  -5   21.08    1.53 
   1  -5  -5   21.31    1.56 
   1  -5  -5   22.26    1.55 
   0  -5  -5   29.89    1.75 
   0  -5  -5   31.57    1.75 
   0  -5  -5   32.28    1.67 
  -1  -5  -5   29.42    1.50 
  -1  -5  -5   29.29    1.56 
  -1  -5  -5   28.45    1.62 
  -1  -5  -5   27.47    1.62 
  -2  -5  -5    0.54    0.46 
  -2  -5  -5    1.11    0.60 
  -2  -5  -5    1.12    0.62 
  -2  -5  -5    1.46    0.49 
   2   5   5    0.85    0.71 
  -3  -5  -5    6.61    1.02 
  -3  -5  -5    6.23    0.89 
  -3  -5  -5    6.46    0.92 
   3   5   5    5.89    0.98 
   3   5   5    7.40    1.30 
  -4  -5  -5    5.80    0.97 
  -4  -5  -5    5.37    0.88 
  -4  -5  -5    7.02    1.06 
   4   5   5    4.54    0.94 
   4   5   5    4.93    0.88 
  -5  -5  -5    4.87    0.86 
  -5  -5  -5    5.26    0.86 
  -5  -5  -5    5.81    0.81 
  -5  -5  -5    7.17    1.19 
   5   5   5    4.88    0.96 
   5   5   5    4.58    0.99 
  -6  -5  -5   -0.38    0.77 
  -6  -5  -5    0.31    0.46 
  -6  -5  -5    0.66    0.72 
  -6  -5  -5   -0.53    0.64 
   6   5   5   -0.34    0.85 
   6   5   5    0.07    0.96 
  -7  -5  -5    6.45    1.07 
  -7  -5  -5    6.63    1.19 
  -7  -5  -5    6.56    0.92 
  -7  -5  -5    6.19    1.03 
   7   5   5    5.08    1.29 
   7   5   5    7.29    1.27 
  -8  -5  -5   -0.54    0.83 
  -8  -5  -5    0.22    0.51 
   8   5   5   -0.03    1.28 
   8   5   5    2.26    1.06 
  -9  -5  -5    4.79    1.25 
   9   5   5    4.80    1.32 
   9   5   5    2.19    1.58 
 -10  -5  -5   10.69    1.72 
  10   5   5    5.19    1.93 
  10   5   5   11.45    1.77 
  10   5   5    5.89    1.20 
 -11  -5  -5    1.40    1.45 
  11   5   5   -0.33    1.81 
  11   5   5   -0.53    1.16 
  11   5   5    1.09    1.25 
   6  -6  -5   -0.29    1.10 
   6  -6  -5    1.67    1.60 
   5  -6  -5   -0.03    1.04 
   5  -6  -5    0.72    1.39 
   5  -6  -5   -1.16    0.97 
   4  -6  -5    6.37    1.25 
   4  -6  -5    4.71    1.25 
   4  -6  -5    5.15    1.41 
   3  -6  -5    0.42    0.95 
   3  -6  -5    0.39    0.86 
   3  -6  -5    1.74    0.95 
   2  -6  -5   23.29    1.82 
   2  -6  -5   20.03    1.74 
   2  -6  -5   21.53    1.90 
   1  -6  -5   -0.24    0.66 
   1  -6  -5    0.20    0.71 
   1  -6  -5    0.22    0.70 
   0  -6  -5    4.95    0.93 
   0  -6  -5    6.75    1.30 
   0  -6  -5    7.25    1.15 
  -1  -6  -5    1.02    0.65 
  -1  -6  -5    1.18    0.64 
  -1  -6  -5    1.73    0.68 
  -1  -6  -5    1.34    0.59 
   1   6   5    1.66    0.76 
  -2  -6  -5    6.07    1.03 
  -2  -6  -5    4.65    0.86 
  -2  -6  -5    4.62    0.84 
  -2  -6  -5    3.92    0.72 
   2   6   5    3.92    0.90 
  -3  -6  -5    7.26    1.12 
  -3  -6  -5    6.40    0.97 
  -3  -6  -5    6.74    1.12 
   3   6   5    7.82    1.36 
  -4  -6  -5   -0.52    0.50 
  -4  -6  -5    0.00    0.67 
  -4  -6  -5   -0.40    0.59 
   4   6   5    0.11    0.81 
   4   6   5    1.52    0.72 
  -5  -6  -5   30.74    1.82 
  -5  -6  -5   29.52    1.89 
  -5  -6  -5   27.91    1.87 
   5   6   5   29.17    2.11 
   5   6   5   29.42    1.92 
  -6  -6  -5   16.65    1.13 
  -6  -6  -5   15.29    1.69 
  -6  -6  -5   14.31    1.52 
  -6  -6  -5   16.95    1.75 
   6   6   5   17.23    1.88 
   6   6   5   12.77    1.82 
  -7  -6  -5    2.69    1.06 
  -7  -6  -5   -0.08    0.46 
  -7  -6  -5    0.62    0.85 
  -7  -6  -5    0.76    1.07 
   7   6   5   -0.67    0.91 
   7   6   5   -0.35    1.11 
  -8  -6  -5    0.39    0.43 
  -8  -6  -5    0.14    1.03 
  -8  -6  -5    0.40    0.90 
   8   6   5    0.39    1.30 
   8   6   5   -0.35    1.14 
  -9  -6  -5    7.02    1.46 
   9   6   5    5.45    1.68 
   9   6   5    7.35    1.61 
 -10  -6  -5   -0.97    1.24 
  10   6   5    2.03    1.34 
  10   6   5   -0.46    1.58 
 -11  -6  -5    0.75    1.42 
  11   6   5    0.97    1.80 
  11   6   5    1.01    1.42 
   5  -7  -5   -0.10    1.43 
   5  -7  -5   -0.29    1.16 
   4  -7  -5   10.62    1.88 
   4  -7  -5    9.17    1.55 
   4  -7  -5    9.16    1.61 
   3  -7  -5   17.62    1.92 
   3  -7  -5   14.44    1.87 
   3  -7  -5   13.48    2.28 
   2  -7  -5    7.46    1.39 
   2  -7  -5    4.56    1.15 
   2  -7  -5    8.98    1.58 
   1  -7  -5    0.33    0.85 
   1  -7  -5    0.95    0.92 
   1  -7  -5    0.52    0.82 
   0  -7  -5    2.23    0.92 
   0  -7  -5    3.06    0.94 
   0  -7  -5    3.25    0.90 
  -1  -7  -5    1.90    0.81 
  -1  -7  -5    1.61    0.71 
  -1  -7  -5    1.69    0.76 
  -1  -7  -5    1.16    0.77 
   1   7   5    1.33    0.82 
  -2  -7  -5    3.98    0.90 
  -2  -7  -5    2.93    0.85 
  -2  -7  -5    4.45    0.84 
  -2  -7  -5    2.42    0.71 
   2   7   5    3.63    0.96 
  -3  -7  -5    2.26    0.83 
  -3  -7  -5    0.65    0.62 
  -3  -7  -5    0.08    0.74 
  -3  -7  -5    1.03    0.64 
   3   7   5   -0.32    0.84 
  -4  -7  -5    6.55    1.17 
  -4  -7  -5    8.21    1.41 
  -4  -7  -5    8.94    1.41 
   4   7   5    6.26    1.16 
  -5  -7  -5   18.83    1.71 
  -5  -7  -5   16.69    1.53 
  -5  -7  -5   16.89    1.69 
   5   7   5   18.35    1.94 
   5   7   5   14.39    1.42 
  -6  -7  -5   13.69    1.13 
  -6  -7  -5   10.76    1.64 
  -6  -7  -5   15.04    1.86 
  -6  -7  -5   16.22    1.83 
   6   7   5   12.28    1.98 
   6   7   5   10.24    1.73 
  -7  -7  -5    2.96    1.03 
  -7  -7  -5    3.48    1.11 
  -7  -7  -5    2.69    1.15 
  -7  -7  -5    2.01    0.50 
   7   7   5    2.72    1.32 
   7   7   5    3.56    1.28 
  -8  -7  -5   -0.21    1.08 
  -8  -7  -5   -0.26    0.91 
  -8  -7  -5   -0.43    0.98 
   8   7   5    1.68    1.41 
   8   7   5   -1.75    1.09 
  -9  -7  -5   -0.10    1.19 
   9   7   5    0.89    1.29 
   9   7   5    0.92    1.58 
 -10  -7  -5   -2.45    1.28 
  10   7   5    0.75    1.76 
  10   7   5   -1.38    1.32 
   4  -8  -5   -1.03    1.40 
   4  -8  -5    1.80    1.25 
   3  -8  -5    2.85    1.58 
   3  -8  -5    5.74    1.38 
   3  -8  -5    4.89    1.35 
   2  -8  -5   34.85    2.49 
   2  -8  -5   39.23    2.96 
   2  -8  -5   34.82    2.58 
   1  -8  -5   -0.11    0.83 
   1  -8  -5   -0.26    0.98 
   1  -8  -5    0.53    0.88 
   0  -8  -5    9.37    1.86 
   0  -8  -5    7.34    1.23 
   0  -8  -5   10.49    1.60 
   0  -8  -5    8.64    1.59 
  -1  -8  -5    4.30    0.93 
  -1  -8  -5    4.36    1.04 
  -1  -8  -5    4.19    1.09 
  -1  -8  -5    3.61    0.97 
   1   8   5    2.09    0.91 
  -2  -8  -5    6.30    1.09 
  -2  -8  -5    6.29    1.13 
  -2  -8  -5    6.67    1.19 
  -2  -8  -5    5.72    0.96 
   2   8   5    6.95    1.20 
  -3  -8  -5    2.51    0.96 
  -3  -8  -5    2.07    0.98 
  -3  -8  -5    2.03    0.78 
  -3  -8  -5    2.22    0.81 
   3   8   5    1.22    1.08 
  -4  -8  -5    8.58    1.57 
  -4  -8  -5    3.96    0.91 
  -4  -8  -5    5.62    1.23 
   4   8   5    4.64    1.22 
  -5  -8  -5   27.00    2.13 
  -5  -8  -5   28.15    1.98 
  -5  -8  -5   26.90    2.12 
   5   8   5   30.96    2.41 
  -6  -8  -5    0.90    1.01 
  -6  -8  -5    1.07    1.03 
  -6  -8  -5    1.08    1.02 
   6   8   5    0.45    1.20 
   6   8   5    0.81    0.82 
  -7  -8  -5    2.43    1.11 
  -7  -8  -5    2.85    1.03 
  -7  -8  -5    1.15    1.10 
  -7  -8  -5    1.07    0.49 
   7   8   5    1.09    1.22 
   7   8   5   -0.05    0.97 
  -8  -8  -5   -0.85    0.97 
  -8  -8  -5    0.73    1.13 
  -8  -8  -5    1.50    1.23 
   8   8   5   -0.05    1.29 
   8   8   5    0.59    1.46 
  -9  -8  -5   -0.81    1.21 
   9   8   5   -0.66    1.54 
   9   8   5   -0.05    1.43 
 -10  -8  -5    5.26    1.61 
  10   8   5    4.79    1.85 
  10   8   5    4.39    1.71 
   3  -9  -5    5.42    1.71 
   3  -9  -5    7.64    1.58 
   2  -9  -5    2.79    1.27 
   2  -9  -5    1.58    1.36 
   1  -9  -5    2.66    1.31 
   1  -9  -5    5.43    1.38 
   1  -9  -5    4.01    1.26 
   0  -9  -5    0.88    1.14 
   0  -9  -5    2.40    1.05 
   0  -9  -5    0.86    1.05 
   0  -9  -5    2.93    1.07 
  -1  -9  -5    0.97    0.95 
  -1  -9  -5    1.87    1.04 
  -1  -9  -5   -0.76    0.91 
  -1  -9  -5    0.39    0.86 
   1   9   5    0.79    0.86 
  -2  -9  -5    1.58    1.02 
  -2  -9  -5    1.54    0.90 
  -2  -9  -5   -0.14    0.92 
  -2  -9  -5    1.63    0.91 
   2   9   5    0.36    1.07 
  -3  -9  -5    1.27    1.01 
  -3  -9  -5    1.28    0.87 
  -3  -9  -5    2.74    0.92 
  -3  -9  -5    0.50    0.95 
   3   9   5    1.85    1.13 
  -4  -9  -5   10.94    1.80 
  -4  -9  -5    8.53    1.20 
  -4  -9  -5    7.69    1.36 
   4   9   5   10.51    1.52 
  -5  -9  -5    1.21    1.04 
  -5  -9  -5    0.72    1.02 
  -5  -9  -5    0.54    0.90 
   5   9   5   -1.27    1.20 
  -6  -9  -5    6.31    1.43 
  -6  -9  -5    4.11    1.21 
  -6  -9  -5    4.43    1.31 
   6   9   5    6.70    1.54 
  -7  -9  -5    0.68    1.18 
  -7  -9  -5    0.60    1.14 
  -7  -9  -5    1.48    1.25 
   7   9   5    0.37    1.32 
  -8  -9  -5   -0.21    1.19 
  -8  -9  -5   -0.02    1.06 
  -8  -9  -5   -0.08    1.26 
   8   9   5    1.33    1.53 
  -9  -9  -5    3.80    1.44 
  -9  -9  -5    4.49    1.67 
   9   9   5    3.63    1.71 
   9   9   5    2.72    2.38 
   1 -10  -5   11.86    2.17 
   1 -10  -5    8.31    1.74 
   1 -10  -5   12.73    2.26 
   0 -10  -5    1.28    1.21 
   0 -10  -5   -1.19    1.05 
   0 -10  -5   -0.28    1.05 
  -1 -10  -5    1.49    1.21 
  -1 -10  -5    1.08    1.10 
  -1 -10  -5    3.08    1.21 
  -2 -10  -5   -0.03    1.12 
  -2 -10  -5   -1.34    1.01 
  -2 -10  -5    0.35    1.06 
  -2 -10  -5    1.30    1.06 
   2  10   5   -0.34    0.97 
  -3 -10  -5    5.43    1.43 
  -3 -10  -5    6.28    1.23 
  -3 -10  -5   10.68    2.00 
  -3 -10  -5    2.34    1.24 
   3  10   5    4.35    1.42 
  -4 -10  -5    2.09    1.37 
  -4 -10  -5    1.54    1.01 
  -4 -10  -5    2.14    1.29 
   4  10   5    3.16    1.47 
  -5 -10  -5   -1.44    1.12 
  -5 -10  -5   -0.02    1.07 
  -5 -10  -5    0.69    1.21 
   5  10   5   -1.70    1.37 
  -6 -10  -5    0.74    1.21 
  -6 -10  -5    1.05    1.15 
  -6 -10  -5    0.97    1.26 
   6  10   5    1.66    1.54 
  -7 -10  -5    3.37    1.42 
  -7 -10  -5    2.02    1.27 
   7  10   5   -1.26    1.46 
  -8 -10  -5    3.03    1.53 
  -8 -10  -5   -1.66    1.16 
   8  10   5    1.34    1.67 
  -1 -11  -5    0.60    1.26 
  -1 -11  -5   -0.96    1.07 
  -2 -11  -5    0.32    1.11 
  -2 -11  -5   -0.01    1.21 
  -3 -11  -5    1.97    1.08 
  -3 -11  -5    1.99    1.45 
   3  11   5    2.81    1.43 
  -4 -11  -5    5.23    1.73 
  -4 -11  -5    4.49    1.22 
   4  11   5    0.71    1.44 
  -5 -11  -5    2.03    1.17 
  -5 -11  -5    3.75    1.71 
   5  11   5    3.66    1.62 
  -6 -11  -5    3.06    1.67 
  -6 -11  -5    5.33    1.47 
   6  11   5    3.56    1.73 
  -7 -11  -5    6.36    1.58 
  -7 -11  -5    5.57    1.62 
   7  11   5    6.11    1.86 
   3  10  -6    8.69    1.62 
   3  10  -6    7.99    1.60 
   2  10  -6    6.04    1.46 
   2  10  -6    3.42    1.36 
   1  10  -6    0.76    1.19 
   1  10  -6    3.44    1.33 
   6   9  -6    2.87    1.52 
   6   9  -6    0.30    1.13 
   5   9  -6   28.38    2.89 
   5   9  -6   21.48    2.16 
   4   9  -6    7.49    1.60 
   4   9  -6    8.99    1.52 
   3   9  -6    0.23    1.21 
   3   9  -6   -1.31    1.01 
   2   9  -6   -2.09    1.02 
   2   9  -6   -1.17    1.11 
  -2  -9   6    0.32    0.99 
   1   9  -6    2.15    1.11 
   1   9  -6   -0.54    1.11 
   0   9  -6    0.16    1.03 
   0   9  -6   -0.75    1.06 
   0   9  -6    1.20    1.02 
   0  -9   6   -0.01    1.26 
  -1   9  -6   -0.29    1.03 
  -1   9  -6    1.32    1.04 
  -1   9  -6    0.24    0.97 
   1  -9   6   -2.55    1.34 
  -2   9  -6    4.56    1.26 
  -2   9  -6    4.04    1.14 
   2  -9   6    2.39    1.61 
   7   8  -6   -1.72    1.38 
   6   8  -6    2.17    1.13 
   6   8  -6    2.21    1.45 
   5   8  -6    7.35    1.58 
   5   8  -6    4.93    1.28 
   4   8  -6    7.12    1.32 
   4   8  -6    7.24    1.43 
   3   8  -6    1.17    1.18 
   3   8  -6    4.89    1.19 
   3   8  -6    3.51    0.81 
   2   8  -6    8.42    1.45 
   2   8  -6    7.62    1.32 
  -2  -8   6    7.63    1.27 
   1   8  -6    7.90    1.37 
   1   8  -6    9.36    1.26 
   1   8  -6   11.17    1.69 
  -1  -8   6   10.00    1.21 
   0   8  -6    7.18    1.28 
   0   8  -6   11.09    1.80 
   0   8  -6    7.84    1.31 
   0  -8   6    6.42    1.59 
  -1   8  -6    2.51    1.03 
  -1   8  -6    3.53    1.14 
  -1   8  -6    3.06    1.14 
   1  -8   6    1.75    1.29 
  -2   8  -6    3.17    1.08 
  -2   8  -6    4.72    1.31 
  -2   8  -6    3.94    1.07 
   2  -8   6    3.28    1.51 
  -3   8  -6    2.12    0.94 
  -3   8  -6    2.87    1.21 
   3  -8   6    3.02    1.56 
  -4   8  -6    2.08    1.17 
  -4   8  -6    1.08    0.91 
   4  -8   6    1.05    1.57 
   8   7  -6   -0.03    1.53 
   8   7  -6    3.24    1.54 
   7   7  -6    3.28    1.42 
   6   7  -6    0.54    1.24 
   6   7  -6    4.01    1.16 
   5   7  -6    0.35    0.96 
   5   7  -6    1.09    1.12 
   4   7  -6    3.71    1.17 
   4   7  -6    4.06    1.05 
   3   7  -6   36.33    2.17 
   3   7  -6   35.39    2.57 
   3   7  -6   35.78    1.81 
   2   7  -6    4.99    0.89 
   2   7  -6    5.11    1.16 
   2   7  -6    4.16    0.99 
  -2  -7   6    5.69    0.97 
   1   7  -6    7.08    1.02 
   1   7  -6    6.08    1.17 
   1   7  -6    5.30    1.02 
  -1  -7   6    5.59    0.85 
   0   7  -6    3.94    0.97 
   0   7  -6    2.37    0.86 
   0   7  -6    3.52    1.10 
   0  -7   6    2.40    0.66 
   0  -7   6    1.77    1.14 
  -1   7  -6    1.68    0.89 
  -1   7  -6    1.04    0.83 
  -1   7  -6    1.97    0.95 
   1  -7   6   -0.39    0.65 
   1  -7   6    1.13    1.10 
  -2   7  -6    1.25    0.84 
  -2   7  -6    0.37    0.92 
  -2   7  -6   -0.30    0.86 
   2  -7   6    0.38    1.10 
  -3   7  -6   12.95    1.86 
  -3   7  -6   12.28    1.53 
  -3   7  -6   11.58    1.48 
   3  -7   6   13.13    1.95 
  -4   7  -6   -0.16    1.04 
  -4   7  -6    0.58    0.78 
   4  -7   6    0.25    1.36 
  -5   7  -6    1.10    1.03 
  -5   7  -6    0.53    0.75 
   5  -7   6   -1.73    1.49 
   8   6  -6    0.18    1.30 
   8   6  -6    0.34    1.57 
   7   6  -6    0.84    1.24 
   6   6  -6    9.59    1.42 
   6   6  -6    7.62    1.48 
   5   6  -6    2.96    0.99 
   5   6  -6   -0.23    1.06 
   4   6  -6    0.41    0.95 
   4   6  -6    2.69    0.91 
   4   6  -6    2.01    0.52 
   3   6  -6   24.67    2.11 
   3   6  -6   30.86    1.88 
   3   6  -6   28.40    1.50 
   2   6  -6    1.38    0.62 
   2   6  -6    1.20    0.76 
   2   6  -6    2.16    0.91 
   1   6  -6   65.39    3.02 
   1   6  -6   69.07    2.80 
   1   6  -6   66.95    2.90 
  -1  -6   6   65.75    2.62 
   0   6  -6   22.63    1.71 
   0   6  -6   27.21    1.95 
   0   6  -6   26.14    1.72 
   0  -6   6   25.43    1.38 
   0  -6   6   24.72    2.25 
  -1   6  -6    7.34    1.03 
  -1   6  -6    7.32    1.05 
   1  -6   6    4.30    1.30 
   1  -6   6    4.29    0.93 
  -2   6  -6   12.85    1.59 
  -2   6  -6    9.93    1.32 
   2  -6   6   15.51    1.26 
   2  -6   6   11.45    2.09 
  -3   6  -6    0.90    0.71 
  -3   6  -6    2.77    0.94 
   3  -6   6    1.29    1.15 
  -4   6  -6    1.25    0.93 
  -4   6  -6    3.10    0.86 
   4  -6   6    2.57    1.28 
  -5   6  -6    0.61    0.94 
  -5   6  -6    0.38    0.74 
   5  -6   6    1.33    1.34 
  -6   6  -6   -0.41    0.65 
  -6   6  -6    0.92    1.06 
   6  -6   6   -0.79    1.30 
   6  -6   6    2.73    1.66 
   9   5  -6    1.14    1.65 
   9   5  -6    1.82    1.43 
   8   5  -6   10.10    2.00 
   8   5  -6    9.47    1.65 
   7   5  -6   -0.22    1.14 
   6   5  -6    3.50    0.84 
   6   5  -6    4.65    1.20 
   5   5  -6    7.94    1.23 
   5   5  -6    9.86    1.27 
   4   5  -6   -0.01    0.90 
   4   5  -6    0.68    0.56 
   4   5  -6    2.22    0.47 
   4   5  -6    1.77    0.77 
   3   5  -6   -0.12    0.76 
   3   5  -6   -0.12    0.60 
   3   5  -6    0.82    0.49 
   2   5  -6    4.93    0.93 
   2   5  -6    4.54    0.71 
   2   5  -6    4.35    0.82 
   1   5  -6  153.79    5.25 
   1   5  -6  150.68    5.10 
   0   5  -6    1.25    0.62 
   0   5  -6    1.18    0.63 
   0  -5   6    1.29    0.48 
   0  -5   6    1.00    0.81 
  -1   5  -6    0.76    0.60 
  -1   5  -6    0.43    0.53 
   1  -5   6   -0.76    0.75 
  -2   5  -6    4.33    0.77 
  -2   5  -6    3.60    0.81 
   2  -5   6    3.92    1.12 
  -3   5  -6    1.46    0.75 
  -3   5  -6    0.73    0.59 
   3  -5   6    2.15    1.14 
  -4   5  -6   21.63    1.58 
  -4   5  -6   23.46    1.88 
   4  -5   6   24.87    2.49 
   4  -5   6   21.47    1.29 
  -5   5  -6    0.89    0.64 
  -5   5  -6    0.51    0.85 
   5  -5   6   -0.12    1.09 
   5  -5   6   -0.71    1.10 
  -6   5  -6   -0.19    0.86 
  -6   5  -6    0.11    0.66 
   6  -5   6   -0.61    1.23 
   6  -5   6    1.72    1.35 
  -7   5  -6    2.49    1.25 
   7  -5   6    5.88    1.71 
   7  -5   6    1.61    1.52 
   9   4  -6   10.35    1.68 
   9   4  -6    5.67    1.94 
   8   4  -6   55.56    3.89 
   8   4  -6   48.11    3.01 
   7   4  -6    1.51    0.64 
   7   4  -6   -0.01    1.33 
   7   4  -6   -0.02    0.98 
   6   4  -6    3.40    1.05 
   6   4  -6    6.53    1.03 
   5   4  -6    9.87    0.81 
   5   4  -6   12.90    1.71 
   5   4  -6   13.82    1.13 
   4   4  -6    0.32    0.40 
   4   4  -6    0.45    0.75 
   4   4  -6    1.03    0.62 
   4   4  -6   -0.61    0.35 
   3   4  -6   12.49    0.91 
   3   4  -6    9.69    1.47 
   3   4  -6   11.34    1.17 
   3   4  -6    9.94    0.82 
   2   4  -6    3.59    0.74 
   2   4  -6    6.66    0.81 
   1   4  -6   37.64    1.72 
   1   4  -6   38.03    1.87 
   0   4  -6    4.66    0.72 
   0   4  -6    3.87    0.75 
  -1   4  -6   11.63    1.14 
  -1   4  -6   10.32    1.05 
   1  -4   6   11.44    1.48 
  -2   4  -6   11.04    1.09 
  -2   4  -6   10.55    1.11 
   2  -4   6    8.51    1.69 
  -3   4  -6    9.20    1.06 
  -3   4  -6    6.87    1.14 
   3  -4   6    9.63    1.71 
  -4   4  -6   31.63    1.96 
  -4   4  -6   28.10    1.58 
   4  -4   6   31.33    2.42 
   4  -4   6   30.81    2.46 
  -5   4  -6    0.58    0.57 
  -5   4  -6   -0.24    0.72 
   5  -4   6   -1.53    0.95 
   5  -4   6    0.09    1.03 
   5  -4   6   -0.16    0.31 
  -6   4  -6    4.21    0.77 
  -6   4  -6    4.63    1.13 
   6  -4   6    2.87    1.30 
   6  -4   6    4.18    1.41 
  -7   4  -6   -0.79    0.84 
   7  -4   6   -1.36    1.32 
   7  -4   6   -0.91    1.34 
  -8   4  -6    4.00    1.28 
   8  -4   6    5.13    1.97 
   8  -4   6    4.27    1.65 
   9   3  -6    1.52    1.64 
   8   3  -6    2.84    1.07 
   8   3  -6    3.11    1.63 
   7   3  -6   46.26    1.96 
   7   3  -6   39.42    3.22 
   7   3  -6   44.63    2.55 
   6   3  -6    2.21    0.89 
   6   3  -6    1.46    0.54 
   5   3  -6    0.70    0.40 
   5   3  -6    1.49    0.52 
   5   3  -6   -0.05    0.81 
   4   3  -6    9.66    0.95 
   4   3  -6    8.78    1.42 
   4   3  -6    7.60    0.74 
   3   3  -6   62.63    2.24 
   3   3  -6   62.61    2.48 
   2   3  -6   10.71    0.83 
   2   3  -6   12.52    1.06 
   1   3  -6   17.16    1.05 
   1   3  -6   15.34    1.13 
   0   3  -6   10.35    0.99 
   0   3  -6   11.64    0.98 
  -1   3  -6    7.63    0.61 
  -1   3  -6    6.26    0.87 
  -1   3  -6    7.14    0.94 
   1  -3   6    5.75    0.90 
  -2   3  -6    0.95    0.51 
  -2   3  -6    1.48    0.55 
  -2   3  -6    1.36    0.40 
   2  -3   6    0.38    0.73 
  -3   3  -6    3.90    0.66 
  -3   3  -6    5.42    0.79 
  -3   3  -6    5.70    0.84 
   3  -3   6    4.93    1.04 
   3  -3   6    4.75    0.98 
  -4   3  -6    5.99    0.89 
  -4   3  -6    5.59    0.85 
   4  -3   6    5.39    1.14 
   4  -3   6    5.68    0.83 
   4  -3   6    6.65    1.15 
  -5   3  -6    1.40    0.70 
  -5   3  -6    0.23    0.47 
   5  -3   6    0.71    0.33 
   5  -3   6    0.14    0.91 
   5  -3   6    0.87    0.92 
  -6   3  -6    8.04    0.99 
  -6   3  -6    7.31    1.14 
   6  -3   6    8.67    1.60 
   6  -3   6    8.47    0.77 
   6  -3   6    7.94    1.45 
  -7   3  -6    1.14    0.91 
  -7   3  -6    0.71    0.44 
   7  -3   6    3.00    1.48 
   7  -3   6    0.69    1.19 
  -8   3  -6    5.38    1.32 
   8  -3   6    5.81    1.53 
   8  -3   6    5.11    1.80 
  -9   3  -6   -0.57    1.07 
   9  -3   6    1.04    1.49 
   9  -3   6    0.98    1.85 
   9   2  -6    0.66    1.60 
   8   2  -6    0.74    1.37 
   7   2  -6   24.59    1.83 
   7   2  -6   29.15    2.71 
   6   2  -6   26.70    2.53 
   6   2  -6   26.59    1.35 
   6   2  -6   25.03    1.77 
   5   2  -6    7.74    1.30 
   5   2  -6    9.73    0.92 
   5   2  -6   12.27    0.84 
   4   2  -6    2.41    0.45 
   4   2  -6    2.05    0.53 
   4   2  -6    1.38    0.77 
   3   2  -6   17.40    0.96 
   3   2  -6   16.23    1.11 
   2   2  -6   57.60    2.28 
   2   2  -6   57.53    2.12 
   1   2  -6    9.21    0.93 
   1   2  -6    9.52    0.76 
   1   2  -6    7.10    0.55 
   0   2  -6    2.43    0.50 
   0   2  -6    2.20    0.32 
   0   2  -6    1.86    0.51 
  -1   2  -6   -0.31    0.40 
  -1   2  -6    0.25    0.40 
  -1   2  -6    0.66    0.31 
   1  -2   6   -0.42    0.71 
  -2   2  -6    0.02    0.36 
  -2   2  -6   -0.26    0.50 
  -2   2  -6   -0.30    0.50 
   2  -2   6   -0.33    0.55 
  -3   2  -6    8.42    0.91 
  -3   2  -6   11.73    0.94 
  -3   2  -6    9.38    1.03 
   3  -2   6   10.78    1.36 
   3  -2   6    8.03    1.41 
  -4   2  -6   12.79    1.20 
  -4   2  -6   10.75    0.95 
  -4   2  -6   13.04    1.10 
   4  -2   6   12.34    0.99 
   4  -2   6   12.54    1.46 
   4  -2   6   10.95    1.58 
  -5   2  -6    4.40    0.65 
  -5   2  -6    3.29    0.74 
  -5   2  -6    3.29    0.74 
   5  -2   6    4.03    0.96 
   5  -2   6    2.44    1.00 
   5  -2   6    3.50    0.70 
  -6   2  -6   14.54    1.56 
  -6   2  -6   14.62    1.55 
  -6   2  -6   13.37    0.99 
   6  -2   6   12.32    2.01 
   6  -2   6   13.58    1.78 
  -7   2  -6    0.52    0.37 
  -7   2  -6    1.36    0.93 
   7  -2   6    0.19    0.95 
   7  -2   6    1.77    1.28 
  -8   2  -6   -0.02    0.84 
   8  -2   6   -0.45    1.13 
   8  -2   6    0.14    1.54 
  -9   2  -6   -2.02    0.91 
   9  -2   6    0.21    1.33 
   9  -2   6    4.74    1.97 
   9   1  -6    0.13    1.51 
   8   1  -6   -0.54    1.30 
   7   1  -6    3.60    0.83 
   7   1  -6    3.58    1.30 
   6   1  -6    0.76    1.05 
   6   1  -6    1.36    0.65 
   6   1  -6    0.37    0.51 
   5   1  -6   30.39    1.73 
   5   1  -6   29.02    1.43 
   4   1  -6    4.52    0.79 
   4   1  -6    5.65    0.73 
   3   1  -6    3.05    0.55 
   2   1  -6    0.49    0.32 
   1   1  -6   56.51    2.17 
   1   1  -6   59.25    2.07 
   1   1  -6   60.51    2.09 
   0   1  -6   30.21    1.24 
   0   1  -6   32.29    1.44 
  -1   1  -6  179.13    5.69 
  -1   1  -6  175.01    5.53 
  -2   1  -6   11.30    0.96 
  -2   1  -6   13.01    0.94 
   2  -1   6   11.68    1.13 
  -3   1  -6    0.32    0.49 
  -3   1  -6    0.92    0.49 
  -3   1  -6    0.41    0.49 
   3  -1   6    0.14    0.54 
   3  -1   6    0.67    0.84 
   3  -1   6    0.08    0.37 
  -4   1  -6   -0.14    0.44 
  -4   1  -6   -0.08    0.39 
  -4   1  -6   -0.21    0.46 
   4  -1   6    0.51    0.75 
   4  -1   6    0.37    0.50 
   4  -1   6    0.44    0.67 
  -5   1  -6    0.15    0.52 
  -5   1  -6    0.96    0.43 
  -5   1  -6    0.79    0.58 
   5  -1   6    0.83    0.59 
   5  -1   6    1.06    0.85 
   5  -1   6    1.99    0.74 
  -6   1  -6   22.89    1.22 
  -6   1  -6   21.75    1.67 
  -6   1  -6   24.49    1.68 
   6  -1   6   24.47    1.87 
   6  -1   6   23.29    2.17 
  -7   1  -6   19.27    1.76 
  -7   1  -6   19.91    1.05 
  -7   1  -6   21.77    1.79 
   7  -1   6   18.64    2.59 
   7  -1   6   18.75    1.93 
  -8   1  -6    5.80    1.13 
   8  -1   6    3.86    1.75 
   8  -1   6    6.17    1.33 
  -9   1  -6    1.60    1.06 
   9  -1   6    0.47    1.81 
   9  -1   6    1.36    1.26 
 -10   1  -6    1.09    1.05 
  10  -1   6    2.11    2.15 
  10  -1   6    0.46    1.36 
   9   0  -6    1.43    1.58 
   9   0  -6    1.55    1.57 
   8   0  -6   -0.42    1.33 
   8   0  -6   -0.52    1.28 
   7   0  -6   -0.58    0.56 
   7   0  -6    0.27    1.01 
   6   0  -6   -0.19    0.86 
   6   0  -6    0.10    0.47 
   6   0  -6    0.49    0.54 
   5   0  -6   47.05    2.10 
   5   0  -6   45.35    2.53 
   4   0  -6    9.24    1.02 
   3   0  -6    9.90    1.21 
   2   0  -6    0.89    0.61 
   1   0  -6   34.42    1.47 
   0   0  -6   53.80    1.94 
   0   0  -6   54.44    1.97 
   0   0  -6   53.74    2.06 
  -1   0  -6   20.39    1.04 
  -1   0  -6   20.06    1.13 
  -1   0  -6   21.10    0.96 
   1   0   6   20.48    0.97 
  -2   0  -6    4.62    0.60 
  -2   0  -6    3.98    0.58 
  -2   0  -6    4.33    0.72 
  -2   0  -6    3.21    0.56 
   2   0   6    3.59    0.57 
  -3   0  -6    0.88    0.45 
  -3   0  -6    0.23    0.44 
  -3   0  -6    0.39    0.48 
   3   0   6    1.01    0.60 
   3   0   6    1.20    0.54 
   3   0   6    0.02    0.68 
  -4   0  -6   20.01    1.30 
  -4   0  -6   18.21    1.26 
   4   0   6   19.91    1.68 
   4   0   6   19.86    1.20 
   4   0   6   20.58    1.30 
  -5   0  -6   98.19    3.60 
  -5   0  -6   93.73    3.49 
   5   0   6   94.47    3.49 
   5   0   6   95.06    3.99 
   5   0   6   94.14    3.45 
  -6   0  -6  106.40    3.52 
  -6   0  -6  103.31    3.95 
  -6   0  -6  101.42    3.81 
   6   0   6  105.28    3.93 
   6   0   6  101.91    4.48 
  -7   0  -6   10.14    1.40 
  -7   0  -6    6.25    0.67 
  -7   0  -6    7.57    1.10 
   7   0   6    7.85    1.54 
   7   0   6    5.82    1.58 
  -8   0  -6    3.95    1.02 
  -8   0  -6    2.82    0.99 
   8   0   6    1.71    1.56 
   8   0   6    2.15    1.02 
  -9   0  -6    0.53    0.99 
  -9   0  -6   -0.09    1.02 
   9   0   6   -0.21    1.77 
   9   0   6   -0.06    1.14 
 -10   0  -6   -0.65    0.97 
  10   0   6    0.52    1.26 
  10   0   6    2.95    2.15 
   8  -1  -6   -0.34    1.40 
   8  -1  -6    2.24    1.32 
   7  -1  -6    1.05    0.97 
   7  -1  -6   -1.87    1.18 
   6  -1  -6    0.04    0.56 
   6  -1  -6    0.59    1.04 
   6  -1  -6   -0.22    0.74 
   5  -1  -6   -0.04    0.49 
   5  -1  -6   -0.51    0.62 
   4  -1  -6    0.33    0.59 
   3  -1  -6   41.94    2.18 
   2  -1  -6   26.34    1.37 
   1  -1  -6  103.38    3.55 
   0  -1  -6   38.32    1.57 
   0  -1  -6   36.63    1.49 
   0  -1  -6   39.54    1.60 
  -1  -1  -6   27.07    1.32 
  -1  -1  -6   27.59    1.12 
  -1  -1  -6   27.56    1.22 
  -1  -1  -6   27.12    1.27 
   1   1   6   27.10    1.27 
  -2  -1  -6   46.83    1.77 
  -2  -1  -6   44.32    1.58 
  -2  -1  -6   44.44    1.84 
  -2  -1  -6   42.88    1.79 
   2   1   6   46.88    1.78 
  -3  -1  -6   38.70    1.46 
  -3  -1  -6   41.36    1.73 
  -3  -1  -6   36.06    1.71 
  -3  -1  -6   40.92    1.78 
   3   1   6   40.55    2.07 
   3   1   6   38.00    1.69 
  -4  -1  -6    5.38    0.95 
  -4  -1  -6    4.84    0.70 
  -4  -1  -6    4.89    0.90 
   4   1   6    4.09    0.98 
   4   1   6    4.22    0.68 
  -5  -1  -6   14.99    1.27 
  -5  -1  -6   13.71    1.16 
   5   1   6   10.97    1.96 
   5   1   6   14.30    1.12 
   5   1   6   14.22    1.20 
  -6  -1  -6   13.98    1.28 
  -6  -1  -6   10.27    1.32 
   6   1   6   13.77    1.29 
   6   1   6   15.11    2.28 
  -7  -1  -6    0.02    0.65 
  -7  -1  -6   -0.68    0.64 
   7   1   6   -0.08    1.25 
   7   1   6    0.07    0.71 
  -8  -1  -6    1.95    0.92 
  -8  -1  -6    1.31    0.87 
   8   1   6    0.87    1.47 
   8   1   6    0.48    0.89 
  -9  -1  -6    1.10    1.01 
  -9  -1  -6    0.96    0.95 
   9   1   6    0.39    1.71 
   9   1   6    0.21    1.01 
 -10  -1  -6    9.58    1.37 
 -10  -1  -6    7.59    1.65 
  10   1   6    9.37    1.62 
  10   1   6    8.58    2.21 
   8  -2  -6    0.97    1.61 
   7  -2  -6   -0.15    1.24 
   6  -2  -6    1.41    0.81 
   6  -2  -6    1.26    1.12 
   5  -2  -6    1.41    0.68 
   5  -2  -6    0.23    0.86 
   5  -2  -6    1.18    0.56 
   4  -2  -6   -0.29    0.67 
   4  -2  -6    0.14    0.52 
   3  -2  -6    0.16    0.43 
   3  -2  -6   -0.61    0.55 
   3  -2  -6    0.83    0.57 
   2  -2  -6  109.25    3.86 
   2  -2  -6  106.89    3.83 
   1  -2  -6    0.55    0.41 
   1  -2  -6    1.36    0.44 
   1  -2  -6    1.40    0.49 
   0  -2  -6   42.97    1.76 
   0  -2  -6   45.54    1.69 
   0  -2  -6   44.52    1.84 
   0  -2  -6   41.83    1.83 
  -1  -2  -6    0.73    0.40 
  -1  -2  -6    0.74    0.41 
  -1  -2  -6    0.45    0.33 
   1   2   6    0.94    0.45 
  -2  -2  -6   68.42    2.60 
  -2  -2  -6   70.22    2.59 
  -2  -2  -6   71.14    2.62 
  -2  -2  -6   71.41    2.46 
   2   2   6   74.27    2.62 
  -3  -2  -6   56.89    2.18 
  -3  -2  -6   56.47    2.23 
  -3  -2  -6   55.22    2.07 
  -3  -2  -6   54.39    2.20 
   3   2   6   57.45    2.24 
   3   2   6   53.79    2.43 
  -4  -2  -6   51.43    2.21 
  -4  -2  -6   52.91    2.27 
  -4  -2  -6   52.41    2.18 
  -4  -2  -6   53.75    2.03 
   4   2   6   50.97    2.17 
   4   2   6   55.60    2.60 
  -5  -2  -6    8.16    1.08 
  -5  -2  -6    6.58    1.08 
  -5  -2  -6   10.24    1.01 
   5   2   6    6.43    1.29 
   5   2   6    7.79    1.05 
  -6  -2  -6    0.27    0.63 
  -6  -2  -6    0.19    0.54 
   6   2   6   -0.32    0.48 
   6   2   6    0.07    1.19 
  -7  -2  -6    3.50    0.89 
  -7  -2  -6    2.98    0.75 
   7   2   6    1.72    0.71 
   7   2   6    2.60    1.28 
  -8  -2  -6    0.69    0.86 
  -8  -2  -6    3.23    0.91 
   8   2   6    1.47    1.46 
   8   2   6    2.60    0.95 
  -9  -2  -6    4.43    1.09 
  -9  -2  -6    6.07    1.29 
   9   2   6    7.09    1.95 
   9   2   6    4.00    1.10 
 -10  -2  -6    0.68    1.17 
 -10  -2  -6    0.09    0.92 
  10   2   6    1.03    1.21 
  10   2   6   -0.38    1.90 
 -11  -2  -6   -2.05    1.30 
  11   2   6    0.00    2.08 
  11   2   6   -0.73    1.19 
   7  -3  -6   -0.75    1.39 
   6  -3  -6    1.11    0.86 
   6  -3  -6   -0.24    1.17 
   5  -3  -6    9.97    1.38 
   5  -3  -6   10.45    2.00 
   4  -3  -6    1.53    0.63 
   4  -3  -6    2.90    0.90 
   4  -3  -6    2.44    0.86 
   3  -3  -6   15.70    1.19 
   3  -3  -6   16.00    1.42 
   3  -3  -6   16.75    1.48 
   2  -3  -6    4.80    0.88 
   2  -3  -6    2.97    0.72 
   2  -3  -6    6.44    0.80 
   2  -3  -6    3.67    0.69 
   1  -3  -6   15.12    1.19 
   1  -3  -6   14.76    1.12 
   1  -3  -6   13.53    1.07 
   0  -3  -6    2.97    0.54 
   0  -3  -6    1.87    0.48 
   0  -3  -6    2.89    0.62 
   0  -3  -6    2.46    0.64 
  -1  -3  -6   20.23    1.10 
  -1  -3  -6   19.02    1.19 
  -1  -3  -6   17.97    1.16 
   1   3   6   19.55    1.29 
  -2  -3  -6    5.88    0.85 
  -2  -3  -6    4.93    0.79 
  -2  -3  -6    6.56    0.80 
   2   3   6    5.57    0.94 
  -3  -3  -6  128.52    4.26 
  -3  -3  -6  128.14    4.38 
  -3  -3  -6  127.93    4.39 
   3   3   6  133.45    4.42 
   3   3   6  125.39    4.49 
  -4  -3  -6    8.62    0.90 
  -4  -3  -6    7.94    0.87 
  -4  -3  -6    6.18    1.06 
  -4  -3  -6    7.98    1.03 
   4   3   6   10.03    1.03 
   4   3   6    6.75    1.05 
   4   3   6    8.97    1.33 
  -5  -3  -6    2.51    0.74 
  -5  -3  -6    2.58    0.64 
  -5  -3  -6    2.16    0.71 
  -5  -3  -6    2.43    0.58 
   5   3   6    2.41    0.99 
   5   3   6    1.74    0.83 
  -6  -3  -6   -0.35    0.49 
  -6  -3  -6    0.40    0.69 
  -6  -3  -6   -0.17    0.64 
   6   3   6   -1.08    1.21 
   6   3   6   -0.86    0.73 
  -7  -3  -6    0.68    0.76 
  -7  -3  -6    0.32    0.61 
   7   3   6    1.63    1.35 
   7   3   6    0.64    0.58 
   7   3   6   -0.18    0.84 
  -8  -3  -6   -0.69    0.79 
  -8  -3  -6   -0.46    0.69 
   8   3   6    1.47    1.50 
   8   3   6   -0.13    0.66 
   8   3   6   -0.02    0.97 
  -9  -3  -6    0.28    0.97 
  -9  -3  -6    0.42    0.82 
   9   3   6    0.24    0.73 
   9   3   6    1.99    1.70 
   9   3   6   -1.37    1.02 
 -10  -3  -6    0.17    1.14 
 -10  -3  -6    0.43    0.94 
  10   3   6   -0.55    1.04 
  10   3   6    1.07    2.06 
  10   3   6   -0.27    1.22 
 -11  -3  -6    1.69    1.33 
  11   3   6   -0.11    2.11 
  11   3   6    1.31    1.32 
   7  -4  -6    0.47    1.37 
   6  -4  -6   -1.66    0.90 
   6  -4  -6    1.47    0.91 
   6  -4  -6    1.07    1.22 
   5  -4  -6    4.90    1.01 
   5  -4  -6    4.91    1.18 
   5  -4  -6    5.68    1.25 
   4  -4  -6    0.75    0.83 
   4  -4  -6    0.11    0.80 
   4  -4  -6    1.32    0.82 
   4  -4  -6    0.08    0.58 
   3  -4  -6    1.06    0.77 
   3  -4  -6    1.22    0.68 
   3  -4  -6    0.44    0.78 
   3  -4  -6   -0.67    0.42 
   2  -4  -6   -0.12    0.55 
   2  -4  -6    0.14    0.63 
   2  -4  -6   -0.60    0.61 
   2  -4  -6   -0.09    0.39 
   1  -4  -6    4.77    0.94 
   1  -4  -6    5.21    0.64 
   1  -4  -6    6.09    0.99 
   1  -4  -6    5.26    0.89 
   0  -4  -6    4.29    0.77 
   0  -4  -6    4.75    0.85 
   0  -4  -6    3.83    0.61 
  -1  -4  -6    3.94    0.74 
  -1  -4  -6    2.79    0.59 
  -1  -4  -6    7.35    0.89 
  -2  -4  -6   13.49    1.22 
  -2  -4  -6   14.18    1.17 
  -2  -4  -6   15.72    1.17 
  -3  -4  -6    1.23    0.60 
  -3  -4  -6    2.02    0.60 
  -3  -4  -6    1.64    0.57 
   3   4   6    2.22    0.66 
   3   4   6    1.42    0.75 
  -4  -4  -6   16.62    1.22 
  -4  -4  -6   18.61    1.17 
  -4  -4  -6   18.82    1.36 
  -4  -4  -6   18.61    1.31 
   4   4   6   16.28    1.57 
   4   4   6   17.99    1.68 
  -5  -4  -6    5.20    0.69 
  -5  -4  -6    5.16    0.86 
  -5  -4  -6    5.26    0.88 
  -5  -4  -6    4.41    0.76 
   5   4   6    4.54    0.94 
   5   4   6    3.41    1.03 
  -6  -4  -6   10.59    1.18 
  -6  -4  -6    9.27    1.04 
  -6  -4  -6   12.32    1.46 
  -6  -4  -6   10.16    1.40 
   6   4   6    6.72    1.17 
   6   4   6   10.86    1.95 
  -7  -4  -6   19.07    1.37 
  -7  -4  -6   17.53    1.70 
  -7  -4  -6   20.55    1.71 
   7   4   6   22.17    2.47 
   7   4   6   19.83    1.98 
  -8  -4  -6   13.82    1.43 
  -8  -4  -6   13.17    1.73 
   8   4   6   14.93    1.35 
   8   4   6   17.09    2.75 
   8   4   6   16.80    2.07 
  -9  -4  -6    3.99    1.26 
  -9  -4  -6    3.36    0.82 
   9   4   6    2.17    1.24 
   9   4   6    5.28    1.85 
   9   4   6    3.07    0.78 
 -10  -4  -6    0.79    1.23 
  10   4   6   -1.98    1.91 
  10   4   6    1.59    1.31 
  10   4   6    0.42    1.29 
 -11  -4  -6    0.95    1.43 
  11   4   6    4.17    1.48 
  11   4   6    3.79    2.21 
   6  -5  -6    2.75    1.55 
   6  -5  -6    2.92    1.27 
   5  -5  -6   15.59    1.91 
   5  -5  -6   12.44    1.92 
   5  -5  -6   16.02    2.46 
   4  -5  -6    8.87    1.29 
   4  -5  -6   11.67    1.66 
   4  -5  -6   10.93    1.66 
   4  -5  -6    8.34    1.40 
   3  -5  -6   22.79    1.86 
   3  -5  -6   26.97    1.96 
   3  -5  -6   18.64    1.82 
   3  -5  -6   17.64    1.32 
   2  -5  -6    7.18    1.12 
   2  -5  -6   13.02    1.51 
   2  -5  -6    7.30    1.29 
   1  -5  -6   17.29    1.53 
   1  -5  -6   19.65    1.51 
   1  -5  -6   19.02    1.53 
   0  -5  -6    5.08    0.92 
   0  -5  -6    5.16    0.88 
   0  -5  -6    6.36    1.01 
  -1  -5  -6    2.09    0.66 
  -1  -5  -6    2.52    0.74 
  -1  -5  -6    5.67    0.91 
  -1  -5  -6    1.44    0.67 
  -2  -5  -6    0.50    0.53 
  -2  -5  -6    0.83    0.60 
  -2  -5  -6    0.41    0.64 
  -3  -5  -6    4.80    0.87 
  -3  -5  -6    4.44    0.62 
  -3  -5  -6    3.73    0.75 
  -3  -5  -6    7.63    1.07 
   3   5   6    4.99    0.98 
  -4  -5  -6   13.13    1.32 
  -4  -5  -6   12.33    1.19 
  -4  -5  -6   14.03    1.24 
   4   5   6   10.78    1.41 
   4   5   6   11.35    1.59 
  -5  -5  -6    6.01    0.94 
  -5  -5  -6    5.34    0.91 
  -5  -5  -6    6.11    0.94 
  -5  -5  -6    5.70    1.00 
   5   5   6    5.94    1.19 
   5   5   6    4.14    1.05 
  -6  -5  -6    4.45    0.98 
  -6  -5  -6    3.69    0.85 
  -6  -5  -6    4.36    0.69 
  -6  -5  -6    3.97    0.95 
   6   5   6    4.89    1.08 
   6   5   6    4.59    1.26 
  -7  -5  -6    1.35    0.78 
  -7  -5  -6    1.16    0.59 
  -7  -5  -6    0.40    0.83 
  -7  -5  -6    2.21    0.94 
   7   5   6    0.09    1.29 
   7   5   6   -0.96    0.91 
  -8  -5  -6    0.15    0.59 
  -8  -5  -6   -0.33    1.00 
   8   5   6   -0.18    1.47 
   8   5   6   -0.57    1.09 
  -9  -5  -6    0.77    1.15 
  -9  -5  -6    0.36    0.56 
   9   5   6    1.57    1.24 
   9   5   6    0.30    1.58 
 -10  -5  -6    0.02    1.20 
  10   5   6    0.34    1.81 
  10   5   6    2.71    1.47 
 -11  -5  -6   -0.27    1.28 
  11   5   6    0.54    1.39 
  11   5   6    1.08    2.00 
   6  -6  -6    3.59    1.78 
   6  -6  -6    2.32    1.37 
   5  -6  -6    2.26    1.49 
   5  -6  -6    0.48    1.10 
   4  -6  -6    0.97    1.20 
   4  -6  -6   -0.26    0.95 
   4  -6  -6    0.47    1.01 
   3  -6  -6    1.43    0.96 
   3  -6  -6    0.95    1.03 
   3  -6  -6    0.23    0.95 
   2  -6  -6    2.10    0.94 
   2  -6  -6    2.43    0.94 
   2  -6  -6    0.13    0.88 
   1  -6  -6    0.46    0.75 
   1  -6  -6    0.88    0.75 
   1  -6  -6    0.65    0.76 
   0  -6  -6   24.44    1.74 
   0  -6  -6   25.93    1.78 
   0  -6  -6   23.26    1.72 
  -1  -6  -6    1.26    0.72 
  -1  -6  -6    1.64    0.69 
  -1  -6  -6    0.80    0.67 
  -1  -6  -6    0.59    0.61 
  -2  -6  -6    5.26    0.91 
  -2  -6  -6    3.59    0.71 
  -2  -6  -6    3.96    0.68 
  -2  -6  -6    3.82    0.85 
   2   6   6    4.78    0.95 
  -3  -6  -6   14.26    1.43 
  -3  -6  -6   15.50    1.44 
  -3  -6  -6   12.64    1.23 
   3   6   6   15.70    1.65 
  -4  -6  -6   12.86    1.41 
  -4  -6  -6   12.23    1.25 
  -4  -6  -6   12.00    1.40 
   4   6   6   15.37    1.73 
   4   6   6   10.48    1.19 
  -5  -6  -6   31.16    1.99 
  -5  -6  -6   28.62    1.83 
  -5  -6  -6   28.82    1.89 
   5   6   6   31.30    2.27 
   5   6   6   29.88    2.05 
  -6  -6  -6    5.25    1.04 
  -6  -6  -6    5.33    1.12 
  -6  -6  -6    6.13    1.00 
  -6  -6  -6    6.27    1.08 
   6   6   6    4.68    1.21 
   6   6   6    5.13    1.28 
  -7  -6  -6    1.66    0.65 
  -7  -6  -6    3.10    1.02 
  -7  -6  -6    1.86    0.96 
  -7  -6  -6    1.86    0.89 
   7   6   6    1.53    1.27 
   7   6   6    2.08    1.18 
  -8  -6  -6    1.76    1.11 
  -8  -6  -6    1.91    1.00 
  -8  -6  -6    2.03    0.59 
   8   6   6   -0.06    1.42 
   8   6   6    2.63    1.23 
  -9  -6  -6   -0.99    1.08 
   9   6   6   -0.17    1.27 
   9   6   6   -0.21    1.53 
 -10  -6  -6    3.14    1.50 
  10   6   6    3.85    1.92 
  10   6   6    4.13    1.53 
   5  -7  -6    2.24    1.57 
   5  -7  -6    1.23    1.23 
   4  -7  -6    1.05    1.38 
   4  -7  -6    1.73    1.32 
   3  -7  -6    4.72    1.41 
   3  -7  -6    4.31    1.24 
   3  -7  -6    3.35    1.24 
   2  -7  -6   13.87    1.81 
   2  -7  -6   17.90    1.85 
   2  -7  -6   19.09    2.28 
   1  -7  -6    0.91    0.93 
   1  -7  -6    0.21    0.88 
   1  -7  -6    0.24    0.90 
   0  -7  -6    1.31    0.88 
   0  -7  -6    1.29    0.89 
   0  -7  -6    3.21    0.95 
   0  -7  -6    1.40    0.79 
  -1  -7  -6   11.12    1.48 
  -1  -7  -6   10.92    1.42 
  -1  -7  -6   11.35    1.49 
  -1  -7  -6   12.53    1.45 
  -2  -7  -6    2.30    0.90 
  -2  -7  -6    2.48    0.86 
  -2  -7  -6    1.74    0.73 
  -2  -7  -6    3.15    0.80 
   2   7   6    1.35    0.98 
  -3  -7  -6    2.80    0.95 
  -3  -7  -6    2.80    0.74 
  -3  -7  -6    2.61    0.75 
  -3  -7  -6    3.68    0.96 
   3   7   6    2.93    1.05 
  -4  -7  -6   17.00    1.51 
  -4  -7  -6   19.15    1.72 
  -4  -7  -6   14.45    1.58 
   4   7   6   16.80    1.97 
  -5  -7  -6   64.29    2.93 
  -5  -7  -6   63.98    3.10 
  -5  -7  -6   62.98    3.03 
   5   7   6   66.45    2.79 
   5   7   6   71.76    3.37 
  -6  -7  -6   22.51    1.97 
  -6  -7  -6   19.96    1.81 
  -6  -7  -6   21.13    1.95 
  -6  -7  -6   20.22    1.48 
   6   7   6   19.51    2.23 
   6   7   6   20.68    1.94 
  -7  -7  -6    0.37    0.94 
  -7  -7  -6    0.91    0.60 
  -7  -7  -6    0.37    0.90 
  -7  -7  -6   -0.47    1.00 
   7   7   6   -0.52    1.14 
   7   7   6   -0.02    1.27 
  -8  -7  -6    0.86    1.14 
  -8  -7  -6    2.30    1.17 
  -8  -7  -6    1.19    0.99 
  -8  -7  -6    1.91    0.57 
   8   7   6    1.77    1.36 
   8   7   6    1.42    1.44 
  -9  -7  -6    1.65    1.31 
   9   7   6    0.68    1.40 
   9   7   6    1.78    1.69 
 -10  -7  -6   -0.49    1.39 
  10   7   6    1.49    1.84 
  10   7   6    2.11    1.49 
   4  -8  -6   -1.41    1.38 
   4  -8  -6   -1.07    1.11 
   3  -8  -6   -1.11    1.11 
   3  -8  -6    1.89    1.45 
   2  -8  -6    1.77    1.17 
   2  -8  -6   -0.68    1.01 
   2  -8  -6    1.07    1.24 
   1  -8  -6    0.11    1.11 
   1  -8  -6    0.91    0.99 
   1  -8  -6    0.01    0.94 
   0  -8  -6   -0.69    0.81 
   0  -8  -6    1.22    0.90 
   0  -8  -6   -0.70    0.88 
   0  -8  -6    0.46    0.89 
  -1  -8  -6   11.40    1.75 
  -1  -8  -6   13.79    1.77 
  -1  -8  -6   12.59    1.67 
  -1  -8  -6   12.07    1.69 
  -2  -8  -6    1.01    0.81 
  -2  -8  -6   -0.37    0.84 
  -2  -8  -6    0.64    0.80 
  -2  -8  -6    0.17    0.89 
   2   8   6    0.08    1.07 
  -3  -8  -6   10.92    1.42 
  -3  -8  -6    5.50    1.13 
  -3  -8  -6    6.56    1.19 
  -3  -8  -6    8.78    1.55 
   3   8   6    6.64    1.34 
  -4  -8  -6   12.59    1.69 
  -4  -8  -6   12.23    1.54 
  -4  -8  -6   10.58    1.70 
   4   8   6   11.43    2.06 
  -5  -8  -6    3.64    1.15 
  -5  -8  -6    3.03    1.11 
  -5  -8  -6    2.41    0.98 
   5   8   6    3.34    1.33 
  -6  -8  -6    1.16    0.99 
  -6  -8  -6    1.30    1.00 
  -6  -8  -6    1.53    1.04 
   6   8   6    0.46    1.25 
  -7  -8  -6    2.08    1.06 
  -7  -8  -6    1.69    1.17 
  -7  -8  -6    3.27    1.25 
  -7  -8  -6    0.83    0.53 
   7   8   6   -0.13    1.28 
  -8  -8  -6    1.89    1.24 
  -8  -8  -6    0.21    1.05 
  -8  -8  -6   -0.14    1.19 
   8   8   6    1.16    1.43 
   8   8   6   -0.85    1.34 
  -9  -8  -6    4.76    1.59 
   9   8   6    4.69    1.70 
   9   8   6    3.71    1.81 
 -10  -8  -6   11.09    1.90 
  10   8   6   14.04    2.25 
  10   8   6    8.69    2.13 
   2  -9  -6    5.23    1.58 
   2  -9  -6    8.01    1.54 
   1  -9  -6    0.69    1.16 
   1  -9  -6   -1.07    1.08 
   0  -9  -6    9.94    1.44 
   0  -9  -6    8.93    1.54 
   0  -9  -6   11.84    1.89 
   0  -9  -6   11.01    2.18 
  -1  -9  -6    2.79    1.14 
  -1  -9  -6    2.38    1.19 
  -1  -9  -6    4.43    1.17 
  -1  -9  -6    4.54    1.13 
  -2  -9  -6    1.01    0.96 
  -2  -9  -6    1.71    0.91 
  -2  -9  -6    2.12    1.08 
  -2  -9  -6    0.76    1.03 
   2   9   6    0.26    1.07 
  -3  -9  -6    9.31    1.57 
  -3  -9  -6    2.46    1.04 
  -3  -9  -6    2.09    1.08 
  -3  -9  -6    3.95    1.15 
   3   9   6    3.33    1.32 
  -4  -9  -6    0.36    0.91 
  -4  -9  -6    0.20    1.02 
  -4  -9  -6   -0.32    1.00 
   4   9   6    0.05    1.23 
  -5  -9  -6    0.99    1.00 
  -5  -9  -6    1.27    1.07 
  -5  -9  -6    1.68    1.13 
   5   9   6    1.20    1.31 
  -6  -9  -6    0.42    1.11 
  -6  -9  -6    1.38    1.13 
  -6  -9  -6    0.42    1.09 
   6   9   6    0.20    1.36 
  -7  -9  -6    1.29    1.31 
  -7  -9  -6   -0.76    1.02 
  -7  -9  -6    1.58    1.32 
  -7  -9  -6    0.65    0.62 
   7   9   6    0.98    1.47 
  -8  -9  -6    1.02    1.12 
  -8  -9  -6    1.37    1.37 
   8   9   6   -2.28    1.41 
  -9  -9  -6    0.96    1.56 
  -9  -9  -6   -0.23    1.10 
   9   9   6   -1.34    1.55 
   1 -10  -6   -1.68    1.11 
   1 -10  -6   -0.36    1.09 
   0 -10  -6    0.15    1.29 
   0 -10  -6    0.53    1.12 
  -1 -10  -6    1.05    1.18 
  -1 -10  -6    0.36    1.12 
  -2 -10  -6    8.94    1.44 
  -2 -10  -6    5.29    1.47 
  -2 -10  -6    6.37    1.41 
  -2 -10  -6   10.60    1.84 
   2  10   6    2.98    2.05 
  -3 -10  -6   -0.72    1.01 
  -3 -10  -6   -0.44    1.04 
  -3 -10  -6    0.78    1.22 
   3  10   6    0.05    1.25 
  -4 -10  -6    0.35    1.10 
  -4 -10  -6   -1.59    1.07 
  -4 -10  -6   -0.64    1.15 
   4  10   6    0.07    1.40 
  -5 -10  -6    0.20    1.16 
  -5 -10  -6    0.66    1.06 
  -5 -10  -6   -0.11    1.21 
   5  10   6   -0.42    1.39 
  -6 -10  -6    4.86    1.36 
  -6 -10  -6    4.22    1.45 
   6  10   6    0.37    1.56 
  -7 -10  -6   -1.76    1.17 
  -7 -10  -6    1.62    1.47 
   7  10   6   -1.94    1.52 
  -8 -10  -6   -0.34    1.17 
  -8 -10  -6    1.03    1.41 
   8  10   6    0.21    1.67 
  -2 -11  -6    6.74    1.69 
  -2 -11  -6    8.94    1.56 
  -3 -11  -6    0.48    1.08 
  -3 -11  -6    4.95    1.54 
  -4 -11  -6    1.60    1.51 
  -4 -11  -6   -0.69    1.03 
   4  11   6   -0.98    1.45 
  -5 -11  -6   -1.48    1.07 
  -5 -11  -6    3.98    1.70 
   5  11   6   -1.55    1.51 
  -6 -11  -6    2.84    1.31 
  -6 -11  -6    2.50    1.57 
   6  11   6    2.81    1.71 
   5   9  -7   -0.24    1.15 
   5   9  -7    0.66    1.40 
   4   9  -7    8.48    1.57 
   4   9  -7   15.14    2.65 
   3   9  -7    5.50    1.48 
   3   9  -7    5.42    1.51 
   2   9  -7    1.71    1.26 
   2   9  -7    1.48    1.29 
   1   9  -7    0.25    1.13 
   1   9  -7    0.43    1.25 
   0   9  -7    2.41    1.33 
   0   9  -7    3.03    1.66 
   0   9  -7    2.93    1.24 
  -1   9  -7    9.46    1.53 
  -1   9  -7   10.21    1.57 
  -1   9  -7   11.87    1.65 
   1  -9   7    9.06    2.00 
   6   8  -7    2.05    1.52 
   6   8  -7    2.63    1.22 
   5   8  -7   -0.93    1.13 
   5   8  -7    2.33    1.45 
   4   8  -7   13.09    1.95 
   4   8  -7   10.83    1.74 
   3   8  -7    4.91    1.43 
   3   8  -7    5.70    1.28 
   2   8  -7    7.27    1.45 
   2   8  -7    9.83    1.49 
   1   8  -7    3.37    1.15 
   1   8  -7    3.14    1.26 
   0   8  -7    2.94    1.28 
   0   8  -7    1.71    1.10 
   0   8  -7    2.40    1.05 
  -1   8  -7    3.15    1.25 
  -1   8  -7    1.25    1.15 
  -1   8  -7    2.40    1.09 
   1  -8   7    2.03    1.37 
  -2   8  -7    0.35    0.96 
  -2   8  -7    1.52    1.10 
  -2   8  -7    0.95    1.14 
   2  -8   7    1.31    1.39 
  -3   8  -7    4.38    1.37 
  -3   8  -7    1.59    1.01 
   3  -8   7    0.05    1.49 
   7   7  -7    6.11    1.75 
   6   7  -7    6.24    1.32 
   6   7  -7    5.02    1.68 
   5   7  -7    0.18    1.01 
   5   7  -7    1.80    1.32 
   4   7  -7    0.20    1.17 
   4   7  -7   -1.42    0.88 
   3   7  -7    2.58    1.06 
   3   7  -7    2.72    1.22 
   3   7  -7    3.85    0.77 
   2   7  -7   52.36    2.83 
   2   7  -7   61.08    2.58 
   2   7  -7   50.36    3.06 
   1   7  -7    0.56    0.76 
   1   7  -7   -0.64    0.86 
   1   7  -7   -0.42    1.00 
   0   7  -7    1.50    1.06 
   0   7  -7    1.18    0.92 
   0   7  -7    2.55    0.90 
  -1   7  -7    2.22    0.93 
  -1   7  -7    2.96    1.13 
  -1   7  -7    2.64    0.96 
   1  -7   7    1.46    1.15 
  -2   7  -7    0.13    0.79 
  -2   7  -7    1.73    0.99 
   2  -7   7    0.73    1.27 
  -3   7  -7    3.06    1.17 
  -3   7  -7    1.55    0.95 
   3  -7   7   -1.04    1.19 
  -4   7  -7    6.43    1.38 
  -4   7  -7    3.13    1.04 
   4  -7   7    5.33    1.72 
  -5   7  -7    4.52    1.36 
  -5   7  -7    0.04    0.76 
   5  -7   7    0.38    1.47 
   8   6  -7   -1.03    1.43 
   8   6  -7    1.57    1.62 
   7   6  -7    2.43    1.44 
   6   6  -7    0.39    0.92 
   6   6  -7    0.38    1.23 
   5   6  -7   10.07    1.57 
   5   6  -7    7.17    1.45 
   4   6  -7    3.90    1.06 
   4   6  -7    4.22    1.30 
   3   6  -7   13.38    2.00 
   3   6  -7   15.98    1.32 
   3   6  -7   13.16    1.56 
   2   6  -7   72.68    3.48 
   2   6  -7   76.19    3.25 
   2   6  -7   75.30    3.01 
   1   6  -7    9.74    1.36 
   1   6  -7   11.21    1.78 
   1   6  -7   10.53    1.42 
   0   6  -7   22.43    1.70 
   0   6  -7   23.44    1.78 
  -1   6  -7    0.94    0.72 
  -1   6  -7    0.70    0.80 
   1  -6   7    0.42    1.02 
  -2   6  -7    4.68    0.96 
  -2   6  -7    4.40    1.06 
   2  -6   7    5.33    1.34 
  -3   6  -7    5.60    1.07 
  -3   6  -7    6.91    1.18 
   3  -6   7    5.92    1.42 
  -4   6  -7   -1.38    0.82 
  -4   6  -7   -0.05    0.68 
   4  -6   7   -0.16    1.24 
  -5   6  -7    2.64    0.92 
  -5   6  -7    3.10    1.16 
   5  -6   7    3.31    1.55 
  -6   6  -7    1.57    0.82 
  -6   6  -7    2.12    1.16 
   6  -6   7    2.48    1.63 
   8   5  -7    4.39    1.42 
   8   5  -7    1.30    1.63 
   7   5  -7    1.58    1.38 
   6   5  -7    6.25    1.48 
   6   5  -7    9.23    1.33 
   5   5  -7    2.41    1.18 
   5   5  -7    4.35    0.98 
   4   5  -7    2.47    1.08 
   4   5  -7    2.39    0.56 
   4   5  -7    2.15    0.85 
   3   5  -7    2.03    0.60 
   3   5  -7    0.18    0.91 
   3   5  -7    0.04    0.75 
   2   5  -7    3.36    0.71 
   2   5  -7    2.65    0.96 
   2   5  -7    1.73    0.81 
   1   5  -7    1.23    0.77 
   1   5  -7    1.73    0.70 
   0   5  -7   88.27    3.46 
   0   5  -7   84.69    3.32 
  -1   5  -7    0.03    0.65 
  -1   5  -7    0.41    0.69 
   1  -5   7   -0.67    0.81 
  -2   5  -7    0.90    0.68 
  -2   5  -7    0.83    0.68 
   2  -5   7   -2.84    0.97 
  -3   5  -7    2.37    0.90 
  -3   5  -7    2.09    0.71 
   3  -5   7    4.66    1.31 
  -4   5  -7    6.82    1.19 
  -4   5  -7    6.34    0.97 
   4  -5   7    5.42    1.38 
  -5   5  -7   15.21    1.42 
  -5   5  -7   12.49    1.83 
   5  -5   7   14.35    2.47 
  -6   5  -7    4.51    1.29 
  -6   5  -7    4.76    0.92 
   6  -5   7    4.16    1.64 
   6  -5   7    3.33    1.58 
  -7   5  -7    2.00    1.18 
   7  -5   7    4.38    1.80 
   7  -5   7    2.03    1.66 
   8   4  -7    0.17    1.15 
   8   4  -7    1.46    1.61 
   7   4  -7    3.96    0.96 
   7   4  -7    1.27    1.21 
   6   4  -7    2.11    0.70 
   6   4  -7    1.92    1.14 
   5   4  -7    0.74    1.02 
   5   4  -7    2.06    0.71 
   4   4  -7    1.05    0.94 
   4   4  -7    1.11    0.69 
   4   4  -7    0.11    0.42 
   3   4  -7    2.68    0.91 
   3   4  -7    2.69    0.79 
   3   4  -7    1.35    0.51 
   2   4  -7    1.41    0.68 
   2   4  -7    2.93    0.61 
   1   4  -7   56.15    2.28 
   1   4  -7   49.63    2.34 
   0   4  -7    3.50    0.70 
   0   4  -7    2.54    0.70 
  -1   4  -7   23.59    1.52 
  -1   4  -7   18.98    1.42 
   1  -4   7   24.45    1.92 
  -2   4  -7    1.85    0.65 
  -2   4  -7    1.32    0.62 
   2  -4   7    0.49    0.89 
  -3   4  -7    2.85    0.74 
  -3   4  -7    3.33    0.81 
   3  -4   7    2.46    1.03 
  -4   4  -7   14.52    1.31 
  -4   4  -7   15.33    1.65 
   4  -4   7   17.70    2.27 
  -5   4  -7   19.14    1.83 
  -5   4  -7   19.49    1.41 
   5  -4   7   18.67    2.47 
   5  -4   7   18.49    2.40 
  -6   4  -7    0.04    0.60 
  -6   4  -7    0.72    0.96 
   6  -4   7    0.90    1.31 
   6  -4   7    1.65    1.27 
  -7   4  -7   -0.40    0.72 
  -7   4  -7    0.92    1.01 
   7  -4   7    0.17    1.35 
   7  -4   7   -0.47    1.41 
  -8   4  -7    0.02    0.98 
   8  -4   7    1.01    1.53 
   8  -4   7   -1.05    1.63 
   8   3  -7    0.81    1.05 
   8   3  -7    1.17    1.50 
   7   3  -7   12.09    1.84 
   7   3  -7    7.32    1.01 
   7   3  -7   10.41    1.85 
   6   3  -7   37.14    2.47 
   6   3  -7   35.23    1.76 
   5   3  -7    1.32    0.95 
   5   3  -7    0.45    0.48 
   5   3  -7    0.63    0.59 
   4   3  -7    3.62    0.74 
   4   3  -7    4.19    1.01 
   4   3  -7    3.58    0.56 
   3   3  -7    1.04    0.60 
   3   3  -7   -0.12    0.38 
   2   3  -7    9.24    0.89 
   2   3  -7   11.18    1.17 
   1   3  -7    7.80    1.12 
   1   3  -7    8.27    0.95 
   0   3  -7    3.65    0.72 
   0   3  -7    4.82    0.72 
   0   3  -7    6.17    0.51 
  -1   3  -7    6.49    1.03 
  -1   3  -7    8.87    0.69 
  -1   3  -7    6.24    1.01 
  -2   3  -7   25.12    1.20 
  -2   3  -7   21.53    1.39 
  -2   3  -7   22.98    1.47 
   2  -3   7   23.69    1.82 
  -3   3  -7    7.41    0.88 
  -3   3  -7    5.95    0.95 
  -3   3  -7    6.94    1.12 
   3  -3   7    6.11    1.09 
  -4   3  -7    3.90    0.82 
  -4   3  -7    5.47    0.82 
  -4   3  -7    4.12    0.73 
   4  -3   7    5.19    1.23 
   4  -3   7    4.47    1.08 
  -5   3  -7    0.52    0.53 
  -5   3  -7    0.35    0.77 
   5  -3   7    0.25    1.14 
   5  -3   7    1.02    1.04 
  -6   3  -7    6.27    0.97 
  -6   3  -7    8.10    1.21 
   6  -3   7    8.02    1.44 
   6  -3   7    6.96    1.57 
  -7   3  -7    3.37    1.14 
  -7   3  -7    4.12    0.69 
   7  -3   7    3.17    1.60 
   7  -3   7    2.92    1.37 
  -8   3  -7    0.78    1.05 
   8  -3   7    1.43    1.45 
   8  -3   7    3.86    1.82 
   8   2  -7    1.63    1.47 
   7   2  -7   10.77    1.51 
   7   2  -7    6.55    1.61 
   6   2  -7   11.88    1.15 
   6   2  -7   12.03    1.54 
   6   2  -7   10.00    1.03 
   5   2  -7    6.03    0.90 
   5   2  -7    3.00    0.67 
   5   2  -7    3.46    0.92 
   4   2  -7   10.74    1.05 
   4   2  -7   12.06    1.00 
   4   2  -7   11.94    1.56 
   3   2  -7   -0.85    0.47 
   3   2  -7    0.50    0.39 
   2   2  -7    6.81    0.66 
   2   2  -7    6.11    0.79 
   2   2  -7    5.61    0.81 
   1   2  -7    4.67    0.73 
   1   2  -7    3.13    0.50 
   1   2  -7    4.66    0.75 
   0   2  -7    1.89    0.35 
   0   2  -7    1.12    0.56 
   0   2  -7    2.05    0.52 
  -1   2  -7  133.14    4.45 
  -1   2  -7  127.01    4.45 
  -1   2  -7  130.82    4.19 
  -2   2  -7    1.08    0.41 
  -2   2  -7    0.59    0.53 
  -2   2  -7   -0.07    0.48 
   2  -2   7    0.37    0.61 
  -3   2  -7    7.57    0.88 
  -3   2  -7    6.68    0.92 
  -3   2  -7    7.38    1.05 
   3  -2   7    6.80    0.99 
  -4   2  -7    2.93    0.72 
  -4   2  -7    2.14    0.64 
  -4   2  -7    1.73    0.58 
   4  -2   7    1.97    0.96 
   4  -2   7    1.57    0.82 
   4  -2   7    2.35    0.57 
  -5   2  -7    0.48    0.63 
  -5   2  -7   -0.03    0.54 
  -5   2  -7   -0.09    0.45 
   5  -2   7   -0.07    0.90 
   5  -2   7   -0.08    0.84 
  -6   2  -7    1.77    0.72 
  -6   2  -7    0.04    0.75 
  -6   2  -7    0.10    0.46 
   6  -2   7   -0.29    1.04 
   6  -2   7    0.57    1.00 
  -7   2  -7   19.28    1.16 
  -7   2  -7   17.10    1.90 
   7  -2   7   15.59    2.17 
   7  -2   7   16.20    2.62 
  -8   2  -7    8.75    1.43 
   8  -2   7    8.84    2.00 
   8  -2   7    7.40    1.59 
  -9   2  -7    4.22    1.31 
   9  -2   7    5.13    1.61 
   9  -2   7    5.42    2.12 
   8   1  -7   -1.18    1.31 
   7   1  -7    1.14    1.24 
   6   1  -7    5.61    0.76 
   6   1  -7    4.78    0.91 
   6   1  -7    5.79    1.43 
   5   1  -7   12.61    1.02 
   5   1  -7   12.29    1.36 
   4   1  -7   58.98    2.34 
   3   1  -7    0.37    0.38 
   3   1  -7    0.09    0.50 
   2   1  -7    2.38    0.49 
   2   1  -7    5.10    0.72 
   1   1  -7    0.60    0.41 
   1   1  -7    0.19    0.42 
   1   1  -7    0.26    0.31 
   0   1  -7    2.05    0.52 
  -1   1  -7    9.87    0.75 
  -1   1  -7    8.83    0.97 
  -2   1  -7    9.95    1.00 
  -2   1  -7    9.10    0.89 
  -3   1  -7    4.21    0.68 
  -3   1  -7    4.77    0.71 
  -3   1  -7    4.96    0.86 
   3  -1   7    4.81    1.07 
   3  -1   7    4.63    0.76 
   3  -1   7    5.01    0.63 
  -4   1  -7    1.59    0.55 
  -4   1  -7    0.14    0.42 
  -4   1  -7    0.66    0.55 
   4  -1   7    0.07    0.47 
   4  -1   7    0.67    0.65 
   4  -1   7    1.27    0.86 
  -5   1  -7   25.19    1.36 
  -5   1  -7   25.28    1.62 
  -5   1  -7   24.10    1.62 
   5  -1   7   24.92    1.78 
   5  -1   7   25.02    1.49 
   5  -1   7   23.91    2.19 
  -6   1  -7   43.80    1.91 
  -6   1  -7   43.74    2.31 
  -6   1  -7   45.48    2.31 
   6  -1   7   43.81    2.93 
   6  -1   7   45.13    2.47 
  -7   1  -7    1.92    0.95 
  -7   1  -7    2.07    0.87 
  -7   1  -7    1.36    0.46 
   7  -1   7    1.08    1.23 
   7  -1   7    1.99    0.97 
  -8   1  -7    8.54    1.35 
  -8   1  -7    9.51    1.39 
   8  -1   7    6.20    1.37 
   8  -1   7    8.87    2.00 
  -9   1  -7    1.66    1.15 
   9  -1   7    4.41    1.46 
   9  -1   7    0.70    1.82 
   8   0  -7    1.67    1.28 
   8   0  -7    0.51    1.37 
   7   0  -7    1.33    0.80 
   7   0  -7    1.69    1.10 
   6   0  -7    1.34    0.59 
   6   0  -7    0.10    0.94 
   6   0  -7    1.30    0.67 
   5   0  -7   42.36    1.83 
   5   0  -7   45.45    2.10 
   5   0  -7   40.48    2.58 
   4   0  -7   13.47    1.50 
   3   0  -7    3.81    0.91 
   2   0  -7   10.94    0.93 
   1   0  -7    4.56    0.64 
   1   0  -7    3.47    0.59 
   1   0  -7    1.56    0.49 
   0   0  -7    0.78    0.36 
   0   0  -7    0.17    0.40 
   0   0  -7    4.46    0.55 
   0   0  -7    1.77    0.51 
  -1   0  -7    7.85    0.92 
  -1   0  -7    8.46    0.73 
  -1   0  -7    7.07    0.62 
   1   0   7    7.12    0.74 
  -2   0  -7    6.25    0.84 
  -2   0  -7    5.24    0.77 
   2   0   7    7.18    0.72 
  -3   0  -7   34.99    1.52 
  -3   0  -7   34.67    1.66 
  -3   0  -7   34.01    1.69 
   3   0   7   35.71    2.15 
   3   0   7   34.81    1.52 
  -4   0  -7    2.15    0.65 
  -4   0  -7    2.89    0.68 
   4   0   7    2.41    0.57 
   4   0   7    2.10    0.92 
   4   0   7    1.29    0.58 
  -5   0  -7    7.26    1.11 
  -5   0  -7    5.89    0.86 
   5   0   7    9.30    1.16 
   5   0   7    7.69    1.27 
   5   0   7    4.19    1.29 
  -6   0  -7   35.18    2.06 
  -6   0  -7   34.50    1.59 
  -6   0  -7   33.32    1.94 
   6   0   7   32.68    2.54 
   6   0   7   33.77    1.97 
  -7   0  -7    4.51    0.97 
  -7   0  -7    4.12    0.63 
  -7   0  -7    3.07    0.91 
   7   0   7    4.18    1.44 
   7   0   7    3.50    1.02 
  -8   0  -7    1.20    0.90 
  -8   0  -7    0.84    0.91 
   8   0   7   -0.36    0.92 
   8   0   7   -0.34    1.57 
  -9   0  -7    5.70    1.33 
  -9   0  -7    5.54    1.29 
   9   0   7    2.88    1.24 
   9   0   7    1.28    1.90 
 -10   0  -7   -0.73    1.01 
  10   0   7    1.12    2.15 
  10   0   7   -0.31    1.24 
   8  -1  -7   11.22    1.98 
   8  -1  -7   19.91    2.54 
   7  -1  -7   13.39    1.92 
   7  -1  -7    7.90    1.70 
   6  -1  -7   -0.98    0.55 
   6  -1  -7   -1.04    0.70 
   6  -1  -7    1.36    1.09 
   5  -1  -7   -0.45    0.68 
   5  -1  -7    0.25    0.53 
   4  -1  -7    6.65    1.00 
   3  -1  -7   53.40    2.31 
   2  -1  -7    1.06    0.50 
   1  -1  -7    0.87    0.45 
   0  -1  -7    7.38    0.76 
   0  -1  -7    8.42    0.79 
   0  -1  -7    6.92    0.69 
  -1  -1  -7    6.30    0.76 
  -1  -1  -7    5.72    0.58 
  -1  -1  -7    7.58    0.70 
  -1  -1  -7    7.17    0.86 
   1   1   7    6.97    0.80 
  -2  -1  -7    3.07    0.62 
  -2  -1  -7    4.35    0.68 
  -2  -1  -7    2.83    0.55 
   2   1   7    2.17    0.53 
  -3  -1  -7   17.01    1.23 
  -3  -1  -7   18.49    1.15 
  -3  -1  -7   17.00    1.27 
   3   1   7   16.46    1.61 
   3   1   7   18.25    1.10 
  -4  -1  -7    0.98    0.54 
  -4  -1  -7    1.78    0.64 
  -4  -1  -7    2.83    0.63 
   4   1   7    0.62    0.52 
   4   1   7    0.92    0.90 
  -5  -1  -7   12.43    1.23 
  -5  -1  -7   11.16    1.19 
   5   1   7   11.97    1.73 
   5   1   7   11.41    1.19 
  -6  -1  -7    0.30    0.65 
  -6  -1  -7   -0.60    0.54 
   6   1   7    0.86    1.00 
   6   1   7    0.19    0.57 
  -7  -1  -7    0.39    0.78 
  -7  -1  -7   -0.21    0.80 
   7   1   7    2.96    1.61 
   7   1   7    1.64    0.70 
  -8  -1  -7    2.37    0.47 
  -8  -1  -7    3.38    1.03 
  -8  -1  -7    2.85    0.95 
   8   1   7    1.38    0.78 
   8   1   7    2.30    1.69 
  -9  -1  -7    3.93    1.15 
  -9  -1  -7   -0.02    1.02 
   9   1   7   -0.18    0.99 
   9   1   7   -0.31    1.90 
 -10  -1  -7   13.87    1.93 
 -10  -1  -7   12.41    2.06 
  10   1   7   12.06    2.70 
  10   1   7   13.52    2.42 
   7  -2  -7   -0.20    1.38 
   6  -2  -7    0.27    0.95 
   6  -2  -7    1.33    1.23 
   5  -2  -7   -1.50    0.85 
   5  -2  -7    1.14    0.61 
   5  -2  -7    0.83    0.69 
   4  -2  -7   -0.10    0.67 
   4  -2  -7   -0.43    0.54 
   4  -2  -7   -0.82    0.64 
   3  -2  -7  197.87    6.70 
   3  -2  -7  201.14    6.75 
   3  -2  -7  200.56    6.66 
   2  -2  -7   22.47    1.40 
   1  -2  -7   -0.08    0.45 
   1  -2  -7    0.16    0.40 
   0  -2  -7   -0.14    0.42 
   0  -2  -7    0.21    0.43 
   0  -2  -7   -0.26    0.37 
  -1  -2  -7    5.06    0.85 
  -1  -2  -7    2.02    0.51 
  -1  -2  -7    1.17    0.40 
   1   2   7    1.63    0.53 
  -2  -2  -7    2.11    0.43 
  -2  -2  -7    5.35    0.78 
  -2  -2  -7    1.80    0.55 
  -2  -2  -7    2.25    0.59 
   2   2   7    2.40    0.56 
  -3  -2  -7    3.70    0.63 
  -3  -2  -7    3.81    0.66 
  -3  -2  -7    1.71    0.53 
  -3  -2  -7    3.20    0.65 
   3   2   7    2.78    0.81 
   3   2   7    3.04    0.62 
  -4  -2  -7    1.15    0.42 
  -4  -2  -7    0.32    0.56 
  -4  -2  -7    0.26    0.52 
  -4  -2  -7    0.68    0.54 
   4   2   7    0.63    0.91 
   4   2   7   -0.07    0.49 
  -5  -2  -7    0.43    0.59 
  -5  -2  -7    0.68    0.65 
  -5  -2  -7    0.36    0.52 
   5   2   7    0.35    0.94 
  -6  -2  -7    4.16    0.77 
  -6  -2  -7    4.04    0.88 
   6   2   7    5.91    1.38 
  -7  -2  -7    1.35    0.84 
  -7  -2  -7    0.78    0.72 
   7   2   7    0.67    1.52 
   7   2   7    0.36    0.51 
  -8  -2  -7    3.86    0.93 
  -8  -2  -7    4.21    1.18 
   8   2   7    3.62    1.81 
   8   2   7    2.52    0.73 
  -9  -2  -7   -0.67    0.95 
  -9  -2  -7   -0.49    0.86 
   9   2   7    0.57    1.92 
   9   2   7    0.42    0.72 
 -10  -2  -7    0.42    1.19 
 -10  -2  -7    1.49    1.09 
  10   2   7    1.06    2.10 
   7  -3  -7    4.67    1.68 
   6  -3  -7    0.31    1.01 
   6  -3  -7    1.05    1.26 
   5  -3  -7    3.39    1.10 
   5  -3  -7    0.87    0.73 
   5  -3  -7    1.38    0.94 
   4  -3  -7    4.17    0.80 
   4  -3  -7    4.22    0.95 
   4  -3  -7    2.82    0.94 
   3  -3  -7   26.61    1.83 
   3  -3  -7   27.83    1.59 
   3  -3  -7   26.17    1.85 
   3  -3  -7   27.34    1.79 
   2  -3  -7    0.61    0.58 
   2  -3  -7    0.87    0.60 
   2  -3  -7    1.59    0.50 
   2  -3  -7    2.39    0.78 
   1  -3  -7   11.13    1.03 
   1  -3  -7   11.10    1.08 
   1  -3  -7   11.95    1.13 
   0  -3  -7   14.32    1.11 
   0  -3  -7   11.96    1.04 
   0  -3  -7   12.80    1.15 
   0  -3  -7   13.25    1.02 
  -1  -3  -7    6.59    0.76 
  -1  -3  -7    8.96    0.94 
  -1  -3  -7    7.02    0.99 
   1   3   7    6.86    0.96 
  -2  -3  -7   35.36    1.81 
  -2  -3  -7   39.02    1.68 
  -2  -3  -7   40.69    1.85 
   2   3   7   40.29    1.85 
  -3  -3  -7   -0.68    0.42 
  -3  -3  -7    0.16    0.53 
  -3  -3  -7    0.81    0.46 
  -3  -3  -7    0.36    0.56 
   3   3   7    0.48    0.52 
   3   3   7   -0.03    0.74 
  -4  -3  -7    0.03    0.56 
  -4  -3  -7   -0.15    0.58 
  -4  -3  -7    0.03    0.51 
  -4  -3  -7   -0.05    0.46 
   4   3   7    0.06    0.80 
  -5  -3  -7    1.71    0.59 
  -5  -3  -7    0.47    0.67 
  -5  -3  -7    1.18    0.53 
  -5  -3  -7    1.87    0.68 
   5   3   7    0.89    1.01 
  -6  -3  -7    2.40    0.79 
  -6  -3  -7    2.23    0.66 
  -6  -3  -7    0.67    0.72 
   6   3   7    1.96    1.25 
  -7  -3  -7    0.26    0.80 
  -7  -3  -7    0.23    0.63 
   7   3   7    0.19    1.47 
  -8  -3  -7    6.57    1.22 
  -8  -3  -7    5.28    1.01 
   8   3   7    6.48    1.21 
   8   3   7    2.80    1.72 
  -9  -3  -7    0.26    0.83 
  -9  -3  -7   -0.18    0.99 
   9   3   7    0.09    1.79 
 -10  -3  -7    1.55    1.26 
 -10  -3  -7    3.93    1.12 
  10   3   7    3.29    2.07 
   6  -4  -7    7.14    1.47 
   6  -4  -7    5.65    1.24 
   6  -4  -7    9.15    1.71 
   5  -4  -7    9.05    1.69 
   5  -4  -7   12.29    2.06 
   5  -4  -7   14.55    1.88 
   5  -4  -7    9.15    1.50 
   4  -4  -7    9.45    1.57 
   4  -4  -7    8.87    1.63 
   4  -4  -7    6.79    1.21 
   4  -4  -7    7.05    1.20 
   3  -4  -7    1.31    0.71 
   3  -4  -7   -0.17    0.52 
   3  -4  -7    2.19    0.90 
   3  -4  -7    2.45    0.91 
   2  -4  -7   13.39    1.42 
   2  -4  -7   13.39    1.08 
   2  -4  -7   15.65    1.36 
   2  -4  -7   14.55    1.42 
   1  -4  -7   28.05    1.67 
   1  -4  -7   27.65    1.61 
   1  -4  -7   28.15    1.80 
   1  -4  -7   27.33    1.28 
   0  -4  -7    0.99    0.51 
   0  -4  -7    3.33    0.65 
   0  -4  -7    2.46    0.74 
   0  -4  -7    1.31    0.61 
   0  -4  -7    2.24    0.61 
  -1  -4  -7    5.97    0.88 
  -1  -4  -7    3.05    0.76 
  -1  -4  -7    1.77    0.62 
  -2  -4  -7    9.26    1.13 
  -2  -4  -7    8.61    1.12 
  -2  -4  -7    8.32    0.97 
  -3  -4  -7    0.64    0.59 
  -3  -4  -7    1.40    0.69 
  -3  -4  -7    1.75    0.62 
  -4  -4  -7    0.59    0.54 
  -4  -4  -7    0.43    0.62 
  -4  -4  -7    0.27    0.58 
  -4  -4  -7    0.38    0.49 
   4   4   7    0.09    0.74 
  -5  -4  -7   40.95    2.14 
  -5  -4  -7   39.27    1.90 
  -5  -4  -7   40.56    1.93 
  -5  -4  -7   42.02    2.15 
   5   4   7   38.24    2.33 
   5   4   7   42.26    2.57 
  -6  -4  -7   -0.35    0.71 
  -6  -4  -7    0.01    0.58 
  -6  -4  -7   -0.11    0.61 
  -6  -4  -7   -0.88    0.79 
   6   4   7    1.13    1.33 
   6   4   7   -0.35    0.89 
  -7  -4  -7    1.90    0.92 
  -7  -4  -7    3.45    1.08 
  -7  -4  -7    2.29    0.71 
   7   4   7    2.02    1.11 
   7   4   7    6.22    1.69 
  -8  -4  -7    0.69    1.00 
  -8  -4  -7    0.12    0.69 
   8   4   7    1.02    1.19 
   8   4   7    1.21    1.56 
  -9  -4  -7    0.35    0.80 
  -9  -4  -7   -0.08    1.06 
   9   4   7   -0.61    1.18 
   9   4   7   -0.32    1.70 
 -10  -4  -7    4.90    1.41 
 -10  -4  -7    3.95    1.06 
  10   4   7    4.02    2.07 
  10   4   7    1.09    1.35 
 -11  -4  -7    0.56    1.32 
  11   4   7   -1.15    1.31 
  11   4   7   -0.84    2.06 
   6  -5  -7    0.01    1.20 
   6  -5  -7    1.42    1.41 
   5  -5  -7    1.22    1.24 
   5  -5  -7   -0.07    1.12 
   5  -5  -7   -0.43    1.06 
   4  -5  -7    0.59    0.96 
   4  -5  -7    2.73    1.06 
   4  -5  -7    1.73    1.06 
   3  -5  -7    2.43    0.85 
   3  -5  -7   -0.33    0.84 
   3  -5  -7   -0.54    0.88 
   2  -5  -7    1.12    0.84 
   2  -5  -7    1.03    0.82 
   2  -5  -7    1.08    0.71 
   1  -5  -7    6.16    1.05 
   1  -5  -7    5.95    1.03 
   1  -5  -7    5.70    1.15 
   0  -5  -7    3.23    0.78 
   0  -5  -7    3.84    0.71 
   0  -5  -7    3.74    0.86 
   0  -5  -7    3.68    0.85 
  -1  -5  -7    2.81    0.76 
  -1  -5  -7    2.48    0.63 
  -1  -5  -7    3.00    0.79 
  -2  -5  -7    1.64    0.68 
  -2  -5  -7    0.89    0.58 
  -2  -5  -7    1.33    0.71 
  -3  -5  -7    1.94    0.64 
  -3  -5  -7    1.31    0.68 
  -3  -5  -7    1.58    0.74 
  -4  -5  -7   16.57    1.42 
  -4  -5  -7   16.45    1.44 
  -4  -5  -7   17.18    1.54 
   4   5   7   15.81    1.46 
   4   5   7   17.71    1.82 
  -5  -5  -7   -0.34    0.64 
  -5  -5  -7    0.12    0.53 
  -5  -5  -7   -0.55    0.67 
  -5  -5  -7   -0.47    0.67 
   5   5   7   -0.91    0.87 
   5   5   7    0.06    1.00 
  -6  -5  -7   -0.30    0.55 
  -6  -5  -7    1.51    0.70 
  -6  -5  -7   -0.08    0.79 
  -6  -5  -7    0.01    0.81 
   6   5   7   -0.49    0.90 
   6   5   7    0.92    1.20 
  -7  -5  -7   13.29    1.70 
  -7  -5  -7   14.41    1.46 
  -7  -5  -7   14.57    1.76 
  -7  -5  -7   12.89    1.37 
   7   5   7   15.52    2.08 
   7   5   7   12.60    2.43 
  -8  -5  -7    7.87    1.28 
  -8  -5  -7    7.32    1.32 
  -8  -5  -7    8.44    1.56 
   8   5   7    8.05    1.83 
   8   5   7    6.27    1.41 
  -9  -5  -7    1.04    0.87 
  -9  -5  -7    0.70    1.12 
   9   5   7    0.41    1.29 
   9   5   7    0.40    1.78 
 -10  -5  -7    0.76    1.28 
  10   5   7   -0.85    2.02 
  10   5   7    3.75    1.53 
   5  -6  -7    0.43    1.19 
   5  -6  -7    1.36    1.46 
   4  -6  -7    3.26    1.31 
   4  -6  -7    4.51    1.42 
   4  -6  -7    2.43    1.14 
   3  -6  -7    2.25    1.08 
   3  -6  -7    1.16    1.03 
   3  -6  -7    0.04    1.02 
   2  -6  -7    4.10    1.03 
   2  -6  -7    1.62    0.94 
   2  -6  -7    1.55    1.03 
   1  -6  -7   24.27    1.94 
   1  -6  -7   29.63    2.02 
   1  -6  -7   24.80    1.96 
   0  -6  -7   24.54    1.80 
   0  -6  -7   24.49    1.83 
   0  -6  -7   23.14    1.82 
   0  -6  -7   28.83    1.78 
  -1  -6  -7    6.98    1.13 
  -1  -6  -7    4.76    0.87 
  -1  -6  -7    4.41    0.95 
  -1  -6  -7    7.75    1.25 
  -2  -6  -7    0.22    0.60 
  -2  -6  -7    0.04    0.72 
  -2  -6  -7    1.42    0.75 
  -3  -6  -7    3.08    0.75 
  -3  -6  -7    3.73    0.95 
  -3  -6  -7    3.90    0.91 
  -4  -6  -7    1.11    0.75 
  -4  -6  -7    2.06    0.91 
  -4  -6  -7    1.49    0.82 
   4   6   7    1.80    1.02 
   4   6   7    0.78    0.53 
  -5  -6  -7   10.97    1.45 
  -5  -6  -7   10.52    1.41 
  -5  -6  -7    8.46    1.36 
   5   6   7   10.61    1.88 
   5   6   7    8.07    1.46 
  -6  -6  -7    3.06    1.04 
  -6  -6  -7    3.31    1.01 
  -6  -6  -7    5.16    1.25 
  -6  -6  -7    2.69    0.72 
   6   6   7    2.22    1.15 
   6   6   7    4.37    1.31 
  -7  -6  -7    5.41    1.10 
  -7  -6  -7    6.87    0.95 
  -7  -6  -7    8.56    1.34 
  -7  -6  -7   11.34    1.72 
   7   6   7    7.33    1.54 
   7   6   7    8.48    1.66 
  -8  -6  -7    0.35    1.10 
  -8  -6  -7   -0.15    0.69 
  -8  -6  -7    0.47    0.98 
   8   6   7    0.61    1.60 
   8   6   7   -1.69    1.12 
  -9  -6  -7    1.39    0.68 
  -9  -6  -7    0.51    1.23 
   9   6   7    1.88    1.97 
   9   6   7   -0.57    1.28 
 -10  -6  -7   -1.59    1.32 
  10   6   7    1.32    2.05 
  10   6   7   -1.29    1.40 
   4  -7  -7    4.12    1.54 
   4  -7  -7    1.46    1.31 
   3  -7  -7    2.25    1.32 
   3  -7  -7    1.98    1.18 
   3  -7  -7    4.85    1.41 
   2  -7  -7    2.46    1.10 
   2  -7  -7    1.51    1.12 
   2  -7  -7    2.32    1.16 
   1  -7  -7    2.55    1.03 
   1  -7  -7    3.22    1.05 
   1  -7  -7    2.13    1.09 
   0  -7  -7    1.60    0.97 
   0  -7  -7    0.97    0.93 
   0  -7  -7    0.97    0.91 
   0  -7  -7    0.72    0.83 
  -1  -7  -7    3.16    0.98 
  -1  -7  -7    4.74    0.95 
  -1  -7  -7    3.26    0.98 
  -1  -7  -7    3.36    0.91 
  -2  -7  -7    1.06    0.65 
  -2  -7  -7    0.14    0.82 
  -2  -7  -7    1.15    0.75 
  -2  -7  -7    0.53    0.80 
  -3  -7  -7    0.07    0.81 
  -3  -7  -7    0.00    0.81 
  -3  -7  -7    0.54    0.71 
   3   7   7   -0.89    0.95 
  -4  -7  -7   26.63    1.94 
  -4  -7  -7   25.41    1.97 
  -4  -7  -7   29.25    2.07 
   4   7   7   25.22    2.32 
  -5  -7  -7    0.79    0.89 
  -5  -7  -7    3.04    0.92 
  -5  -7  -7    3.16    1.03 
   5   7   7    4.22    1.25 
  -6  -7  -7    4.93    1.14 
  -6  -7  -7    6.53    0.98 
  -6  -7  -7    5.55    1.23 
  -6  -7  -7    6.73    1.30 
   6   7   7    6.76    1.48 
   6   7   7    4.57    1.12 
  -7  -7  -7    2.06    0.75 
  -7  -7  -7    3.21    1.14 
  -7  -7  -7    4.51    1.23 
  -7  -7  -7    2.82    0.98 
   7   7   7    3.81    1.38 
   7   7   7    3.72    1.25 
  -8  -7  -7    3.80    1.16 
  -8  -7  -7    5.10    1.35 
  -8  -7  -7    1.80    0.77 
  -8  -7  -7    2.30    1.20 
   8   7   7    2.83    1.53 
   8   7   7    2.84    1.71 
  -9  -7  -7    0.22    1.08 
  -9  -7  -7   -0.58    1.35 
   9   7   7   -0.50    1.49 
   9   7   7   -2.21    1.69 
 -10  -7  -7    0.32    1.46 
  10   7   7   -0.79    1.54 
  10   7   7    1.11    2.09 
   3  -8  -7    9.53    1.86 
   3  -8  -7    9.31    1.71 
   2  -8  -7    1.99    1.29 
   1  -8  -7    0.71    1.17 
   1  -8  -7    2.84    1.16 
   1  -8  -7    2.45    1.15 
   0  -8  -7    3.08    1.16 
   0  -8  -7    4.86    1.15 
   0  -8  -7    2.69    1.06 
   0  -8  -7    4.01    1.17 
  -1  -8  -7    2.64    1.04 
  -1  -8  -7    0.70    0.94 
  -1  -8  -7    0.43    0.86 
  -1  -8  -7    1.38    0.92 
  -2  -8  -7    2.91    1.00 
  -2  -8  -7    2.72    1.07 
  -2  -8  -7    1.13    0.95 
  -2  -8  -7    1.74    0.80 
  -3  -8  -7    0.70    0.89 
  -3  -8  -7    0.84    0.96 
  -3  -8  -7    0.87    0.68 
  -3  -8  -7    0.34    0.94 
   3   8   7    0.73    1.13 
  -4  -8  -7   12.01    1.71 
  -4  -8  -7   13.17    1.79 
  -4  -8  -7   13.13    1.83 
   4   8   7   12.63    2.27 
  -5  -8  -7    9.52    1.44 
  -5  -8  -7   10.00    1.74 
  -5  -8  -7   12.95    1.72 
   5   8   7   10.91    1.66 
  -6  -8  -7    4.04    1.20 
  -6  -8  -7    4.62    1.20 
  -6  -8  -7    3.54    1.16 
   6   8   7    4.98    1.53 
  -7  -8  -7    0.34    1.02 
  -7  -8  -7    0.71    0.74 
  -7  -8  -7   -1.56    1.09 
  -7  -8  -7    1.78    1.23 
   7   8   7   -1.13    1.30 
  -8  -8  -7    2.44    0.86 
  -8  -8  -7    1.18    1.15 
  -8  -8  -7    4.28    1.39 
  -8  -8  -7    1.75    1.15 
   8   8   7    1.92    1.62 
  -9  -8  -7    0.59    1.10 
  -9  -8  -7    2.38    1.68 
   9   8   7    2.27    2.06 
   9   8   7   -0.78    1.57 
   2  -9  -7    0.55    1.20 
   1  -9  -7   -0.65    1.16 
   1  -9  -7    0.48    1.10 
   0  -9  -7    3.49    1.27 
   0  -9  -7    4.41    1.29 
   0  -9  -7    3.21    1.32 
   0  -9  -7    0.36    2.23 
  -1  -9  -7    2.74    1.16 
  -1  -9  -7    0.50    1.03 
  -1  -9  -7    0.11    1.10 
  -1  -9  -7    2.27    1.18 
  -2  -9  -7    3.29    0.94 
  -2  -9  -7    0.97    1.07 
  -2  -9  -7    2.02    1.15 
  -2  -9  -7    1.85    1.14 
  -3  -9  -7   -0.52    0.99 
  -3  -9  -7   -0.50    0.95 
  -3  -9  -7   -0.81    0.99 
   3   9   7   -0.47    1.15 
  -4  -9  -7    1.99    1.20 
  -4  -9  -7   -0.66    1.00 
  -4  -9  -7    3.95    1.14 
   4   9   7    1.74    1.36 
  -5  -9  -7    2.75    1.18 
  -5  -9  -7    2.99    1.28 
  -5  -9  -7    4.12    1.14 
   5   9   7    1.18    1.40 
  -6  -9  -7   -0.25    1.12 
  -6  -9  -7    1.39    1.17 
  -6  -9  -7    1.38    1.08 
   6   9   7    1.22    1.50 
  -7  -9  -7   -0.07    0.80 
  -7  -9  -7   -0.53    1.08 
  -7  -9  -7    1.16    1.45 
  -7  -9  -7    0.61    1.23 
   7   9   7    0.51    1.58 
  -8  -9  -7    3.30    1.27 
  -8  -9  -7    5.19    1.60 
   8   9   7    0.64    1.63 
  -9  -9  -7    6.17    1.53 
  -9  -9  -7    6.81    1.68 
   9   9   7    6.81    1.95 
   0 -10  -7    0.60    1.17 
   0 -10  -7   -1.50    1.23 
  -1 -10  -7    5.95    1.41 
  -1 -10  -7    9.39    1.59 
  -1 -10  -7    7.08    1.67 
  -2 -10  -7   -0.83    1.17 
  -2 -10  -7    0.25    1.06 
  -3 -10  -7    3.83    1.26 
  -3 -10  -7    2.37    1.27 
   3  10   7    4.63    1.51 
  -4 -10  -7   -0.98    1.05 
  -4 -10  -7    0.77    1.24 
   4  10   7    0.75    1.47 
  -5 -10  -7    1.15    1.15 
  -5 -10  -7    2.03    1.29 
   5  10   7    0.33    1.52 
  -6 -10  -7   -0.10    1.14 
  -6 -10  -7    0.67    1.36 
   6  10   7   -0.61    1.55 
  -7 -10  -7   -1.97    1.20 
  -7 -10  -7    0.91    1.38 
   7  10   7   -1.54    1.60 
  -4 -11  -7    1.07    1.46 
  -4 -11  -7    2.25    1.25 
   4  11   7   -0.45    1.44 
  -5 -11  -7   -0.57    1.14 
  -5 -11  -7    1.84    1.49 
   5  11   7   -1.37    1.50 
   2   9  -8    4.11    1.51 
   2   9  -8    2.19    1.37 
   1   9  -8    3.11    1.28 
   1   9  -8    5.25    1.53 
   5   8  -8   -0.09    1.24 
   5   8  -8    1.02    1.54 
   4   8  -8    1.36    1.49 
   4   8  -8   -2.12    1.14 
   3   8  -8   -0.69    1.30 
   3   8  -8    0.50    1.18 
   2   8  -8    0.58    1.28 
   2   8  -8   -0.21    1.04 
   1   8  -8    2.87    1.23 
   1   8  -8    1.12    1.29 
   0   8  -8    1.47    1.27 
   0   8  -8    0.26    1.07 
   0   8  -8   -1.18    0.94 
  -1   8  -8   14.02    2.45 
  -1   8  -8   12.00    1.92 
  -1   8  -8   21.46    2.21 
   1  -8   8    8.15    1.90 
  -2   8  -8    6.17    1.41 
  -2   8  -8    6.89    1.43 
  -2   8  -8    5.94    1.28 
   2  -8   8    2.75    1.57 
   6   7  -8    1.73    1.60 
   6   7  -8   -0.08    1.07 
   5   7  -8    3.10    1.14 
   5   7  -8    1.33    1.41 
   4   7  -8    1.80    1.41 
   4   7  -8    0.98    1.23 
   3   7  -8   -1.12    1.19 
   3   7  -8    0.07    1.01 
   2   7  -8   27.50    2.63 
   2   7  -8   30.78    2.35 
   1   7  -8    3.17    1.14 
   1   7  -8    3.62    1.12 
   1   7  -8    2.19    1.25 
   0   7  -8   -0.56    0.88 
   0   7  -8    0.13    0.93 
   0   7  -8    0.04    1.08 
  -1   7  -8    0.68    0.94 
  -1   7  -8   -0.69    1.09 
  -1   7  -8    1.73    0.99 
   1  -7   8   -1.77    1.06 
  -2   7  -8    3.28    1.20 
  -2   7  -8    5.40    1.20 
   2  -7   8    5.78    1.57 
  -3   7  -8    0.70    0.89 
  -3   7  -8    3.12    1.19 
   3  -7   8   -0.17    1.32 
  -4   7  -8    0.69    0.88 
  -4   7  -8    0.41    1.10 
   4  -7   8   -1.60    1.42 
   7   6  -8    3.46    1.65 
   6   6  -8   11.90    1.92 
   6   6  -8   11.09    1.70 
   5   6  -8    0.13    1.11 
   5   6  -8    2.90    1.44 
   4   6  -8    1.50    1.35 
   4   6  -8    4.19    1.15 
   3   6  -8    2.27    1.17 
   3   6  -8    2.13    0.76 
   3   6  -8    0.56    0.96 
   2   6  -8    1.63    1.15 
   2   6  -8    1.23    0.77 
   2   6  -8    0.50    0.88 
   1   6  -8    2.58    0.87 
   1   6  -8    2.30    0.95 
   1   6  -8    0.49    1.06 
   0   6  -8    0.23    0.82 
   0   6  -8    1.64    0.84 
  -1   6  -8    2.55    0.97 
  -1   6  -8    1.25    0.81 
   1  -6   8    2.29    1.18 
  -2   6  -8   11.61    1.55 
  -2   6  -8   10.48    1.66 
   2  -6   8    8.24    1.54 
  -3   6  -8    2.73    1.06 
  -3   6  -8    2.16    0.94 
   3  -6   8   -0.37    1.15 
  -4   6  -8    1.83    1.11 
  -4   6  -8    0.82    0.86 
   4  -6   8    0.63    1.30 
  -5   6  -8   -0.08    1.06 
  -5   6  -8    0.67    0.78 
   5  -6   8   -0.59    1.45 
   7   5  -8   -1.02    1.29 
   6   5  -8    2.12    1.39 
   5   5  -8    0.73    1.25 
   5   5  -8    1.69    0.89 
   4   5  -8    5.04    1.38 
   4   5  -8    6.91    1.18 
   4   5  -8    3.45    1.05 
   3   5  -8    8.22    1.13 
   3   5  -8    6.18    1.30 
   3   5  -8    9.61    1.52 
   2   5  -8   25.80    1.66 
   2   5  -8   28.00    1.95 
   1   5  -8   75.40    3.11 
   1   5  -8   75.07    3.26 
   0   5  -8   79.10    3.36 
   0   5  -8   79.78    3.26 
  -1   5  -8    0.98    0.78 
  -1   5  -8   -0.81    0.67 
  -2   5  -8    0.30    0.75 
  -2   5  -8    0.75    0.83 
   2  -5   8   -1.35    1.00 
  -3   5  -8    0.40    0.70 
  -3   5  -8    0.83    0.82 
   3  -5   8    0.98    1.05 
  -4   5  -8    7.33    1.08 
  -4   5  -8    9.66    1.36 
   4  -5   8    7.54    1.54 
  -5   5  -8    6.76    1.29 
  -5   5  -8    7.45    1.16 
   5  -5   8    3.76    1.52 
  -6   5  -8    0.52    0.73 
  -6   5  -8   -0.14    1.01 
   6  -5   8    1.34    1.61 
   8   4  -8   -1.02    1.44 
   8   4  -8    1.95    1.26 
   7   4  -8    0.23    1.22 
   6   4  -8    4.54    1.40 
   5   4  -8   -1.40    1.11 
   5   4  -8    1.29    0.73 
   4   4  -8    9.44    1.41 
   4   4  -8    9.05    1.32 
   4   4  -8    6.76    1.03 
   3   4  -8    9.45    1.11 
   3   4  -8    9.54    1.31 
   3   4  -8    8.11    1.28 
   2   4  -8   38.31    1.89 
   2   4  -8   34.13    2.03 
   1   4  -8    1.17    0.70 
   1   4  -8    0.45    0.69 
   0   4  -8    0.85    0.68 
   0   4  -8    0.53    0.64 
  -1   4  -8    0.34    0.68 
  -1   4  -8   -0.87    0.55 
  -2   4  -8    8.75    1.22 
  -2   4  -8   10.00    1.39 
   2  -4   8    6.31    1.24 
  -3   4  -8    3.95    0.91 
  -3   4  -8    2.97    0.79 
   3  -4   8    2.39    1.09 
  -4   4  -8   -0.35    0.75 
  -4   4  -8   -0.20    0.65 
   4  -4   8    1.09    1.06 
  -5   4  -8    5.17    1.12 
  -5   4  -8    5.62    0.96 
   5  -4   8    5.45    1.46 
  -6   4  -8    1.25    0.76 
  -6   4  -8    1.27    0.98 
   6  -4   8    0.87    1.35 
   6  -4   8    2.16    1.50 
  -7   4  -8   -0.81    1.02 
  -7   4  -8    0.70    0.71 
   7  -4   8    2.63    1.77 
   7  -4   8   -2.84    1.46 
   8   3  -8    3.19    1.17 
   8   3  -8   -0.42    1.50 
   7   3  -8    2.49    1.10 
   7   3  -8   -0.01    1.41 
   6   3  -8    7.21    1.41 
   5   3  -8   -0.89    0.47 
   5   3  -8    0.48    0.62 
   5   3  -8    0.89    1.08 
   4   3  -8    4.01    1.14 
   4   3  -8    6.37    0.88 
   4   3  -8    8.21    1.17 
   3   3  -8    5.83    0.89 
   3   3  -8    3.32    0.88 
   3   3  -8    5.18    0.70 
   2   3  -8   12.05    1.31 
   2   3  -8   12.78    1.06 
   2   3  -8    7.39    0.66 
   1   3  -8    9.83    1.26 
   1   3  -8    6.57    0.61 
   1   3  -8   11.42    1.13 
   0   3  -8    0.17    0.60 
   0   3  -8    1.14    0.63 
   0   3  -8    1.01    0.34 
  -1   3  -8   62.24    2.65 
  -1   3  -8   60.70    2.20 
  -1   3  -8   60.21    2.62 
  -2   3  -8   80.37    2.86 
  -2   3  -8   79.00    3.17 
  -2   3  -8   82.69    3.19 
   2  -3   8   77.72    3.49 
  -3   3  -8    0.57    0.49 
  -3   3  -8   -0.12    0.54 
  -3   3  -8    1.22    0.67 
   3  -3   8   -0.91    0.76 
  -4   3  -8    1.58    0.76 
  -4   3  -8    0.73    0.58 
  -4   3  -8    0.50    0.62 
   4  -3   8   -0.97    0.97 
  -5   3  -8    0.19    0.57 
  -5   3  -8    0.67    0.70 
  -5   3  -8    1.01    0.82 
   5  -3   8   -0.11    1.18 
   5  -3   8    0.18    1.01 
  -6   3  -8    1.07    0.90 
  -6   3  -8    0.04    0.58 
   6  -3   8    0.25    1.16 
   6  -3   8   -0.22    1.23 
  -7   3  -8    5.93    1.32 
  -7   3  -8    5.78    0.91 
   7  -3   8    7.41    1.62 
   7  -3   8    5.47    1.81 
  -8   3  -8   13.37    2.29 
   8  -3   8   17.39    3.08 
   8  -3   8   12.56    2.47 
   8   2  -8   11.96    2.11 
   7   2  -8    3.75    0.99 
   7   2  -8    1.41    1.46 
   6   2  -8   -0.53    0.64 
   6   2  -8   -0.48    0.83 
   5   2  -8   16.58    1.85 
   5   2  -8   15.37    1.26 
   5   2  -8   17.87    1.31 
   4   2  -8   18.04    1.92 
   4   2  -8   19.29    1.39 
   4   2  -8   20.44    1.25 
   3   2  -8    2.82    0.73 
   3   2  -8    3.57    0.61 
   2   2  -8    5.88    0.79 
   2   2  -8    5.24    0.86 
   2   2  -8    6.18    0.75 
   2   2  -8    7.58    1.13 
   1   2  -8    0.19    0.57 
   1   2  -8    0.23    0.45 
   1   2  -8   -0.16    0.30 
   0   2  -8    1.41    0.57 
   0   2  -8    0.23    0.54 
   0   2  -8    0.89    0.35 
  -1   2  -8    3.26    0.50 
  -1   2  -8    2.24    0.64 
  -1   2  -8    2.04    0.65 
  -2   2  -8    8.86    1.16 
  -2   2  -8    8.01    0.88 
  -2   2  -8   10.69    1.12 
  -3   2  -8    2.73    0.75 
  -3   2  -8    2.06    0.66 
  -3   2  -8    1.80    0.57 
   3  -2   8    1.25    0.75 
  -4   2  -8   10.20    1.14 
  -4   2  -8   12.07    1.36 
  -4   2  -8    9.45    1.12 
   4  -2   8   10.54    1.64 
   4  -2   8   12.59    1.98 
  -5   2  -8    2.16    0.65 
  -5   2  -8    2.55    0.75 
  -5   2  -8    2.52    0.91 
   5  -2   8    1.62    1.00 
   5  -2   8    0.15    1.16 
  -6   2  -8    0.12    0.56 
  -6   2  -8   -0.38    0.77 
  -6   2  -8   -1.15    0.64 
   6  -2   8    1.12    1.04 
   6  -2   8   -0.82    1.27 
  -7   2  -8    4.70    1.19 
  -7   2  -8    2.07    0.64 
  -7   2  -8    3.84    1.07 
   7  -2   8    3.86    1.28 
   7  -2   8    4.70    1.70 
  -8   2  -8    0.50    1.06 
   8  -2   8    0.64    1.33 
   8  -2   8    2.31    1.84 
  -9   2  -8    0.71    1.15 
   9  -2   8    1.12    1.51 
   9  -2   8    0.43    1.87 
   8   1  -8    1.28    1.41 
   7   1  -8   -0.48    1.27 
   6   1  -8   -1.09    0.53 
   6   1  -8   -0.43    0.67 
   6   1  -8   -0.31    1.14 
   5   1  -8    3.76    0.74 
   5   1  -8    1.90    0.87 
   4   1  -8   26.47    1.44 
   4   1  -8   27.37    1.52 
   3   1  -8   11.46    1.14 
   3   1  -8   15.23    1.15 
   2   1  -8    4.28    0.66 
   2   1  -8    5.38    0.85 
   2   1  -8    4.89    0.72 
   1   1  -8    0.51    0.36 
   1   1  -8    0.71    0.47 
   1   1  -8    0.58    0.45 
   0   1  -8    2.87    0.47 
   0   1  -8    2.97    0.49 
   0   1  -8    3.20    0.66 
  -1   1  -8    0.19    0.50 
  -1   1  -8    1.13    0.42 
  -2   1  -8    2.25    0.60 
  -2   1  -8    1.99    0.55 
  -3   1  -8   73.17    2.80 
  -3   1  -8   73.84    2.78 
  -3   1  -8   70.77    2.89 
   3  -1   8   68.53    2.87 
  -4   1  -8   75.04    3.06 
  -4   1  -8   78.24    3.02 
  -4   1  -8   75.66    2.94 
   4  -1   8   73.91    3.66 
   4  -1   8   75.79    2.74 
   4  -1   8   79.72    3.14 
  -5   1  -8    8.25    1.23 
  -5   1  -8    7.51    0.99 
  -5   1  -8    5.73    0.94 
   5  -1   8    5.65    1.34 
   5  -1   8    7.91    1.54 
  -6   1  -8    9.07    1.50 
  -6   1  -8    9.11    1.38 
  -6   1  -8   11.13    1.12 
   6  -1   8   12.51    1.87 
   6  -1   8    7.97    1.63 
  -7   1  -8    0.15    0.78 
  -7   1  -8    0.28    0.54 
  -7   1  -8    0.68    0.85 
   7  -1   8    0.85    1.02 
   7  -1   8    1.28    1.45 
  -8   1  -8    2.24    1.12 
  -8   1  -8    2.83    1.08 
   8  -1   8    3.24    1.24 
   8  -1   8    2.56    1.83 
  -9   1  -8    3.46    1.26 
   9  -1   8    2.20    1.36 
   9  -1   8    1.38    2.05 
   7   0  -8    4.41    1.34 
   6   0  -8    4.36    1.19 
   6   0  -8    8.14    1.04 
   5   0  -8    0.86    0.56 
   5   0  -8    0.09    0.63 
   5   0  -8   -2.52    0.80 
   4   0  -8   16.16    1.71 
   3   0  -8   10.92    1.04 
   2   0  -8    0.80    0.50 
   1   0  -8   13.94    1.02 
   1   0  -8   12.27    1.09 
   1   0  -8   13.80    0.99 
   0   0  -8   67.44    2.65 
   0   0  -8   65.11    2.43 
   0   0  -8   66.44    2.51 
   0   0  -8   69.30    2.36 
  -1   0  -8    2.63    0.50 
  -1   0  -8    3.39    0.50 
  -1   0  -8    1.63    0.57 
  -2   0  -8    0.65    0.48 
  -2   0  -8   -0.17    0.50 
  -2   0  -8    1.08    0.42 
   2   0   8   -0.41    0.37 
  -3   0  -8   -0.01    0.41 
  -3   0  -8    0.88    0.55 
  -3   0  -8    0.19    0.53 
   3   0   8    0.81    0.43 
  -4   0  -8    0.70    0.56 
  -4   0  -8    0.33    0.59 
   4   0   8   -0.58    0.90 
   4   0   8   -0.60    0.42 
  -5   0  -8   71.81    3.04 
  -5   0  -8   72.67    3.06 
   5   0   8   76.79    3.00 
   5   0   8   77.74    2.92 
   5   0   8   72.63    3.67 
  -6   0  -8   26.87    1.89 
  -6   0  -8   28.51    1.93 
  -6   0  -8   26.37    1.53 
   6   0   8   27.75    2.92 
   6   0   8   35.71    2.04 
  -7   0  -8    2.15    0.58 
  -7   0  -8    3.24    0.96 
  -7   0  -8    0.97    0.86 
   7   0   8    2.11    1.48 
   7   0   8    2.77    0.85 
  -8   0  -8   -0.09    0.40 
  -8   0  -8    0.50    0.92 
  -8   0  -8   -0.10    0.93 
   8   0   8   -0.46    1.62 
   8   0   8    0.56    0.81 
  -9   0  -8   15.31    2.21 
  -9   0  -8   12.39    2.06 
   9   0   8   13.86    2.29 
   9   0   8   18.41    3.61 
 -10   0  -8    0.37    1.19 
 -10   0  -8   -0.14    1.08 
  10   0   8    0.17    2.03 
   7  -1  -8    8.56    1.82 
   7  -1  -8   10.09    2.30 
   6  -1  -8    6.32    0.95 
   6  -1  -8    7.26    1.46 
   6  -1  -8    6.41    1.26 
   5  -1  -8    0.43    0.61 
   5  -1  -8   -0.03    0.73 
   4  -1  -8    0.10    0.60 
   3  -1  -8   10.73    1.08 
   2  -1  -8   81.64    3.12 
   1  -1  -8   15.70    1.04 
   1  -1  -8   14.46    1.09 
   1  -1  -8   14.05    1.08 
   0  -1  -8   11.29    0.92 
   0  -1  -8    8.28    0.81 
   0  -1  -8   10.88    0.94 
  -1  -1  -8    0.47    0.40 
  -1  -1  -8    0.07    0.32 
  -1  -1  -8    0.13    0.39 
  -1  -1  -8    0.12    0.46 
   1   1   8    0.34    0.46 
  -2  -1  -8    5.73    0.93 
  -2  -1  -8    4.98    0.89 
  -2  -1  -8    6.58    0.77 
   2   1   8    4.41    0.77 
  -3  -1  -8   11.42    1.16 
  -3  -1  -8    8.70    0.93 
  -3  -1  -8    9.94    1.13 
   3   1   8   10.03    0.92 
  -4  -1  -8    6.27    1.04 
  -4  -1  -8    8.52    0.94 
  -4  -1  -8    7.06    0.94 
   4   1   8    6.91    0.91 
   4   1   8    5.21    1.17 
  -5  -1  -8  135.44    4.79 
  -5  -1  -8  136.78    4.86 
   5   1   8  135.71    4.73 
   5   1   8  132.89    5.31 
  -6  -1  -8    7.67    1.09 
  -6  -1  -8    7.67    1.27 
   6   1   8    7.11    1.52 
  -7  -1  -8    3.46    0.93 
  -7  -1  -8    2.17    0.97 
   7   1   8    3.16    0.74 
   7   1   8    2.29    1.49 
  -8  -1  -8    0.90    0.96 
  -8  -1  -8    0.16    0.92 
  -8  -1  -8    0.73    0.45 
   8   1   8    1.75    1.66 
   8   1   8    0.70    0.79 
  -9  -1  -8   -0.09    1.02 
  -9  -1  -8   -0.41    1.02 
   9   1   8    0.80    2.09 
 -10  -1  -8   12.24    1.86 
 -10  -1  -8   10.51    1.59 
  10   1   8    8.71    2.59 
   7  -2  -8   -1.72    1.30 
   6  -2  -8    6.16    1.54 
   6  -2  -8    5.18    1.22 
   5  -2  -8    1.29    0.76 
   5  -2  -8    2.17    0.73 
   5  -2  -8    0.42    0.94 
   5  -2  -8    0.46    0.89 
   4  -2  -8   14.09    1.46 
   4  -2  -8   15.59    1.47 
   4  -2  -8   15.14    1.69 
   3  -2  -8   13.74    1.28 
   3  -2  -8   12.59    1.35 
   2  -2  -8  173.96    6.08 
   2  -2  -8  185.31    6.10 
   1  -2  -8   -0.58    0.50 
   1  -2  -8    0.24    0.51 
   1  -2  -8    0.86    0.52 
   0  -2  -8    0.06    0.46 
   0  -2  -8    0.24    0.42 
   0  -2  -8    0.13    0.47 
  -1  -2  -8    9.27    0.90 
  -1  -2  -8    7.53    1.03 
  -1  -2  -8    8.04    0.75 
   1   2   8    8.93    0.97 
  -2  -2  -8    3.69    0.70 
  -2  -2  -8    3.86    0.63 
  -2  -2  -8    2.94    0.64 
  -2  -2  -8    6.15    0.86 
   2   2   8    4.15    0.67 
  -3  -2  -8   10.48    1.18 
  -3  -2  -8    9.83    1.11 
  -3  -2  -8   11.88    1.07 
  -3  -2  -8   10.20    0.83 
   3   2   8   11.42    1.02 
  -4  -2  -8    5.20    0.80 
  -4  -2  -8    6.65    0.72 
  -4  -2  -8    5.61    0.88 
  -4  -2  -8    5.14    0.85 
   4   2   8    4.18    1.15 
   4   2   8    5.38    0.92 
  -5  -2  -8    5.06    0.87 
  -5  -2  -8    4.92    0.85 
  -5  -2  -8    5.02    0.90 
   5   2   8    4.13    1.19 
  -6  -2  -8    2.61    0.89 
  -6  -2  -8    1.78    0.75 
   6   2   8    2.31    1.26 
  -7  -2  -8   -1.34    0.75 
  -7  -2  -8    0.37    0.73 
   7   2   8    0.72    1.46 
  -8  -2  -8    1.47    0.90 
  -8  -2  -8   -0.63    0.78 
   8   2   8    1.58    1.78 
  -9  -2  -8    3.76    1.20 
  -9  -2  -8    4.13    1.20 
   9   2   8    2.68    2.06 
 -10  -2  -8    4.91    1.48 
 -10  -2  -8    4.02    1.31 
  10   2   8    6.38    2.53 
   6  -3  -8   -0.91    1.23 
   6  -3  -8   -0.12    1.03 
   5  -3  -8    3.37    1.08 
   5  -3  -8    2.06    0.83 
   5  -3  -8    2.97    1.14 
   4  -3  -8    0.38    0.75 
   4  -3  -8    0.01    0.62 
   4  -3  -8   -0.61    0.81 
   3  -3  -8    3.41    0.94 
   3  -3  -8    2.98    0.84 
   3  -3  -8    3.39    0.93 
   3  -3  -8    4.05    0.77 
   2  -3  -8   12.15    1.30 
   2  -3  -8   10.76    1.24 
   2  -3  -8   11.56    1.27 
   1  -3  -8  116.55    4.14 
   1  -3  -8  117.84    4.22 
   1  -3  -8  116.01    4.30 
   0  -3  -8   17.27    1.19 
   0  -3  -8   16.13    1.27 
   0  -3  -8   16.06    1.18 
   0  -3  -8   16.20    1.36 
  -1  -3  -8   13.76    1.00 
  -1  -3  -8   15.96    1.19 
  -1  -3  -8   13.44    1.23 
  -2  -3  -8   40.47    1.81 
  -2  -3  -8   43.99    2.04 
  -2  -3  -8   43.22    2.00 
  -3  -3  -8   55.21    2.37 
  -3  -3  -8   55.12    2.18 
  -3  -3  -8   54.38    2.32 
  -3  -3  -8   52.75    2.38 
  -4  -3  -8    0.24    0.59 
  -4  -3  -8    0.07    0.47 
  -4  -3  -8    0.07    0.52 
  -4  -3  -8    0.38    0.62 
   4   3   8   -1.06    0.85 
  -5  -3  -8   -0.99    0.65 
  -5  -3  -8    1.81    0.71 
  -5  -3  -8    1.43    0.52 
  -5  -3  -8    1.31    0.66 
   5   3   8    0.00    1.07 
  -6  -3  -8    1.17    0.77 
  -6  -3  -8    0.93    0.76 
  -6  -3  -8    0.01    0.67 
   6   3   8   -0.43    1.21 
  -7  -3  -8   19.32    1.66 
  -7  -3  -8   21.03    1.95 
   7   3   8   19.38    2.92 
  -8  -3  -8   -0.30    0.78 
  -8  -3  -8    0.39    0.95 
   8   3   8    3.32    1.79 
  -9  -3  -8   -0.58    0.91 
  -9  -3  -8    1.06    1.12 
   9   3   8    1.80    2.08 
 -10  -3  -8   -0.72    1.11 
 -10  -3  -8    1.04    1.08 
  10   3   8    0.12    2.41 
   6  -4  -8    1.54    1.27 
   6  -4  -8    3.07    1.41 
   5  -4  -8    0.85    1.13 
   5  -4  -8    0.60    1.03 
   5  -4  -8    2.71    1.14 
   4  -4  -8    4.43    1.04 
   4  -4  -8    4.37    1.24 
   4  -4  -8    2.79    0.80 
   4  -4  -8    4.62    1.15 
   3  -4  -8    0.04    0.67 
   3  -4  -8    0.48    0.87 
   3  -4  -8   -0.37    0.79 
   3  -4  -8   -0.76    0.54 
   2  -4  -8    4.23    1.01 
   2  -4  -8    4.54    0.95 
   2  -4  -8    4.34    0.71 
   2  -4  -8    5.01    0.85 
   1  -4  -8    4.66    0.76 
   1  -4  -8    2.09    0.64 
   1  -4  -8    2.00    0.74 
   1  -4  -8    1.12    0.74 
   0  -4  -8   58.80    2.38 
   0  -4  -8   58.07    2.65 
   0  -4  -8   59.27    2.69 
   0  -4  -8   59.11    2.56 
  -1  -4  -8    9.92    1.20 
  -1  -4  -8    8.94    0.99 
  -1  -4  -8    8.78    1.15 
  -2  -4  -8    6.95    1.13 
  -2  -4  -8    6.93    1.14 
  -2  -4  -8    8.38    1.00 
  -3  -4  -8    2.02    0.66 
  -3  -4  -8    1.89    0.64 
  -3  -4  -8    1.57    0.71 
  -4  -4  -8    6.45    1.10 
  -4  -4  -8    4.32    0.92 
  -4  -4  -8    5.89    0.91 
  -4  -4  -8    6.18    0.91 
   4   4   8    4.63    0.99 
  -5  -4  -8    3.94    0.97 
  -5  -4  -8    3.90    0.74 
  -5  -4  -8    4.46    0.95 
  -5  -4  -8    4.20    0.78 
   5   4   8    3.07    1.16 
  -6  -4  -8   -0.28    0.73 
  -6  -4  -8    0.12    0.82 
  -6  -4  -8   -0.04    0.61 
  -6  -4  -8   -0.12    0.67 
   6   4   8    0.22    1.35 
  -7  -4  -8    4.26    0.93 
  -7  -4  -8    2.88    1.04 
  -7  -4  -8    3.11    1.03 
   7   4   8    5.27    1.78 
  -8  -4  -8    5.12    1.25 
  -8  -4  -8    5.14    1.00 
   8   4   8    5.18    2.01 
  -9  -4  -8   -0.38    0.92 
  -9  -4  -8   -0.61    1.13 
   9   4   8    1.55    2.12 
 -10  -4  -8   -0.30    1.19 
 -10  -4  -8   -0.22    0.99 
  10   4   8    0.22    2.24 
   5  -5  -8   -0.13    1.14 
   5  -5  -8    2.58    1.22 
   4  -5  -8   -0.34    0.98 
   4  -5  -8    2.48    1.02 
   4  -5  -8    0.30    1.03 
   3  -5  -8    0.16    0.91 
   3  -5  -8    0.82    0.80 
   3  -5  -8   -0.67    0.87 
   2  -5  -8   -0.09    0.88 
   2  -5  -8    1.40    0.95 
   2  -5  -8    1.05    0.71 
   1  -5  -8   14.12    1.44 
   1  -5  -8   15.75    1.57 
   1  -5  -8   13.37    1.55 
   0  -5  -8    9.17    1.35 
   0  -5  -8    9.01    1.29 
   0  -5  -8    5.91    1.10 
   0  -5  -8    8.87    1.34 
  -1  -5  -8   47.21    2.37 
  -1  -5  -8   47.30    2.42 
  -1  -5  -8   49.13    2.34 
  -2  -5  -8    4.32    0.93 
  -2  -5  -8    3.50    0.86 
  -2  -5  -8    4.89    0.90 
  -3  -5  -8    5.04    0.92 
  -3  -5  -8    3.91    0.84 
  -3  -5  -8    3.88    0.93 
  -4  -5  -8    4.72    1.00 
  -4  -5  -8    3.81    0.85 
  -4  -5  -8    4.73    0.93 
   4   5   8    3.75    0.78 
  -5  -5  -8   12.85    1.49 
  -5  -5  -8   14.24    1.37 
  -5  -5  -8   13.15    1.54 
  -5  -5  -8   13.61    1.36 
   5   5   8   12.48    1.69 
  -6  -5  -8    1.90    0.75 
  -6  -5  -8    1.31    0.99 
  -6  -5  -8    1.07    0.78 
  -6  -5  -8    2.07    1.06 
   6   5   8   -0.62    1.24 
  -7  -5  -8    7.66    1.05 
  -7  -5  -8    8.07    1.34 
  -7  -5  -8    8.40    1.34 
  -7  -5  -8    5.35    1.20 
   7   5   8    6.93    1.47 
   7   5   8    4.98    1.66 
  -8  -5  -8    0.06    0.85 
  -8  -5  -8   -0.68    1.04 
  -8  -5  -8   -0.05    0.77 
   8   5   8   -0.27    1.66 
   8   5   8   -0.41    1.24 
  -9  -5  -8    1.40    1.22 
  -9  -5  -8    1.50    0.90 
   9   5   8    5.99    2.25 
   9   5   8    2.03    1.41 
 -10  -5  -8    1.18    1.10 
 -10  -5  -8   -0.79    1.32 
  10   5   8    3.35    1.68 
  10   5   8    3.92    2.22 
   4  -6  -8   12.94    2.48 
   4  -6  -8   11.96    2.01 
   3  -6  -8    6.91    1.47 
   3  -6  -8   10.83    2.03 
   3  -6  -8    7.40    1.44 
   2  -6  -8    6.59    1.28 
   2  -6  -8    8.41    1.40 
   2  -6  -8   12.19    1.78 
   1  -6  -8    4.37    1.11 
   1  -6  -8    7.52    1.49 
   1  -6  -8    4.73    1.16 
   0  -6  -8    4.44    1.08 
   0  -6  -8    2.84    0.89 
   0  -6  -8    3.92    1.03 
   0  -6  -8    6.96    1.32 
  -1  -6  -8    3.48    0.94 
  -1  -6  -8    3.70    1.00 
  -1  -6  -8    3.24    0.88 
  -2  -6  -8   24.16    1.82 
  -2  -6  -8   22.26    1.74 
  -2  -6  -8   26.25    1.82 
  -3  -6  -8    3.38    0.93 
  -3  -6  -8    3.50    0.92 
  -3  -6  -8    1.90    0.80 
  -4  -6  -8    0.66    0.79 
  -4  -6  -8    1.77    0.82 
  -4  -6  -8    0.43    0.84 
  -5  -6  -8    0.04    0.68 
  -5  -6  -8    0.19    0.89 
  -5  -6  -8    0.33    0.83 
  -5  -6  -8    1.10    0.96 
   5   6   8    0.02    0.71 
   5   6   8   -0.20    1.08 
  -6  -6  -8    6.31    1.27 
  -6  -6  -8    7.89    1.35 
  -6  -6  -8    4.35    0.94 
  -6  -6  -8    5.96    1.20 
   6   6   8    6.27    1.30 
   6   6   8    2.91    1.33 
  -7  -6  -8    0.56    1.01 
  -7  -6  -8    0.57    0.77 
  -7  -6  -8    0.20    0.93 
  -7  -6  -8    2.07    0.88 
   7   6   8   -0.74    1.17 
   7   6   8   -1.43    1.37 
  -8  -6  -8    0.25    0.82 
  -8  -6  -8    1.50    1.17 
  -8  -6  -8    0.97    1.04 
  -8  -6  -8    0.58    0.86 
   8   6   8    0.97    1.70 
   8   6   8   -0.32    1.31 
  -9  -6  -8    1.59    0.90 
  -9  -6  -8    1.16    1.31 
   9   6   8    0.04    1.88 
   9   6   8    0.30    1.48 
 -10  -6  -8   -0.81    1.38 
  10   6   8    0.47    1.53 
  10   6   8    0.80    2.12 
   3  -7  -8    1.77    1.25 
   2  -7  -8    2.53    1.21 
   2  -7  -8   -0.49    1.05 
   2  -7  -8   -0.14    1.02 
   1  -7  -8    4.64    1.14 
   1  -7  -8    4.19    1.26 
   1  -7  -8    2.31    1.11 
   0  -7  -8    2.98    1.01 
   0  -7  -8    1.21    0.92 
   0  -7  -8    2.23    1.05 
   0  -7  -8    3.06    1.09 
  -1  -7  -8    6.31    1.00 
  -1  -7  -8    5.81    1.16 
  -1  -7  -8    7.34    1.29 
  -1  -7  -8    9.81    1.65 
  -2  -7  -8    0.50    0.79 
  -2  -7  -8   -0.30    0.82 
  -2  -7  -8    0.24    0.91 
  -3  -7  -8   34.50    2.26 
  -3  -7  -8   33.76    2.19 
  -3  -7  -8   31.28    2.12 
  -4  -7  -8   19.85    1.91 
  -4  -7  -8   19.89    1.82 
  -4  -7  -8   21.31    1.88 
  -5  -7  -8   24.51    2.07 
  -5  -7  -8   18.64    1.93 
  -5  -7  -8   22.51    1.95 
   5   7   8   28.19    2.67 
  -6  -7  -8    0.99    0.97 
  -6  -7  -8    0.22    0.76 
  -6  -7  -8    0.11    0.83 
  -6  -7  -8   -1.12    0.92 
   6   7   8    1.29    1.28 
  -7  -7  -8    6.94    1.28 
  -7  -7  -8    7.03    1.39 
  -7  -7  -8    7.29    1.45 
  -7  -7  -8    8.68    1.46 
   7   7   8    7.13    1.72 
  -8  -7  -8    7.21    1.12 
  -8  -7  -8    5.55    1.43 
  -8  -7  -8   10.91    1.92 
  -8  -7  -8    7.49    1.39 
   8   7   8    7.74    1.74 
   8   7   8    6.55    1.87 
  -9  -7  -8    3.45    1.55 
   9   7   8   -2.21    1.49 
   9   7   8    5.40    2.18 
 -10  -7  -8    0.77    1.46 
  10   7   8    3.83    2.12 
  10   7   8    1.81    1.64 
   2  -8  -8    1.94    1.35 
   1  -8  -8   -1.13    1.04 
   1  -8  -8   -0.82    1.03 
   1  -8  -8   -0.26    1.10 
   1  -8  -8    2.22    1.41 
   0  -8  -8    4.07    1.18 
   0  -8  -8    0.94    1.03 
   0  -8  -8    2.86    1.19 
   0  -8  -8    4.90    1.30 
  -1  -8  -8    0.27    1.04 
  -1  -8  -8    1.45    1.07 
  -1  -8  -8    0.91    0.92 
  -1  -8  -8    1.72    1.05 
  -2  -8  -8    0.26    1.01 
  -2  -8  -8    1.05    1.04 
  -2  -8  -8    1.13    0.98 
  -3  -8  -8    0.96    0.97 
  -3  -8  -8    1.14    1.01 
  -3  -8  -8    1.33    1.02 
  -4  -8  -8   60.72    3.15 
  -4  -8  -8   57.70    3.06 
  -4  -8  -8   61.24    3.08 
  -5  -8  -8    3.52    1.26 
  -5  -8  -8    3.97    1.20 
  -5  -8  -8    2.58    1.10 
   5   8   8    2.90    1.48 
  -6  -8  -8    2.52    1.15 
  -6  -8  -8    1.85    1.15 
  -6  -8  -8    2.38    1.15 
   6   8   8    4.85    1.58 
  -7  -8  -8    0.22    1.11 
  -7  -8  -8    1.37    1.03 
  -7  -8  -8    2.18    1.27 
  -7  -8  -8   -0.30    0.83 
   7   8   8   -1.69    1.38 
  -8  -8  -8    7.41    1.59 
  -8  -8  -8    3.46    1.02 
  -8  -8  -8    6.66    1.39 
   8   8   8    4.97    1.78 
  -9  -8  -8    0.62    1.13 
  -9  -8  -8    1.06    1.59 
   9   8   8    4.65    1.80 
   1  -9  -8   -0.27    1.24 
   1  -9  -8    0.15    1.13 
   0  -9  -8    1.55    1.42 
   0  -9  -8    3.63    1.31 
   0  -9  -8    2.40    1.32 
  -1  -9  -8    5.34    1.48 
  -1  -9  -8    6.80    1.41 
  -2  -9  -8   -0.51    1.10 
  -2  -9  -8   -0.86    1.08 
  -2  -9  -8    1.33    1.18 
  -3  -9  -8    1.61    1.11 
  -3  -9  -8   -1.63    1.02 
  -3  -9  -8   -0.75    0.99 
  -4  -9  -8   -0.29    0.99 
  -4  -9  -8   -0.42    1.11 
  -4  -9  -8   -1.75    1.07 
  -5  -9  -8    2.21    1.27 
  -5  -9  -8    6.30    1.46 
  -5  -9  -8    4.99    1.30 
   5   9   8    5.03    1.78 
  -6  -9  -8    0.14    1.14 
  -6  -9  -8    0.35    1.37 
  -6  -9  -8    0.76    1.24 
   6   9   8   -1.72    1.43 
  -7  -9  -8   -0.36    0.90 
  -7  -9  -8    0.83    1.31 
  -7  -9  -8    2.49    1.24 
   7   9   8    1.69    1.66 
  -8  -9  -8    2.59    1.50 
  -8  -9  -8    1.86    1.24 
   8   9   8    2.63    1.79 
  -1 -10  -8   -0.19    1.28 
  -1 -10  -8    0.18    1.18 
  -2 -10  -8    1.46    1.28 
  -2 -10  -8    2.07    1.31 
  -3 -10  -8   -0.01    1.26 
  -3 -10  -8    0.60    1.12 
  -4 -10  -8   -1.38    1.25 
  -4 -10  -8    1.79    1.22 
  -5 -10  -8    1.55    1.44 
  -5 -10  -8   -0.23    1.15 
   5  10   8    0.16    1.58 
  -6 -10  -8   -0.16    1.21 
  -6 -10  -8    2.75    1.47 
   6  10   8    0.27    1.62 
  -7 -10  -8    1.31    1.25 
  -7 -10  -8    1.17    1.00 
  -7 -10  -8    0.66    1.32 
   7  10   8    0.30    1.64 
   3   8  -9   -0.18    1.21 
   3   8  -9    1.18    1.46 
   2   8  -9    1.35    1.24 
   2   8  -9    0.12    1.39 
   1   8  -9   -1.18    1.08 
   1   8  -9    1.02    1.36 
   0   8  -9   17.16    2.72 
   0   8  -9   19.32    2.16 
  -1   8  -9    1.36    1.39 
  -1   8  -9    1.49    1.17 
  -1   8  -9    2.00    1.14 
   5   7  -9    1.32    1.60 
   5   7  -9   -0.21    1.17 
   4   7  -9    1.00    1.26 
   4   7  -9   -0.93    1.41 
   3   7  -9    0.97    1.33 
   3   7  -9   -1.43    1.13 
   2   7  -9    1.77    1.37 
   2   7  -9    1.74    1.22 
   1   7  -9    1.82    1.18 
   1   7  -9    2.70    1.43 
   0   7  -9    4.04    1.13 
   0   7  -9    5.13    1.48 
   0   7  -9    2.11    1.20 
  -1   7  -9    0.09    1.03 
  -1   7  -9    0.69    1.00 
  -2   7  -9    0.73    0.99 
  -2   7  -9    0.18    1.07 
   2  -7   9   -0.97    1.26 
  -3   7  -9    1.13    1.00 
  -3   7  -9    3.86    1.24 
   3  -7   9   -0.08    1.31 
   6   6  -9    2.34    1.75 
   6   6  -9    0.74    1.61 
   5   6  -9    2.34    1.17 
   5   6  -9   -0.82    1.48 
   4   6  -9    8.73    1.48 
   4   6  -9   10.85    1.83 
   3   6  -9   29.50    2.24 
   3   6  -9   34.27    2.85 
   3   6  -9   24.96    1.85 
   2   6  -9   11.25    1.68 
   2   6  -9   11.15    1.74 
   1   6  -9   10.98    1.60 
   1   6  -9    7.82    1.37 
   0   6  -9    0.94    0.90 
   0   6  -9   -0.21    0.90 
  -1   6  -9    0.75    0.89 
  -1   6  -9    1.74    0.97 
  -2   6  -9    1.15    1.02 
  -2   6  -9    1.52    0.92 
   2  -6   9    0.84    1.26 
  -3   6  -9   -0.09    1.00 
  -3   6  -9    0.55    0.91 
   3  -6   9    0.12    1.16 
  -4   6  -9   -1.29    1.03 
  -4   6  -9   -0.56    0.83 
   4  -6   9   -2.61    1.23 
  -5   6  -9    2.04    0.94 
  -5   6  -9    4.03    1.29 
   5  -6   9    2.09    1.49 
   6   5  -9    2.88    1.51 
   5   5  -9   13.70    1.99 
   5   5  -9   14.46    1.74 
   4   5  -9    1.38    1.34 
   4   5  -9    0.82    0.98 
   3   5  -9    6.60    1.26 
   3   5  -9   10.42    1.31 
   3   5  -9    4.95    1.39 
   2   5  -9   29.64    1.86 
   2   5  -9   29.04    2.12 
   1   5  -9    6.77    1.09 
   1   5  -9    6.31    1.24 
   0   5  -9   -2.07    0.83 
   0   5  -9   -0.08    0.86 
  -1   5  -9    7.09    1.15 
  -1   5  -9    8.09    1.17 
  -2   5  -9    5.78    1.11 
  -2   5  -9    3.49    1.01 
   2  -5   9    3.47    1.25 
  -3   5  -9   -0.99    0.87 
  -3   5  -9   -0.07    0.79 
   3  -5   9   -0.48    1.11 
  -4   5  -9    3.98    1.19 
  -4   5  -9    4.16    1.01 
   4  -5   9    1.68    1.29 
  -5   5  -9    3.03    1.13 
  -5   5  -9    1.48    0.87 
   5  -5   9    0.69    1.35 
  -6   5  -9   -1.01    0.69 
  -6   5  -9   -0.84    1.07 
   6  -5   9   -1.85    1.35 
   7   4  -9    3.69    1.49 
   6   4  -9   11.63    1.84 
   5   4  -9    1.59    0.90 
   5   4  -9    2.54    1.35 
   4   4  -9    0.32    0.85 
   4   4  -9   -1.41    1.11 
   4   4  -9    0.12    0.58 
   3   4  -9    0.25    0.92 
   3   4  -9    1.15    0.66 
   2   4  -9   14.58    1.50 
   2   4  -9   13.87    1.65 
   1   4  -9   37.54    2.14 
   1   4  -9   35.36    2.19 
   0   4  -9    4.56    0.97 
   0   4  -9    4.98    0.97 
  -1   4  -9    4.06    0.96 
  -1   4  -9    3.96    0.94 
  -2   4  -9    3.99    0.92 
  -2   4  -9    4.94    1.01 
  -2   4  -9    3.28    0.63 
  -3   4  -9    9.78    1.60 
  -3   4  -9    8.81    1.14 
   3  -4   9    7.65    1.33 
  -4   4  -9    6.40    1.05 
  -4   4  -9    7.90    1.23 
   4  -4   9    6.90    1.38 
  -5   4  -9    1.12    0.99 
  -5   4  -9    2.96    0.89 
   5  -4   9    1.36    1.34 
  -6   4  -9    0.71    0.74 
  -6   4  -9    3.80    1.19 
   6  -4   9    1.43    1.42 
  -7   4  -9    0.71    0.75 
  -7   4  -9    0.00    1.09 
   7  -4   9   -0.13    1.44 
   7  -4   9   -0.55    1.56 
   7   3  -9    2.50    1.64 
   7   3  -9    1.66    1.18 
   6   3  -9    0.11    1.25 
   5   3  -9    4.50    0.91 
   5   3  -9    2.49    1.32 
   4   3  -9    1.14    0.76 
   4   3  -9    0.62    0.57 
   4   3  -9    0.08    1.16 
   3   3  -9   26.82    1.52 
   3   3  -9   27.28    1.45 
   3   3  -9   24.29    1.85 
   2   3  -9    1.19    0.71 
   2   3  -9    3.81    0.75 
   2   3  -9    4.07    0.96 
   1   3  -9    7.56    0.70 
   1   3  -9    8.60    1.42 
   1   3  -9   12.13    1.36 
   0   3  -9    1.76    0.40 
   0   3  -9    2.00    0.76 
   0   3  -9    1.55    0.82 
  -1   3  -9    0.27    0.35 
  -1   3  -9   -0.60    0.67 
  -1   3  -9   -1.31    0.66 
  -2   3  -9    1.57    0.76 
  -2   3  -9    0.84    0.45 
  -2   3  -9    1.87    0.77 
  -3   3  -9   25.77    1.69 
  -3   3  -9   25.57    1.48 
  -3   3  -9   25.14    1.88 
   3  -3   9   23.99    2.12 
  -4   3  -9    7.74    1.16 
  -4   3  -9    8.44    1.14 
  -4   3  -9    5.85    1.13 
   4  -3   9    7.49    1.24 
  -5   3  -9    1.95    0.76 
  -5   3  -9    0.74    0.69 
  -5   3  -9    0.62    0.84 
   5  -3   9   -0.51    1.07 
  -6   3  -9    1.10    1.01 
  -6   3  -9   -0.24    0.66 
   6  -3   9    1.21    1.46 
   6  -3   9    0.40    1.26 
  -7   3  -9    1.93    1.14 
  -7   3  -9   -0.24    0.63 
   7  -3   9   -0.26    1.63 
   7  -3   9    2.03    1.48 
  -8   3  -9   -1.19    1.05 
   8  -3   9    1.00    1.58 
   8  -3   9    4.09    2.03 
   7   2  -9    8.13    1.90 
   7   2  -9   12.35    1.79 
   6   2  -9    0.82    1.05 
   5   2  -9    3.23    0.70 
   5   2  -9    4.73    0.87 
   5   2  -9    4.60    1.26 
   4   2  -9    1.97    0.76 
   4   2  -9    1.08    0.57 
   3   2  -9    9.80    1.08 
   3   2  -9   12.09    1.40 
   3   2  -9   10.49    0.97 
   3   2  -9    9.29    1.14 
   2   2  -9   15.00    1.46 
   2   2  -9   11.94    1.00 
   2   2  -9    9.83    0.95 
   2   2  -9   12.66    1.20 
   1   2  -9   10.69    1.18 
   1   2  -9    9.14    1.25 
   1   2  -9    5.87    0.74 
   0   2  -9    1.50    0.43 
   0   2  -9    1.55    0.65 
   0   2  -9    1.45    0.68 
  -1   2  -9    0.49    0.59 
  -1   2  -9    1.80    0.50 
  -1   2  -9    0.14    0.64 
  -2   2  -9   44.01    1.91 
  -2   2  -9   41.43    2.25 
  -2   2  -9   43.21    2.14 
  -3   2  -9   12.60    1.12 
  -3   2  -9    9.56    1.39 
  -3   2  -9    9.79    1.24 
   3  -2   9    8.31    1.49 
  -4   2  -9   19.18    1.71 
  -4   2  -9   20.95    1.53 
  -4   2  -9   19.88    1.49 
   4  -2   9   17.83    1.86 
  -5   2  -9    0.09    0.63 
  -5   2  -9    0.33    0.81 
  -5   2  -9    0.57    0.69 
   5  -2   9   -0.07    0.92 
   5  -2   9    1.00    1.31 
  -6   2  -9    0.38    0.74 
  -6   2  -9    1.45    0.69 
  -6   2  -9    1.04    0.89 
   6  -2   9    0.24    1.04 
   6  -2   9    1.94    1.49 
  -7   2  -9    1.78    0.73 
  -7   2  -9    0.98    0.92 
  -7   2  -9    0.88    1.04 
   7  -2   9    2.53    1.74 
   7  -2   9    1.68    1.30 
  -8   2  -9    4.79    1.39 
   8  -2   9    2.83    2.06 
   8  -2   9   15.46    2.97 
   7   1  -9   -0.56    1.20 
   6   1  -9    1.37    1.38 
   6   1  -9    1.70    0.92 
   5   1  -9    3.68    0.78 
   5   1  -9    2.73    1.04 
   5   1  -9    3.65    0.81 
   4   1  -9    0.67    0.61 
   4   1  -9    0.06    0.54 
   4   1  -9   -0.29    0.62 
   3   1  -9    0.90    0.73 
   3   1  -9    1.50    0.62 
   3   1  -9    2.46    0.62 
   2   1  -9    8.65    0.93 
   2   1  -9    9.99    1.27 
   2   1  -9   10.58    1.14 
   2   1  -9   10.29    1.04 
   1   1  -9   24.60    1.53 
   1   1  -9   23.34    1.29 
   1   1  -9   23.46    1.28 
   0   1  -9   37.69    1.62 
   0   1  -9   34.15    1.89 
  -1   1  -9   12.78    1.03 
  -1   1  -9    9.54    1.24 
  -2   1  -9   -0.95    0.52 
  -2   1  -9   -0.03    0.52 
  -3   1  -9    5.86    0.83 
  -3   1  -9    6.87    1.08 
  -3   1  -9    5.97    0.90 
  -4   1  -9    2.77    0.78 
  -4   1  -9    1.85    0.67 
  -4   1  -9    2.94    0.74 
   4  -1   9    1.25    0.69 
  -5   1  -9    1.30    0.66 
  -5   1  -9    0.83    0.73 
  -5   1  -9    0.73    0.78 
   5  -1   9    0.99    1.29 
   5  -1   9    0.23    0.84 
  -6   1  -9    0.10    0.84 
  -6   1  -9   -0.30    0.69 
  -6   1  -9   -0.80    0.53 
   6  -1   9   -0.90    0.78 
   6  -1   9    0.36    1.42 
  -7   1  -9    3.71    1.13 
  -7   1  -9    2.97    0.72 
  -7   1  -9    4.65    1.10 
   7  -1   9    4.16    1.13 
   7  -1   9    0.21    1.69 
  -8   1  -9   -0.16    1.07 
  -8   1  -9    0.55    0.92 
   8  -1   9   -0.53    1.80 
  -9   1  -9    0.37    1.15 
  -9   1  -9   -0.34    1.10 
   9  -1   9   -3.05    1.91 
   7   0  -9   -1.09    1.00 
   6   0  -9    0.23    1.03 
   6   0  -9    0.63    0.86 
   5   0  -9   14.37    1.41 
   5   0  -9   12.12    1.49 
   5   0  -9   12.96    1.60 
   4   0  -9    2.16    0.73 
   3   0  -9   -0.31    0.51 
   2   0  -9    0.63    0.58 
   2   0  -9    0.84    0.58 
   2   0  -9    1.09    0.51 
   1   0  -9    2.13    0.61 
   1   0  -9    1.17    0.49 
   1   0  -9    1.11    0.56 
   0   0  -9   14.46    1.05 
   0   0  -9   18.84    1.16 
   0   0  -9   18.95    1.01 
   0   0  -9   17.36    1.37 
  -1   0  -9   15.30    1.09 
  -1   0  -9   14.94    1.30 
  -1   0  -9   11.87    0.88 
  -2   0  -9    0.05    0.55 
  -2   0  -9    1.09    0.56 
   2   0   9    0.22    0.43 
  -3   0  -9    4.90    0.86 
  -3   0  -9    3.73    0.78 
  -3   0  -9    4.90    0.82 
   3   0   9    4.78    0.68 
  -4   0  -9  107.43    4.03 
  -4   0  -9  106.35    3.93 
   4   0   9  102.75    3.68 
  -5   0  -9    1.20    0.72 
  -5   0  -9    0.26    0.68 
   5   0   9   -1.72    1.22 
  -6   0  -9   29.30    1.72 
  -6   0  -9   30.29    2.05 
  -6   0  -9   26.76    2.10 
   6   0   9   29.59    2.91 
   6   0   9   29.03    1.90 
  -7   0  -9    0.27    0.60 
  -7   0  -9    0.15    0.85 
  -7   0  -9    0.32    0.79 
   7   0   9   -1.57    1.49 
  -8   0  -9   -0.71    0.87 
  -8   0  -9    0.38    0.56 
  -8   0  -9    0.31    1.04 
   8   0   9   -1.57    1.76 
  -9   0  -9    2.77    1.28 
  -9   0  -9    1.03    1.07 
   9   0   9    1.74    2.22 
   7  -1  -9    1.96    1.50 
   6  -1  -9   -1.15    1.11 
   6  -1  -9   -0.36    0.90 
   5  -1  -9    0.68    0.92 
   5  -1  -9   -1.11    0.67 
   4  -1  -9   11.76    1.27 
   3  -1  -9   19.86    1.44 
   2  -1  -9    5.68    0.93 
   1  -1  -9    5.55    0.96 
   1  -1  -9    7.23    0.91 
   1  -1  -9    7.97    0.96 
   0  -1  -9    8.69    1.00 
   0  -1  -9    9.39    1.13 
   0  -1  -9    8.43    0.91 
   0  -1  -9    8.20    0.85 
  -1  -1  -9    0.29    0.36 
  -1  -1  -9    0.68    0.47 
  -1  -1  -9    0.56    0.49 
  -1  -1  -9    0.24    0.56 
  -2  -1  -9    1.23    0.58 
  -2  -1  -9    1.41    0.58 
  -2  -1  -9    2.48    0.59 
   2   1   9    1.17    0.54 
  -3  -1  -9   10.18    1.30 
  -3  -1  -9    8.45    1.01 
  -3  -1  -9   10.71    1.23 
   3   1   9   10.89    1.01 
  -4  -1  -9    3.76    0.85 
  -4  -1  -9    4.46    0.85 
  -4  -1  -9    4.82    0.77 
   4   1   9    4.30    0.72 
  -5  -1  -9   54.31    2.39 
  -5  -1  -9   50.61    2.54 
  -5  -1  -9   55.38    2.61 
   5   1   9   58.18    3.38 
  -6  -1  -9   13.51    1.65 
  -6  -1  -9   13.45    1.59 
   6   1   9   13.30    1.93 
  -7  -1  -9    8.84    1.25 
  -7  -1  -9   11.89    1.76 
   7   1   9   11.12    1.97 
  -8  -1  -9   -0.21    0.95 
  -8  -1  -9    0.51    0.61 
  -8  -1  -9    0.80    0.96 
   8   1   9    2.17    1.85 
  -9  -1  -9    2.82    1.20 
  -9  -1  -9    1.01    1.11 
   9   1   9   -0.62    2.05 
   6  -2  -9   -0.06    0.96 
   6  -2  -9    1.66    1.28 
   5  -2  -9   -1.26    0.83 
   5  -2  -9   -0.23    0.82 
   5  -2  -9    0.92    0.70 
   4  -2  -9    6.78    1.22 
   4  -2  -9    5.20    1.00 
   4  -2  -9    6.85    1.14 
   3  -2  -9   11.70    1.38 
   3  -2  -9   12.22    1.27 
   2  -2  -9   -0.12    0.54 
   2  -2  -9    1.01    0.61 
   1  -2  -9    0.35    0.53 
   1  -2  -9    0.83    0.52 
   1  -2  -9    0.18    0.56 
   0  -2  -9    0.66    0.53 
   0  -2  -9   -0.48    0.47 
   0  -2  -9   -0.30    0.42 
  -1  -2  -9    6.48    1.09 
  -1  -2  -9    6.40    0.90 
  -1  -2  -9    5.10    0.72 
  -1  -2  -9    6.62    1.02 
  -2  -2  -9   17.08    1.34 
  -2  -2  -9   15.52    1.01 
  -2  -2  -9   17.46    1.33 
  -2  -2  -9   17.43    1.21 
   2   2   9   17.44    1.25 
  -3  -2  -9   13.98    1.23 
  -3  -2  -9   14.60    1.30 
  -3  -2  -9   14.80    1.32 
  -3  -2  -9   12.46    0.95 
   3   2   9   15.16    1.20 
  -4  -2  -9   -0.04    0.61 
  -4  -2  -9    0.35    0.62 
  -4  -2  -9    1.16    0.73 
  -5  -2  -9   16.56    1.64 
  -5  -2  -9   14.45    1.34 
  -5  -2  -9   12.72    1.45 
   5   2   9   13.56    2.19 
  -6  -2  -9   19.11    1.71 
  -6  -2  -9   22.10    1.93 
  -6  -2  -9   21.31    1.65 
   6   2   9   20.18    2.84 
  -7  -2  -9   13.45    1.68 
  -7  -2  -9   11.67    1.82 
   7   2   9   14.01    2.14 
  -8  -2  -9    7.73    1.41 
  -8  -2  -9    6.05    1.19 
   8   2   9    2.99    1.86 
  -9  -2  -9    1.46    1.16 
  -9  -2  -9    4.93    1.22 
   9   2   9    4.57    2.32 
 -10  -2  -9    7.48    1.65 
 -10  -2  -9    8.16    1.45 
  10   2   9    6.54    2.58 
   6  -3  -9    0.20    1.16 
   5  -3  -9   10.95    1.71 
   5  -3  -9    9.36    1.48 
   5  -3  -9   12.20    1.61 
   5  -3  -9   10.86    1.90 
   4  -3  -9   23.45    2.01 
   4  -3  -9   28.52    2.20 
   4  -3  -9   25.14    2.01 
   4  -3  -9   24.14    1.90 
   3  -3  -9    8.55    1.32 
   3  -3  -9    8.81    1.35 
   3  -3  -9    7.92    1.44 
   3  -3  -9    4.44    1.07 
   2  -3  -9    3.65    0.85 
   2  -3  -9    2.80    0.75 
   2  -3  -9    3.46    0.85 
   1  -3  -9    5.59    0.92 
   1  -3  -9    4.11    0.84 
   1  -3  -9    5.18    0.80 
   1  -3  -9    5.28    0.85 
   0  -3  -9    4.61    0.83 
   0  -3  -9    3.55    0.83 
   0  -3  -9    5.67    0.89 
  -1  -3  -9    5.62    0.88 
  -1  -3  -9    6.02    0.83 
  -1  -3  -9    6.53    1.01 
  -2  -3  -9    0.19    0.62 
  -2  -3  -9    0.31    0.50 
  -2  -3  -9    1.07    0.62 
  -3  -3  -9    2.72    0.65 
  -3  -3  -9    1.64    0.64 
  -3  -3  -9    2.80    0.76 
  -3  -3  -9    1.45    0.73 
  -4  -3  -9   -0.45    0.66 
  -4  -3  -9    0.79    0.70 
  -4  -3  -9    0.18    0.51 
  -4  -3  -9   -0.32    0.55 
  -5  -3  -9    1.22    0.83 
  -5  -3  -9    4.48    0.90 
  -5  -3  -9    3.09    0.82 
  -5  -3  -9    5.07    0.86 
   5   3   9    2.14    1.22 
  -6  -3  -9    0.86    0.77 
  -6  -3  -9    1.45    0.92 
  -6  -3  -9    0.08    0.74 
   6   3   9    1.14    1.43 
  -7  -3  -9    2.88    0.94 
  -7  -3  -9    2.64    1.07 
   7   3   9    2.91    1.64 
  -8  -3  -9    1.36    1.07 
  -8  -3  -9    0.94    0.90 
   8   3   9    3.12    1.95 
  -9  -3  -9    1.23    1.01 
  -9  -3  -9    0.75    1.18 
   9   3   9    1.43    2.16 
 -10  -3  -9   -1.30    1.19 
 -10  -3  -9    0.24    1.09 
  10   3   9    0.88    2.44 
   5  -4  -9    1.91    1.06 
   5  -4  -9    3.09    1.29 
   4  -4  -9   -0.77    0.93 
   4  -4  -9    0.65    0.89 
   4  -4  -9    2.05    1.13 
   3  -4  -9    2.19    1.02 
   3  -4  -9    2.32    0.84 
   3  -4  -9    1.91    0.97 
   2  -4  -9   -0.36    0.60 
   2  -4  -9    1.38    0.92 
   2  -4  -9    1.33    0.64 
   2  -4  -9    1.15    0.79 
   1  -4  -9    0.67    0.68 
   1  -4  -9    0.04    0.70 
   1  -4  -9   -0.48    0.55 
   1  -4  -9    0.57    0.73 
   0  -4  -9   46.78    2.36 
   0  -4  -9   45.08    2.34 
   0  -4  -9   43.28    2.19 
  -1  -4  -9    0.22    0.62 
  -1  -4  -9    1.39    0.61 
  -1  -4  -9   -0.10    0.66 
  -2  -4  -9    1.73    0.78 
  -2  -4  -9    1.12    0.62 
  -2  -4  -9    1.01    0.70 
  -3  -4  -9    2.98    0.76 
  -3  -4  -9    2.92    0.88 
  -3  -4  -9    3.65    0.83 
  -4  -4  -9    0.30    0.61 
  -4  -4  -9    1.40    0.69 
  -4  -4  -9    0.10    0.73 
  -4  -4  -9    0.03    0.72 
  -5  -4  -9    0.64    0.75 
  -5  -4  -9   -0.22    0.65 
  -5  -4  -9    1.16    0.65 
  -5  -4  -9   -0.42    0.80 
   5   4   9   -3.77    1.04 
  -6  -4  -9    0.85    0.79 
  -6  -4  -9    0.67    0.91 
  -6  -4  -9    1.64    0.69 
  -6  -4  -9    1.24    0.87 
   6   4   9    1.55    1.40 
  -7  -4  -9   26.33    2.17 
  -7  -4  -9   27.70    2.04 
  -7  -4  -9   26.81    2.00 
   7   4   9   25.07    2.80 
  -8  -4  -9   15.24    2.13 
  -8  -4  -9   13.57    1.74 
   8   4   9   20.03    3.45 
  -9  -4  -9    1.21    1.28 
  -9  -4  -9    1.45    1.04 
   9   4   9    2.95    2.23 
 -10  -4  -9    2.03    1.41 
 -10  -4  -9    1.62    1.11 
  10   4   9    2.87    2.47 
   5  -5  -9    4.12    1.83 
   5  -5  -9    2.01    1.30 
   4  -5  -9    4.93    1.40 
   3  -5  -9    4.72    1.23 
   3  -5  -9    2.36    1.15 
   3  -5  -9    4.66    1.04 
   2  -5  -9    5.88    1.21 
   2  -5  -9    7.32    1.37 
   2  -5  -9    6.22    1.23 
   1  -5  -9    7.59    1.37 
   1  -5  -9   10.17    1.68 
   1  -5  -9    6.44    1.00 
   1  -5  -9    6.27    1.20 
   0  -5  -9    2.36    0.71 
   0  -5  -9    2.08    0.92 
   0  -5  -9    3.38    1.01 
   0  -5  -9    3.69    0.90 
  -1  -5  -9    1.89    0.83 
  -1  -5  -9    2.05    0.87 
  -1  -5  -9    2.38    0.80 
  -2  -5  -9   10.59    1.49 
  -2  -5  -9   11.21    1.44 
  -2  -5  -9   12.47    1.33 
  -3  -5  -9    9.48    1.30 
  -3  -5  -9   10.03    1.50 
  -3  -5  -9    9.50    1.39 
  -4  -5  -9    8.81    1.32 
  -4  -5  -9   10.17    1.45 
  -4  -5  -9   10.66    1.42 
  -4  -5  -9   11.72    1.51 
  -5  -5  -9    2.46    0.95 
  -5  -5  -9    2.45    0.95 
  -5  -5  -9    2.58    0.81 
  -5  -5  -9    1.49    0.84 
   5   5   9    0.40    0.90 
  -6  -5  -9    0.66    0.85 
  -6  -5  -9    0.93    0.95 
  -6  -5  -9   -0.29    0.69 
  -6  -5  -9   -0.13    0.95 
   6   5   9   -1.64    1.11 
  -7  -5  -9    2.38    0.95 
  -7  -5  -9   -0.39    1.02 
  -7  -5  -9    1.49    0.79 
  -7  -5  -9    1.76    0.96 
   7   5   9   -0.65    1.53 
  -8  -5  -9    0.90    1.18 
  -8  -5  -9    0.40    0.88 
  -8  -5  -9    0.48    0.93 
   8   5   9    2.49    1.87 
  -9  -5  -9    4.10    1.09 
  -9  -5  -9    1.31    1.33 
   9   5   9    5.75    2.39 
 -10  -5  -9   -1.61    1.22 
 -10  -5  -9    0.01    0.99 
  10   5   9    2.80    2.34 
   4  -6  -9    0.38    1.20 
   3  -6  -9    4.73    1.34 
   2  -6  -9   -0.35    1.01 
   2  -6  -9    0.90    1.02 
   2  -6  -9   -0.43    0.84 
   1  -6  -9    1.55    1.05 
   1  -6  -9    0.52    0.83 
   1  -6  -9    2.28    0.98 
   1  -6  -9    1.64    0.98 
   0  -6  -9    3.93    0.87 
   0  -6  -9    5.26    1.12 
   0  -6  -9    4.34    1.10 
   0  -6  -9    4.29    1.09 
  -1  -6  -9   17.72    1.85 
  -1  -6  -9   20.24    1.85 
  -1  -6  -9   16.01    1.65 
  -2  -6  -9   53.74    2.75 
  -2  -6  -9   52.06    2.65 
  -2  -6  -9   51.92    2.77 
  -3  -6  -9   -0.54    0.74 
  -3  -6  -9    0.15    0.80 
  -3  -6  -9   -0.88    0.74 
  -4  -6  -9    8.90    1.35 
  -4  -6  -9    8.67    1.45 
  -4  -6  -9   10.80    1.61 
  -5  -6  -9    1.27    0.87 
  -5  -6  -9    2.54    1.00 
  -5  -6  -9    2.26    0.91 
  -5  -6  -9    0.43    0.95 
  -6  -6  -9    7.81    1.32 
  -6  -6  -9    6.66    1.28 
  -6  -6  -9    5.19    1.03 
  -6  -6  -9    3.30    1.15 
   6   6   9    7.19    1.23 
  -7  -6  -9    1.15    0.94 
  -7  -6  -9    0.75    1.14 
  -7  -6  -9    3.84    0.97 
  -7  -6  -9    2.29    1.12 
   7   6   9    0.03    1.20 
  -8  -6  -9   -0.64    1.12 
  -8  -6  -9   -0.09    0.96 
  -8  -6  -9    1.34    1.10 
  -8  -6  -9    1.05    0.96 
   8   6   9   -0.31    1.72 
  -9  -6  -9    8.17    1.25 
  -9  -6  -9   12.03    1.90 
   9   6   9    7.26    2.54 
   3  -7  -9    0.52    1.25 
   2  -7  -9   16.36    2.16 
   1  -7  -9    1.94    1.02 
   1  -7  -9    2.25    1.19 
   1  -7  -9    0.51    1.03 
   1  -7  -9    0.35    1.08 
   0  -7  -9    2.59    1.12 
   0  -7  -9    3.05    1.24 
   0  -7  -9    3.08    1.15 
   0  -7  -9    3.29    1.19 
  -1  -7  -9    1.09    1.01 
  -1  -7  -9    2.21    1.10 
  -1  -7  -9    2.27    1.01 
  -2  -7  -9    5.65    1.21 
  -2  -7  -9    5.65    1.21 
  -2  -7  -9    5.63    1.19 
  -3  -7  -9    2.66    1.06 
  -3  -7  -9    3.41    1.06 
  -3  -7  -9    3.84    1.11 
  -4  -7  -9   -1.11    0.82 
  -4  -7  -9    0.68    0.99 
  -4  -7  -9    1.17    0.96 
  -5  -7  -9    3.54    1.08 
  -5  -7  -9    4.46    1.12 
  -5  -7  -9    5.50    1.26 
  -6  -7  -9    0.61    1.07 
  -6  -7  -9    1.37    1.01 
  -6  -7  -9    1.02    0.90 
  -6  -7  -9    0.64    0.91 
  -7  -7  -9    6.46    1.47 
  -7  -7  -9    5.72    1.38 
  -7  -7  -9    5.03    1.17 
  -7  -7  -9    5.17    1.10 
   7   7   9    6.51    1.79 
  -8  -7  -9    0.82    0.97 
  -8  -7  -9    0.33    1.24 
  -8  -7  -9    0.96    0.99 
  -8  -7  -9   -1.10    0.99 
   8   7   9    0.94    1.56 
  -9  -7  -9    2.79    1.59 
  -9  -7  -9    1.92    0.98 
   9   7   9    0.32    1.58 
   9   7   9    1.80    3.07 
   2  -8  -9    1.77    1.21 
   2  -8  -9    1.49    1.38 
   1  -8  -9   -0.08    1.20 
   1  -8  -9   -0.38    1.04 
   0  -8  -9    2.39    1.27 
   0  -8  -9    1.27    1.18 
  -1  -8  -9    3.59    1.21 
  -1  -8  -9    1.85    1.23 
  -1  -8  -9   -0.73    1.04 
  -2  -8  -9    0.23    1.02 
  -2  -8  -9    0.19    1.07 
  -2  -8  -9    0.33    1.04 
  -3  -8  -9   44.57    2.74 
  -3  -8  -9   47.02    2.85 
  -3  -8  -9   47.93    2.82 
  -4  -8  -9   16.63    2.13 
  -4  -8  -9   17.30    2.04 
  -4  -8  -9   19.76    2.02 
  -5  -8  -9   -0.31    1.05 
  -5  -8  -9   -0.81    1.09 
  -5  -8  -9   -0.80    0.99 
  -6  -8  -9    0.15    1.02 
  -6  -8  -9   -0.45    1.10 
  -6  -8  -9    0.28    1.05 
  -6  -8  -9    0.58    1.08 
  -7  -8  -9    0.09    1.18 
  -7  -8  -9    3.36    1.15 
  -7  -8  -9   -0.14    1.65 
  -7  -8  -9    0.88    0.96 
   7   8   9   -0.42    1.56 
  -8  -8  -9    2.52    1.47 
  -8  -8  -9   -1.12    0.93 
  -8  -8  -9    0.67    1.04 
   8   8   9   -1.03    1.62 
   0  -9  -9   -0.08    1.18 
   0  -9  -9   -0.27    1.20 
  -1  -9  -9   -0.20    1.23 
  -1  -9  -9    0.09    1.19 
  -2  -9  -9    0.60    1.18 
  -2  -9  -9   -0.35    1.16 
  -3  -9  -9    1.29    1.28 
  -3  -9  -9    2.91    1.21 
  -4  -9  -9    2.09    1.24 
  -4  -9  -9    2.12    1.22 
  -5  -9  -9   -0.68    1.10 
  -5  -9  -9   -1.97    0.96 
  -6  -9  -9    4.83    1.44 
  -6  -9  -9    2.90    1.31 
   6   9   9    5.16    1.81 
  -7  -9  -9    0.04    1.09 
  -7  -9  -9    1.46    1.35 
  -7  -9  -9    0.36    0.94 
   7   9   9   -0.72    1.53 
  -3 -10  -9   -0.67    1.08 
  -3 -10  -9   -1.02    1.20 
  -4 -10  -9    4.76    1.39 
  -4 -10  -9    3.48    1.53 
  -5 -10  -9   10.90    1.66 
  -5 -10  -9    9.34    1.85 
   3   7 -10    1.95    1.41 
   3   7 -10    2.65    1.59 
   2   7 -10    7.08    1.57 
   2   7 -10    2.92    1.56 
   1   7 -10   -0.90    1.31 
   1   7 -10   -0.69    1.10 
   0   7 -10    2.79    1.30 
   0   7 -10    0.73    1.58 
   0   7 -10   -0.38    1.29 
  -1   7 -10   16.22    2.17 
  -1   7 -10   17.22    2.17 
  -2   7 -10    3.47    1.27 
  -2   7 -10    1.33    1.17 
   5   6 -10   -0.58    1.56 
   5   6 -10    1.28    1.15 
   4   6 -10    8.28    1.86 
   4   6 -10    7.40    1.46 
   3   6 -10    7.53    1.76 
   3   6 -10    4.35    1.33 
   2   6 -10    1.65    1.48 
   2   6 -10    1.25    1.18 
   1   6 -10    3.23    1.28 
   0   6 -10    1.78    1.18 
   0   6 -10    2.39    1.05 
  -1   6 -10    6.66    1.34 
  -1   6 -10    5.15    1.29 
  -2   6 -10   -0.22    1.08 
  -2   6 -10    1.46    1.00 
  -3   6 -10    8.62    1.51 
  -3   6 -10    7.71    1.30 
   3  -6  10    6.26    1.66 
  -4   6 -10    3.75    1.16 
  -4   6 -10    3.43    1.27 
   4  -6  10    1.84    1.38 
   5   5 -10    2.50    1.65 
   5   5 -10    4.54    1.22 
   4   5 -10    0.37    1.06 
   4   5 -10    1.85    1.50 
   3   5 -10    2.56    1.19 
   3   5 -10    1.31    1.30 
   2   5 -10    3.35    1.20 
   1   5 -10    8.71    1.38 
   1   5 -10   12.71    1.72 
   0   5 -10    7.80    1.28 
   0   5 -10    6.76    1.28 
  -1   5 -10    3.05    1.11 
  -1   5 -10    0.77    0.98 
  -2   5 -10   10.01    1.45 
  -2   5 -10    7.11    1.29 
  -3   5 -10    8.72    1.46 
  -3   5 -10    7.53    1.33 
   3  -5  10    6.82    1.47 
  -4   5 -10   -2.22    0.94 
  -4   5 -10    0.34    0.90 
   4  -5  10   -1.96    1.12 
  -5   5 -10    2.79    0.99 
  -5   5 -10    3.67    1.32 
   5  -5  10    0.31    1.38 
   6   4 -10   -0.53    1.39 
   5   4 -10    6.03    1.19 
   5   4 -10    2.93    1.53 
   4   4 -10   -1.24    1.26 
   4   4 -10   -0.24    0.94 
   3   4 -10   26.45    2.13 
   2   4 -10    2.31    1.05 
   2   4 -10    1.88    0.87 
   1   4 -10   30.24    2.20 
   1   4 -10   27.16    2.11 
   0   4 -10    7.50    1.20 
   0   4 -10    8.20    1.27 
  -1   4 -10    1.39    0.89 
  -1   4 -10   -1.46    0.84 
  -2   4 -10    2.82    1.03 
  -2   4 -10    1.43    0.91 
  -3   4 -10   19.83    2.05 
  -3   4 -10   18.01    1.75 
   3  -4  10   16.89    2.19 
  -4   4 -10    3.18    1.09 
  -4   4 -10    3.87    0.99 
   4  -4  10    4.59    1.33 
  -5   4 -10   11.34    1.64 
  -5   4 -10    9.24    1.51 
   5  -4  10   12.15    2.32 
  -6   4 -10    0.88    0.82 
  -6   4 -10   -0.01    1.15 
   6  -4  10   -3.29    1.35 
   6   3 -10    1.25    1.35 
   5   3 -10   -1.17    1.25 
   5   3 -10    0.04    0.85 
   4   3 -10    0.80    0.67 
   4   3 -10   -0.41    1.24 
   4   3 -10    0.53    0.93 
   3   3 -10   13.69    1.71 
   2   3 -10   -1.29    0.89 
   1   3 -10   -0.13    0.90 
   1   3 -10    2.19    0.84 
   0   3 -10    1.50    0.91 
   0   3 -10    0.61    0.82 
  -1   3 -10    0.34    0.79 
  -1   3 -10    0.97    0.45 
  -1   3 -10    1.09    0.85 
  -2   3 -10   -0.25    0.79 
  -2   3 -10    0.60    0.88 
  -2   3 -10    0.88    0.48 
  -3   3 -10    1.47    0.59 
  -3   3 -10    1.77    0.93 
  -3   3 -10    1.95    0.88 
  -4   3 -10   11.10    1.52 
  -4   3 -10   12.32    1.84 
  -4   3 -10   15.66    1.42 
   4  -3  10   14.35    2.00 
  -5   3 -10    0.54    0.75 
  -5   3 -10   -0.02    0.96 
   5  -3  10    0.62    1.13 
  -6   3 -10    2.70    0.90 
  -6   3 -10    3.36    1.19 
   6  -3  10   -0.26    1.27 
  -7   3 -10    0.88    0.79 
  -7   3 -10    1.08    1.17 
   7  -3  10   -2.73    1.49 
   7  -3  10   -1.86    1.61 
   6   2 -10    2.02    1.12 
   5   2 -10    1.90    1.30 
   5   2 -10    7.13    1.27 
   4   2 -10    1.93    0.65 
   4   2 -10   -0.34    0.81 
   4   2 -10    1.55    0.76 
   3   2 -10   12.70    1.28 
   3   2 -10   10.89    1.15 
   3   2 -10   12.91    1.65 
   3   2 -10   12.48    1.23 
   2   2 -10   -0.05    0.54 
   2   2 -10   -1.08    0.41 
   2   2 -10    0.38    0.84 
   2   2 -10    0.71    0.64 
   1   2 -10    9.91    0.92 
   1   2 -10   13.39    1.42 
   1   2 -10   13.25    1.50 
   0   2 -10   -0.24    0.45 
   0   2 -10   -0.86    0.65 
   0   2 -10    0.01    0.69 
  -1   2 -10   20.33    1.68 
  -1   2 -10   22.10    1.34 
  -1   2 -10   23.77    1.84 
  -2   2 -10    7.11    1.05 
  -2   2 -10    5.04    0.98 
  -2   2 -10    4.81    0.74 
  -3   2 -10   -0.29    0.71 
  -3   2 -10   -0.24    0.52 
  -3   2 -10    0.14    0.72 
  -4   2 -10    1.10    0.64 
  -4   2 -10    1.14    0.88 
  -4   2 -10    0.35    0.75 
   4  -2  10   -0.42    0.60 
  -5   2 -10    0.50    0.75 
  -5   2 -10   -0.15    0.63 
  -5   2 -10    0.86    0.89 
   5  -2  10   -0.65    0.72 
  -6   2 -10    1.32    1.11 
  -6   2 -10    2.25    0.87 
  -6   2 -10    0.31    0.97 
   6  -2  10    0.73    1.63 
   6  -2  10   -0.53    1.05 
  -7   2 -10   26.11    1.80 
  -7   2 -10   21.54    2.38 
  -7   2 -10   30.22    2.24 
   7  -2  10   23.64    3.43 
  -8   2 -10    7.11    1.50 
   8  -2  10    5.85    2.27 
   6   1 -10    2.07    0.87 
   6   1 -10   -0.14    1.34 
   5   1 -10    7.32    1.25 
   5   1 -10    4.65    1.26 
   4   1 -10    4.71    0.89 
   4   1 -10    4.67    1.01 
   3   1 -10    2.52    0.78 
   3   1 -10    1.43    0.87 
   3   1 -10    2.81    0.72 
   3   1 -10    2.29    0.61 
   2   1 -10    0.93    0.82 
   2   1 -10   -0.37    0.48 
   2   1 -10   -0.50    0.61 
   2   1 -10   -0.07    0.58 
   1   1 -10    5.95    1.03 
   1   1 -10    7.92    1.29 
   1   1 -10    5.40    0.86 
   1   1 -10    5.20    0.75 
   0   1 -10    2.64    0.80 
   0   1 -10    2.63    0.57 
  -1   1 -10   10.43    1.06 
  -1   1 -10    8.17    1.36 
  -2   1 -10   -0.14    0.56 
  -2   1 -10    1.44    0.74 
  -2   1 -10    0.59    0.69 
  -3   1 -10    0.94    0.65 
  -3   1 -10    2.21    0.83 
  -3   1 -10    1.50    0.76 
  -4   1 -10   26.70    1.92 
  -4   1 -10   22.25    1.65 
  -4   1 -10   23.66    1.70 
  -5   1 -10   13.82    1.45 
  -5   1 -10   16.50    1.59 
  -5   1 -10   13.63    1.81 
  -6   1 -10    3.45    0.88 
  -6   1 -10    3.73    1.12 
  -6   1 -10    4.47    0.99 
   6  -1  10    3.79    1.80 
  -7   1 -10   -0.25    1.10 
  -7   1 -10    2.10    0.99 
  -7   1 -10    0.35    0.68 
   7  -1  10    0.82    1.79 
  -8   1 -10    0.50    0.71 
  -8   1 -10    3.03    1.26 
  -8   1 -10   -1.17    0.91 
   8  -1  10   -2.06    1.93 
   6   0 -10    0.86    0.83 
   6   0 -10   -0.09    1.03 
   5   0 -10    2.06    1.02 
   5   0 -10    4.34    0.94 
   4   0 -10    0.94    0.71 
   3   0 -10   -1.23    0.58 
   3   0 -10    0.04    0.52 
   3   0 -10   -0.08    0.60 
   2   0 -10   -1.41    0.53 
   2   0 -10    0.71    0.51 
   2   0 -10   -0.31    0.63 
   1   0 -10    0.09    0.49 
   1   0 -10    0.54    0.56 
   1   0 -10    1.67    0.56 
   1   0 -10    0.08    0.61 
   0   0 -10   13.40    1.45 
   0   0 -10   12.60    1.04 
   0   0 -10   17.28    1.20 
  -1   0 -10   12.08    0.97 
  -1   0 -10   13.46    1.47 
  -1   0 -10   15.23    1.20 
  -2   0 -10    2.41    0.54 
  -2   0 -10    2.04    0.69 
  -2   0 -10    2.47    0.75 
  -3   0 -10   29.97    1.95 
  -3   0 -10   26.58    1.42 
  -3   0 -10   28.55    1.78 
  -4   0 -10   33.99    2.12 
  -4   0 -10   36.52    2.08 
  -5   0 -10   23.86    1.93 
  -5   0 -10   21.55    1.89 
  -6   0 -10    6.75    1.25 
  -6   0 -10    6.32    0.97 
  -6   0 -10    7.38    1.20 
   6   0  10    5.55    1.74 
  -7   0 -10    0.36    0.87 
  -7   0 -10    0.96    0.74 
  -7   0 -10    2.33    1.06 
   7   0  10   -0.56    1.60 
  -8   0 -10    2.38    1.15 
  -8   0 -10    1.93    1.08 
  -8   0 -10    0.72    0.70 
   8   0  10    5.01    2.12 
  -9   0 -10   -0.90    1.13 
  -9   0 -10   -0.35    1.05 
   9   0  10   -2.85    2.06 
   6  -1 -10   -2.56    0.98 
   6  -1 -10   -0.17    0.77 
   5  -1 -10   -0.43    0.69 
   4  -1 -10    2.02    0.77 
   3  -1 -10    0.84    0.63 
   2  -1 -10    3.28    0.73 
   2  -1 -10    4.93    0.81 
   2  -1 -10    4.06    0.82 
   1  -1 -10    2.88    0.80 
   1  -1 -10    4.99    0.89 
   1  -1 -10    2.73    0.70 
   1  -1 -10    3.81    0.75 
   0  -1 -10    2.73    0.65 
   0  -1 -10    2.14    0.71 
   0  -1 -10    3.26    0.71 
   0  -1 -10    1.61    0.57 
  -1  -1 -10    3.60    0.74 
  -1  -1 -10    3.98    0.70 
  -1  -1 -10    3.00    0.77 
  -2  -1 -10    1.18    0.65 
  -2  -1 -10    2.75    0.65 
  -2  -1 -10    1.32    0.72 
   2   1  10    0.82    0.58 
  -3  -1 -10    1.11    0.58 
  -3  -1 -10    0.92    0.72 
  -3  -1 -10    0.33    0.70 
   3   1  10    0.68    1.12 
  -4  -1 -10   27.09    1.87 
  -4  -1 -10   25.66    1.85 
  -4  -1 -10   26.20    1.53 
  -5  -1 -10   53.17    2.43 
  -5  -1 -10   51.96    2.69 
  -5  -1 -10   60.28    2.79 
   5   1  10   55.32    3.41 
  -6  -1 -10   48.18    2.65 
  -6  -1 -10   45.61    2.59 
   6   1  10   46.18    3.49 
  -7  -1 -10    7.83    1.30 
  -7  -1 -10    5.86    1.21 
   7   1  10    7.33    2.05 
  -8  -1 -10    3.00    1.15 
  -8  -1 -10    1.82    0.78 
  -8  -1 -10    5.81    1.30 
   8   1  10    0.17    2.04 
  -9  -1 -10    5.78    1.43 
  -9  -1 -10    4.41    1.30 
   9   1  10    4.04    2.43 
   5  -2 -10    3.66    1.08 
   5  -2 -10    5.18    1.00 
   5  -2 -10    2.86    1.15 
   4  -2 -10   -0.74    0.60 
   4  -2 -10   -1.58    0.72 
   3  -2 -10   22.28    1.63 
   3  -2 -10   20.14    1.76 
   3  -2 -10   21.69    1.64 
   2  -2 -10    6.66    1.15 
   2  -2 -10    2.74    0.81 
   2  -2 -10    2.36    0.74 
   2  -2 -10    2.83    0.79 
   1  -2 -10    0.95    0.63 
   1  -2 -10    0.40    0.61 
   1  -2 -10    0.47    0.59 
   0  -2 -10   -0.56    0.49 
   0  -2 -10   -0.38    0.48 
   0  -2 -10   -0.12    0.56 
  -1  -2 -10   18.52    1.52 
  -1  -2 -10   19.95    1.34 
  -1  -2 -10   21.69    1.57 
  -1  -2 -10   17.34    1.14 
  -2  -2 -10   -0.08    0.62 
  -2  -2 -10    0.73    0.69 
  -2  -2 -10    0.77    0.61 
  -3  -2 -10   17.65    1.56 
  -3  -2 -10   18.48    1.61 
  -3  -2 -10   17.91    1.36 
  -4  -2 -10   17.55    1.70 
  -4  -2 -10   16.37    1.40 
  -4  -2 -10   16.73    1.64 
  -5  -2 -10    1.73    0.87 
  -5  -2 -10    0.57    0.80 
  -5  -2 -10    1.77    0.71 
   5   2  10    0.32    1.18 
  -6  -2 -10   14.68    1.85 
  -6  -2 -10   15.06    1.47 
  -6  -2 -10   12.59    1.76 
   6   2  10   13.65    2.65 
  -7  -2 -10    2.17    1.03 
  -7  -2 -10    0.07    0.90 
   7   2  10    0.37    1.75 
  -8  -2 -10    1.87    1.08 
  -8  -2 -10    1.37    1.09 
   8   2  10   -1.20    2.00 
  -9  -2 -10    3.00    1.35 
  -9  -2 -10    5.48    1.31 
   9   2  10    4.18    2.49 
   5  -3 -10    2.98    1.13 
   5  -3 -10    2.61    1.23 
   4  -3 -10   18.97    1.84 
   4  -3 -10   19.20    1.85 
   4  -3 -10   18.26    1.86 
   3  -3 -10   49.64    2.55 
   3  -3 -10   52.12    2.73 
   3  -3 -10   49.42    2.62 
   3  -3 -10   50.13    2.62 
   2  -3 -10   -0.53    0.73 
   2  -3 -10    0.12    0.65 
   2  -3 -10    0.07    0.64 
   2  -3 -10   -0.32    0.65 
   1  -3 -10    3.63    0.91 
   1  -3 -10    1.41    0.74 
   1  -3 -10    2.49    0.80 
   1  -3 -10    2.91    0.79 
   0  -3 -10    1.29    0.67 
   0  -3 -10    1.77    0.80 
   0  -3 -10    1.61    0.63 
  -1  -3 -10    1.30    0.78 
  -1  -3 -10    1.56    0.65 
  -1  -3 -10    0.69    0.55 
  -2  -3 -10    6.47    1.10 
  -2  -3 -10    5.11    0.96 
  -2  -3 -10    4.30    0.83 
  -2  -3 -10    5.29    0.90 
  -3  -3 -10    0.31    0.56 
  -3  -3 -10   -0.26    0.61 
  -3  -3 -10    0.56    0.73 
  -3  -3 -10   -0.40    0.64 
  -4  -3 -10    1.56    0.58 
  -4  -3 -10    2.04    0.77 
  -4  -3 -10    0.15    0.75 
  -4  -3 -10    1.43    0.78 
  -5  -3 -10    1.99    0.59 
  -5  -3 -10    1.63    0.85 
  -5  -3 -10    1.08    0.88 
  -5  -3 -10    1.56    0.81 
   5   3  10    1.15    1.26 
  -6  -3 -10    3.04    0.91 
  -6  -3 -10    5.02    1.16 
  -6  -3 -10    4.23    1.01 
   6   3  10    2.95    1.47 
  -7  -3 -10   22.58    2.18 
  -7  -3 -10   24.39    1.88 
  -7  -3 -10   21.91    1.98 
   7   3  10   24.94    3.10 
  -8  -3 -10   43.26    2.68 
  -8  -3 -10   46.70    2.99 
   8   3  10   41.46    4.03 
  -9  -3 -10    5.72    1.55 
  -9  -3 -10    4.60    1.24 
   9   3  10    5.81    2.57 
   4  -4 -10   10.25    1.78 
   4  -4 -10    6.87    1.36 
   3  -4 -10    4.23    0.96 
   3  -4 -10    4.52    1.10 
   3  -4 -10    3.86    1.18 
   2  -4 -10   14.28    1.87 
   2  -4 -10   15.46    1.69 
   2  -4 -10   14.11    1.53 
   2  -4 -10   14.48    1.50 
   1  -4 -10    3.60    1.01 
   1  -4 -10    2.21    0.76 
   1  -4 -10    4.50    1.03 
   1  -4 -10    2.97    0.85 
   0  -4 -10    6.36    1.10 
   0  -4 -10    8.16    1.34 
   0  -4 -10    6.16    1.08 
  -1  -4 -10   25.37    1.95 
  -1  -4 -10   24.20    1.58 
  -1  -4 -10   24.95    1.80 
  -2  -4 -10   19.46    1.77 
  -2  -4 -10   18.97    1.62 
  -2  -4 -10   21.40    1.48 
  -3  -4 -10    2.12    0.75 
  -3  -4 -10    1.19    0.86 
  -3  -4 -10    0.88    0.70 
  -3  -4 -10    2.29    0.88 
  -4  -4 -10    0.39    0.72 
  -4  -4 -10    0.79    0.81 
  -4  -4 -10    1.63    0.70 
  -4  -4 -10    0.25    0.78 
  -5  -4 -10    7.29    1.19 
  -5  -4 -10    5.24    1.04 
  -5  -4 -10    8.68    1.13 
  -5  -4 -10    6.76    1.27 
  -6  -4 -10    6.83    1.15 
  -6  -4 -10    7.71    1.31 
  -6  -4 -10    7.28    1.15 
  -6  -4 -10    6.17    1.15 
   6   4  10    5.30    1.56 
  -7  -4 -10    9.82    1.58 
  -7  -4 -10    8.26    1.32 
  -7  -4 -10    4.93    1.28 
   7   4  10    6.16    1.78 
  -8  -4 -10    4.48    1.20 
  -8  -4 -10    4.42    1.34 
   8   4  10    4.20    2.14 
  -9  -4 -10    1.38    1.29 
  -9  -4 -10    2.45    1.08 
   9   4  10    0.85    2.38 
   4  -5 -10   -0.32    1.16 
   3  -5 -10    0.63    1.06 
   3  -5 -10   -1.71    0.94 
   2  -5 -10    1.62    1.02 
   2  -5 -10    1.80    1.11 
   2  -5 -10    0.64    0.99 
   2  -5 -10    0.11    0.73 
   1  -5 -10    9.64    1.49 
   1  -5 -10    6.24    1.01 
   1  -5 -10    7.02    1.23 
   1  -5 -10    5.98    1.30 
   0  -5 -10    1.31    0.76 
   0  -5 -10   -0.19    0.82 
   0  -5 -10    1.50    0.94 
  -1  -5 -10   11.29    1.38 
  -1  -5 -10    7.87    1.28 
  -1  -5 -10   10.59    1.70 
  -2  -5 -10   10.78    1.55 
  -2  -5 -10   11.50    1.67 
  -2  -5 -10   12.10    1.43 
  -3  -5 -10   -0.45    0.78 
  -3  -5 -10   -0.35    0.75 
  -3  -5 -10    0.96    0.85 
  -4  -5 -10    2.54    1.01 
  -4  -5 -10    3.69    0.98 
  -4  -5 -10    0.99    0.94 
  -4  -5 -10    1.73    0.85 
  -5  -5 -10   -0.82    0.79 
  -5  -5 -10   -0.61    0.87 
  -5  -5 -10    0.27    0.72 
  -5  -5 -10   -0.03    0.78 
  -6  -5 -10    8.83    1.21 
  -6  -5 -10    5.68    1.19 
  -6  -5 -10    6.91    1.20 
  -6  -5 -10    5.97    1.27 
   6   5  10    5.59    1.31 
  -7  -5 -10    8.84    1.33 
  -7  -5 -10    7.71    1.35 
  -7  -5 -10    9.84    1.39 
  -7  -5 -10    7.12    1.44 
   7   5  10    8.45    1.95 
  -8  -5 -10    5.30    1.21 
  -8  -5 -10    5.56    1.28 
  -8  -5 -10    4.27    1.44 
   8   5  10    4.74    1.97 
  -9  -5 -10   13.53    2.06 
  -9  -5 -10   16.38    2.61 
   9   5  10   11.61    2.50 
   3  -6 -10    3.00    1.37 
   2  -6 -10    0.40    0.93 
   2  -6 -10    0.27    1.04 
   2  -6 -10    1.48    1.18 
   2  -6 -10    0.10    1.08 
   1  -6 -10    0.37    1.09 
   1  -6 -10    2.14    1.14 
   1  -6 -10    0.30    1.03 
   0  -6 -10    3.65    1.08 
   0  -6 -10    2.64    1.07 
   0  -6 -10    1.44    1.08 
  -1  -6 -10    0.98    0.99 
  -1  -6 -10    0.80    0.98 
  -1  -6 -10    3.06    1.01 
  -2  -6 -10    1.86    1.03 
  -2  -6 -10    2.03    1.01 
  -2  -6 -10   -0.05    0.85 
  -3  -6 -10   13.01    1.58 
  -3  -6 -10   16.66    1.86 
  -3  -6 -10   14.51    1.75 
  -4  -6 -10   -0.12    0.91 
  -4  -6 -10    0.98    1.00 
  -4  -6 -10    0.98    0.89 
  -5  -6 -10   -0.69    0.84 
  -5  -6 -10   -0.65    0.92 
  -5  -6 -10    1.47    0.89 
  -5  -6 -10   -1.99    0.85 
  -6  -6 -10    3.03    1.09 
  -6  -6 -10    1.95    1.12 
  -6  -6 -10    2.57    0.93 
  -6  -6 -10    1.97    0.98 
  -7  -6 -10    1.75    1.14 
  -7  -6 -10    1.09    1.10 
  -7  -6 -10    1.65    1.23 
   7   6  10   -0.58    1.58 
  -8  -6 -10    0.57    1.04 
  -8  -6 -10    0.53    1.25 
  -8  -6 -10    0.40    1.06 
   8   6  10   -0.46    1.73 
  -9  -6 -10    6.77    1.80 
  -9  -6 -10    4.84    1.15 
   9   6  10    7.16    2.23 
   2  -7 -10    3.78    1.43 
   2  -7 -10    2.86    1.29 
   1  -7 -10    5.97    1.46 
   1  -7 -10    6.51    1.49 
   0  -7 -10   -0.47    1.05 
   0  -7 -10    0.28    1.16 
   0  -7 -10   -0.11    1.01 
  -1  -7 -10    5.54    1.28 
  -1  -7 -10    2.33    1.21 
  -1  -7 -10    3.06    1.17 
  -2  -7 -10   -0.31    0.95 
  -2  -7 -10    0.48    1.06 
  -2  -7 -10    0.02    0.98 
  -3  -7 -10   19.61    1.95 
  -3  -7 -10   21.71    2.10 
  -3  -7 -10   24.09    2.23 
  -4  -7 -10    9.76    1.47 
  -4  -7 -10    8.16    1.35 
  -4  -7 -10    7.64    1.45 
  -5  -7 -10    1.53    1.11 
  -5  -7 -10   -0.67    1.02 
  -5  -7 -10   -0.02    0.97 
  -5  -7 -10    2.09    1.03 
  -6  -7 -10   -0.31    0.88 
  -6  -7 -10   -0.45    1.04 
  -6  -7 -10   -0.19    0.99 
  -6  -7 -10   -0.47    1.06 
  -7  -7 -10    0.97    1.29 
  -7  -7 -10    0.28    0.97 
  -7  -7 -10    2.08    1.19 
  -7  -7 -10    3.77    1.04 
  -8  -7 -10    3.66    1.49 
  -8  -7 -10    2.57    1.18 
  -8  -7 -10    4.33    1.21 
   1  -8 -10    4.46    1.48 
   1  -8 -10    4.89    1.42 
   0  -8 -10    0.08    1.16 
   0  -8 -10    0.50    1.22 
  -1  -8 -10    3.56    1.33 
  -1  -8 -10    0.48    1.22 
  -2  -8 -10    3.57    1.34 
  -2  -8 -10    4.55    1.42 
  -2  -8 -10    6.29    1.44 
  -3  -8 -10   18.90    2.29 
  -3  -8 -10   14.04    1.96 
  -3  -8 -10   12.33    2.02 
  -4  -8 -10   34.30    2.63 
  -4  -8 -10   30.91    2.46 
  -4  -8 -10   36.42    2.68 
  -5  -8 -10    1.51    1.22 
  -5  -8 -10    3.14    1.24 
  -5  -8 -10    1.08    1.21 
  -6  -8 -10    1.16    1.08 
  -6  -8 -10    0.07    1.22 
  -6  -8 -10   -0.23    1.06 
  -7  -8 -10    2.12    1.32 
  -7  -8 -10    0.97    1.05 
  -7  -8 -10    3.77    1.25 
  -8  -8 -10   -0.01    1.37 
  -8  -8 -10    1.63    1.13 
  -1  -9 -10    1.17    1.25 
  -1  -9 -10   -1.72    1.21 
  -2  -9 -10    1.72    1.29 
  -2  -9 -10   -0.72    1.20 
  -3  -9 -10    9.61    1.55 
  -3  -9 -10    6.70    1.55 
  -4  -9 -10    7.00    1.48 
  -4  -9 -10    6.63    1.56 
  -5  -9 -10   28.37    2.61 
  -5  -9 -10   33.92    2.79 
  -6  -9 -10    5.29    1.31 
  -6  -9 -10    4.96    1.54 
  -6  -9 -10    3.20    1.38 
   3   6 -11    0.34    1.57 
   3   6 -11    1.44    1.26 
   2   6 -11   -0.04    1.21 
   2   6 -11   -0.68    1.40 
   1   6 -11   -0.79    1.17 
   0   6 -11    2.01    1.12 
   0   6 -11    0.86    1.18 
  -1   6 -11    5.31    1.30 
  -1   6 -11    4.03    1.29 
  -2   6 -11    1.02    1.18 
  -2   6 -11    0.24    1.05 
   4   5 -11   10.60    2.06 
   4   5 -11   13.68    2.04 
   3   5 -11    9.99    1.63 
   3   5 -11    8.69    1.87 
   2   5 -11   27.90    2.42 
   1   5 -11    0.19    1.08 
   0   5 -11    3.49    1.26 
   0   5 -11    6.00    1.38 
  -1   5 -11    2.00    1.22 
  -1   5 -11   -0.69    1.01 
  -2   5 -11    1.42    1.07 
  -2   5 -11   -0.16    1.02 
  -3   5 -11   -0.42    1.10 
  -3   5 -11    0.41    1.00 
  -4   5 -11    2.87    1.32 
  -4   5 -11    3.79    1.12 
   4  -5  11    2.77    1.40 
   5   4 -11    0.45    1.02 
   5   4 -11   -0.36    1.54 
   4   4 -11    0.85    1.13 
   4   4 -11    1.51    1.58 
   3   4 -11   14.02    2.01 
   2   4 -11   -0.40    1.11 
   1   4 -11    1.05    1.11 
   1   4 -11    1.21    0.99 
   0   4 -11    2.91    1.15 
   0   4 -11    3.67    1.22 
  -1   4 -11    0.14    0.96 
  -1   4 -11    0.53    1.05 
  -2   4 -11    4.94    1.21 
  -2   4 -11    4.98    1.30 
  -3   4 -11    1.79    1.08 
  -3   4 -11   -0.75    1.09 
  -4   4 -11    2.51    1.03 
  -4   4 -11    1.48    1.12 
  -5   4 -11   10.04    1.42 
  -5   4 -11   10.75    1.68 
   5  -4  11    5.41    1.49 
   5   3 -11    1.68    1.49 
   5   3 -11    3.05    1.09 
   4   3 -11    0.64    1.03 
   4   3 -11   -1.52    1.35 
   3   3 -11    7.87    1.42 
   2   3 -11   20.95    2.18 
   2   3 -11   19.72    2.03 
   1   3 -11    1.74    0.97 
   1   3 -11    0.56    1.03 
   0   3 -11    1.28    1.05 
   0   3 -11    1.35    0.99 
  -1   3 -11    0.29    0.91 
  -1   3 -11    0.03    0.89 
  -2   3 -11   11.74    1.69 
  -2   3 -11    8.70    1.33 
  -3   3 -11    0.55    0.92 
  -3   3 -11    0.52    0.99 
  -4   3 -11    2.05    0.95 
  -4   3 -11    1.08    0.70 
  -4   3 -11    0.61    1.01 
  -5   3 -11    4.78    1.14 
  -5   3 -11    5.78    1.38 
   5  -3  11    1.98    1.89 
  -6   3 -11    3.84    1.32 
  -6   3 -11    3.84    1.06 
   5   2 -11    1.85    1.42 
   4   2 -11   14.58    1.67 
   3   2 -11    2.37    1.09 
   2   2 -11    2.51    0.79 
   2   2 -11    0.46    1.03 
   1   2 -11    0.72    0.80 
   1   2 -11    1.46    0.99 
   0   2 -11    1.00    0.53 
   0   2 -11    1.27    0.87 
   0   2 -11    2.06    0.95 
  -1   2 -11    0.06    0.91 
  -1   2 -11    1.91    0.61 
  -1   2 -11    0.79    0.93 
  -2   2 -11   11.02    1.60 
  -2   2 -11   12.70    1.20 
  -2   2 -11   12.10    1.79 
  -3   2 -11    2.60    1.04 
  -3   2 -11    1.95    0.68 
  -3   2 -11    1.78    0.92 
  -4   2 -11    2.73    0.74 
  -4   2 -11    0.42    0.86 
  -4   2 -11   -1.33    0.91 
  -5   2 -11    4.21    1.08 
  -5   2 -11    5.06    1.28 
  -6   2 -11    2.69    1.02 
  -6   2 -11    2.54    1.21 
  -7   2 -11    9.51    1.53 
  -7   2 -11    9.32    1.66 
   5   1 -11    0.43    1.19 
   4   1 -11    8.20    1.40 
   4   1 -11   12.47    1.26 
   4   1 -11   10.00    1.51 
   3   1 -11    5.71    0.85 
   3   1 -11    6.46    1.21 
   3   1 -11    4.56    0.91 
   3   1 -11    5.70    1.06 
   2   1 -11    1.03    0.56 
   2   1 -11    0.49    0.96 
   2   1 -11    0.92    0.78 
   2   1 -11    1.00    0.74 
   1   1 -11    6.35    0.99 
   1   1 -11    5.16    1.16 
   1   1 -11    6.11    1.01 
   0   1 -11    2.42    0.62 
   0   1 -11    4.00    0.99 
   0   1 -11    2.03    0.96 
  -1   1 -11    1.06    0.85 
  -1   1 -11    2.64    0.67 
  -1   1 -11    1.01    0.81 
  -2   1 -11    0.06    0.73 
  -2   1 -11    0.93    0.85 
  -2   1 -11    1.02    0.70 
  -3   1 -11   -0.38    0.78 
  -3   1 -11   -0.28    0.60 
  -3   1 -11   -0.48    0.88 
  -4   1 -11    8.03    1.29 
  -4   1 -11    5.89    1.00 
  -4   1 -11    5.60    1.06 
  -5   1 -11    3.53    0.93 
  -5   1 -11    3.00    1.10 
  -5   1 -11    3.55    0.98 
  -6   1 -11    0.45    0.85 
  -6   1 -11   -1.26    0.93 
  -6   1 -11    0.37    0.82 
  -7   1 -11   -0.12    1.15 
  -7   1 -11    1.86    1.00 
  -7   1 -11   -0.03    0.80 
   7  -1  11   -1.51    1.82 
   5   0 -11    1.40    0.81 
   4   0 -11   -0.53    0.68 
   4   0 -11   -2.37    0.72 
   3   0 -11    0.69    0.77 
   3   0 -11   -0.23    0.68 
   2   0 -11    3.14    0.73 
   2   0 -11    1.81    0.82 
   2   0 -11    1.66    0.73 
   2   0 -11    7.18    1.03 
   1   0 -11   26.90    1.64 
   1   0 -11   31.39    1.72 
   1   0 -11   27.80    1.54 
   1   0 -11   31.28    2.07 
   0   0 -11   -0.42    0.49 
   0   0 -11   -0.07    0.53 
   0   0 -11    1.03    0.82 
  -1   0 -11   -0.86    0.44 
  -1   0 -11   -0.12    0.75 
  -1   0 -11    1.55    0.62 
  -2   0 -11    1.08    0.53 
  -2   0 -11    1.84    0.73 
  -2   0 -11   -0.57    0.72 
  -3   0 -11   -1.06    0.70 
  -3   0 -11   -0.67    0.76 
  -3   0 -11    2.08    0.59 
  -4   0 -11   -0.25    0.83 
  -4   0 -11    0.15    0.71 
  -5   0 -11    4.36    1.04 
  -5   0 -11    6.26    1.17 
  -6   0 -11   -0.75    0.91 
  -6   0 -11    0.54    0.85 
  -6   0 -11    1.72    0.83 
  -7   0 -11    0.01    0.80 
  -7   0 -11   -0.86    0.98 
  -7   0 -11    1.73    0.93 
   7   0  11    2.71    1.87 
  -8   0 -11   -0.81    0.71 
  -8   0 -11    0.04    0.99 
  -8   0 -11    1.27    1.18 
   8   0  11   -2.30    1.94 
   5  -1 -11    0.36    1.03 
   5  -1 -11   -0.48    0.72 
   4  -1 -11    4.90    0.98 
   3  -1 -11    1.26    0.70 
   3  -1 -11   -0.09    0.62 
   2  -1 -11    3.06    0.78 
   2  -1 -11    6.79    1.10 
   2  -1 -11    3.28    0.78 
   2  -1 -11    2.52    0.88 
   1  -1 -11   11.60    1.18 
   1  -1 -11   12.43    1.24 
   1  -1 -11   13.90    1.62 
   1  -1 -11   12.80    1.35 
   0  -1 -11    2.60    0.87 
   0  -1 -11    2.20    0.68 
   0  -1 -11   -0.84    0.52 
   0  -1 -11    0.46    0.58 
  -1  -1 -11    2.27    0.82 
  -1  -1 -11    1.59    0.60 
  -1  -1 -11    2.83    0.73 
  -2  -1 -11    5.27    1.05 
  -2  -1 -11    7.18    1.01 
  -2  -1 -11    6.39    0.99 
  -3  -1 -11    9.28    1.19 
  -3  -1 -11    9.37    1.56 
  -3  -1 -11    6.00    1.06 
  -4  -1 -11   12.34    1.21 
  -4  -1 -11    8.65    1.27 
  -4  -1 -11    8.85    1.57 
  -5  -1 -11    2.58    1.00 
  -5  -1 -11    0.73    0.85 
  -6  -1 -11    0.99    0.96 
  -6  -1 -11   -0.51    0.87 
   6   1  11   -1.34    1.38 
  -7  -1 -11   -0.48    0.97 
  -7  -1 -11    0.08    1.04 
   7   1  11    0.47    1.94 
  -8  -1 -11    2.94    1.25 
  -8  -1 -11    1.03    1.01 
  -8  -1 -11    2.82    0.88 
   8   1  11    0.74    2.19 
   5  -2 -11    8.20    1.46 
   5  -2 -11    6.82    1.62 
   4  -2 -11    7.29    1.22 
   4  -2 -11    7.60    1.31 
   4  -2 -11    6.82    1.37 
   3  -2 -11   18.88    1.85 
   3  -2 -11   18.40    1.82 
   3  -2 -11   20.41    1.67 
   3  -2 -11   20.65    1.66 
   2  -2 -11   17.43    1.55 
   2  -2 -11   13.09    1.53 
   2  -2 -11   13.59    1.32 
   2  -2 -11   13.53    1.38 
   1  -2 -11   -0.15    0.66 
   1  -2 -11    1.61    0.64 
   1  -2 -11    1.15    0.68 
   1  -2 -11    0.27    0.59 
   0  -2 -11    9.15    1.16 
   0  -2 -11    8.69    1.07 
   0  -2 -11    6.46    1.07 
   0  -2 -11   14.04    1.48 
  -1  -2 -11    2.60    0.83 
  -1  -2 -11    3.39    0.78 
  -1  -2 -11    3.89    0.88 
  -1  -2 -11    1.63    0.60 
  -2  -2 -11    0.82    0.75 
  -2  -2 -11   -0.26    0.61 
  -2  -2 -11   -0.07    0.70 
  -3  -2 -11    8.93    1.20 
  -3  -2 -11    8.97    1.51 
  -3  -2 -11   10.11    1.52 
  -4  -2 -11   24.57    1.98 
  -4  -2 -11   24.64    2.03 
  -4  -2 -11   24.80    1.71 
  -5  -2 -11    4.22    0.86 
  -5  -2 -11    4.29    1.09 
  -5  -2 -11    4.55    1.08 
  -6  -2 -11    4.51    1.18 
  -6  -2 -11    6.29    1.06 
  -6  -2 -11    6.00    1.25 
   6   2  11    4.33    1.64 
  -7  -2 -11    5.51    1.26 
  -7  -2 -11    7.24    1.42 
   7   2  11    6.26    2.16 
  -8  -2 -11    2.01    1.19 
  -8  -2 -11    1.08    1.12 
   8   2  11   -0.41    1.98 
  -9  -2 -11    0.69    1.13 
  -9  -2 -11    1.90    1.19 
   9   2  11   -1.03    2.09 
   4  -3 -11    0.81    0.91 
   4  -3 -11    2.03    0.99 
   3  -3 -11    0.84    0.82 
   3  -3 -11    3.37    1.07 
   3  -3 -11    0.30    0.77 
   3  -3 -11    2.49    0.92 
   3  -3 -11    0.86    1.05 
   2  -3 -11    7.14    1.20 
   2  -3 -11    7.11    1.10 
   2  -3 -11    8.04    1.21 
   2  -3 -11   10.67    1.38 
   1  -3 -11    1.65    0.88 
   1  -3 -11    0.08    0.76 
   1  -3 -11    0.90    0.69 
   1  -3 -11    1.39    0.76 
   0  -3 -11    4.29    0.92 
   0  -3 -11    5.74    1.02 
   0  -3 -11    5.40    1.06 
  -1  -3 -11   12.98    1.60 
  -1  -3 -11   12.48    1.21 
  -1  -3 -11   18.39    1.50 
  -1  -3 -11   17.32    1.79 
  -2  -3 -11    8.78    1.31 
  -2  -3 -11    6.67    1.15 
  -2  -3 -11    6.99    1.07 
  -2  -3 -11    8.02    1.04 
  -3  -3 -11   13.03    1.61 
  -3  -3 -11   11.00    1.17 
  -3  -3 -11   13.83    1.68 
  -3  -3 -11   11.97    1.42 
  -4  -3 -11   -0.47    0.83 
  -4  -3 -11    1.42    0.62 
  -4  -3 -11    0.44    0.78 
  -4  -3 -11   -0.10    0.88 
  -5  -3 -11   -0.23    0.85 
  -5  -3 -11    1.35    0.97 
  -5  -3 -11    0.59    0.76 
  -6  -3 -11    0.83    0.82 
  -6  -3 -11    1.01    0.99 
  -6  -3 -11   -0.28    0.96 
   6   3  11   -0.83    1.27 
  -7  -3 -11   -0.60    0.95 
  -7  -3 -11    1.35    0.82 
  -7  -3 -11   -1.16    1.02 
   7   3  11    0.41    1.66 
  -8  -3 -11    3.32    1.32 
  -8  -3 -11    4.22    1.20 
   8   3  11    3.61    2.08 
  -9  -3 -11    2.49    1.21 
  -9  -3 -11    2.29    1.32 
   9   3  11    1.02    2.23 
   4  -4 -11    0.01    1.01 
   3  -4 -11    5.01    1.20 
   3  -4 -11    4.04    1.01 
   3  -4 -11    4.07    1.15 
   2  -4 -11    1.72    0.97 
   2  -4 -11    1.73    1.08 
   2  -4 -11   -0.90    0.77 
   2  -4 -11    0.22    0.80 
   1  -4 -11    1.40    0.90 
   1  -4 -11    2.16    0.80 
   1  -4 -11   -0.41    0.88 
   0  -4 -11    4.37    1.11 
   0  -4 -11    4.86    0.91 
   0  -4 -11    4.91    1.06 
  -1  -4 -11    2.32    0.74 
  -1  -4 -11    1.87    1.05 
  -1  -4 -11    2.70    0.92 
  -2  -4 -11    1.64    0.71 
  -2  -4 -11    2.14    0.88 
  -2  -4 -11    1.34    0.85 
  -2  -4 -11    0.91    0.94 
  -3  -4 -11    1.41    0.86 
  -3  -4 -11    0.22    0.93 
  -3  -4 -11   -0.39    0.80 
  -3  -4 -11    0.23    0.67 
  -4  -4 -11    0.07    0.64 
  -4  -4 -11   -0.26    0.80 
  -4  -4 -11    0.75    0.82 
  -4  -4 -11    0.46    0.94 
  -5  -4 -11    0.17    0.93 
  -5  -4 -11    1.42    0.87 
  -5  -4 -11    1.31    1.09 
  -5  -4 -11    2.24    0.64 
  -6  -4 -11   -0.39    1.04 
  -6  -4 -11    0.72    0.82 
  -6  -4 -11    0.49    0.97 
   6   4  11   -1.02    1.23 
  -7  -4 -11    1.27    1.11 
  -7  -4 -11   -0.07    0.81 
  -7  -4 -11   -0.25    1.05 
   7   4  11   -0.48    1.62 
  -8  -4 -11   -1.18    0.98 
  -8  -4 -11    0.38    1.24 
   8   4  11   -2.54    1.74 
  -9  -4 -11    8.31    1.42 
  -9  -4 -11    9.07    1.70 
   9   4  11   12.55    2.69 
   3  -5 -11    1.70    1.13 
   2  -5 -11    6.36    1.37 
   2  -5 -11    6.36    1.29 
   2  -5 -11    7.22    1.40 
   1  -5 -11    3.50    1.22 
   1  -5 -11    1.11    1.00 
   1  -5 -11    4.27    1.06 
   0  -5 -11    0.74    0.81 
   0  -5 -11    0.97    1.01 
   0  -5 -11    0.84    0.98 
  -1  -5 -11    0.39    0.91 
  -1  -5 -11   -0.41    0.89 
  -1  -5 -11    1.18    0.79 
  -2  -5 -11    3.19    1.10 
  -2  -5 -11    2.52    0.88 
  -2  -5 -11    2.68    1.08 
  -3  -5 -11   -0.21    0.77 
  -3  -5 -11   -1.01    0.90 
  -3  -5 -11   -1.73    0.81 
  -3  -5 -11    0.27    0.88 
  -4  -5 -11    1.02    0.91 
  -4  -5 -11    1.02    1.02 
  -4  -5 -11    0.32    0.91 
  -4  -5 -11   -0.39    0.78 
  -5  -5 -11   10.10    1.33 
  -5  -5 -11    8.79    1.61 
  -5  -5 -11   11.55    1.59 
  -5  -5 -11   11.74    1.87 
  -6  -5 -11   -0.29    0.92 
  -6  -5 -11    1.33    0.78 
  -6  -5 -11    0.65    1.14 
  -6  -5 -11    0.09    1.01 
  -7  -5 -11    0.47    1.20 
  -7  -5 -11    2.43    1.04 
  -7  -5 -11    1.92    0.87 
  -7  -5 -11    1.21    1.14 
   7   5  11   -0.78    1.47 
  -8  -5 -11    3.21    1.19 
  -8  -5 -11    2.19    1.38 
  -8  -5 -11    2.73    1.13 
   8   5  11   -1.91    1.77 
   2  -6 -11    7.19    1.52 
   2  -6 -11    3.25    1.33 
   1  -6 -11    0.60    1.11 
   1  -6 -11    0.16    1.10 
   1  -6 -11    2.82    1.23 
   0  -6 -11   -0.09    0.95 
   0  -6 -11   -1.30    1.02 
   0  -6 -11    1.67    1.10 
  -1  -6 -11    1.33    1.06 
  -1  -6 -11    2.20    1.03 
  -1  -6 -11    1.38    1.09 
  -2  -6 -11    3.63    1.07 
  -2  -6 -11    2.55    1.15 
  -2  -6 -11    1.24    1.09 
  -3  -6 -11    2.38    1.12 
  -3  -6 -11    0.59    0.88 
  -3  -6 -11    0.10    0.99 
  -4  -6 -11   -0.63    0.99 
  -4  -6 -11   -0.08    0.94 
  -4  -6 -11   -0.93    0.94 
  -5  -6 -11   -0.75    1.01 
  -5  -6 -11    0.84    0.91 
  -5  -6 -11   -0.74    1.00 
  -6  -6 -11    7.12    1.36 
  -6  -6 -11    5.16    1.42 
  -6  -6 -11    5.23    1.32 
  -7  -6 -11   -0.42    1.19 
  -7  -6 -11   -0.56    1.06 
  -7  -6 -11    0.88    1.07 
  -8  -6 -11    0.83    1.13 
  -8  -6 -11    2.58    1.43 
   1  -7 -11    0.23    1.13 
   1  -7 -11    2.21    1.25 
   0  -7 -11    1.64    1.20 
   0  -7 -11   -1.15    1.03 
  -1  -7 -11    4.24    1.32 
  -1  -7 -11    4.61    1.34 
  -1  -7 -11    3.65    1.36 
  -2  -7 -11    3.55    1.28 
  -2  -7 -11    3.26    1.27 
  -2  -7 -11    4.45    1.21 
  -3  -7 -11    9.15    1.50 
  -3  -7 -11    8.47    1.52 
  -3  -7 -11    7.40    1.49 
  -4  -7 -11    2.10    1.28 
  -4  -7 -11    2.99    1.15 
  -4  -7 -11    4.46    1.41 
  -5  -7 -11   -0.14    1.02 
  -5  -7 -11   -0.25    1.09 
  -5  -7 -11   -0.02    1.07 
  -5  -7 -11   -1.18    0.87 
  -6  -7 -11   -0.33    1.00 
  -6  -7 -11   -0.58    1.14 
  -6  -7 -11    0.47    1.09 
  -7  -7 -11    1.65    1.11 
  -7  -7 -11    0.35    1.34 
  -8  -7 -11    1.16    1.42 
  -8  -7 -11   -0.64    1.10 
  -1  -8 -11   -0.23    1.20 
  -1  -8 -11    1.09    1.32 
  -2  -8 -11   -0.58    1.16 
  -2  -8 -11   -1.13    1.08 
  -3  -8 -11    8.13    1.57 
  -3  -8 -11    4.39    1.36 
  -4  -8 -11   -1.09    1.08 
  -4  -8 -11    0.81    1.19 
  -5  -8 -11    1.71    1.21 
  -5  -8 -11    2.59    1.29 
  -6  -8 -11   -0.69    1.12 
  -6  -8 -11   -1.99    1.11 
  -6  -8 -11    0.24    1.12 
   2   5 -12    2.63    1.40 
   1   5 -12   -0.17    1.20 
   0   5 -12    5.05    1.38 
   0   5 -12    3.81    1.36 
  -1   5 -12    1.28    1.24 
  -1   5 -12    1.34    1.16 
  -2   5 -12    0.46    1.18 
  -2   5 -12    1.34    1.17 
   3   4 -12    3.72    1.38 
   2   4 -12   20.16    2.28 
   1   4 -12    4.54    1.41 
   0   4 -12   -0.18    1.14 
   0   4 -12    1.61    1.24 
  -1   4 -12    6.09    1.42 
  -1   4 -12   11.89    1.94 
  -2   4 -12   -0.23    1.17 
  -2   4 -12    1.64    1.16 
  -3   4 -12   -0.69    0.99 
  -3   4 -12   -1.34    1.17 
  -4   4 -12    1.70    1.29 
  -4   4 -12    0.51    1.00 
   4   3 -12    1.52    1.67 
   4   3 -12    3.35    1.29 
   3   3 -12    1.22    1.20 
   2   3 -12   13.57    2.08 
   1   3 -12   13.06    2.06 
   1   3 -12   12.95    2.13 
   0   3 -12   -1.12    1.05 
   0   3 -12    0.25    1.14 
  -1   3 -12    0.62    1.12 
  -1   3 -12    0.38    1.12 
  -2   3 -12   18.23    2.09 
  -2   3 -12   14.76    2.30 
  -3   3 -12   11.75    1.67 
  -3   3 -12    8.75    1.47 
  -4   3 -12   -2.02    1.07 
  -4   3 -12   -0.52    0.95 
  -5   3 -12    2.37    1.06 
  -5   3 -12    1.50    1.29 
   4   2 -12    4.01    1.28 
   3   2 -12    2.21    1.26 
   2   2 -12    0.34    1.18 
   1   2 -12    3.78    1.22 
   1   2 -12    2.45    1.04 
   0   2 -12   -1.43    0.94 
   0   2 -12    0.87    1.01 
  -1   2 -12    2.08    1.09 
  -1   2 -12    5.33    1.22 
  -2   2 -12   -0.16    0.96 
  -2   2 -12   -0.43    1.01 
  -3   2 -12   11.06    1.35 
  -3   2 -12    8.45    1.40 
  -3   2 -12    8.98    1.42 
  -4   2 -12    4.53    1.22 
  -4   2 -12    4.05    1.16 
  -4   2 -12    5.41    1.42 
  -5   2 -12    0.07    0.92 
  -5   2 -12   -1.34    1.11 
  -6   2 -12    0.74    1.24 
  -6   2 -12    1.87    0.98 
   4   1 -12   11.56    1.69 
   3   1 -12   -0.19    1.05 
   2   1 -12    3.65    1.22 
   2   1 -12    5.61    1.05 
   2   1 -12    2.24    0.92 
   1   1 -12    0.66    1.04 
   1   1 -12    0.49    0.57 
   1   1 -12    1.07    0.93 
   0   1 -12    9.49    1.14 
   0   1 -12   11.92    1.84 
   0   1 -12   10.08    1.66 
  -1   1 -12    1.03    1.00 
  -1   1 -12    2.09    1.01 
  -1   1 -12    2.44    0.75 
  -2   1 -12    1.03    1.00 
  -2   1 -12   -0.16    0.67 
  -2   1 -12   -0.05    0.89 
  -3   1 -12   -0.19    0.85 
  -3   1 -12   -1.30    0.69 
  -3   1 -12    0.17    1.00 
  -4   1 -12   -0.53    0.96 
  -4   1 -12    1.15    0.86 
  -5   1 -12    4.15    1.11 
  -5   1 -12    4.26    1.33 
  -6   1 -12    2.94    1.06 
  -6   1 -12    2.78    1.26 
  -7   1 -12   16.23    1.82 
  -7   1 -12   14.45    1.85 
   4   0 -12    3.23    1.12 
   3   0 -12    1.24    0.76 
   3   0 -12   -0.08    1.11 
   3   0 -12   -1.75    0.98 
   2   0 -12    2.30    0.93 
   1   0 -12    4.47    1.20 
   1   0 -12    6.85    1.17 
   0   0 -12    9.68    1.23 
   0   0 -12    7.99    1.24 
  -1   0 -12    0.82    0.94 
  -1   0 -12    1.38    0.66 
  -2   0 -12   10.35    1.46 
  -2   0 -12   13.14    1.81 
  -3   0 -12    3.22    0.91 
  -3   0 -12    2.63    1.05 
  -4   0 -12    2.22    0.87 
  -4   0 -12    2.48    1.06 
  -5   0 -12    0.06    1.01 
  -5   0 -12   -0.01    0.85 
  -5   0 -12   -0.24    0.84 
  -6   0 -12    2.68    1.05 
  -6   0 -12    3.25    1.21 
  -6   0 -12    2.90    1.04 
  -7   0 -12    0.34    0.96 
  -7   0 -12    0.63    1.10 
  -7   0 -12   -0.57    0.87 
   4  -1 -12    4.78    1.04 
   3  -1 -12    1.28    0.78 
   3  -1 -12   -1.57    0.79 
   2  -1 -12    1.81    0.76 
   2  -1 -12    1.10    0.94 
   2  -1 -12    1.37    0.78 
   1  -1 -12    0.76    0.83 
   1  -1 -12    0.80    0.93 
   1  -1 -12    2.64    0.77 
   0  -1 -12    3.99    0.87 
   0  -1 -12    5.98    1.02 
   0  -1 -12    7.37    1.20 
  -1  -1 -12    3.01    0.83 
  -1  -1 -12    0.16    0.61 
  -1  -1 -12    1.88    0.97 
  -2  -1 -12   19.67    1.73 
  -2  -1 -12   17.17    1.39 
  -2  -1 -12   24.70    2.05 
  -3  -1 -12   15.62    1.73 
  -3  -1 -12   15.44    1.88 
  -3  -1 -12   15.59    1.40 
  -4  -1 -12   36.55    2.56 
  -4  -1 -12   35.57    2.29 
  -5  -1 -12   16.56    1.89 
  -5  -1 -12   12.19    1.94 
  -6  -1 -12    0.25    1.06 
  -6  -1 -12   -1.12    0.92 
  -7  -1 -12    0.55    1.08 
  -7  -1 -12   -0.30    0.80 
  -7  -1 -12    0.21    1.01 
   4  -2 -12   -1.39    0.84 
   4  -2 -12    0.95    0.87 
   3  -2 -12    4.38    1.07 
   3  -2 -12   -0.40    0.78 
   3  -2 -12    1.92    0.84 
   2  -2 -12    1.81    1.03 
   2  -2 -12   -1.45    0.67 
   2  -2 -12    0.31    0.71 
   1  -2 -12    0.09    0.68 
   1  -2 -12    1.53    0.71 
   1  -2 -12    1.68    0.96 
   1  -2 -12   -0.30    0.63 
   0  -2 -12    0.24    0.59 
   0  -2 -12    1.26    0.93 
   0  -2 -12    2.70    0.88 
   0  -2 -12    0.46    0.68 
  -1  -2 -12    0.15    0.66 
  -1  -2 -12    1.01    0.91 
  -1  -2 -12    1.78    0.88 
  -2  -2 -12    4.28    1.05 
  -2  -2 -12    3.72    0.99 
  -2  -2 -12    2.55    0.83 
  -3  -2 -12   15.70    1.79 
  -3  -2 -12   15.13    1.45 
  -3  -2 -12   17.19    1.88 
  -4  -2 -12    1.11    0.97 
  -4  -2 -12    1.81    0.80 
  -4  -2 -12    2.13    1.02 
  -5  -2 -12   13.67    1.47 
  -5  -2 -12   10.75    1.51 
  -5  -2 -12    9.93    1.40 
  -6  -2 -12    0.32    1.02 
  -6  -2 -12   -0.62    1.06 
  -7  -2 -12    1.37    1.14 
  -7  -2 -12    2.82    1.22 
   7   2  12   -0.90    1.76 
  -8  -2 -12    4.81    1.34 
  -8  -2 -12    3.95    1.34 
   8   2  12    5.74    2.13 
   3  -3 -12   -1.10    0.79 
   3  -3 -12    1.48    0.84 
   3  -3 -12   -0.52    0.92 
   2  -3 -12    2.69    1.04 
   2  -3 -12    0.74    0.78 
   1  -3 -12    1.11    0.93 
   1  -3 -12    1.38    0.75 
   0  -3 -12    7.28    1.25 
   0  -3 -12    6.03    1.20 
   0  -3 -12    7.69    1.28 
   0  -3 -12    7.74    1.16 
  -1  -3 -12    2.42    0.89 
  -1  -3 -12    2.24    0.99 
  -1  -3 -12    0.19    0.63 
  -1  -3 -12    2.79    0.97 
  -2  -3 -12   -1.18    0.81 
  -2  -3 -12    1.53    0.91 
  -2  -3 -12    0.13    0.74 
  -3  -3 -12    8.31    1.42 
  -3  -3 -12   11.89    1.81 
  -3  -3 -12   10.66    1.45 
  -4  -3 -12    7.78    1.28 
  -4  -3 -12    7.81    1.36 
  -4  -3 -12    5.85    1.07 
  -5  -3 -12    1.73    0.88 
  -5  -3 -12    0.99    1.08 
  -5  -3 -12    1.35    1.01 
  -6  -3 -12    0.52    1.10 
  -6  -3 -12    2.23    0.91 
  -6  -3 -12   -0.76    1.08 
  -7  -3 -12    0.33    1.11 
  -7  -3 -12    0.12    1.09 
   7   3  12   -1.73    1.66 
  -8  -3 -12    1.50    1.16 
  -8  -3 -12    2.74    1.38 
   8   3  12    0.66    1.89 
   2  -4 -12    0.66    0.98 
   2  -4 -12    2.39    1.15 
   2  -4 -12    1.55    0.89 
   1  -4 -12    3.41    1.05 
   1  -4 -12    3.65    1.18 
   0  -4 -12   -0.64    0.97 
   0  -4 -12    1.96    0.94 
  -1  -4 -12   -0.77    0.63 
  -1  -4 -12    1.99    0.95 
  -1  -4 -12    1.89    1.09 
  -2  -4 -12   -0.10    0.85 
  -2  -4 -12    0.18    0.85 
  -2  -4 -12    0.40    0.74 
  -2  -4 -12    0.24    1.04 
  -3  -4 -12   -0.56    0.76 
  -3  -4 -12    0.62    0.87 
  -3  -4 -12    1.42    1.06 
  -3  -4 -12   -0.84    0.85 
  -4  -4 -12    5.36    1.18 
  -4  -4 -12    2.44    1.14 
  -4  -4 -12    2.95    1.03 
  -5  -4 -12    1.60    1.09 
  -5  -4 -12    2.43    1.22 
  -5  -4 -12    2.38    1.02 
  -6  -4 -12   -0.78    1.13 
  -6  -4 -12   -0.04    0.85 
  -6  -4 -12    1.34    1.14 
  -7  -4 -12    7.42    1.49 
  -7  -4 -12    6.75    1.45 
  -7  -4 -12    6.74    1.28 
  -8  -4 -12    0.41    1.07 
  -8  -4 -12    1.70    1.39 
   8   4  12    0.94    1.78 
   2  -5 -12    0.84    1.18 
   2  -5 -12    5.03    1.26 
   1  -5 -12    8.45    1.51 
   1  -5 -12    5.94    1.35 
   1  -5 -12    5.16    1.36 
   0  -5 -12    4.64    1.23 
   0  -5 -12    3.26    1.26 
   0  -5 -12    4.15    1.51 
  -1  -5 -12    5.44    1.37 
  -1  -5 -12    4.42    1.24 
  -2  -5 -12   -0.53    1.01 
  -2  -5 -12   -1.31    0.87 
  -3  -5 -12    9.84    1.48 
  -3  -5 -12   11.06    1.89 
  -3  -5 -12   10.41    1.56 
  -3  -5 -12   12.72    2.11 
  -4  -5 -12    0.07    1.04 
  -4  -5 -12    1.47    0.98 
  -4  -5 -12   -1.77    0.99 
  -4  -5 -12   -1.29    0.76 
  -5  -5 -12   14.92    2.19 
  -5  -5 -12   15.36    1.88 
  -5  -5 -12   14.85    2.09 
  -6  -5 -12    1.32    0.99 
  -6  -5 -12   -0.31    1.10 
  -6  -5 -12    1.20    1.25 
  -7  -5 -12    0.65    1.29 
  -7  -5 -12   -0.98    0.86 
  -7  -5 -12   -1.48    1.05 
  -8  -5 -12    2.78    1.26 
  -8  -5 -12    1.78    1.47 
  -8  -5 -12    1.88    1.23 
   8   5  12    1.75    1.66 
   1  -6 -12    3.10    1.13 
   1  -6 -12    1.63    1.24 
   0  -6 -12   -0.83    0.92 
   0  -6 -12   -0.42    1.16 
  -1  -6 -12   -1.18    0.98 
  -1  -6 -12    0.61    1.16 
  -1  -6 -12    1.48    1.07 
  -2  -6 -12   -0.12    1.01 
  -2  -6 -12    2.03    1.21 
  -3  -6 -12    0.77    1.22 
  -3  -6 -12    0.56    1.13 
  -4  -6 -12   -0.67    1.05 
  -4  -6 -12   -0.85    1.16 
  -4  -6 -12   -1.45    0.97 
  -5  -6 -12    2.27    1.24 
  -5  -6 -12   -0.77    1.04 
  -5  -6 -12    0.59    1.09 
  -6  -6 -12   20.99    2.36 
  -6  -6 -12   18.58    2.75 
  -6  -6 -12   21.06    2.49 
  -6  -6 -12   18.65    2.21 
  -7  -6 -12    2.20    1.57 
  -7  -6 -12    2.22    1.25 
  -7  -6 -12    0.40    1.35 
  -1  -7 -12    3.65    1.32 
  -1  -7 -12    2.01    1.38 
  -2  -7 -12    8.39    1.50 
  -2  -7 -12    8.45    1.65 
  -3  -7 -12    0.95    1.12 
  -3  -7 -12    1.95    1.32 
  -4  -7 -12    0.91    1.26 
  -4  -7 -12   -1.80    1.72 
  -4  -7 -12   -0.52    1.12 
  -5  -7 -12   -0.31    1.22 
  -5  -7 -12   -0.30    1.06 
  -6  -7 -12    0.12    1.09 
  -6  -7 -12   -0.06    1.24 
   0   4 -13    0.77    1.26 
   0   4 -13   -0.24    1.28 
  -1   4 -13    2.04    1.27 
  -1   4 -13    3.68    1.39 
   2   3 -13    2.22    1.38 
   1   3 -13    1.32    1.32 
   1   3 -13    1.01    1.27 
   0   3 -13    0.68    1.18 
   0   3 -13    1.34    1.29 
  -1   3 -13    9.69    1.62 
  -1   3 -13    9.40    1.66 
  -2   3 -13    1.82    1.21 
  -2   3 -13    1.11    1.31 
  -3   3 -13   -0.29    1.06 
  -3   3 -13   -0.73    1.23 
   2   2 -13    3.17    1.40 
   1   2 -13    1.33    1.29 
   1   2 -13    0.68    1.01 
   0   2 -13    1.09    1.25 
   0   2 -13    0.18    1.15 
  -1   2 -13    6.14    1.44 
  -1   2 -13    6.85    1.45 
  -2   2 -13    1.47    1.21 
  -2   2 -13   -0.93    1.00 
  -3   2 -13   -0.16    1.19 
  -3   2 -13    0.99    1.14 
  -4   2 -13    6.34    1.39 
  -4   2 -13    5.63    1.51 
  -5   2 -13   -1.17    0.95 
  -5   2 -13    0.65    1.24 
   3   1 -13   -0.10    1.24 
   2   1 -13   -0.15    1.20 
   2   1 -13    3.23    1.03 
   1   1 -13    1.35    1.19 
   1   1 -13    2.31    1.07 
   0   1 -13    3.69    1.26 
   0   1 -13    2.82    1.18 
  -1   1 -13    2.92    1.19 
  -1   1 -13    1.59    1.17 
  -2   1 -13    0.38    1.14 
  -2   1 -13    0.40    0.76 
  -2   1 -13   -1.48    0.92 
  -3   1 -13    7.44    1.49 
  -3   1 -13   11.02    1.82 
  -4   1 -13    4.45    1.35 
  -4   1 -13    0.66    1.06 
  -5   1 -13    0.68    1.22 
  -5   1 -13   -0.64    0.96 
   3   0 -13    0.55    1.17 
   2   0 -13    1.76    1.01 
   2   0 -13    1.44    1.21 
   1   0 -13    0.09    0.98 
   0   0 -13    0.07    1.02 
  -1   0 -13    4.70    1.25 
  -2   0 -13    1.27    1.14 
  -3   0 -13   10.26    1.60 
  -4   0 -13    6.78    1.29 
  -4   0 -13   12.75    2.17 
  -5   0 -13    0.77    1.22 
  -5   0 -13    0.12    0.99 
  -6   0 -13   -0.77    1.14 
  -6   0 -13    0.72    0.97 
  -6   0 -13   -0.04    0.93 
   3  -1 -13    1.06    0.96 
   2  -1 -13   14.03    2.08 
   1  -1 -13    0.73    1.08 
   0  -1 -13    0.46    1.05 
  -1  -1 -13    0.74    1.01 
  -2  -1 -13    1.25    1.04 
  -3  -1 -13   -0.28    1.10 
  -3  -1 -13   -1.06    0.99 
  -4  -1 -13   20.18    2.29 
  -4  -1 -13   17.38    1.94 
  -5  -1 -13    2.00    1.17 
  -5  -1 -13    1.90    1.04 
  -6  -1 -13   -0.41    1.10 
  -6  -1 -13    0.80    1.13 
   2  -2 -13    7.03    1.19 
   2  -2 -13    8.06    1.44 
   2  -2 -13    5.17    1.09 
   1  -2 -13    0.38    0.72 
   1  -2 -13    1.34    1.09 
   1  -2 -13    0.53    1.10 
   0  -2 -13   -0.77    0.66 
   0  -2 -13    0.03    1.02 
   0  -2 -13    1.78    0.89 
  -1  -2 -13    5.44    1.16 
  -1  -2 -13    5.74    1.29 
  -1  -2 -13    2.65    0.84 
  -2  -2 -13    2.80    1.11 
  -2  -2 -13    1.65    1.15 
  -2  -2 -13    2.50    1.01 
  -3  -2 -13    6.74    1.28 
  -3  -2 -13    7.93    1.43 
  -4  -2 -13   -0.65    0.94 
  -4  -2 -13    0.60    1.05 
  -5  -2 -13    3.14    1.22 
  -5  -2 -13    2.22    1.07 
  -6  -2 -13   -0.14    1.09 
  -6  -2 -13   -2.04    0.95 
  -7  -2 -13    1.91    1.24 
  -7  -2 -13    3.17    1.29 
   2  -3 -13    3.80    1.00 
   2  -3 -13    2.25    1.05 
   1  -3 -13    6.48    1.21 
   1  -3 -13    8.66    1.38 
   1  -3 -13    4.30    1.28 
   1  -3 -13    8.42    1.39 
   0  -3 -13    0.97    0.84 
   0  -3 -13   -0.70    1.01 
   0  -3 -13    1.56    1.06 
  -1  -3 -13   -0.04    0.78 
  -1  -3 -13    0.45    1.01 
  -1  -3 -13    1.61    1.08 
  -2  -3 -13    0.79    1.11 
  -2  -3 -13    0.48    0.92 
  -2  -3 -13    2.64    1.13 
  -3  -3 -13    6.39    1.34 
  -3  -3 -13    4.81    1.16 
  -3  -3 -13    6.48    1.36 
  -4  -3 -13    1.62    1.20 
  -4  -3 -13   -0.09    1.10 
  -4  -3 -13    0.84    0.88 
  -5  -3 -13   12.92    2.23 
  -5  -3 -13   13.86    2.06 
  -5  -3 -13   14.39    1.65 
  -6  -3 -13   -2.00    0.97 
  -6  -3 -13   -0.65    1.08 
  -7  -3 -13   -0.03    1.10 
  -7  -3 -13   -0.49    1.15 
   1  -4 -13    4.60    1.18 
   1  -4 -13    4.32    1.27 
   0  -4 -13   12.22    1.47 
   0  -4 -13   16.75    2.28 
   0  -4 -13   16.35    1.83 
  -1  -4 -13    4.30    1.28 
  -1  -4 -13    3.25    1.09 
  -1  -4 -13    2.88    1.17 
  -2  -4 -13    5.54    1.38 
  -2  -4 -13    4.94    1.23 
  -2  -4 -13    3.83    1.14 
  -3  -4 -13   -0.36    1.14 
  -3  -4 -13   -1.47    0.87 
  -3  -4 -13    0.80    1.03 
  -4  -4 -13   -0.35    1.01 
  -4  -4 -13    0.19    0.95 
  -4  -4 -13   -0.17    1.13 
  -5  -4 -13   -0.69    1.11 
  -5  -4 -13    0.79    0.99 
  -5  -4 -13   -0.22    1.12 
  -6  -4 -13    1.75    1.25 
  -6  -4 -13    4.31    1.14 
  -6  -4 -13    3.71    1.37 
  -7  -4 -13    0.74    1.25 
  -7  -4 -13    1.05    1.15 
  -7  -4 -13    1.76    0.97 
   0  -5 -13    3.45    1.24 
   0  -5 -13    3.97    1.37 
  -1  -5 -13    3.38    1.10 
  -1  -5 -13    3.68    1.39 
  -1  -5 -13    2.55    1.21 
  -2  -5 -13   -0.51    0.97 
  -2  -5 -13    0.14    1.14 
  -2  -5 -13   -0.93    1.00 
  -3  -5 -13   -2.62    0.92 
  -3  -5 -13   -2.54    0.82 
  -3  -5 -13   -1.47    1.13 
  -4  -5 -13   -0.85    1.16 
  -4  -5 -13   -0.20    1.05 
  -4  -5 -13    0.91    1.13 
  -5  -5 -13    0.27    1.23 
  -5  -5 -13   -0.82    1.04 
  -5  -5 -13    1.24    1.08 
  -6  -5 -13    0.96    1.19 
  -6  -5 -13    1.56    1.10 
  -6  -5 -13   -1.18    1.22 
  -1  -6 -13    2.07    1.39 
  -2  -6 -13   -0.88    1.30 
  -2  -6 -13    1.79    1.30 
  -3  -6 -13   -1.66    1.07 
  -3  -6 -13   -0.31    1.05 
  -3  -6 -13   -1.76    0.94 
  -3  -6 -13   -1.21    1.18 
  -4  -6 -13    1.00    1.08 
  -4  -6 -13    2.13    1.34 
  -4  -6 -13   -1.13    1.14 
  -5  -6 -13    0.81    1.18 
  -5  -6 -13    0.79    1.29 
  -5  -6 -13    0.92    1.25 
  -1   2 -14    6.06    1.51 
  -1   2 -14    5.64    1.57 
  -2   2 -14   15.66    2.60 
  -2   2 -14   17.68    2.26 
   0   1 -14    1.02    1.23 
   0   1 -14    1.29    1.24 
  -1   1 -14    0.40    1.19 
  -1   1 -14   -0.67    1.11 
  -2   1 -14    1.59    1.16 
  -2   1 -14    3.50    1.37 
  -3   1 -14    3.33    1.26 
  -3   1 -14    5.13    1.51 
   1   0 -14    1.57    1.12 
   1   0 -14   -1.22    1.16 
   0   0 -14    1.95    1.20 
   0   0 -14    0.05    1.10 
  -1   0 -14    1.98    1.19 
  -1   0 -14    0.26    1.12 
  -2   0 -14    0.12    1.05 
  -2   0 -14   -0.35    1.21 
  -3   0 -14    0.22    1.20 
  -3   0 -14   -0.88    1.00 
  -4   0 -14    6.06    1.37 
  -4   0 -14    9.31    1.63 
   1  -1 -14    3.89    1.28 
   0  -1 -14    0.85    1.16 
  -1  -1 -14    0.43    1.17 
  -2  -1 -14    2.02    1.23 
  -3  -1 -14   -0.21    1.17 
  -4  -1 -14    0.55    1.17 
  -5  -1 -14    0.82    1.79 
  -5  -1 -14   -0.46    1.11 
   0  -2 -14   -0.32    1.09 
  -1  -2 -14    4.01    1.27 
  -1  -2 -14    4.64    1.53 
  -2  -2 -14    9.39    1.43 
  -2  -2 -14    9.14    1.58 
  -3  -2 -14   25.44    2.60 
  -3  -2 -14   20.59    2.37 
  -4  -2 -14   13.86    2.24 
  -4  -2 -14    9.75    1.51 
  -5  -2 -14   -0.48    1.08 
  -5  -2 -14    0.31    1.06 
   0  -3 -14    0.38    1.17 
   0  -3 -14    2.45    1.12 
  -1  -3 -14    2.45    1.19 
  -1  -3 -14    3.68    1.30 
  -2  -3 -14    0.92    1.15 
  -2  -3 -14    1.38    1.17 
  -3  -3 -14    1.43    1.16 
  -3  -3 -14   -1.89    0.97 
  -4  -3 -14    4.96    1.39 
  -4  -3 -14    5.67    1.42 
  -5  -3 -14   -0.97    1.14 
  -5  -3 -14   -0.18    1.16 
  -1  -4 -14    0.31    1.00 
  -1  -4 -14   -0.46    1.08 
  -1  -4 -14   -0.32    1.19 
  -2  -4 -14    0.04    1.09 
  -2  -4 -14    1.41    1.19 
  -2  -4 -14    0.99    1.25 
  -3  -4 -14    0.99    1.15 
  -3  -4 -14    3.06    1.24 
  -3  -4 -14    2.97    1.30 
  -4  -4 -14    1.40    1.24 
  -4  -4 -14    0.59    1.25 
   0   0   0    0.00    0.00 
;
_shelx_hkl_checksum              27104
_shelx_fab_file
; 
    1    0    0    -35.18      0.00 
    2    0    0     14.83      0.00 
    3    0    0      1.24      0.00 
    4    0    0     -9.68      0.00 
    5    0    0     12.29      0.00 
    6    0    0    -10.06      0.00 
    7    0    0      5.51      0.00 
    8    0    0     -0.91      0.00 
    9    0    0     -2.69      0.00 
   10    0    0      3.32      0.00 
  -10    1    0      2.07      0.00 
   -9    1    0      0.18      0.00 
   -8    1    0     -4.78      0.00 
   -7    1    0      8.50      0.00 
   -6    1    0    -10.04      0.00 
   -5    1    0      7.82      0.00 
   -4    1    0     -0.62      0.00 
   -3    1    0    -10.13      0.00 
   -2    1    0     22.76      0.00 
   -1    1    0    -33.29      0.00 
    0    1    0     32.57      0.00 
    1    1    0    -17.33      0.00 
    2    1    0     -1.67      0.00 
    3    1    0     12.66      0.00 
    4    1    0    -14.59      0.00 
    5    1    0     11.25      0.00 
    6    1    0     -5.51      0.00 
    7    1    0      0.20      0.00 
    8    1    0      3.05      0.00 
    9    1    0     -4.03      0.00 
   10    1    0      2.71      0.00 
   11    1    0     -0.62      0.00 
  -10    2    0      0.29      0.00 
   -9    2    0      2.69      0.00 
   -8    2    0     -6.43      0.00 
   -7    2    0      7.72      0.00 
   -6    2    0     -5.70      0.00 
   -5    2    0      0.39      0.00 
   -4    2    0      7.38      0.00 
   -3    2    0    -14.93      0.00 
   -2    2    0     19.15      0.00 
   -1    2    0    -17.08      0.00 
    0    2    0      7.14      0.00 
    1    2    0      6.42      0.00 
    2    2    0    -15.40      0.00 
    3    2    0     16.24      0.00 
    4    2    0    -11.48      0.00 
    5    2    0      4.57      0.00 
    6    2    0      1.73      0.00 
    7    2    0     -5.23      0.00 
    8    2    0      5.58      0.00 
    9    2    0     -3.58      0.00 
   10    2    0      0.75      0.00 
   11    2    0      0.65      0.00 
   -9    3    0      3.03      0.00 
   -8    3    0     -4.77      0.00 
   -7    3    0      3.56      0.00 
   -6    3    0      0.42      0.00 
   -5    3    0     -5.81      0.00 
   -4    3    0     10.50      0.00 
   -3    3    0    -11.95      0.00 
   -2    3    0      8.47      0.00 
   -1    3    0      0.32      0.00 
    0    3    0    -11.77      0.00 
    1    3    0     19.34      0.00 
    2    3    0    -18.32      0.00 
    3    3    0     10.99      0.00 
    4    3    0     -2.51      0.00 
    5    3    0     -4.26      0.00 
    6    3    0      7.93      0.00 
    7    3    0     -7.98      0.00 
    8    3    0      5.39      0.00 
    9    3    0     -1.75      0.00 
   10    3    0     -1.11      0.00 
   11    3    0      1.53      0.00 
   -8    4    0     -1.38      0.00 
   -7    4    0     -1.25      0.00 
   -6    4    0      4.99      0.00 
   -5    4    0     -7.80      0.00 
   -4    4    0      7.83      0.00 
   -3    4    0     -3.92      0.00 
   -2    4    0     -3.37      0.00 
   -1    4    0     12.00      0.00 
    0    4    0    -18.54      0.00 
    1    4    0     18.96      0.00 
    2    4    0    -12.16      0.00 
    3    4    0      2.09      0.00 
    4    4    0      6.07      0.00 
    5    4    0    -10.00      0.00 
    6    4    0      9.83      0.00 
    7    4    0     -6.73      0.00 
    8    4    0      2.58      0.00 
    9    4    0      0.69      0.00 
   10    4    0     -1.95      0.00 
   11    4    0      1.33      0.00 
   -8    5    0      1.03      0.00 
   -7    5    0     -3.83      0.00 
   -6    5    0      6.13      0.00 
   -5    5    0     -5.87      0.00 
   -4    5    0      2.30      0.00 
   -3    5    0      3.92      0.00 
   -2    5    0    -10.75      0.00 
   -1    5    0     15.44      0.00 
    0    5    0    -15.80      0.00 
    1    5    0     11.09      0.00 
    2    5    0     -2.71      0.00 
    3    5    0     -5.65      0.00 
    4    5    0     10.28      0.00 
    5    5    0    -10.26      0.00 
    6    5    0      7.22      0.00 
    7    5    0     -3.06      0.00 
    8    5    0     -0.62      0.00 
    9    5    0      2.27      0.00 
   10    5    0     -1.67      0.00 
   11    5    0      0.43      0.00 
   -7    6    0     -3.22      0.00 
   -6    6    0      4.02      0.00 
   -5    6    0     -1.91      0.00 
   -4    6    0     -2.60      0.00 
   -3    6    0      7.72      0.00 
   -2    6    0    -11.30      0.00 
   -1    6    0     11.40      0.00 
    0    6    0     -7.64      0.00 
    1    6    0      1.48      0.00 
    2    6    0      4.89      0.00 
    3    6    0     -9.06      0.00 
    4    6    0      9.25      0.00 
    5    6    0     -6.20      0.00 
    6    6    0      2.38      0.00 
    7    6    0      0.72      0.00 
    8    6    0     -2.53      0.00 
    9    6    0      2.39      0.00 
   10    6    0     -0.83      0.00 
   11    6    0     -0.27      0.00 
   -6    7    0      0.97      0.00 
   -5    7    0      1.54      0.00 
   -4    7    0     -4.99      0.00 
   -3    7    0      7.17      0.00 
   -2    7    0     -7.05      0.00 
   -1    7    0      4.26      0.00 
    0    7    0      0.57      0.00 
    1    7    0     -5.24      0.00 
    2    7    0      7.76      0.00 
    3    7    0     -7.39      0.00 
    4    7    0      4.49      0.00 
    5    7    0     -0.71      0.00 
    6    7    0     -1.99      0.00 
    7    7    0      3.11      0.00 
    8    7    0     -2.98      0.00 
    9    7    0      1.69      0.00 
   10    7    0     -0.14      0.00 
   -5    8    0      2.35      0.00 
   -4    8    0     -4.18      0.00 
   -3    8    0      3.80      0.00 
   -2    8    0     -1.30      0.00 
   -1    8    0     -2.09      0.00 
    0    8    0      5.39      0.00 
    1    8    0     -7.17      0.00 
    2    8    0      6.22      0.00 
    3    8    0     -3.00      0.00 
    4    8    0     -0.77      0.00 
    5    8    0      3.44      0.00 
    6    8    0     -4.18      0.00 
    7    8    0      3.40      0.00 
    8    8    0     -2.03      0.00 
    9    8    0      0.63      0.00 
   10    8    0      0.20      0.00 
   -4    9    0     -1.75      0.00 
   -3    9    0      0.37      0.00 
   -2    9    0      2.68      0.00 
   -1    9    0     -5.33      0.00 
    0    9    0      6.27      0.00 
    1    9    0     -5.16      0.00 
    2    9    0      2.23      0.00 
    3    9    0      1.40      0.00 
    4    9    0     -4.14      0.00 
    5    9    0      5.06      0.00 
    6    9    0     -4.19      0.00 
    7    9    0      2.29      0.00 
    8    9    0     -0.51      0.00 
    9    9    0     -0.34      0.00 
   -2   10    0      2.78      0.00 
   -1   10    0     -4.41      0.00 
    0   10    0      4.08      0.00 
    1   10    0     -1.66      0.00 
    2   10    0     -1.44      0.00 
    3   10    0      3.70      0.00 
    4   10    0     -4.59      0.00 
    5   10    0      4.20      0.00 
    6   10    0     -2.80      0.00 
    7   10    0      1.03      0.00 
    8   10    0      0.21      0.00 
    0   11    0      1.32      0.00 
    1   11    0      0.26      0.00 
    2   11    0     -2.13      0.00 
    3   11    0      2.78      0.00 
    4   11    0     -2.44      0.00 
    5   11    0      1.83      0.00 
    6   11    0     -1.01      0.00 
    7   11    0      0.20      0.00 
   -6  -11    1      1.05      0.00 
   -5  -11    1     -1.77      0.00 
   -4  -11    1      2.28      0.00 
   -3  -11    1     -2.64      0.00 
   -2  -11    1      2.09      0.00 
   -1  -11    1     -0.31      0.00 
    0  -11    1     -1.28      0.00 
   -8  -10    1     -0.02      0.00 
   -7  -10    1     -1.22      0.00 
   -6  -10    1      2.92      0.00 
   -5  -10    1     -4.17      0.00 
   -4  -10    1      4.39      0.00 
   -3  -10    1     -3.49      0.00 
   -2  -10    1      1.36      0.00 
   -1  -10    1      1.70      0.00 
    0  -10    1     -4.20      0.00 
    1  -10    1      4.51      0.00 
    2  -10    1     -2.75      0.00 
   -9   -9    1      0.24      0.00 
   -8   -9    1      0.74      0.00 
   -7   -9    1     -2.61      0.00 
   -6   -9    1      4.46      0.00 
   -5   -9    1     -5.18      0.00 
   -4   -9    1      4.08      0.00 
   -3   -9    1     -1.24      0.00 
   -2   -9    1     -2.43      0.00 
   -1   -9    1      5.41      0.00 
    0   -9    1     -6.55      0.00 
    1   -9    1      5.48      0.00 
    2   -9    1     -2.65      0.00 
    3   -9    1     -0.39      0.00 
    4   -9    1      1.70      0.00 
   -9   -8    1     -0.69      0.00 
   -8   -8    1      2.16      0.00 
   -7   -8    1     -3.59      0.00 
   -6   -8    1      4.29      0.00 
   -5   -8    1     -3.50      0.00 
   -4   -8    1      0.83      0.00 
   -3   -8    1      3.03      0.00 
   -2   -8    1     -6.44      0.00 
   -1   -8    1      7.53      0.00 
    0   -8    1     -5.69      0.00 
    1   -8    1      2.18      0.00 
    2   -8    1      1.33      0.00 
    3   -8    1     -3.73      0.00 
    4   -8    1      4.04      0.00 
    5   -8    1     -2.33      0.00 
  -10   -7    1      0.32      0.00 
   -9   -7    1     -1.78      0.00 
   -8   -7    1      3.06      0.00 
   -7   -7    1     -3.11      0.00 
   -6   -7    1      1.89      0.00 
   -5   -7    1      0.65      0.00 
   -4   -7    1     -4.21      0.00 
   -3   -7    1      7.14      0.00 
   -2   -7    1     -7.75      0.00 
   -1   -7    1      5.43      0.00 
    0   -7    1     -0.78      0.00 
    1   -7    1     -4.15      0.00 
    2   -7    1      6.95      0.00 
    3   -7    1     -6.92      0.00 
    4   -7    1      4.69      0.00 
    5   -7    1     -1.37      0.00 
    6   -7    1     -1.06      0.00 
  -10   -6    1      0.92      0.00 
   -9   -6    1     -2.44      0.00 
   -8   -6    1      2.57      0.00 
   -7   -6    1     -0.67      0.00 
   -6   -6    1     -2.38      0.00 
   -5   -6    1      5.86      0.00 
   -4   -6    1     -8.61      0.00 
   -3   -6    1      8.47      0.00 
   -2   -6    1     -4.54      0.00 
   -1   -6    1     -1.57      0.00 
    0   -6    1      7.51      0.00 
    1   -6    1    -11.12      0.00 
    2   -6    1     10.89      0.00 
    3   -6    1     -7.19      0.00 
    4   -6    1      2.11      0.00 
    5   -6    1      2.31      0.00 
    6   -6    1     -4.42      0.00 
    7   -6    1      3.57      0.00 
  -11   -5    1     -0.31      0.00 
  -10   -5    1      1.41      0.00 
   -9   -5    1     -2.06      0.00 
   -8   -5    1      0.49      0.00 
   -7   -5    1      3.13      0.00 
   -6   -5    1     -7.05      0.00 
   -5   -5    1      9.62      0.00 
   -4   -5    1     -9.36      0.00 
   -3   -5    1      4.81      0.00 
   -2   -5    1      3.27      0.00 
   -1   -5    1    -11.34      0.00 
    0   -5    1     15.77      0.00 
    1   -5    1    -15.16      0.00 
    2   -5    1     10.27      0.00 
    3   -5    1     -3.38      0.00 
    4   -5    1     -2.76      0.00 
    5   -5    1      6.30      0.00 
    6   -5    1     -6.58      0.00 
    7   -5    1      4.16      0.00 
    8   -5    1     -1.12      0.00 
  -11   -4    1     -0.98      0.00 
  -10   -4    1      1.40      0.00 
   -9   -4    1     -0.25      0.00 
   -8   -4    1     -2.81      0.00 
   -7   -4    1      6.76      0.00 
   -6   -4    1     -9.61      0.00 
   -5   -4    1      9.40      0.00 
   -4   -4    1     -5.13      0.00 
   -3   -4    1     -3.04      0.00 
   -2   -4    1     12.73      0.00 
   -1   -4    1    -19.18      0.00 
    0   -4    1     18.71      0.00 
    1   -4    1    -12.13      0.00 
    2   -4    1      3.32      0.00 
    3   -4    1      4.06      0.00 
    4   -4    1     -7.92      0.00 
    5   -4    1      7.98      0.00 
    6   -4    1     -5.26      0.00 
    7   -4    1      1.42      0.00 
    8   -4    1      1.44      0.00 
    9   -4    1     -1.79      0.00 
  -11   -3    1     -1.20      0.00 
  -10   -3    1      0.63      0.00 
   -9   -3    1      2.15      0.00 
   -8   -3    1     -5.59      0.00 
   -7   -3    1      7.97      0.00 
   -6   -3    1     -7.78      0.00 
   -5   -3    1      3.96      0.00 
   -4   -3    1      3.00      0.00 
   -3   -3    1    -11.50      0.00 
   -2   -3    1     18.64      0.00 
   -1   -3    1    -19.70      0.00 
    0   -3    1     12.47      0.00 
    1   -3    1     -1.12      0.00 
    2   -3    1     -7.89      0.00 
    3   -3    1     11.54      0.00 
    4   -3    1    -10.16      0.00 
    5   -3    1      5.63      0.00 
    6   -3    1     -0.46      0.00 
    7   -3    1     -3.41      0.00 
    8   -3    1      4.70      0.00 
    9   -3    1     -3.10      0.00 
  -11   -2    1     -0.61      0.00 
  -10   -2    1     -0.88      0.00 
   -9   -2    1      3.82      0.00 
   -8   -2    1     -5.83      0.00 
   -7   -2    1      5.38      0.00 
   -6   -2    1     -1.83      0.00 
   -5   -2    1     -4.42      0.00 
   -4   -2    1     11.13      0.00 
   -3   -2    1    -15.65      0.00 
   -2   -2    1     15.25      0.00 
   -1   -2    1     -7.53      0.00 
    0   -2    1     -5.14      0.00 
    1   -2    1     15.34      0.00 
    2   -2    1    -18.01      0.00 
    3   -2    1     14.04      0.00 
    4   -2    1     -6.67      0.00 
    5   -2    1     -0.84      0.00 
    6   -2    1      5.86      0.00 
    7   -2    1     -7.54      0.00 
    8   -2    1      6.07      0.00 
    9   -2    1     -2.47      0.00 
   10   -2    1     -0.38      0.00 
  -10   -1    1     -2.43      0.00 
   -9   -1    1      4.05      0.00 
   -8   -1    1     -3.31      0.00 
   -7   -1    1      0.13      0.00 
   -6   -1    1      5.09      0.00 
   -5   -1    1    -10.66      0.00 
   -4   -1    1     13.57      0.00 
   -3   -1    1    -11.23      0.00 
   -2   -1    1      1.22      0.00 
   -1   -1    1     15.45      0.00 
    0   -1    1    -29.33      0.00 
    1   -1    1     30.66      0.00 
    2   -1    1    -21.10      0.00 
    3   -1    1      8.81      0.00 
    4   -1    1      1.70      0.00 
    5   -1    1     -8.51      0.00 
    6   -1    1     10.39      0.00 
    7   -1    1     -8.47      0.00 
    8   -1    1      4.43      0.00 
    9   -1    1      0.21      0.00 
   10   -1    1     -2.34      0.00 
  -10    0    1     -2.75      0.00 
   -9    0    1      2.38      0.00 
   -8    0    1      0.86      0.00 
   -7    0    1     -5.24      0.00 
   -6    0    1      9.53      0.00 
   -5    0    1    -11.47      0.00 
   -4    0    1      8.46      0.00 
   -3    0    1      0.14      0.00 
   -2    0    1    -15.16      0.00 
   -1    0    1     33.57      0.00 
    0    0    1    -42.60      0.00 
    1    0    1     32.88      0.00 
    2    0    1    -13.00      0.00 
    3    0    1     -2.83      0.00 
    4    0    1     10.90      0.00 
    5    0    1    -13.10      0.00 
    6    0    1     10.55      0.00 
    7    0    1     -5.70      0.00 
    8    0    1      0.86      0.00 
    9    0    1      2.95      0.00 
   10    0    1     -3.69      0.00 
  -10    1    1     -1.51      0.00 
   -9    1    1     -0.66      0.00 
   -8    1    1      4.98      0.00 
   -7    1    1     -8.36      0.00 
   -6    1    1      9.55      0.00 
   -5    1    1     -7.06      0.00 
   -4    1    1     -0.37      0.00 
   -3    1    1     11.00      0.00 
   -2    1    1    -22.92      0.00 
   -1    1    1     32.83      0.00 
    0    1    1    -32.13      0.00 
    1    1    1     16.79      0.00 
    2    1    1      2.81      0.00 
    3    1    1    -14.03      0.00 
    4    1    1     15.54      0.00 
    5    1    1    -11.83      0.00 
    6    1    1      5.97      0.00 
    7    1    1     -0.54      0.00 
    8    1    1     -2.82      0.00 
    9    1    1      4.02      0.00 
   10    1    1     -2.97      0.00 
   11    1    1      0.82      0.00 
   -9    2    1     -2.95      0.00 
   -8    2    1      6.59      0.00 
   -7    2    1     -7.62      0.00 
   -6    2    1      5.30      0.00 
   -5    2    1      0.14      0.00 
   -4    2    1     -7.97      0.00 
   -3    2    1     15.41      0.00 
   -2    2    1    -19.45      0.00 
   -1    2    1     17.65      0.00 
    0    2    1     -8.34      0.00 
    1    2    1     -5.36      0.00 
    2    2    1     15.32      0.00 
    3    2    1    -16.74      0.00 
    4    2    1     11.83      0.00 
    5    2    1     -4.75      0.00 
    6    2    1     -1.47      0.00 
    7    2    1      4.88      0.00 
    8    2    1     -5.21      0.00 
    9    2    1      3.34      0.00 
   10    2    1     -0.71      0.00 
   11    2    1     -0.62      0.00 
   -9    3    1     -2.89      0.00 
   -8    3    1      4.67      0.00 
   -7    3    1     -3.48      0.00 
   -6    3    1     -0.59      0.00 
   -5    3    1      6.06      0.00 
   -4    3    1    -10.74      0.00 
   -3    3    1     12.21      0.00 
   -2    3    1     -8.94      0.00 
   -1    3    1      0.66      0.00 
    0    3    1     10.30      0.00 
    1    3    1    -17.92      0.00 
    2    3    1     17.42      0.00 
    3    3    1    -10.52      0.00 
    4    3    1      2.22      0.00 
    5    3    1      4.39      0.00 
    6    3    1     -7.84      0.00 
    7    3    1      7.66      0.00 
    8    3    1     -4.95      0.00 
    9    3    1      1.31      0.00 
   10    3    1      1.49      0.00 
   11    3    1     -1.78      0.00 
   -8    4    1      1.20      0.00 
   -7    4    1      1.18      0.00 
   -6    4    1     -4.80      0.00 
   -5    4    1      7.69      0.00 
   -4    4    1     -7.79      0.00 
   -3    4    1      3.96      0.00 
   -2    4    1      3.04      0.00 
   -1    4    1    -11.19      0.00 
    0    4    1     17.40      0.00 
    1    4    1    -17.80      0.00 
    2    4    1     11.15      0.00 
    3    4    1     -1.23      0.00 
    4    4    1     -6.76      0.00 
    5    4    1     10.39      0.00 
    6    4    1     -9.82      0.00 
    7    4    1      6.42      0.00 
    8    4    1     -2.15      0.00 
    9    4    1     -1.18      0.00 
   10    4    1      2.48      0.00 
   11    4    1     -1.69      0.00 
   -8    5    1     -1.00      0.00 
   -7    5    1      3.49      0.00 
   -6    5    1     -5.63      0.00 
   -5    5    1      5.46      0.00 
   -4    5    1     -2.00      0.00 
   -3    5    1     -4.12      0.00 
   -2    5    1     10.72      0.00 
   -1    5    1    -15.05      0.00 
    0    5    1     15.07      0.00 
    1    5    1    -10.20      0.00 
    2    5    1      1.89      0.00 
    3    5    1      6.40      0.00 
    4    5    1    -11.02      0.00 
    5    5    1     10.80      0.00 
    6    5    1     -7.32      0.00 
    7    5    1      2.88      0.00 
    8    5    1      0.83      0.00 
    9    5    1     -2.53      0.00 
   10    5    1      1.99      0.00 
   11    5    1     -0.64      0.00 
   -7    6    1      2.81      0.00 
   -6    6    1     -3.54      0.00 
   -5    6    1      1.48      0.00 
   -4    6    1      3.00      0.00 
   -3    6    1     -8.02      0.00 
   -2    6    1     11.39      0.00 
   -1    6    1    -11.28      0.00 
    0    6    1      7.32      0.00 
    1    6    1     -1.00      0.00 
    2    6    1     -5.40      0.00 
    3    6    1      9.59      0.00 
    4    6    1     -9.85      0.00 
    5    6    1      6.64      0.00 
    6    6    1     -2.46      0.00 
    7    6    1     -0.75      0.00 
    8    6    1      2.44      0.00 
    9    6    1     -2.30      0.00 
   10    6    1      0.83      0.00 
   11    6    1      0.27      0.00 
   -6    7    1     -0.78      0.00 
   -5    7    1     -1.74      0.00 
   -4    7    1      5.25      0.00 
   -3    7    1     -7.37      0.00 
   -2    7    1      7.07      0.00 
   -1    7    1     -4.24      0.00 
    0    7    1     -0.47      0.00 
    1    7    1      5.14      0.00 
    2    7    1     -7.83      0.00 
    3    7    1      7.72      0.00 
    4    7    1     -4.93      0.00 
    5    7    1      0.93      0.00 
    6    7    1      2.02      0.00 
    7    7    1     -3.08      0.00 
    8    7    1      2.75      0.00 
    9    7    1     -1.43      0.00 
   10    7    1     -0.06      0.00 
   -5    8    1     -2.31      0.00 
   -4    8    1      4.26      0.00 
   -3    8    1     -3.86      0.00 
   -2    8    1      1.26      0.00 
   -1    8    1      2.00      0.00 
    0    8    1     -4.99      0.00 
    1    8    1      6.66      0.00 
    2    8    1     -5.95      0.00 
    3    8    1      3.16      0.00 
    4    8    1      0.40      0.00 
    5    8    1     -3.20      0.00 
    6    8    1      4.09      0.00 
    7    8    1     -3.25      0.00 
    8    8    1      1.78      0.00 
    9    8    1     -0.38      0.00 
   10    8    1     -0.43      0.00 
   -4    9    1      1.73      0.00 
   -3    9    1     -0.34      0.00 
   -2    9    1     -2.67      0.00 
   -1    9    1      5.14      0.00 
    0    9    1     -5.85      0.00 
    1    9    1      4.71      0.00 
    2    9    1     -1.95      0.00 
    3    9    1     -1.39      0.00 
    4    9    1      3.90      0.00 
    5    9    1     -4.76      0.00 
    6    9    1      3.93      0.00 
    7    9    1     -2.03      0.00 
    8    9    1      0.26      0.00 
    9    9    1      0.53      0.00 
   -2   10    1     -2.77      0.00 
   -1   10    1      4.23      0.00 
    0   10    1     -3.85      0.00 
    1   10    1      1.54      0.00 
    2   10    1      1.53      0.00 
    3   10    1     -3.83      0.00 
    4   10    1      4.63      0.00 
    5   10    1     -4.09      0.00 
    6   10    1      2.64      0.00 
    7   10    1     -0.88      0.00 
    8   10    1     -0.35      0.00 
    0   11    1     -1.26      0.00 
    1   11    1     -0.19      0.00 
    2   11    1      2.09      0.00 
    3   11    1     -2.92      0.00 
    4   11    1      2.61      0.00 
    5   11    1     -1.87      0.00 
    6   11    1      0.97      0.00 
    7   11    1     -0.18      0.00 
   -6  -11    2     -0.95      0.00 
   -5  -11    2      1.59      0.00 
   -4  -11    2     -2.09      0.00 
   -3  -11    2      2.43      0.00 
   -2  -11    2     -1.88      0.00 
   -1  -11    2      0.23      0.00 
    0  -11    2      1.20      0.00 
   -7  -10    2      1.32      0.00 
   -6  -10    2     -2.87      0.00 
   -5  -10    2      3.96      0.00 
   -4  -10    2     -4.09      0.00 
   -3  -10    2      3.22      0.00 
   -2  -10    2     -1.19      0.00 
   -1  -10    2     -1.77      0.00 
    0  -10    2      4.20      0.00 
    1  -10    2     -4.43      0.00 
    2  -10    2      2.63      0.00 
   -8   -9    2     -0.93      0.00 
   -7   -9    2      2.88      0.00 
   -6   -9    2     -4.64      0.00 
   -5   -9    2      5.09      0.00 
   -4   -9    2     -3.80      0.00 
   -3   -9    2      1.00      0.00 
   -2   -9    2      2.49      0.00 
   -1   -9    2     -5.42      0.00 
    0   -9    2      6.61      0.00 
    1   -9    2     -5.51      0.00 
    2   -9    2      2.59      0.00 
    3   -9    2      0.39      0.00 
    4   -9    2     -1.59      0.00 
   -9   -8    2      0.59      0.00 
   -8   -8    2     -2.21      0.00 
   -7   -8    2      3.84      0.00 
   -6   -8    2     -4.47      0.00 
   -5   -8    2      3.42      0.00 
   -4   -8    2     -0.61      0.00 
   -3   -8    2     -3.18      0.00 
   -2   -8    2      6.45      0.00 
   -1   -8    2     -7.54      0.00 
    0   -8    2      5.81      0.00 
    1   -8    2     -2.30      0.00 
    2   -8    2     -1.29      0.00 
    3   -8    2      3.65      0.00 
    4   -8    2     -3.89      0.00 
    5   -8    2      2.27      0.00 
  -10   -7    2     -0.38      0.00 
   -9   -7    2      1.68      0.00 
   -8   -7    2     -3.04      0.00 
   -7   -7    2      3.19      0.00 
   -6   -7    2     -1.86      0.00 
   -5   -7    2     -0.74      0.00 
   -4   -7    2      4.16      0.00 
   -3   -7    2     -7.01      0.00 
   -2   -7    2      7.69      0.00 
   -1   -7    2     -5.52      0.00 
    0   -7    2      1.01      0.00 
    1   -7    2      3.90      0.00 
    2   -7    2     -6.74      0.00 
    3   -7    2      6.68      0.00 
    4   -7    2     -4.46      0.00 
    5   -7    2      1.26      0.00 
    6   -7    2      1.09      0.00 
  -10   -6    2     -0.99      0.00 
   -9   -6    2      2.37      0.00 
   -8   -6    2     -2.52      0.00 
   -7   -6    2      0.64      0.00 
   -6   -6    2      2.41      0.00 
   -5   -6    2     -5.67      0.00 
   -4   -6    2      8.11      0.00 
   -3   -6    2     -7.96      0.00 
   -2   -6    2      4.37      0.00 
   -1   -6    2      1.35      0.00 
    0   -6    2     -7.01      0.00 
    1   -6    2     10.53      0.00 
    2   -6    2    -10.30      0.00 
    3   -6    2      6.64      0.00 
    4   -6    2     -1.69      0.00 
    5   -6    2     -2.59      0.00 
    6   -6    2      4.67      0.00 
    7   -6    2     -3.78      0.00 
  -10   -5    2     -1.20      0.00 
   -9   -5    2      1.81      0.00 
   -8   -5    2     -0.33      0.00 
   -7   -5    2     -3.19      0.00 
   -6   -5    2      6.89      0.00 
   -5   -5    2     -9.05      0.00 
   -4   -5    2      8.48      0.00 
   -3   -5    2     -4.07      0.00 
   -2   -5    2     -3.50      0.00 
   -1   -5    2     10.98      0.00 
    0   -5    2    -15.06      0.00 
    1   -5    2     14.35      0.00 
    2   -5    2     -9.47      0.00 
    3   -5    2      2.69      0.00 
    4   -5    2      3.24      0.00 
    5   -5    2     -6.65      0.00 
    6   -5    2      6.90      0.00 
    7   -5    2     -4.39      0.00 
    8   -5    2      1.22      0.00 
  -10   -4    2     -0.87      0.00 
   -9   -4    2     -0.16      0.00 
   -8   -4    2      2.97      0.00 
   -7   -4    2     -6.71      0.00 
   -6   -4    2      9.30      0.00 
   -5   -4    2     -8.73      0.00 
   -4   -4    2      4.18      0.00 
   -3   -4    2      3.81      0.00 
   -2   -4    2    -12.76      0.00 
   -1   -4    2     18.49      0.00 
    0   -4    2    -17.93      0.00 
    1   -4    2     11.61      0.00 
    2   -4    2     -2.94      0.00 
    3   -4    2     -4.34      0.00 
    4   -4    2      8.08      0.00 
    5   -4    2     -8.16      0.00 
    6   -4    2      5.50      0.00 
    7   -4    2     -1.56      0.00 
    8   -4    2     -1.40      0.00 
    9   -4    2      1.79      0.00 
  -10   -3    2     -0.12      0.00 
   -9   -3    2     -2.48      0.00 
   -8   -3    2      5.64      0.00 
   -7   -3    2     -7.78      0.00 
   -6   -3    2      7.49      0.00 
   -5   -3    2     -3.61      0.00 
   -4   -3    2     -3.50      0.00 
   -3   -3    2     11.84      0.00 
   -2   -3    2    -18.24      0.00 
   -1   -3    2     18.84      0.00 
    0   -3    2    -12.09      0.00 
    1   -3    2      1.46      0.00 
    2   -3    2      7.36      0.00 
    3   -3    2    -11.13      0.00 
    4   -3    2      9.88      0.00 
    5   -3    2     -5.59      0.00 
    6   -3    2      0.65      0.00 
    7   -3    2      3.16      0.00 
    8   -3    2     -4.51      0.00 
    9   -3    2      3.05      0.00 
  -10   -2    2      1.07      0.00 
   -9   -2    2     -3.98      0.00 
   -8   -2    2      5.89      0.00 
   -7   -2    2     -5.30      0.00 
   -6   -2    2      1.79      0.00 
   -5   -2    2      4.26      0.00 
   -4   -2    2    -10.80      0.00 
   -3   -2    2     15.08      0.00 
   -2   -2    2    -14.72      0.00 
   -1   -2    2      7.98      0.00 
    0   -2    2      3.40      0.00 
    1   -2    2    -13.22      0.00 
    2   -2    2     16.40      0.00 
    3   -2    2    -13.01      0.00 
    4   -2    2      6.08      0.00 
    5   -2    2      1.04      0.00 
    6   -2    2     -5.73      0.00 
    7   -2    2      7.14      0.00 
    8   -2    2     -5.62      0.00 
    9   -2    2      2.30      0.00 
   10   -2    2      0.30      0.00 
  -10   -1    2      2.18      0.00 
   -9   -1    2     -4.01      0.00 
   -8   -1    2      3.44      0.00 
   -7   -1    2     -0.28      0.00 
   -6   -1    2     -4.79      0.00 
   -5   -1    2     10.11      0.00 
   -4   -1    2    -12.68      0.00 
   -3   -1    2     10.14      0.00 
   -2   -1    2     -1.38      0.00 
   -1   -1    2    -12.32      0.00 
    0   -1    2     24.12      0.00 
    1   -1    2    -26.19      0.00 
    2   -1    2     18.57      0.00 
    3   -1    2     -7.45      0.00 
    4   -1    2     -2.49      0.00 
    5   -1    2      8.86      0.00 
    6   -1    2    -10.41      0.00 
    7   -1    2      8.17      0.00 
    8   -1    2     -3.96      0.00 
    9   -1    2     -0.44      0.00 
   10   -1    2      2.28      0.00 
  -10    0    2      2.14      0.00 
   -9    0    2     -2.09      0.00 
   -8    0    2     -0.81      0.00 
   -7    0    2      5.02      0.00 
   -6    0    2     -9.05      0.00 
   -5    0    2     10.75      0.00 
   -4    0    2     -7.56      0.00 
   -3    0    2     -0.88      0.00 
   -2    0    2     14.05      0.00 
   -1    0    2    -28.99      0.00 
    0    0    2     36.06      0.00 
    1    0    2    -27.76      0.00 
    2    0    2     10.45      0.00 
    3    0    2      4.02      0.00 
    4    0    2    -11.65      0.00 
    5    0    2     13.55      0.00 
    6    0    2    -10.74      0.00 
    7    0    2      5.63      0.00 
    8    0    2     -0.63      0.00 
    9    0    2     -3.11      0.00 
   10    0    2      3.74      0.00 
  -10    1    2      0.86      0.00 
   -9    1    2      1.05      0.00 
   -8    1    2     -4.94      0.00 
   -7    1    2      8.05      0.00 
   -6    1    2     -8.99      0.00 
   -5    1    2      6.36      0.00 
   -4    1    2      1.01      0.00 
   -3    1    2    -11.19      0.00 
   -2    1    2     21.64      0.00 
    0    1    2     28.21      0.00 
    1    1    2    -14.05      0.00 
    2    1    2     -4.14      0.00 
    3    1    2     14.72      0.00 
    4    1    2    -16.02      0.00 
    5    1    2     12.21      0.00 
    6    1    2     -6.25      0.00 
    7    1    2      0.68      0.00 
    8    1    2      2.76      0.00 
    9    1    2     -4.04      0.00 
   10    1    2      3.12      0.00 
   11    1    2     -0.90      0.00 
   -9    2    2      3.08      0.00 
   -8    2    2     -6.39      0.00 
   -7    2    2      7.17      0.00 
   -6    2    2     -4.71      0.00 
   -5    2    2     -0.65      0.00 
   -4    2    2      8.25      0.00 
   -3    2    2    -15.36      0.00 
   -2    2    2     18.83      0.00 
   -1    2    2    -16.80      0.00 
    0    2    2      8.10      0.00 
    1    2    2      4.92      0.00 
    2    2    2    -15.01      0.00 
    3    2    2     16.87      0.00 
    4    2    2    -12.05      0.00 
    5    2    2      4.98      0.00 
    6    2    2      1.13      0.00 
    7    2    2     -4.50      0.00 
    8    2    2      4.87      0.00 
    9    2    2     -3.16      0.00 
   10    2    2      0.74      0.00 
   11    2    2      0.57      0.00 
   -9    3    2      2.69      0.00 
   -8    3    2     -4.34      0.00 
   -7    3    2      3.11      0.00 
   -6    3    2      0.97      0.00 
   -5    3    2     -6.28      0.00 
   -4    3    2     10.75      0.00 
   -3    3    2    -12.18      0.00 
   -2    3    2      9.10      0.00 
   -1    3    2     -1.39      0.00 
    0    3    2     -8.74      0.00 
    1    3    2     16.08      0.00 
    2    3    2    -16.22      0.00 
    3    3    2     10.16      0.00 
    4    3    2     -2.22      0.00 
    5    3    2     -4.24      0.00 
    6    3    2      7.42      0.00 
    7    3    2     -7.03      0.00 
    8    3    2      4.34      0.00 
    9    3    2     -0.90      0.00 
   10    3    2     -1.73      0.00 
   11    3    2      1.94      0.00 
   -8    4    2     -0.96      0.00 
   -7    4    2     -1.22      0.00 
   -6    4    2      4.72      0.00 
   -5    4    2     -7.60      0.00 
   -4    4    2      7.71      0.00 
   -3    4    2     -4.08      0.00 
   -2    4    2     -2.46      0.00 
   -1    4    2     10.02      0.00 
    0    4    2    -15.75      0.00 
    1    4    2     16.10      0.00 
    2    4    2     -9.94      0.00 
    3    4    2      0.64      0.00 
    4    4    2      6.99      0.00 
    5    4    2    -10.37      0.00 
    6    4    2      9.43      0.00 
    7    4    2     -5.73      0.00 
    8    4    2      1.48      0.00 
    9    4    2      1.69      0.00 
   10    4    2     -2.89      0.00 
   11    4    2      2.01      0.00 
   -8    5    2      1.00      0.00 
   -7    5    2     -3.19      0.00 
   -6    5    2      5.19      0.00 
   -5    5    2     -5.12      0.00 
   -4    5    2      1.86      0.00 
   -3    5    2      3.96      0.00 
   -2    5    2    -10.16      0.00 
   -1    5    2     14.10      0.00 
    0    5    2    -13.84      0.00 
    1    5    2      8.96      0.00 
    2    5    2     -1.00      0.00 
    3    5    2     -6.89      0.00 
    4    5    2     11.37      0.00 
    5    5    2    -11.02      0.00 
    6    5    2      7.18      0.00 
    7    5    2     -2.44      0.00 
    8    5    2     -1.25      0.00 
    9    5    2      2.88      0.00 
   10    5    2     -2.36      0.00 
   11    5    2      0.92      0.00 
   -7    6    2     -2.40      0.00 
   -6    6    2      3.04      0.00 
   -5    6    2     -1.12      0.00 
   -4    6    2     -3.19      0.00 
   -3    6    2      8.00      0.00 
   -2    6    2    -11.10      0.00 
   -1    6    2     10.79      0.00 
    0    6    2     -6.67      0.00 
    1    6    2      0.29      0.00 
    2    6    2      5.93      0.00 
    3    6    2     -9.90      0.00 
    4    6    2     10.19      0.00 
    5    6    2     -6.96      0.00 
    6    6    2      2.52      0.00 
    7    6    2      0.83      0.00 
    8    6    2     -2.43      0.00 
    9    6    2      2.31      0.00 
   10    6    2     -0.97      0.00 
   11    6    2     -0.14      0.00 
   -6    7    2      0.54      0.00 
   -5    7    2      1.88      0.00 
   -4    7    2     -5.36      0.00 
   -3    7    2      7.43      0.00 
   -2    7    2     -7.00      0.00 
   -1    7    2      4.15      0.00 
    0    7    2      0.51      0.00 
    1    7    2     -5.20      0.00 
    2    7    2      7.95      0.00 
    3    7    2     -7.94      0.00 
    4    7    2      5.27      0.00 
    5    7    2     -1.20      0.00 
    6    7    2     -1.95      0.00 
    7    7    2      2.96      0.00 
    8    7    2     -2.43      0.00 
    9    7    2      1.11      0.00 
   10    7    2      0.20      0.00 
   -5    8    2      2.19      0.00 
   -4    8    2     -4.20      0.00 
   -3    8    2      3.87      0.00 
   -2    8    2     -1.27      0.00 
   -1    8    2     -1.87      0.00 
    0    8    2      4.62      0.00 
    1    8    2     -6.22      0.00 
    2    8    2      5.77      0.00 
    3    8    2     -3.38      0.00 
    4    8    2      0.05      0.00 
    5    8    2      2.87      0.00 
    6    8    2     -3.95      0.00 
    7    8    2      3.03      0.00 
    8    8    2     -1.37      0.00 
    9    8    2     -0.03      0.00 
   10    8    2      0.71      0.00 
   -4    9    2     -1.61      0.00 
   -3    9    2      0.34      0.00 
   -2    9    2      2.60      0.00 
   -1    9    2     -4.91      0.00 
    0    9    2      5.39      0.00 
    1    9    2     -4.20      0.00 
    2    9    2      1.68      0.00 
    3    9    2      1.24      0.00 
    4    9    2     -3.45      0.00 
    5    9    2      4.33      0.00 
    6    9    2     -3.65      0.00 
    7    9    2      1.76      0.00 
    8    9    2      0.05      0.00 
    9    9    2     -0.79      0.00 
   -2   10    2      2.69      0.00 
   -1   10    2     -3.99      0.00 
    0   10    2      3.53      0.00 
    1   10    2     -1.30      0.00 
    2   10    2     -1.67      0.00 
    3   10    2      3.87      0.00 
    4   10    2     -4.49      0.00 
    5   10    2      3.83      0.00 
    6   10    2     -2.43      0.00 
    7   10    2      0.76      0.00 
    8   10    2      0.45      0.00 
    0   11    2      1.11      0.00 
    1   11    2      0.21      0.00 
    2   11    2     -2.07      0.00 
    3   11    2      3.05      0.00 
    4   11    2     -2.76      0.00 
    5   11    2      1.88      0.00 
    6   11    2     -0.94      0.00 
    7   11    2      0.24      0.00 
   -5  -11    3     -1.21      0.00 
   -4  -11    3      1.77      0.00 
   -3  -11    3     -2.08      0.00 
   -2  -11    3      1.48      0.00 
   -1  -11    3      0.00      0.00 
   -7  -10    3     -1.17      0.00 
   -6  -10    3      2.49      0.00 
   -5  -10    3     -3.48      0.00 
   -4  -10    3      3.68      0.00 
   -3  -10    3     -2.87      0.00 
   -2  -10    3      0.87      0.00 
   -1  -10    3      1.95      0.00 
    0  -10    3     -4.07      0.00 
    1  -10    3      4.08      0.00 
    2  -10    3     -2.35      0.00 
   -8   -9    3      0.98      0.00 
   -7   -9    3     -2.91      0.00 
   -6   -9    3      4.54      0.00 
   -5   -9    3     -4.80      0.00 
   -4   -9    3      3.44      0.00 
   -3   -9    3     -0.81      0.00 
   -2   -9    3     -2.46      0.00 
   -1   -9    3      5.30      0.00 
    0   -9    3     -6.48      0.00 
    1   -9    3      5.33      0.00 
    2   -9    3     -2.44      0.00 
    3   -9    3     -0.38      0.00 
    4   -9    3      1.43      0.00 
   -9   -8    3     -0.44      0.00 
   -8   -8    3      2.14      0.00 
   -7   -8    3     -4.00      0.00 
   -6   -8    3      4.61      0.00 
   -5   -8    3     -3.27      0.00 
   -4   -8    3      0.31      0.00 
   -3   -8    3      3.27      0.00 
   -2   -8    3     -6.22      0.00 
   -1   -8    3      7.25      0.00 
    0   -8    3     -5.75      0.00 
    1   -8    3      2.44      0.00 
    2   -8    3      1.15      0.00 
    3   -8    3     -3.50      0.00 
    4   -8    3      3.71      0.00 
    5   -8    3     -2.17      0.00 
   -9   -7    3     -1.44      0.00 
   -8   -7    3      2.94      0.00 
   -7   -7    3     -3.33      0.00 
   -6   -7    3      1.96      0.00 
   -5   -7    3      0.83      0.00 
   -4   -7    3     -4.23      0.00 
   -3   -7    3      6.91      0.00 
   -2   -7    3     -7.48      0.00 
   -1   -7    3      5.41      0.00 
    0   -7    3     -1.19      0.00 
    1   -7    3     -3.49      0.00 
    2   -7    3      6.36      0.00 
    3   -7    3     -6.45      0.00 
    4   -7    3      4.32      0.00 
    5   -7    3     -1.20      0.00 
    6   -7    3     -1.08      0.00 
  -10   -6    3      0.97      0.00 
   -9   -6    3     -2.16      0.00 
   -8   -6    3      2.44      0.00 
   -7   -6    3     -0.72      0.00 
   -6   -6    3     -2.36      0.00 
   -5   -6    3      5.54      0.00 
   -4   -6    3     -7.74      0.00 
   -3   -6    3      7.56      0.00 
   -2   -6    3     -4.27      0.00 
   -1   -6    3     -1.02      0.00 
    0   -6    3      6.35      0.00 
    1   -6    3     -9.76      0.00 
    2   -6    3      9.62      0.00 
    3   -6    3     -6.18      0.00 
    4   -6    3      1.44      0.00 
    5   -6    3      2.71      0.00 
    6   -6    3     -4.75      0.00 
    7   -6    3      3.82      0.00 
  -10   -5    3      0.99      0.00 
   -9   -5    3     -1.50      0.00 
   -8   -5    3      0.16      0.00 
   -7   -5    3      3.19      0.00 
   -6   -5    3     -6.69      0.00 
   -5   -5    3      8.56      0.00 
   -4   -5    3     -7.76      0.00 
   -3   -5    3      3.50      0.00 
   -2   -5    3      3.47      0.00 
   -1   -5    3    -10.26      0.00 
    0   -5    3     13.96      0.00 
    1   -5    3    -13.27      0.00 
    2   -5    3      8.60      0.00 
    3   -5    3     -2.06      0.00 
    4   -5    3     -3.59      0.00 
    5   -5    3      6.81      0.00 
    6   -5    3     -6.99      0.00 
    7   -5    3      4.43      0.00 
    8   -5    3     -1.23      0.00 
  -10   -4    3      0.41      0.00 
   -9   -4    3      0.54      0.00 
   -8   -4    3     -3.14      0.00 
   -7   -4    3      6.64      0.00 
   -6   -4    3     -8.92      0.00 
   -5   -4    3      8.05      0.00 
   -4   -4    3     -3.39      0.00 
   -3   -4    3     -4.27      0.00 
   -2   -4    3     12.40      0.00 
   -1   -4    3    -17.32      0.00 
    0   -4    3     16.61      0.00 
    1   -4    3    -10.70      0.00 
    2   -4    3      2.41      0.00 
    3   -4    3      4.65      0.00 
    4   -4    3     -8.22      0.00 
    5   -4    3      8.22      0.00 
    6   -4    3     -5.54      0.00 
    7   -4    3      1.56      0.00 
    8   -4    3      1.33      0.00 
    9   -4    3     -1.64      0.00 
  -10   -3    3     -0.30      0.00 
   -9   -3    3      2.70      0.00 
   -8   -3    3     -5.62      0.00 
   -7   -3    3      7.52      0.00 
   -6   -3    3     -7.08      0.00 
   -5   -3    3      3.21      0.00 
   -4   -3    3      3.86      0.00 
   -3   -3    3    -11.85      0.00 
   -2   -3    3     17.31      0.00 
   -1   -3    3    -17.24      0.00 
    0   -3    3     10.99      0.00 
    1   -3    3     -1.38      0.00 
    2   -3    3     -6.96      0.00 
    3   -3    3     10.77      0.00 
    4   -3    3     -9.68      0.00 
    5   -3    3      5.60      0.00 
    6   -3    3     -0.81      0.00 
    7   -3    3     -2.97      0.00 
    8   -3    3      4.28      0.00 
    9   -3    3     -2.84      0.00 
  -10   -2    3     -1.19      0.00 
   -9   -2    3      3.95      0.00 
   -8   -2    3     -5.75      0.00 
   -7   -2    3      5.04      0.00 
   -6   -2    3     -1.63      0.00 
   -5   -2    3     -4.09      0.00 
   -4   -2    3     10.41      0.00 
   -3   -2    3    -14.47      0.00 
   -2   -2    3     13.83      0.00 
   -1   -2    3     -7.55      0.00 
    0   -2    3     -2.50      0.00 
    1   -2    3     11.39      0.00 
    2   -2    3    -14.75      0.00 
    3   -2    3     12.02      0.00 
    4   -2    3     -5.71      0.00 
    5   -2    3     -0.93      0.00 
    6   -2    3      5.36      0.00 
    7   -2    3     -6.64      0.00 
    8   -2    3      5.15      0.00 
    9   -2    3     -2.14      0.00 
   10   -2    3     -0.16      0.00 
  -10   -1    3     -1.93      0.00 
   -9   -1    3      3.80      0.00 
   -8   -1    3     -3.33      0.00 
   -7   -1    3      0.21      0.00 
   -6   -1    3      4.59      0.00 
   -5   -1    3     -9.52      0.00 
   -4   -1    3     11.89      0.00 
   -3   -1    3     -9.42      0.00 
   -2   -1    3      1.72      0.00 
   -1   -1    3      9.44      0.00 
    0   -1    3    -19.14      0.00 
    1   -1    3     21.62      0.00 
    2   -1    3    -15.98      0.00 
    3   -1    3      6.35      0.00 
    4   -1    3      2.80      0.00 
    5   -1    3     -8.67      0.00 
    6   -1    3      9.99      0.00 
    7   -1    3     -7.60      0.00 
    8   -1    3      3.40      0.00 
    9   -1    3      0.52      0.00 
   10   -1    3     -1.97      0.00 
  -10    0    3     -1.60      0.00 
   -9    0    3      1.83      0.00 
   -8    0    3      0.76      0.00 
   -7    0    3     -4.84      0.00 
   -6    0    3      8.56      0.00 
   -5    0    3    -10.00      0.00 
   -4    0    3      6.92      0.00 
   -3    0    3      1.04      0.00 
   -2    0    3    -12.28      0.00 
   -1    0    3     23.64      0.00 
    0    0    3    -28.58      0.00 
    1    0    3     22.04      0.00 
    2    0    3     -8.11      0.00 
    3    0    3     -4.49      0.00 
    4    0    3     11.67      0.00 
    5    0    3    -13.38      0.00 
    6    0    3     10.42      0.00 
    7    0    3     -5.20      0.00 
    8    0    3      0.23      0.00 
    9    0    3      3.15      0.00 
   10    0    3     -3.49      0.00 
   -9    1    3     -1.12      0.00 
   -8    1    3      4.54      0.00 
   -7    1    3     -7.50      0.00 
   -6    1    3      8.27      0.00 
   -5    1    3     -5.61      0.00 
   -4    1    3     -1.35      0.00 
   -3    1    3     10.82      0.00 
   -2    1    3    -19.64      0.00 
    0    1    3    -22.76      0.00 
    1    1    3     10.50      0.00 
    2    1    3      5.00      0.00 
    3    1    3    -14.41      0.00 
    4    1    3     15.77      0.00 
    5    1    3    -12.14      0.00 
    6    1    3      6.17      0.00 
    7    1    3     -0.50      0.00 
    8    1    3     -2.92      0.00 
    9    1    3      4.04      0.00 
   10    1    3     -3.07      0.00 
   11    1    3      0.87      0.00 
   -9    2    3     -2.84      0.00 
   -8    2    3      5.69      0.00 
   -7    2    3     -6.32      0.00 
   -6    2    3      3.92      0.00 
   -5    2    3      1.15      0.00 
   -4    2    3     -8.26      0.00 
   -3    2    3     14.85      0.00 
   -2    2    3    -17.66      0.00 
   -1    2    3     15.07      0.00 
    0    2    3     -6.77      0.00 
    1    2    3     -5.03      0.00 
    2    2    3     14.38      0.00 
    3    2    3    -16.35      0.00 
    4    2    3     11.91      0.00 
    5    2    3     -5.13      0.00 
    6    2    3     -0.85      0.00 
    7    2    3      4.26      0.00 
    8    2    3     -4.70      0.00 
    9    2    3      3.06      0.00 
   10    2    3     -0.81      0.00 
   11    2    3     -0.50      0.00 
   -9    3    3     -2.34      0.00 
   -8    3    3      3.72      0.00 
   -7    3    3     -2.46      0.00 
   -6    3    3     -1.47      0.00 
   -5    3    3      6.42      0.00 
   -4    3    3    -10.49      0.00 
   -3    3    3     11.82      0.00 
   -2    3    3     -8.92      0.00 
   -1    3    3      1.68      0.00 
    0    3    3      7.61      0.00 
    1    3    3    -14.38      0.00 
    2    3    3     14.96      0.00 
    3    3    3     -9.78      0.00 
    4    3    3      2.38      0.00 
    5    3    3      3.82      0.00 
    6    3    3     -6.78      0.00 
    7    3    3      6.34      0.00 
    8    3    3     -3.83      0.00 
    9    3    3      0.66      0.00 
   10    3    3      1.76      0.00 
   11    3    3     -1.96      0.00 
   -8    4    3      0.71      0.00 
   -7    4    3      1.32      0.00 
   -6    4    3     -4.72      0.00 
   -5    4    3      7.46      0.00 
   -4    4    3     -7.49      0.00 
   -3    4    3      4.13      0.00 
   -2    4    3      1.89      0.00 
   -1    4    3     -8.88      0.00 
    0    4    3     14.11      0.00 
    1    4    3    -14.35      0.00 
    2    4    3      8.77      0.00 
    3    4    3     -0.34      0.00 
    4    4    3     -6.76      0.00 
    5    4    3      9.89      0.00 
    6    4    3     -8.68      0.00 
    7    4    3      4.84      0.00 
    8    4    3     -0.79      0.00 
    9    4    3     -2.04      0.00 
   10    4    3      3.10      0.00 
   11    4    3     -2.22      0.00 
   -7    5    3      2.88      0.00 
   -6    5    3     -4.78      0.00 
   -5    5    3      4.82      0.00 
   -4    5    3     -1.78      0.00 
   -3    5    3     -3.61      0.00 
   -2    5    3      9.29      0.00 
   -1    5    3    -12.89      0.00 
    0    5    3     12.50      0.00 
    1    5    3     -7.72      0.00 
    2    5    3      0.22      0.00 
    3    5    3      7.05      0.00 
    4    5    3    -11.21      0.00 
    5    5    3     10.75      0.00 
    6    5    3     -6.67      0.00 
    7    5    3      1.73      0.00 
    8    5    3      1.83      0.00 
    9    5    3     -3.24      0.00 
   10    5    3      2.66      0.00 
   11    5    3     -1.19      0.00 
   -7    6    3      2.01      0.00 
   -6    6    3     -2.58      0.00 
   -5    6    3      0.83      0.00 
   -4    6    3      3.23      0.00 
   -3    6    3     -7.72      0.00 
   -2    6    3     10.51      0.00 
   -1    6    3    -10.06      0.00 
    0    6    3      5.93      0.00 
    1    6    3      0.39      0.00 
    2    6    3     -6.28      0.00 
    3    6    3      9.85      0.00 
    4    6    3    -10.08      0.00 
    5    6    3      6.95      0.00 
    6    6    3     -2.39      0.00 
    7    6    3     -1.09      0.00 
    8    6    3      2.63      0.00 
    9    6    3     -2.47      0.00 
   10    6    3      1.19      0.00 
   11    6    3     -0.04      0.00 
   -6    7    3     -0.30      0.00 
   -5    7    3     -1.93      0.00 
   -4    7    3      5.27      0.00 
   -3    7    3     -7.29      0.00 
   -2    7    3      6.83      0.00 
   -1    7    3     -4.00      0.00 
    0    7    3     -0.64      0.00 
    1    7    3      5.34      0.00 
    2    7    3     -8.00      0.00 
    3    7    3      7.88      0.00 
    4    7    3     -5.30      0.00 
    5    7    3      1.35      0.00 
    6    7    3      1.83      0.00 
    7    7    3     -2.82      0.00 
    8    7    3      2.16      0.00 
    9    7    3     -0.91      0.00 
   10    7    3     -0.19      0.00 
   -5    8    3     -1.98      0.00 
   -4    8    3      3.94      0.00 
   -3    8    3     -3.77      0.00 
   -2    8    3      1.33      0.00 
   -1    8    3      1.69      0.00 
    0    8    3     -4.34      0.00 
    1    8    3      5.96      0.00 
    2    8    3     -5.66      0.00 
    3    8    3      3.48      0.00 
    4    8    3     -0.33      0.00 
    5    8    3     -2.56      0.00 
    6    8    3      3.69      0.00 
    7    8    3     -2.69      0.00 
    8    8    3      0.89      0.00 
    9    8    3      0.44      0.00 
   10    8    3     -0.89      0.00 
   -3    9    3     -0.32      0.00 
   -2    9    3     -2.42      0.00 
   -1    9    3      4.58      0.00 
    0    9    3     -4.95      0.00 
    1    9    3      3.76      0.00 
    2    9    3     -1.48      0.00 
    3    9    3     -1.07      0.00 
    4    9    3      2.99      0.00 
    5    9    3     -3.84      0.00 
    6    9    3      3.25      0.00 
    7    9    3     -1.40      0.00 
    8    9    3     -0.41      0.00 
    9    9    3      1.07      0.00 
   -2   10    3     -2.49      0.00 
   -1   10    3      3.67      0.00 
    0   10    3     -3.14      0.00 
    1   10    3      0.97      0.00 
    2   10    3      1.83      0.00 
    3   10    3     -3.79      0.00 
    4   10    3      4.16      0.00 
    5   10    3     -3.38      0.00 
    6   10    3      2.09      0.00 
    7   10    3     -0.56      0.00 
    8   10    3     -0.58      0.00 
    0   11    3     -0.89      0.00 
    1   11    3     -0.33      0.00 
    2   11    3      2.09      0.00 
    3   11    3     -3.09      0.00 
    4   11    3      2.75      0.00 
    5   11    3     -1.76      0.00 
    6   11    3      0.85      0.00 
    7   11    3     -0.26      0.00 
   -6  -10    4     -1.80      0.00 
   -5  -10    4      2.75      0.00 
   -4  -10    4     -3.09      0.00 
   -3  -10    4      2.39      0.00 
   -2  -10    4     -0.41      0.00 
   -1  -10    4     -2.17      0.00 
    0  -10    4      3.77      0.00 
    1  -10    4     -3.44      0.00 
   -7   -9    4      2.52      0.00 
   -6   -9    4     -4.01      0.00 
   -5   -9    4      4.25      0.00 
   -4   -9    4     -3.05      0.00 
   -3   -9    4      0.64      0.00 
   -2   -9    4      2.48      0.00 
   -1   -9    4     -5.21      0.00 
    0   -9    4      6.19      0.00 
    1   -9    4     -4.88      0.00 
    2   -9    4      2.11      0.00 
    3   -9    4      0.38      0.00 
   -8   -8    4     -1.87      0.00 
   -7   -8    4      3.81      0.00 
   -6   -8    4     -4.48      0.00 
   -5   -8    4      3.06      0.00 
   -4   -8    4     -0.10      0.00 
   -3   -8    4     -3.25      0.00 
   -2   -8    4      5.91      0.00 
   -1   -8    4     -6.92      0.00 
    0   -8    4      5.64      0.00 
    1   -8    4     -2.52      0.00 
    2   -8    4     -1.00      0.00 
    3   -8    4      3.28      0.00 
    4   -8    4     -3.45      0.00 
    5   -8    4      2.02      0.00 
   -9   -7    4      1.13      0.00 
   -8   -7    4     -2.68      0.00 
   -7   -7    4      3.35      0.00 
   -6   -7    4     -2.07      0.00 
   -5   -7    4     -0.81      0.00 
   -4   -7    4      4.23      0.00 
   -3   -7    4     -6.77      0.00 
   -2   -7    4      7.19      0.00 
   -1   -7    4     -5.19      0.00 
    0   -7    4      1.33      0.00 
    1   -7    4      2.99      0.00 
    2   -7    4     -5.86      0.00 
    3   -7    4      6.13      0.00 
    4   -7    4     -4.13      0.00 
    5   -7    4      1.16      0.00 
    6   -7    4      1.00      0.00 
   -9   -6    4      1.85      0.00 
   -8   -6    4     -2.31      0.00 
   -7   -6    4      0.87      0.00 
   -6   -6    4      2.19      0.00 
   -5   -6    4     -5.37      0.00 
   -4   -6    4      7.41      0.00 
   -3   -6    4     -7.20      0.00 
   -2   -6    4      4.18      0.00 
   -1   -6    4      0.73      0.00 
    0   -6    4     -5.71      0.00 
    1   -6    4      8.91      0.00 
    2   -6    4     -8.88      0.00 
    3   -6    4      5.75      0.00 
    4   -6    4     -1.26      0.00 
    5   -6    4     -2.72      0.00 
    6   -6    4      4.64      0.00 
    7   -6    4     -3.65      0.00 
  -10   -5    4     -0.78      0.00 
   -9   -5    4      1.20      0.00 
   -8   -5    4     -0.06      0.00 
   -7   -5    4     -3.03      0.00 
   -6   -5    4      6.41      0.00 
   -5   -5    4     -8.12      0.00 
   -4   -5    4      7.17      0.00 
   -3   -5    4     -3.08      0.00 
   -2   -5    4     -3.31      0.00 
   -1   -5    4      9.43      0.00 
    0   -5    4    -12.76      0.00 
    1   -5    4     12.12      0.00 
    2   -5    4     -7.73      0.00 
    3   -5    4      1.54      0.00 
    4   -5    4      3.79      0.00 
    5   -5    4     -6.78      0.00 
    6   -5    4      6.88      0.00 
    7   -5    4     -4.30      0.00 
    8   -5    4      1.13      0.00 
  -10   -4    4     -0.09      0.00 
   -9   -4    4     -0.78      0.00 
   -8   -4    4      3.19      0.00 
   -7   -4    4     -6.46      0.00 
   -6   -4    4      8.42      0.00 
   -5   -4    4     -7.34      0.00 
   -4   -4    4      2.78      0.00 
   -3   -4    4      4.45      0.00 
   -2   -4    4    -11.85      0.00 
   -1   -4    4     16.07      0.00 
    0   -4    4    -15.18      0.00 
    1   -4    4      9.66      0.00 
    2   -4    4     -1.84      0.00 
    3   -4    4     -4.91      0.00 
    4   -4    4      8.24      0.00 
    5   -4    4     -8.08      0.00 
    6   -4    4      5.35      0.00 
    7   -4    4     -1.43      0.00 
    8   -4    4     -1.27      0.00 
  -10   -3    4      0.52      0.00 
   -9   -3    4     -2.69      0.00 
   -8   -3    4      5.46      0.00 
   -7   -3    4     -7.20      0.00 
   -6   -3    4      6.54      0.00 
   -5   -3    4     -2.66      0.00 
   -4   -3    4     -4.09      0.00 
   -3   -3    4     11.53      0.00 
   -2   -3    4    -16.22      0.00 
   -1   -3    4     15.62      0.00 
    0   -3    4     -9.76      0.00 
    1   -3    4      1.11      0.00 
    2   -3    4      6.67      0.00 
    3   -3    4    -10.42      0.00 
    4   -3    4      9.44      0.00 
    5   -3    4     -5.50      0.00 
    6   -3    4      0.80      0.00 
    7   -3    4      2.93      0.00 
    8   -3    4     -4.06      0.00 
    9   -3    4      2.52      0.00 
  -10   -2    4      1.10      0.00 
   -9   -2    4     -3.62      0.00 
   -8   -2    4      5.40      0.00 
   -7   -2    4     -4.69      0.00 
   -6   -2    4      1.34      0.00 
   -5   -2    4      4.01      0.00 
   -4   -2    4     -9.94      0.00 
   -3   -2    4     13.73      0.00 
   -2   -2    4    -12.79      0.00 
   -1   -2    4      6.70      0.00 
    0   -2    4      2.22      0.00 
    1   -2    4    -10.00      0.00 
    2   -2    4     13.25      0.00 
    3   -2    4    -11.12      0.00 
    4   -2    4      5.45      0.00 
    5   -2    4      0.72      0.00 
    6   -2    4     -4.94      0.00 
    7   -2    4      6.20      0.00 
    8   -2    4     -4.74      0.00 
    9   -2    4      1.97      0.00 
   10   -2    4      0.04      0.00 
  -10   -1    4      1.56      0.00 
   -9   -1    4     -3.31      0.00 
   -8   -1    4      2.99      0.00 
   -7   -1    4     -0.03      0.00 
   -6   -1    4     -4.44      0.00 
   -5   -1    4      8.89      0.00 
   -4   -1    4    -11.09      0.00 
   -3   -1    4      8.87      0.00 
   -2   -1    4     -1.95      0.00 
   -1   -1    4     -7.55      0.00 
    0   -1    4     15.58      0.00 
    1   -1    4    -17.99      0.00 
    2   -1    4     13.71      0.00 
    3   -1    4     -5.47      0.00 
    4   -1    4     -2.75      0.00 
    5   -1    4      8.06      0.00 
    6   -1    4     -9.23      0.00 
    7   -1    4      6.88      0.00 
    8   -1    4     -2.87      0.00 
    9   -1    4     -0.49      0.00 
   10   -1    4      1.53      0.00 
   -9    0    4     -1.55      0.00 
   -8    0    4     -0.73      0.00 
   -7    0    4      4.63      0.00 
   -6    0    4     -7.96      0.00 
   -5    0    4      9.11      0.00 
   -4    0    4     -6.34      0.00 
   -3    0    4     -0.89      0.00 
   -2    0    4     10.63      0.00 
   -1    0    4    -19.34      0.00 
    0    0    4     22.57      0.00 
    1    0    4    -17.42      0.00 
    2    0    4      6.41      0.00 
    3    0    4      4.45      0.00 
    4    0    4    -11.10      0.00 
    5    0    4     12.58      0.00 
    6    0    4     -9.63      0.00 
    7    0    4      4.54      0.00 
    8    0    4      0.22      0.00 
    9    0    4     -3.05      0.00 
   10    0    4      2.99      0.00 
   -9    1    4      0.84      0.00 
   -8    1    4     -3.80      0.00 
   -7    1    4      6.72      0.00 
   -6    1    4     -7.37      0.00 
   -5    1    4      4.74      0.00 
   -4    1    4      1.57      0.00 
   -3    1    4    -10.13      0.00 
   -2    1    4     17.70      0.00 
   -1    1    4    -21.19      0.00 
    0    1    4     17.95      0.00 
    1    1    4     -7.52      0.00 
    2    1    4     -5.16      0.00 
    3    1    4     13.34      0.00 
    4    1    4    -14.89      0.00 
    5    1    4     11.56      0.00 
    6    1    4     -5.71      0.00 
    7    1    4      0.12      0.00 
    8    1    4      3.12      0.00 
    9    1    4     -3.95      0.00 
   10    1    4      2.84      0.00 
   11    1    4     -0.75      0.00 
   -9    2    4      2.14      0.00 
   -8    2    4     -4.48      0.00 
   -7    2    4      5.18      0.00 
   -6    2    4     -3.03      0.00 
   -5    2    4     -1.68      0.00 
   -4    2    4      8.12      0.00 
   -3    2    4    -14.06      0.00 
   -2    2    4     16.35      0.00 
   -1    2    4    -13.30      0.00 
    0    2    4      5.26      0.00 
    1    2    4      5.23      0.00 
    2    2    4    -13.35      0.00 
    3    2    4     15.22      0.00 
    4    2    4    -11.36      0.00 
    5    2    4      5.09      0.00 
    6    2    4      0.73      0.00 
    7    2    4     -4.21      0.00 
    8    2    4      4.65      0.00 
    9    2    4     -3.00      0.00 
   10    2    4      0.87      0.00 
   11    2    4      0.40      0.00 
   -8    3    4     -2.81      0.00 
   -7    3    4      1.64      0.00 
   -6    3    4      1.99      0.00 
   -5    3    4     -6.47      0.00 
   -4    3    4     10.08      0.00 
   -3    3    4    -11.22      0.00 
   -2    3    4      8.46      0.00 
   -1    3    4     -1.64      0.00 
    0    3    4     -6.87      0.00 
    1    3    4     12.98      0.00 
    2    3    4    -13.67      0.00 
    3    3    4      9.22      0.00 
    4    3    4     -2.49      0.00 
    5    3    4     -3.31      0.00 
    6    3    4      6.14      0.00 
    7    3    4     -5.85      0.00 
    8    3    4      3.59      0.00 
    9    3    4     -0.63      0.00 
   10    3    4     -1.61      0.00 
   11    3    4      1.81      0.00 
   -8    4    4     -0.48      0.00 
   -7    4    4     -1.42      0.00 
   -6    4    4      4.69      0.00 
   -5    4    4     -7.24      0.00 
   -4    4    4      7.14      0.00 
   -3    4    4     -4.00      0.00 
   -2    4    4     -1.49      0.00 
   -1    4    4      7.97      0.00 
    0    4    4    -12.75      0.00 
    1    4    4     12.82      0.00 
    2    4    4     -7.73      0.00 
    3    4    4      0.20      0.00 
    4    4    4      6.23      0.00 
    5    4    4     -9.06      0.00 
    6    4    4      7.77      0.00 
    7    4    4     -4.08      0.00 
    8    4    4      0.39      0.00 
    9    4    4      2.11      0.00 
   10    4    4     -3.05      0.00 
   11    4    4      2.23      0.00 
   -7    5    4     -2.49      0.00 
   -6    5    4      4.38      0.00 
   -5    5    4     -4.50      0.00 
   -4    5    4      1.64      0.00 
   -3    5    4      3.31      0.00 
   -2    5    4     -8.40      0.00 
   -1    5    4     11.70      0.00 
    0    5    4    -11.31      0.00 
    1    5    4      6.69      0.00 
    2    5    4      0.34      0.00 
    3    5    4     -6.89      0.00 
    4    5    4     10.57      0.00 
    5    5    4     -9.98      0.00 
    6    5    4      5.86      0.00 
    7    5    4     -0.97      0.00 
    8    5    4     -2.33      0.00 
    9    5    4      3.43      0.00 
   10    5    4     -2.77      0.00 
   11    5    4      1.35      0.00 
   -6    6    4      2.15      0.00 
   -5    6    4     -0.57      0.00 
   -4    6    4     -3.25      0.00 
   -3    6    4      7.39      0.00 
   -2    6    4     -9.80      0.00 
   -1    6    4      9.26      0.00 
    0    6    4     -5.28      0.00 
    1    6    4     -0.82      0.00 
    2    6    4      6.35      0.00 
    3    6    4     -9.47      0.00 
    4    6    4      9.53      0.00 
    5    6    4     -6.54      0.00 
    6    6    4      2.02      0.00 
    7    6    4      1.52      0.00 
    8    6    4     -2.97      0.00 
    9    6    4      2.69      0.00 
   10    6    4     -1.38      0.00 
   11    6    4      0.17      0.00 
   -5    7    4      1.90      0.00 
   -4    7    4     -5.06      0.00 
   -3    7    4      7.03      0.00 
   -2    7    4     -6.57      0.00 
   -1    7    4      3.79      0.00 
    0    7    4      0.76      0.00 
    1    7    4     -5.39      0.00 
    2    7    4      7.86      0.00 
    3    7    4     -7.53      0.00 
    4    7    4      5.01      0.00 
    5    7    4     -1.32      0.00 
    6    7    4     -1.74      0.00 
    7    7    4      2.74      0.00 
    8    7    4     -2.08      0.00 
    9    7    4      0.91      0.00 
   10    7    4      0.08      0.00 
   -4    8    4     -3.50      0.00 
   -3    8    4      3.52      0.00 
   -2    8    4     -1.38      0.00 
   -1    8    4     -1.47      0.00 
    0    8    4      4.12      0.00 
    1    8    4     -5.82      0.00 
    2    8    4      5.54      0.00 
    3    8    4     -3.36      0.00 
    4    8    4      0.34      0.00 
    5    8    4      2.32      0.00 
    6    8    4     -3.31      0.00 
    7    8    4      2.26      0.00 
    8    8    4     -0.48      0.00 
    9    8    4     -0.69      0.00 
   10    8    4      0.91      0.00 
   -3    9    4      0.26      0.00 
   -2    9    4      2.12      0.00 
   -1    9    4     -4.09      0.00 
    0    9    4      4.47      0.00 
    1    9    4     -3.43      0.00 
    2    9    4      1.37      0.00 
    3    9    4      0.95      0.00 
    4    9    4     -2.66      0.00 
    5    9    4      3.35      0.00 
    6    9    4     -2.72      0.00 
    7    9    4      0.93      0.00 
    8    9    4      0.76      0.00 
    9    9    4     -1.24      0.00 
   -2   10    4      2.12      0.00 
   -1   10    4     -3.18      0.00 
    0   10    4      2.64      0.00 
    1   10    4     -0.62      0.00 
    2   10    4     -1.91      0.00 
    3   10    4      3.58      0.00 
    4   10    4     -3.68      0.00 
    5   10    4      2.78      0.00 
    6   10    4     -1.57      0.00 
    7   10    4      0.24      0.00 
    8   10    4      0.71      0.00 
    0   11    4      0.64      0.00 
    1   11    4      0.48      0.00 
    2   11    4     -2.08      0.00 
    3   11    4      2.96      0.00 
    4   11    4     -2.50      0.00 
    5   11    4      1.41      0.00 
    6   11    4     -0.58      0.00 
    7   11    4      0.16      0.00 
   -5  -10    5     -1.84      0.00 
   -4  -10    5      2.32      0.00 
   -3  -10    5     -1.79      0.00 
   -2  -10    5     -0.02      0.00 
   -1  -10    5      2.22      0.00 
    0  -10    5     -3.23      0.00 
    1  -10    5      2.58      0.00 
   -7   -9    5     -1.78      0.00 
   -6   -9    5      3.07      0.00 
   -5   -9    5     -3.43      0.00 
   -4   -9    5      2.53      0.00 
   -3   -9    5     -0.41      0.00 
   -2   -9    5     -2.58      0.00 
   -1   -9    5      5.13      0.00 
    0   -9    5     -5.72      0.00 
    1   -9    5      4.13      0.00 
    2   -9    5     -1.57      0.00 
    3   -9    5     -0.40      0.00 
   -8   -8    5      1.34      0.00 
   -7   -8    5     -3.12      0.00 
   -6   -8    5      3.91      0.00 
   -5   -8    5     -2.71      0.00 
   -4   -8    5     -0.05      0.00 
   -3   -8    5      3.21      0.00 
   -2   -8    5     -5.76      0.00 
   -1   -8    5      6.76      0.00 
    0   -8    5     -5.51      0.00 
    1   -8    5      2.42      0.00 
    2   -8    5      0.95      0.00 
    3   -8    5     -2.98      0.00 
    4   -8    5      3.04      0.00 
   -8   -7    5      2.17      0.00 
   -7   -7    5     -3.01      0.00 
   -6   -7    5      1.99      0.00 
   -5   -7    5      0.73      0.00 
   -4   -7    5     -4.10      0.00 
   -3   -7    5      6.62      0.00 
   -2   -7    5     -7.00      0.00 
   -1   -7    5      5.05      0.00 
    0   -7    5     -1.47      0.00 
    1   -7    5     -2.54      0.00 
    2   -7    5      5.31      0.00 
    3   -7    5     -5.65      0.00 
    4   -7    5      3.78      0.00 
    5   -7    5     -1.07      0.00 
    6   -7    5     -0.83      0.00 
   -9   -6    5     -1.45      0.00 
   -8   -6    5      2.05      0.00 
   -7   -6    5     -0.91      0.00 
   -6   -6    5     -2.01      0.00 
   -5   -6    5      5.10      0.00 
   -4   -6    5     -7.03      0.00 
   -3   -6    5      6.90      0.00 
   -2   -6    5     -4.13      0.00 
   -1   -6    5     -0.49      0.00 
    0   -6    5      5.14      0.00 
    1   -6    5     -8.06      0.00 
    2   -6    5      8.06      0.00 
    3   -6    5     -5.20      0.00 
    4   -6    5      1.02      0.00 
    5   -6    5      2.67      0.00 
    6   -6    5     -4.33      0.00 
    7   -6    5      3.26      0.00 
   -9   -5    5     -0.95      0.00 
   -8   -5    5      0.07      0.00 
   -7   -5    5      2.75      0.00 
   -6   -5    5     -6.05      0.00 
   -5   -5    5      7.70      0.00 
   -4   -5    5     -6.65      0.00 
   -3   -5    5      2.77      0.00 
   -2   -5    5      3.06      0.00 
   -1   -5    5     -8.57      0.00 
    0   -5    5     11.55      0.00 
    1   -5    5    -10.93      0.00 
    2   -5    5      6.83      0.00 
    3   -5    5     -1.02      0.00 
    4   -5    5     -3.94      0.00 
    5   -5    5      6.64      0.00 
    6   -5    5     -6.60      0.00 
    7   -5    5      4.01      0.00 
    8   -5    5     -0.97      0.00 
   -9   -4    5      0.78      0.00 
   -8   -4    5     -2.98      0.00 
   -7   -4    5      6.06      0.00 
   -6   -4    5     -7.84      0.00 
   -5   -4    5      6.64      0.00 
   -4   -4    5     -2.30      0.00 
   -3   -4    5     -4.42      0.00 
   -2   -4    5     11.20      0.00 
   -1   -4    5    -14.83      0.00 
    0   -4    5     13.73      0.00 
    1   -4    5     -8.54      0.00 
    2   -4    5      1.27      0.00 
    3   -4    5      5.08      0.00 
    4   -4    5     -8.13      0.00 
    5   -4    5      7.78      0.00 
    6   -4    5     -5.05      0.00 
    7   -4    5      1.30      0.00 
    8   -4    5      1.16      0.00 
   -9   -3    5      2.38      0.00 
   -8   -3    5     -5.04      0.00 
   -7   -3    5      6.74      0.00 
   -6   -3    5     -5.88      0.00 
   -5   -3    5      1.99      0.00 
   -4   -3    5      4.24      0.00 
   -3   -3    5    -10.98      0.00 
   -2   -3    5     15.16      0.00 
   -1   -3    5    -14.33      0.00 
    0   -3    5      8.73      0.00 
    1   -3    5     -0.77      0.00 
    2   -3    5     -6.45      0.00 
    3   -3    5     10.02      0.00 
    4   -3    5     -9.05      0.00 
    5   -3    5      5.19      0.00 
    6   -3    5     -0.62      0.00 
    7   -3    5     -2.93      0.00 
    8   -3    5      3.80      0.00 
    9   -3    5     -2.14      0.00 
   -9   -2    5      2.98      0.00 
   -8   -2    5     -4.85      0.00 
   -7   -2    5      4.30      0.00 
   -6   -2    5     -1.00      0.00 
   -5   -2    5     -4.08      0.00 
   -4   -2    5      9.47      0.00 
   -3   -2    5    -12.88      0.00 
   -2   -2    5     11.85      0.00 
   -1   -2    5     -6.06      0.00 
    0   -2    5     -2.01      0.00 
    1   -2    5      8.91      0.00 
    2   -2    5    -11.97      0.00 
    3   -2    5     10.24      0.00 
    4   -2    5     -5.11      0.00 
    5   -2    5     -0.63      0.00 
    6   -2    5      4.64      0.00 
    7   -2    5     -5.86      0.00 
    8   -2    5      4.39      0.00 
    9   -2    5     -1.76      0.00 
   -9   -1    5      2.54      0.00 
   -8   -1    5     -2.49      0.00 
   -7   -1    5     -0.09      0.00 
   -6   -1    5      4.23      0.00 
   -5   -1    5     -8.24      0.00 
   -4   -1    5     10.23      0.00 
   -3   -1    5     -8.31      0.00 
   -2   -1    5      2.06      0.00 
   -1   -1    5      6.36      0.00 
    0   -1    5    -13.22      0.00 
    1   -1    5     15.30      0.00 
    2   -1    5    -11.77      0.00 
    3   -1    5      4.63      0.00 
    4   -1    5      2.65      0.00 
    5   -1    5     -7.34      0.00 
    6   -1    5      8.40      0.00 
    7   -1    5     -6.19      0.00 
    8   -1    5      2.45      0.00 
    9   -1    5      0.42      0.00 
   10   -1    5     -1.09      0.00 
   -9    0    5      1.16      0.00 
   -8    0    5      0.75      0.00 
   -7    0    5     -4.30      0.00 
   -6    0    5      7.24      0.00 
   -5    0    5     -8.12      0.00 
   -4    0    5      5.71      0.00 
   -3    0    5      0.67      0.00 
   -2    0    5     -9.30      0.00 
   -1    0    5     16.44      0.00 
    0    0    5    -18.58      0.00 
    1    0    5     14.21      0.00 
    2    0    5     -5.10      0.00 
    3    0    5     -4.37      0.00 
    4    0    5     10.33      0.00 
    5    0    5    -11.46      0.00 
    6    0    5      8.63      0.00 
    7    0    5     -3.86      0.00 
    8    0    5     -0.57      0.00 
    9    0    5      2.85      0.00 
   10    0    5     -2.40      0.00 
   -9    1    5     -0.42      0.00 
   -8    1    5      2.94      0.00 
   -7    1    5     -5.82      0.00 
   -6    1    5      6.41      0.00 
   -5    1    5     -3.83      0.00 
   -4    1    5     -1.74      0.00 
   -3    1    5      9.30      0.00 
   -2    1    5    -16.01      0.00 
   -1    1    5     18.42      0.00 
    0    1    5    -14.66      0.00 
    1    1    5      5.59      0.00 
    2    1    5      4.94      0.00 
    3    1    5    -12.12      0.00 
    4    1    5     13.72      0.00 
    5    1    5    -10.60      0.00 
    6    1    5      5.04      0.00 
    7    1    5      0.22      0.00 
    8    1    5     -3.22      0.00 
    9    1    5      3.75      0.00 
   10    1    5     -2.48      0.00 
   11    1    5      0.60      0.00 
   -8    2    5      3.06      0.00 
   -7    2    5     -4.01      0.00 
   -6    2    5      2.25      0.00 
   -5    2    5      2.13      0.00 
   -4    2    5     -7.88      0.00 
   -3    2    5     13.08      0.00 
   -2    2    5    -15.06      0.00 
   -1    2    5     11.92      0.00 
    0    2    5     -4.20      0.00 
    1    2    5     -5.17      0.00 
    2    2    5     12.12      0.00 
    3    2    5    -13.79      0.00 
    4    2    5     10.50      0.00 
    5    2    5     -4.79      0.00 
    6    2    5     -0.76      0.00 
    7    2    5      4.17      0.00 
    8    2    5     -4.56      0.00 
    9    2    5      2.87      0.00 
   10    2    5     -0.88      0.00 
   11    2    5     -0.26      0.00 
   -8    3    5      1.76      0.00 
   -7    3    5     -0.86      0.00 
   -6    3    5     -2.30      0.00 
   -5    3    5      6.40      0.00 
   -4    3    5     -9.59      0.00 
   -3    3    5     10.47      0.00 
   -2    3    5     -7.85      0.00 
   -1    3    5      1.53      0.00 
    0    3    5      6.24      0.00 
    1    3    5    -11.71      0.00 
    2    3    5     12.34      0.00 
    3    3    5     -8.45      0.00 
    4    3    5      2.42      0.00 
    5    3    5      2.88      0.00 
    6    3    5     -5.63      0.00 
    7    3    5      5.59      0.00 
    8    3    5     -3.52      0.00 
    9    3    5      0.65      0.00 
   10    3    5      1.39      0.00 
   11    3    5     -1.50      0.00 
   -7    4    5      1.42      0.00 
   -6    4    5     -4.50      0.00 
   -5    4    5      6.92      0.00 
   -4    4    5     -6.71      0.00 
   -3    4    5      3.73      0.00 
   -2    4    5      1.30      0.00 
   -1    4    5     -7.23      0.00 
    0    4    5     11.51      0.00 
    1    4    5    -11.41      0.00 
    2    4    5      6.79      0.00 
    3    4    5     -0.12      0.00 
    4    4    5     -5.59      0.00 
    5    4    5      8.10      0.00 
    6    4    5     -6.93      0.00 
    7    4    5      3.66      0.00 
    8    4    5     -0.35      0.00 
    9    4    5     -1.99      0.00 
   10    4    5      2.87      0.00 
   11    4    5     -2.07      0.00 
   -7    5    5      2.01      0.00 
   -6    5    5     -3.90      0.00 
   -5    5    5      4.13      0.00 
   -4    5    5     -1.39      0.00 
   -3    5    5     -3.18      0.00 
   -2    5    5      7.67      0.00 
   -1    5    5    -10.60      0.00 
    0    5    5     10.22      0.00 
    1    5    5     -5.82      0.00 
    2    5    5     -0.68      0.00 
    3    5    5      6.48      0.00 
    4    5    5     -9.58      0.00 
    5    5    5      8.87      0.00 
    6    5    5     -4.96      0.00 
    7    5    5      0.40      0.00 
    8    5    5      2.54      0.00 
    9    5    5     -3.40      0.00 
   10    5    5      2.73      0.00 
   11    5    5     -1.39      0.00 
   -6    6    5     -1.73      0.00 
   -5    6    5      0.31      0.00 
   -4    6    5      3.32      0.00 
   -3    6    5     -7.14      0.00 
   -2    6    5      9.12      0.00 
   -1    6    5     -8.42      0.00 
    0    6    5      4.72      0.00 
    1    6    5      1.00      0.00 
    2    6    5     -6.14      0.00 
    3    6    5      8.82      0.00 
    4    6    5     -8.66      0.00 
    5    6    5      5.80      0.00 
    6    6    5     -1.48      0.00 
    7    6    5     -1.96      0.00 
    8    6    5      3.29      0.00 
    9    6    5     -2.83      0.00 
   10    6    5      1.44      0.00 
   11    6    5     -0.23      0.00 
   -5    7    5     -1.81      0.00 
   -4    7    5      4.80      0.00 
   -3    7    5     -6.71      0.00 
   -2    7    5      6.22      0.00 
   -1    7    5     -3.48      0.00 
    0    7    5     -0.88      0.00 
    1    7    5      5.27      0.00 
    2    7    5     -7.52      0.00 
    3    7    5      7.00      0.00 
    4    7    5     -4.55      0.00 
    5    7    5      1.17      0.00 
    6    7    5      1.69      0.00 
    7    7    5     -2.73      0.00 
    8    7    5      2.16      0.00 
    9    7    5     -1.04      0.00 
   10    7    5      0.05      0.00 
   -4    8    5      2.97      0.00 
   -3    8    5     -3.16      0.00 
   -2    8    5      1.38      0.00 
   -1    8    5      1.26      0.00 
    0    8    5     -3.91      0.00 
    1    8    5      5.65      0.00 
    2    8    5     -5.34      0.00 
    3    8    5      3.11      0.00 
    4    8    5     -0.23      0.00 
    5    8    5     -2.09      0.00 
    6    8    5      2.86      0.00 
    7    8    5     -1.85      0.00 
    8    8    5      0.25      0.00 
    9    8    5      0.69      0.00 
   10    8    5     -0.78      0.00 
   -3    9    5     -0.16      0.00 
   -2    9    5     -1.73      0.00 
   -1    9    5      3.44      0.00 
    0    9    5     -3.91      0.00 
    1    9    5      3.16      0.00 
    2    9    5     -1.34      0.00 
    3    9    5     -0.85      0.00 
    4    9    5      2.42      0.00 
    5    9    5     -2.89      0.00 
    6    9    5      2.11      0.00 
    7    9    5     -0.42      0.00 
    8    9    5     -0.99      0.00 
    9    9    5      1.23      0.00 
   -1   10    5      2.48      0.00 
    0   10    5     -2.04      0.00 
    1   10    5      0.34      0.00 
    2   10    5      1.80      0.00 
    3   10    5     -3.18      0.00 
    4   10    5      3.12      0.00 
    5   10    5     -2.14      0.00 
    6   10    5      0.97      0.00 
    7   10    5      0.13      0.00 
    8   10    5     -0.79      0.00 
    1   11    5     -0.56      0.00 
    2   11    5      1.90      0.00 
    3   11    5     -2.59      0.00 
    4   11    5      2.02      0.00 
    5   11    5     -0.91      0.00 
    6   11    5      0.19      0.00 
    7   11    5      0.03      0.00 
   -3  -10    6      1.18      0.00 
   -2  -10    6      0.23      0.00 
   -1  -10    6     -1.90      0.00 
   -6   -9    6     -1.95      0.00 
   -5   -9    6      2.40      0.00 
   -4   -9    6     -1.85      0.00 
   -3   -9    6      0.08      0.00 
   -2   -9    6      2.62      0.00 
   -1   -9    6     -4.83      0.00 
    0   -9    6      4.98      0.00 
    1   -9    6     -3.17      0.00 
    2   -9    6      0.96      0.00 
   -7   -8    6      2.07      0.00 
   -6   -8    6     -2.93      0.00 
   -5   -8    6      2.12      0.00 
   -4   -8    6      0.27      0.00 
   -3   -8    6     -3.25      0.00 
   -2   -8    6      5.74      0.00 
   -1   -8    6     -6.66      0.00 
    0   -8    6      5.25      0.00 
    1   -8    6     -2.08      0.00 
    2   -8    6     -1.04      0.00 
    3   -8    6      2.61      0.00 
    4   -8    6     -2.47      0.00 
   -8   -7    6     -1.40      0.00 
   -7   -7    6      2.22      0.00 
   -6   -7    6     -1.59      0.00 
   -5   -7    6     -0.72      0.00 
   -4   -7    6      3.93      0.00 
   -3   -7    6     -6.52      0.00 
   -2   -7    6      6.99      0.00 
   -1   -7    6     -5.06      0.00 
    0   -7    6      1.56      0.00 
    1   -7    6      2.25      0.00 
    2   -7    6     -4.80      0.00 
    3   -7    6      4.98      0.00 
    4   -7    6     -3.20      0.00 
    5   -7    6      0.91      0.00 
   -8   -6    6     -1.56      0.00 
   -7   -6    6      0.68      0.00 
   -6   -6    6      1.93      0.00 
   -5   -6    6     -4.78      0.00 
   -4   -6    6      6.63      0.00 
   -3   -6    6     -6.68      0.00 
   -2   -6    6      4.19      0.00 
   -1   -6    6      0.25      0.00 
    0   -6    6     -4.65      0.00 
    1   -6    6      7.25      0.00 
    2   -6    6     -7.14      0.00 
    3   -6    6      4.46      0.00 
    4   -6    6     -0.60      0.00 
    5   -6    6     -2.58      0.00 
    6   -6    6      3.76      0.00 
   -9   -5    6      0.71      0.00 
   -8   -5    6     -0.08      0.00 
   -7   -5    6     -2.45      0.00 
   -6   -5    6      5.68      0.00 
   -5   -5    6     -7.28      0.00 
   -4   -5    6      6.20      0.00 
   -3   -5    6     -2.58      0.00 
   -2   -5    6     -2.68      0.00 
   -1   -5    6      7.68      0.00 
    0   -5    6    -10.35      0.00 
    1   -5    6      9.67      0.00 
    2   -5    6     -5.82      0.00 
    3   -5    6      0.43      0.00 
    4   -5    6      4.12      0.00 
    5   -5    6     -6.43      0.00 
    6   -5    6      6.13      0.00 
    7   -5    6     -3.59      0.00 
   -9   -4    6     -0.59      0.00 
   -8   -4    6      2.50      0.00 
   -7   -4    6     -5.45      0.00 
   -6   -4    6      7.22      0.00 
   -5   -4    6     -6.03      0.00 
   -4   -4    6      1.92      0.00 
   -3   -4    6      4.24      0.00 
   -2   -4    6    -10.38      0.00 
   -1   -4    6     13.49      0.00 
    0   -4    6    -12.19      0.00 
    1   -4    6      7.32      0.00 
    2   -4    6     -0.67      0.00 
    3   -4    6     -5.19      0.00 
    4   -4    6      7.96      0.00 
    5   -4    6     -7.43      0.00 
    6   -4    6      4.74      0.00 
    7   -4    6     -1.26      0.00 
    8   -4    6     -0.96      0.00 
   -9   -3    6     -1.81      0.00 
   -8   -3    6      4.31      0.00 
   -7   -3    6     -6.12      0.00 
   -6   -3    6      5.23      0.00 
   -5   -3    6     -1.34      0.00 
   -4   -3    6     -4.36      0.00 
   -3   -3    6     10.32      0.00 
   -2   -3    6    -14.10      0.00 
   -1   -3    6     13.23      0.00 
    0   -3    6     -7.81      0.00 
    1   -3    6      0.35      0.00 
    2   -3    6      6.26      0.00 
    3   -3    6     -9.53      0.00 
    4   -3    6      8.55      0.00 
    5   -3    6     -4.78      0.00 
    6   -3    6      0.43      0.00 
    7   -3    6      2.79      0.00 
    8   -3    6     -3.40      0.00 
    9   -3    6      1.73      0.00 
   -9   -2    6     -2.17      0.00 
   -8   -2    6      4.12      0.00 
   -7   -2    6     -3.94      0.00 
   -6   -2    6      0.74      0.00 
   -5   -2    6      4.21      0.00 
   -4   -2    6     -9.04      0.00 
   -3   -2    6     11.96      0.00 
   -2   -2    6    -11.05      0.00 
   -1   -2    6      5.80      0.00 
    0   -2    6      1.62      0.00 
    1   -2    6     -7.97      0.00 
    2   -2    6     10.86      0.00 
    3   -2    6     -9.36      0.00 
    4   -2    6      4.63      0.00 
    5   -2    6      0.72      0.00 
    6   -2    6     -4.44      0.00 
    7   -2    6      5.51      0.00 
    8   -2    6     -4.01      0.00 
    9   -2    6      1.50      0.00 
   -9   -1    6     -1.65      0.00 
   -8   -1    6      1.98      0.00 
   -7   -1    6      0.01      0.00 
   -6   -1    6     -3.86      0.00 
   -5   -1    6      7.63      0.00 
   -4   -1    6     -9.39      0.00 
   -3   -1    6      7.70      0.00 
   -2   -1    6     -2.20      0.00 
   -1   -1    6     -5.27      0.00 
    0   -1    6     11.30      0.00 
    1   -1    6    -13.12      0.00 
    2   -1    6     10.06      0.00 
    3   -1    6     -3.79      0.00 
    4   -1    6     -2.66      0.00 
    5   -1    6      6.78      0.00 
    6   -1    6     -7.65      0.00 
    7   -1    6      5.56      0.00 
    8   -1    6     -2.08      0.00 
    9   -1    6     -0.39      0.00 
   10   -1    6      0.77      0.00 
   -9    0    6     -0.66      0.00 
   -8    0    6     -0.76      0.00 
   -7    0    6      3.77      0.00 
   -6    0    6     -6.40      0.00 
   -5    0    6      7.17      0.00 
   -4    0    6     -5.09      0.00 
   -3    0    6     -0.46      0.00 
   -2    0    6      8.07      0.00 
   -1    0    6    -14.22      0.00 
    0    0    6     15.76      0.00 
    1    0    6    -11.80      0.00 
    2    0    6      3.86      0.00 
    3    0    6      4.49      0.00 
    4    0    6     -9.63      0.00 
    5    0    6     10.34      0.00 
    6    0    6     -7.64      0.00 
    7    0    6      3.25      0.00 
    8    0    6      0.83      0.00 
    9    0    6     -2.64      0.00 
   10    0    6      1.88      0.00 
   -8    1    6     -2.20      0.00 
   -7    1    6      4.96      0.00 
   -6    1    6     -5.56      0.00 
   -5    1    6      3.09      0.00 
   -4    1    6      1.79      0.00 
   -3    1    6     -8.34      0.00 
   -2    1    6     14.34      0.00 
   -1    1    6    -16.26      0.00 
    0    1    6     12.43      0.00 
    1    1    6     -4.30      0.00 
    2    1    6     -4.82      0.00 
    3    1    6     11.18      0.00 
    4    1    6    -12.55      0.00 
    5    1    6      9.49      0.00 
    6    1    6     -4.35      0.00 
    7    1    6     -0.42      0.00 
    8    1    6      3.19      0.00 
    9    1    6     -3.52      0.00 
   10    1    6      2.12      0.00 
   -8    2    6     -1.84      0.00 
   -7    2    6      3.10      0.00 
   -6    2    6     -1.81      0.00 
   -5    2    6     -2.32      0.00 
   -4    2    6      7.51      0.00 
   -3    2    6    -11.95      0.00 
   -2    2    6     13.67      0.00 
   -1    2    6    -10.76      0.00 
    0    2    6      3.56      0.00 
    1    2    6      4.89      0.00 
    2    2    6    -10.96      0.00 
    3    2    6     12.44      0.00 
    4    2    6     -9.52      0.00 
    5    2    6      4.27      0.00 
    6    2    6      0.86      0.00 
    7    2    6     -3.98      0.00 
    8    2    6      4.29      0.00 
    9    2    6     -2.66      0.00 
   10    2    6      0.87      0.00 
   11    2    6      0.10      0.00 
   -7    3    6      0.36      0.00 
   -6    3    6      2.22      0.00 
   -5    3    6     -6.07      0.00 
   -4    3    6      9.07      0.00 
   -3    3    6     -9.68      0.00 
   -2    3    6      7.13      0.00 
   -1    3    6     -1.43      0.00 
    0    3    6     -5.53      0.00 
    1    3    6     10.43      0.00 
    2    3    6    -11.03      0.00 
    3    3    6      7.58      0.00 
    4    3    6     -2.18      0.00 
    5    3    6     -2.62      0.00 
    6    3    6      5.24      0.00 
    7    3    6     -5.33      0.00 
    8    3    6      3.34      0.00 
    9    3    6     -0.53      0.00 
   10    3    6     -1.20      0.00 
   11    3    6      1.13      0.00 
   -7    4    6     -1.26      0.00 
   -6    4    6      4.04      0.00 
   -5    4    6     -6.40      0.00 
   -4    4    6      6.25      0.00 
   -3    4    6     -3.42      0.00 
   -2    4    6     -1.24      0.00 
   -1    4    6      6.53      0.00 
    0    4    6    -10.20      0.00 
    1    4    6     10.00      0.00 
    2    4    6     -5.92      0.00 
    3    4    6      0.06      0.00 
    4    4    6      4.97      0.00 
    5    4    6     -7.19      0.00 
    6    4    6      6.23      0.00 
    7    4    6     -3.45      0.00 
    8    4    6      0.39      0.00 
    9    4    6      1.95      0.00 
   10    4    6     -2.73      0.00 
   11    4    6      1.81      0.00 
   -6    5    6      3.28      0.00 
   -5    5    6     -3.67      0.00 
   -4    5    6      1.11      0.00 
   -3    5    6      3.15      0.00 
   -2    5    6     -7.11      0.00 
   -1    5    6      9.54      0.00 
    0    5    6     -9.03      0.00 
    1    5    6      4.97      0.00 
    2    5    6      0.86      0.00 
    3    5    6     -5.87      0.00 
    4    5    6      8.42      0.00 
    5    5    6     -7.65      0.00 
    6    5    6      4.12      0.00 
    7    5    6     -0.10      0.00 
    8    5    6     -2.50      0.00 
    9    5    6      3.30      0.00 
   10    5    6     -2.67      0.00 
   11    5    6      1.36      0.00 
   -6    6    6      1.28      0.00 
   -5    6    6     -0.08      0.00 
   -4    6    6     -3.35      0.00 
   -3    6    6      6.93      0.00 
   -2    6    6     -8.48      0.00 
   -1    6    6      7.54      0.00 
    0    6    6     -4.08      0.00 
    1    6    6     -1.13      0.00 
    2    6    6      5.78      0.00 
    3    6    6     -8.03      0.00 
    4    6    6      7.64      0.00 
    5    6    6     -4.90      0.00 
    6    6    6      0.92      0.00 
    7    6    6      2.25      0.00 
    8    6    6     -3.41      0.00 
    9    6    6      2.84      0.00 
   10    6    6     -1.43      0.00 
   -5    7    6      1.66      0.00 
   -4    7    6     -4.45      0.00 
   -3    7    6      6.31      0.00 
   -2    7    6     -5.74      0.00 
   -1    7    6      3.02      0.00 
    0    7    6      1.04      0.00 
    1    7    6     -5.03      0.00 
    2    7    6      7.05      0.00 
    3    7    6     -6.46      0.00 
    4    7    6      4.09      0.00 
    5    7    6     -1.00      0.00 
    6    7    6     -1.64      0.00 
    7    7    6      2.69      0.00 
    8    7    6     -2.25      0.00 
    9    7    6      1.18      0.00 
   10    7    6     -0.14      0.00 
   -4    8    6     -2.42      0.00 
   -3    8    6      2.74      0.00 
   -2    8    6     -1.30      0.00 
   -1    8    6     -1.12      0.00 
    0    8    6      3.68      0.00 
    1    8    6     -5.38      0.00 
    2    8    6      5.06      0.00 
    3    8    6     -2.88      0.00 
    4    8    6      0.21      0.00 
    5    8    6      1.79      0.00 
    6    8    6     -2.36      0.00 
    7    8    6      1.49      0.00 
    8    8    6     -0.19      0.00 
    9    8    6     -0.52      0.00 
   10    8    6      0.58      0.00 
   -2    9    6      1.32      0.00 
   -1    9    6     -2.69      0.00 
    0    9    6      3.27      0.00 
    1    9    6     -2.88      0.00 
    2    9    6      1.37      0.00 
    3    9    6      0.70      0.00 
    4    9    6     -2.17      0.00 
    5    9    6      2.42      0.00 
    6    9    6     -1.52      0.00 
    7    9    6      0.00      0.00 
    8    9    6      1.06      0.00 
    9    9    6     -1.06      0.00 
   -1   10    6     -1.68      0.00 
    0   10    6      1.39      0.00 
    1   10    6     -0.18      0.00 
    2   10    6     -1.45      0.00 
    3   10    6      2.59      0.00 
    4   10    6     -2.54      0.00 
    5   10    6      1.58      0.00 
    6   10    6     -0.46      0.00 
    7   10    6     -0.43      0.00 
    8   10    6      0.78      0.00 
    2   11    6     -1.50      0.00 
    3   11    6      1.99      0.00 
    4   11    6     -1.43      0.00 
    5   11    6      0.43      0.00 
    6   11    6      0.13      0.00 
   -5   -9    7     -1.39      0.00 
   -4   -9    7      1.11      0.00 
   -3   -9    7      0.19      0.00 
   -2   -9    7     -2.33      0.00 
   -1   -9    7      4.04      0.00 
    0   -9    7     -3.90      0.00 
    1   -9    7      2.17      0.00 
   -6   -8    7      1.79      0.00 
   -5   -8    7     -1.37      0.00 
   -4   -8    7     -0.55      0.00 
   -3   -8    7      3.23      0.00 
   -2   -8    7     -5.54      0.00 
   -1   -8    7      6.26      0.00 
    0   -8    7     -4.65      0.00 
    1   -8    7      1.52      0.00 
    2   -8    7      1.15      0.00 
    3   -8    7     -2.12      0.00 
   -7   -7    7     -1.23      0.00 
   -6   -7    7      0.94      0.00 
   -5   -7    7      0.82      0.00 
   -4   -7    7     -3.74      0.00 
   -3   -7    7      6.37      0.00 
   -2   -7    7     -6.95      0.00 
   -1   -7    7      4.99      0.00 
    0   -7    7     -1.49      0.00 
    1   -7    7     -2.14      0.00 
    2   -7    7      4.32      0.00 
    3   -7    7     -4.16      0.00 
    4   -7    7      2.45      0.00 
    5   -7    7     -0.70      0.00 
   -8   -6    7      0.92      0.00 
   -7   -6    7     -0.24      0.00 
   -6   -6    7     -1.93      0.00 
   -5   -6    7      4.41      0.00 
   -4   -6    7     -6.20      0.00 
   -3   -6    7      6.50      0.00 
   -2   -6    7     -4.28      0.00 
   -1   -6    7     -0.04      0.00 
    0   -6    7      4.23      0.00 
    1   -6    7     -6.49      0.00 
    2   -6    7      6.18      0.00 
    3   -6    7     -3.56      0.00 
    4   -6    7      0.08      0.00 
    5   -6    7      2.38      0.00 
    6   -6    7     -2.94      0.00 
   -8   -5    7      0.02      0.00 
   -7   -5    7      2.18      0.00 
   -6   -5    7     -5.25      0.00 
   -5   -5    7      6.81      0.00 
   -4   -5    7     -5.78      0.00 
   -3   -5    7      2.53      0.00 
   -2   -5    7      2.19      0.00 
   -1   -5    7     -6.78      0.00 
    0   -5    7      9.19      0.00 
    1   -5    7     -8.40      0.00 
    2   -5    7      4.75      0.00 
    3   -5    7      0.21      0.00 
    4   -5    7     -4.31      0.00 
    5   -5    7      6.08      0.00 
    6   -5    7     -5.38      0.00 
    7   -5    7      2.95      0.00 
   -8   -4    7     -1.88      0.00 
   -7   -4    7      4.68      0.00 
   -6   -4    7     -6.56      0.00 
   -5   -4    7      5.52      0.00 
   -4   -4    7     -1.65      0.00 
   -3   -4    7     -3.94      0.00 
   -2   -4    7      9.36      0.00 
   -1   -4    7    -11.98      0.00 
    0   -4    7     10.56      0.00 
    1   -4    7     -6.06      0.00 
    2   -4    7      0.08      0.00 
    3   -4    7      5.26      0.00 
    4   -4    7     -7.76      0.00 
    5   -4    7      7.06      0.00 
    6   -4    7     -4.39      0.00 
    7   -4    7      1.22      0.00 
    8   -4    7      0.74      0.00 
   -8   -3    7     -3.34      0.00 
   -7   -3    7      5.32      0.00 
   -6   -3    7     -4.67      0.00 
   -5   -3    7      0.85      0.00 
   -4   -3    7      4.42      0.00 
   -3   -3    7     -9.60      0.00 
   -2   -3    7     12.90      0.00 
   -1   -3    7    -11.99      0.00 
    0   -3    7      6.77      0.00 
    1   -3    7      0.14      0.00 
    2   -3    7     -6.03      0.00 
    3   -3    7      8.97      0.00 
    4   -3    7     -8.04      0.00 
    5   -3    7      4.43      0.00 
    6   -3    7     -0.35      0.00 
    7   -3    7     -2.44      0.00 
    8   -3    7      2.85      0.00 
   -8   -2    7     -3.28      0.00 
   -7   -2    7      3.61      0.00 
   -6   -2    7     -0.70      0.00 
   -5   -2    7     -4.24      0.00 
   -4   -2    7      8.67      0.00 
   -3   -2    7    -11.04      0.00 
   -2   -2    7     10.23      0.00 
   -1   -2    7     -5.64      0.00 
    0   -2    7     -1.22      0.00 
    1   -2    7      7.22      0.00 
    2   -2    7     -9.90      0.00 
    3   -2    7      8.50      0.00 
    4   -2    7     -4.11      0.00 
    5   -2    7     -0.84      0.00 
    6   -2    7      4.22      0.00 
    7   -2    7     -5.03      0.00 
    8   -2    7      3.48      0.00 
    9   -2    7     -1.15      0.00 
   -8   -1    7     -1.57      0.00 
   -7   -1    7      0.31      0.00 
   -6   -1    7      3.22      0.00 
   -5   -1    7     -7.00      0.00 
   -4   -1    7      8.65      0.00 
   -3   -1    7     -7.06      0.00 
   -2   -1    7      2.33      0.00 
   -1   -1    7      4.09      0.00 
    0   -1    7     -9.45      0.00 
    1   -1    7     11.23      0.00 
    2   -1    7     -8.63      0.00 
    3   -1    7      3.05      0.00 
    4   -1    7      2.74      0.00 
    5   -1    7     -6.36      0.00 
    6   -1    7      6.98      0.00 
    7   -1    7     -4.92      0.00 
    8   -1    7      1.68      0.00 
    9   -1    7      0.45      0.00 
   -8    0    7      0.69      0.00 
   -7    0    7     -2.99      0.00 
   -6    0    7      5.41      0.00 
   -5    0    7     -6.31      0.00 
   -4    0    7      4.56      0.00 
   -3    0    7      0.27      0.00 
   -2    0    7     -6.81      0.00 
   -1    0    7     12.02      0.00 
    0    0    7    -13.22      0.00 
    1    0    7      9.68      0.00 
    2    0    7     -2.68      0.00 
    3    0    7     -4.65      0.00 
    4    0    7      9.01      0.00 
    5    0    7     -9.33      0.00 
    6    0    7      6.71      0.00 
    7    0    7     -2.61      0.00 
    8    0    7     -1.14      0.00 
    9    0    7      2.51      0.00 
   10    0    7     -1.52      0.00 
   -8    1    7      1.65      0.00 
   -7    1    7     -4.12      0.00 
   -6    1    7      4.80      0.00 
   -5    1    7     -2.60      0.00 
   -4    1    7     -1.69      0.00 
   -3    1    7      7.32      0.00 
   -2    1    7    -12.49      0.00 
   -1    1    7     14.03      0.00 
    0    1    7    -10.41      0.00 
    1    1    7      3.12      0.00 
    2    1    7      4.91      0.00 
    3    1    7    -10.48      0.00 
    4    1    7     11.44      0.00 
    5    1    7     -8.36      0.00 
    6    1    7      3.65      0.00 
    7    1    7      0.65      0.00 
    8    1    7     -3.23      0.00 
    9    1    7      3.38      0.00 
   10    1    7     -1.85      0.00 
   -7    2    7     -2.52      0.00 
   -6    2    7      1.69      0.00 
   -5    2    7      2.17      0.00 
   -4    2    7     -6.98      0.00 
   -3    2    7     10.75      0.00 
   -2    2    7    -12.08      0.00 
   -1    2    7      9.42      0.00 
    0    2    7     -2.91      0.00 
    1    2    7     -4.65      0.00 
    2    2    7     10.01      0.00 
    3    2    7    -11.29      0.00 
    4    2    7      8.53      0.00 
    5    2    7     -3.64      0.00 
    6    2    7     -0.98      0.00 
    7    2    7      3.69      0.00 
    8    2    7     -3.94      0.00 
    9    2    7      2.48      0.00 
   10    2    7     -0.88      0.00 
   -7    3    7     -0.22      0.00 
   -6    3    7     -1.73      0.00 
   -5    3    7      5.41      0.00 
   -4    3    7     -8.46      0.00 
   -3    3    7      8.92      0.00 
   -2    3    7     -6.36      0.00 
   -1    3    7      1.24      0.00 
    0    3    7      4.85      0.00 
    1    3    7     -9.21      0.00 
    2    3    7      9.83      0.00 
    3    3    7     -6.77      0.00 
    4    3    7      1.87      0.00 
    5    3    7      2.50      0.00 
    6    3    7     -4.86      0.00 
    7    3    7      4.86      0.00 
    8    3    7     -2.87      0.00 
    9    3    7      0.27      0.00 
   10    3    7      1.05      0.00 
   -6    4    7     -3.26      0.00 
   -5    4    7      5.60      0.00 
   -4    4    7     -5.76      0.00 
   -3    4    7      3.18      0.00 
   -2    4    7      1.17      0.00 
   -1    4    7     -5.81      0.00 
    0    4    7      8.82      0.00 
    1    4    7     -8.60      0.00 
    2    4    7      5.16      0.00 
    3    4    7     -0.07      0.00 
    4    4    7     -4.42      0.00 
    5    4    7      6.40      0.00 
    6    4    7     -5.58      0.00 
    7    4    7      3.11      0.00 
    8    4    7     -0.17      0.00 
    9    4    7     -2.14      0.00 
   10    4    7      2.65      0.00 
   11    4    7     -1.47      0.00 
   -6    5    7     -2.51      0.00 
   -5    5    7      3.09      0.00 
   -4    5    7     -0.87      0.00 
   -3    5    7     -3.06      0.00 
   -2    5    7      6.58      0.00 
   -1    5    7     -8.46      0.00 
    0    5    7      7.71      0.00 
    1    5    7     -4.05      0.00 
    2    5    7     -0.93      0.00 
    3    5    7      5.16      0.00 
    4    5    7     -7.28      0.00 
    5    5    7      6.49      0.00 
    6    5    7     -3.35      0.00 
    7    5    7     -0.13      0.00 
    8    5    7      2.46      0.00 
    9    5    7     -3.29      0.00 
   10    5    7      2.67      0.00 
   -5    6    7     -0.06      0.00 
   -4    6    7      3.17      0.00 
   -3    6    7     -6.52      0.00 
   -2    6    7      7.78      0.00 
   -1    6    7     -6.57      0.00 
    0    6    7      3.27      0.00 
    1    6    7      1.36      0.00 
    2    6    7     -5.38      0.00 
    3    6    7      7.19      0.00 
    4    6    7     -6.60      0.00 
    5    6    7      4.01      0.00 
    6    6    7     -0.41      0.00 
    7    6    7     -2.37      0.00 
    8    6    7      3.33      0.00 
    9    6    7     -2.75      0.00 
   10    6    7      1.42      0.00 
   -4    7    7      3.87      0.00 
   -3    7    7     -5.68      0.00 
   -2    7    7      5.12      0.00 
   -1    7    7     -2.43      0.00 
    0    7    7     -1.30      0.00 
    1    7    7      4.81      0.00 
    2    7    7     -6.57      0.00 
    3    7    7      5.96      0.00 
    4    7    7     -3.71      0.00 
    5    7    7      0.85      0.00 
    6    7    7      1.55      0.00 
    7    7    7     -2.58      0.00 
    8    7    7      2.25      0.00 
    9    7    7     -1.25      0.00 
   10    7    7      0.20      0.00 
   -3    8    7     -2.26      0.00 
   -2    8    7      1.13      0.00 
   -1    8    7      1.04      0.00 
    0    8    7     -3.42      0.00 
    1    8    7      4.98      0.00 
    2    8    7     -4.70      0.00 
    3    8    7      2.73      0.00 
    4    8    7     -0.34      0.00 
    5    8    7     -1.39      0.00 
    6    8    7      1.87      0.00 
    7    8    7     -1.18      0.00 
    8    8    7      0.23      0.00 
    9    8    7      0.27      0.00 
   -2    9    7     -0.92      0.00 
   -1    9    7      1.95      0.00 
    0    9    7     -2.61      0.00 
    1    9    7      2.55      0.00 
    2    9    7     -1.39      0.00 
    3    9    7     -0.47      0.00 
    4    9    7      1.81      0.00 
    5    9    7     -1.94      0.00 
    6    9    7      1.01      0.00 
    7    9    7      0.28      0.00 
    8    9    7     -0.99      0.00 
    9    9    7      0.80      0.00 
    0   10    7     -0.80      0.00 
    1   10    7      0.13      0.00 
    2   10    7      0.95      0.00 
    3   10    7     -1.89      0.00 
    4   10    7      1.97      0.00 
    5   10    7     -1.17      0.00 
    6   10    7      0.14      0.00 
    7   10    7      0.57      0.00 
    4   11    7      0.90      0.00 
    5   11    7     -0.16      0.00 
   -2   -9    8      1.62      0.00 
   -1   -9    8     -2.79      0.00 
   -5   -8    8      0.71      0.00 
   -4   -8    8      0.69      0.00 
   -3   -8    8     -2.88      0.00 
   -2   -8    8      4.78      0.00 
   -1   -8    8     -5.24      0.00 
    0   -8    8      3.67      0.00 
    1   -8    8     -0.94      0.00 
    2   -8    8     -1.10      0.00 
   -6   -7    8     -0.33      0.00 
   -5   -7    8     -0.90      0.00 
   -4   -7    8      3.38      0.00 
   -3   -7    8     -5.87      0.00 
   -2   -7    8      6.46      0.00 
   -1   -7    8     -4.54      0.00 
    0   -7    8      1.17      0.00 
    1   -7    8      2.08      0.00 
    2   -7    8     -3.74      0.00 
    3   -7    8      3.24      0.00 
    4   -7    8     -1.66      0.00 
   -7   -6    8     -0.16      0.00 
   -6   -6    8      1.85      0.00 
   -5   -6    8     -3.90      0.00 
   -4   -6    8      5.61      0.00 
   -3   -6    8     -6.14      0.00 
   -2   -6    8      4.18      0.00 
   -1   -6    8     -0.05      0.00 
    0   -6    8     -3.86      0.00 
    1   -6    8      5.72      0.00 
    2   -6    8     -5.18      0.00 
    3   -6    8      2.65      0.00 
    4   -6    8      0.35      0.00 
    5   -6    8     -2.02      0.00 
   -7   -5    8     -1.85      0.00 
   -6   -5    8      4.60      0.00 
   -5   -5    8     -6.11      0.00 
   -4   -5    8      5.29      0.00 
   -3   -5    8     -2.51      0.00 
   -2   -5    8     -1.69      0.00 
   -1   -5    8      5.95      0.00 
    0   -5    8     -8.10      0.00 
    1   -5    8      7.15      0.00 
    2   -5    8     -3.72      0.00 
    3   -5    8     -0.76      0.00 
    4   -5    8      4.29      0.00 
    5   -5    8     -5.42      0.00 
    6   -5    8      4.29      0.00 
   -8   -4    8      1.29      0.00 
   -7   -4    8     -3.75      0.00 
   -6   -4    8      5.71      0.00 
   -5   -4    8     -4.94      0.00 
   -4   -4    8      1.43      0.00 
   -3   -4    8      3.51      0.00 
   -2   -4    8     -8.20      0.00 
   -1   -4    8     10.43      0.00 
    0   -4    8     -9.03      0.00 
    1   -4    8      4.91      0.00 
    2   -4    8      0.41      0.00 
    3   -4    8     -5.21      0.00 
    4   -4    8      7.45      0.00 
    5   -4    8     -6.55      0.00 
    6   -4    8      3.85      0.00 
    7   -4    8     -1.02      0.00 
   -8   -3    8      2.29      0.00 
   -7   -3    8     -4.33      0.00 
   -6   -3    8      4.09      0.00 
   -5   -3    8     -0.55      0.00 
   -4   -3    8     -4.37      0.00 
   -3   -3    8      8.83      0.00 
   -2   -3    8    -11.53      0.00 
   -1   -3    8     10.54      0.00 
    0   -3    8     -5.65      0.00 
    1   -3    8     -0.60      0.00 
    2   -3    8      5.74      0.00 
    3   -3    8     -8.37      0.00 
    4   -3    8      7.60      0.00 
    5   -3    8     -4.17      0.00 
    6   -3    8      0.35      0.00 
    7   -3    8      2.01      0.00 
    8   -3    8     -2.24      0.00 
   -8   -2    8      2.37      0.00 
   -7   -2    8     -3.17      0.00 
   -6   -2    8      0.83      0.00 
   -5   -2    8      4.04      0.00 
   -4   -2    8     -8.31      0.00 
   -3   -2    8     10.17      0.00 
   -2   -2    8     -9.29      0.00 
   -1   -2    8      5.23      0.00 
    0   -2    8      1.09      0.00 
    1   -2    8     -6.68      0.00 
    2   -2    8      9.05      0.00 
    3   -2    8     -7.72      0.00 
    4   -2    8      3.74      0.00 
    5   -2    8      0.84      0.00 
    6   -2    8     -3.89      0.00 
    7   -2    8      4.40      0.00 
    8   -2    8     -2.81      0.00 
    9   -2    8      0.76      0.00 
   -8   -1    8      1.22      0.00 
   -7   -1    8     -0.72      0.00 
   -6   -1    8     -2.34      0.00 
   -5   -1    8      6.25      0.00 
   -4   -1    8     -8.02      0.00 
   -3   -1    8      6.48      0.00 
   -2   -1    8     -2.35      0.00 
   -1   -1    8     -3.08      0.00 
    0   -1    8      7.87      0.00 
    1   -1    8     -9.71      0.00 
    2   -1    8      7.54      0.00 
    3   -1    8     -2.52      0.00 
    4   -1    8     -2.72      0.00 
    5   -1    8      5.94      0.00 
    6   -1    8     -6.30      0.00 
    7   -1    8      4.20      0.00 
    8   -1    8     -1.22      0.00 
    9   -1    8     -0.57      0.00 
   -7    0    8      2.01      0.00 
   -6    0    8     -4.21      0.00 
   -5    0    8      5.48      0.00 
   -4    0    8     -4.13      0.00 
   -3    0    8     -0.11      0.00 
   -2    0    8      5.65      0.00 
   -1    0    8     -9.88      0.00 
    0    0    8     10.81      0.00 
    1    0    8     -7.81      0.00 
    2    0    8      1.80      0.00 
    3    0    8      4.60      0.00 
    4    0    8     -8.34      0.00 
    5    0    8      8.40      0.00 
    6    0    8     -5.77      0.00 
    7    0    8      1.86      0.00 
    8    0    8      1.49      0.00 
    9    0    8     -2.41      0.00 
   10    0    8      1.26      0.00 
   -7    1    8      3.18      0.00 
   -6    1    8     -3.94      0.00 
   -5    1    8      2.23      0.00 
   -4    1    8      1.50      0.00 
   -3    1    8     -6.37      0.00 
   -2    1    8     10.65      0.00 
   -1    1    8    -11.67      0.00 
    0    1    8      8.31      0.00 
    1    1    8     -1.95      0.00 
    2    1    8     -5.00      0.00 
    3    1    8      9.76      0.00 
    4    1    8    -10.30      0.00 
    5    1    8      7.24      0.00 
    6    1    8     -2.86      0.00 
    7    1    8     -1.10      0.00 
    8    1    8      3.43      0.00 
    9    1    8     -3.30      0.00 
   10    1    8      1.60      0.00 
   -7    2    8      2.05      0.00 
   -6    2    8     -1.61      0.00 
   -5    2    8     -1.86      0.00 
   -4    2    8      6.35      0.00 
   -3    2    8     -9.62      0.00 
   -2    2    8     10.48      0.00 
   -1    2    8     -7.85      0.00 
    0    2    8      2.03      0.00 
    1    2    8      4.57      0.00 
    2    2    8     -9.23      0.00 
    3    2    8     10.26      0.00 
    4    2    8     -7.57      0.00 
    5    2    8      2.95      0.00 
    6    2    8      1.19      0.00 
    7    2    8     -3.52      0.00 
    8    2    8      3.73      0.00 
    9    2    8     -2.40      0.00 
   10    2    8      0.88      0.00 
   -6    3    8      1.09      0.00 
   -5    3    8     -4.52      0.00 
   -4    3    8      7.73      0.00 
   -3    3    8     -8.24      0.00 
   -2    3    8      5.65      0.00 
   -1    3    8     -0.90      0.00 
    0    3    8     -4.42      0.00 
    1    3    8      8.21      0.00 
    2    3    8     -8.82      0.00 
    3    3    8      6.10      0.00 
    4    3    8     -1.59      0.00 
    5    3    8     -2.43      0.00 
    6    3    8      4.47      0.00 
    7    3    8     -4.24      0.00 
    8    3    8      2.28      0.00 
    9    3    8     -0.04      0.00 
   10    3    8     -0.84      0.00 
   -6    4    8      2.28      0.00 
   -5    4    8     -4.52      0.00 
   -4    4    8      5.16      0.00 
   -3    4    8     -3.05      0.00 
   -2    4    8     -1.01      0.00 
   -1    4    8      5.17      0.00 
    0    4    8     -7.62      0.00 
    1    4    8      7.40      0.00 
    2    4    8     -4.57      0.00 
    3    4    8      0.15      0.00 
    4    4    8      3.93      0.00 
    5    4    8     -5.70      0.00 
    6    4    8      4.86      0.00 
    7    4    8     -2.47      0.00 
    8    4    8     -0.36      0.00 
    9    4    8      2.40      0.00 
   10    4    8     -2.45      0.00 
   -5    5    8     -2.37      0.00 
   -4    5    8      0.71      0.00 
   -3    5    8      2.72      0.00 
   -2    5    8     -5.91      0.00 
   -1    5    8      7.39      0.00 
    0    5    8     -6.40      0.00 
    1    5    8      3.18      0.00 
    2    5    8      0.91      0.00 
    3    5    8     -4.45      0.00 
    4    5    8      6.28      0.00 
    5    5    8     -5.47      0.00 
    6    5    8      2.59      0.00 
    7    5    8      0.49      0.00 
    8    5    8     -2.57      0.00 
    9    5    8      3.32      0.00 
   10    5    8     -2.59      0.00 
   -4    6    8     -2.65      0.00 
   -3    6    8      5.71      0.00 
   -2    6    8     -6.87      0.00 
   -1    6    8      5.55      0.00 
    0    6    8     -2.35      0.00 
    1    6    8     -1.72      0.00 
    2    6    8      5.02      0.00 
    3    6    8     -6.36      0.00 
    4    6    8      5.65      0.00 
    5    6    8     -3.19      0.00 
    6    6    8     -0.05      0.00 
    7    6    8      2.42      0.00 
    8    6    8     -3.13      0.00 
    9    6    8      2.58      0.00 
   10    6    8     -1.39      0.00 
   -3    7    8      4.71      0.00 
   -2    7    8     -4.32      0.00 
   -1    7    8      1.81      0.00 
    0    7    8      1.61      0.00 
    1    7    8     -4.65      0.00 
    2    7    8      6.11      0.00 
    3    7    8     -5.48      0.00 
    4    7    8      3.34      0.00 
    5    7    8     -0.69      0.00 
    6    7    8     -1.47      0.00 
    7    7    8      2.39      0.00 
    8    7    8     -2.11      0.00 
    9    7    8      1.22      0.00 
   10    7    8     -0.26      0.00 
   -2    8    8     -0.91      0.00 
   -1    8    8     -0.96      0.00 
    0    8    8      3.10      0.00 
    1    8    8     -4.48      0.00 
    2    8    8      4.27      0.00 
    3    8    8     -2.62      0.00 
    4    8    8      0.53      0.00 
    5    8    8      1.00      0.00 
    6    8    8     -1.43      0.00 
    7    8    8      0.94      0.00 
    8    8    8     -0.31      0.00 
    9    8    8     -0.02      0.00 
   -1    9    8     -1.30      0.00 
    0    9    8      1.97      0.00 
    1    9    8     -2.15      0.00 
    2    9    8      1.33      0.00 
    3    9    8      0.21      0.00 
    4    9    8     -1.36      0.00 
    5    9    8      1.44      0.00 
    6    9    8     -0.61      0.00 
    7    9    8     -0.41      0.00 
    8    9    8      0.83      0.00 
    1   10    8     -0.13      0.00 
    2   10    8     -0.47      0.00 
    3   10    8      1.23      0.00 
    4   10    8     -1.45      0.00 
    5   10    8      0.88      0.00 
    6   10    8      0.00      0.00 
    7   10    8     -0.59      0.00 
   -3   -8    9      2.09      0.00 
   -2   -8    9     -3.42      0.00 
   -1   -8    9      3.67      0.00 
    0   -8    9     -2.48      0.00 
    1   -8    9      0.51      0.00 
   -5   -7    9      0.76      0.00 
   -4   -7    9     -2.68      0.00 
   -3   -7    9      4.78      0.00 
   -2   -7    9     -5.28      0.00 
   -1   -7    9      3.58      0.00 
    0   -7    9     -0.71      0.00 
    1   -7    9     -1.86      0.00 
    2   -7    9      2.97      0.00 
    3   -7    9     -2.31      0.00 
   -6   -6    9     -1.50      0.00 
   -5   -6    9      3.12      0.00 
   -4   -6    9     -4.67      0.00 
   -3   -6    9      5.31      0.00 
   -2   -6    9     -3.65      0.00 
   -1   -6    9     -0.03      0.00 
    0   -6    9      3.42      0.00 
    1   -6    9     -4.83      0.00 
    2   -6    9      4.15      0.00 
    3   -6    9     -1.88      0.00 
    4   -6    9     -0.53      0.00 
    5   -6    9      1.49      0.00 
   -6   -5    9     -3.58      0.00 
   -5   -5    9      5.03      0.00 
   -4   -5    9     -4.56      0.00 
   -3   -5    9      2.35      0.00 
   -2   -5    9      1.33      0.00 
   -1   -5    9     -5.20      0.00 
    0   -5    9      7.04      0.00 
    1   -5    9     -5.94      0.00 
    2   -5    9      2.82      0.00 
    3   -5    9      1.01      0.00 
    4   -5    9     -3.88      0.00 
    5   -5    9      4.40      0.00 
    6   -5    9     -2.95      0.00 
   -7   -4    9      2.65      0.00 
   -6   -4    9     -4.49      0.00 
   -5   -4    9      4.10      0.00 
   -4   -4    9     -1.19      0.00 
   -3   -4    9     -2.98      0.00 
   -2   -4    9      7.01      0.00 
   -1   -4    9     -9.01      0.00 
    0   -4    9      7.74      0.00 
    1   -4    9     -3.95      0.00 
    2   -4    9     -0.77      0.00 
    3   -4    9      4.96      0.00 
    4   -4    9     -6.85      0.00 
    5   -4    9      5.73      0.00 
    6   -4    9     -3.00      0.00 
    7   -4    9      0.58      0.00 
   -7   -3    9      3.14      0.00 
   -6   -3    9     -3.31      0.00 
   -5   -3    9      0.29      0.00 
   -4   -3    9      4.16      0.00 
   -3   -3    9     -7.94      0.00 
   -2   -3    9     10.04      0.00 
   -1   -3    9     -9.05      0.00 
    0   -3    9      4.64      0.00 
    1   -3    9      0.92      0.00 
    2   -3    9     -5.40      0.00 
    3   -3    9      7.78      0.00 
    4   -3    9     -7.16      0.00 
    5   -3    9      3.88      0.00 
    6   -3    9     -0.27      0.00 
    7   -3    9     -1.66      0.00 
    8   -3    9      1.69      0.00 
   -7   -2    9      2.50      0.00 
   -6   -2    9     -0.91      0.00 
   -5   -2    9     -3.62      0.00 
   -4   -2    9      7.81      0.00 
   -3   -2    9     -9.31      0.00 
   -2   -2    9      8.22      0.00 
   -1   -2    9     -4.52      0.00 
    0   -2    9     -1.21      0.00 
    1   -2    9      6.29      0.00 
    2   -2    9     -8.29      0.00 
    3   -2    9      7.06      0.00 
    4   -2    9     -3.56      0.00 
    5   -2    9     -0.67      0.00 
    6   -2    9      3.48      0.00 
    7   -2    9     -3.70      0.00 
    8   -2    9      2.11      0.00 
   -7   -1    9      0.95      0.00 
   -6   -1    9      1.41      0.00 
   -5   -1    9     -5.32      0.00 
   -4   -1    9      7.39      0.00 
   -3   -1    9     -5.97      0.00 
   -2   -1    9      2.19      0.00 
   -1   -1    9      2.50      0.00 
    0   -1    9     -6.80      0.00 
    1   -1    9      8.66      0.00 
    2   -1    9     -6.77      0.00 
    3   -1    9      2.22      0.00 
    4   -1    9      2.51      0.00 
    5   -1    9     -5.38      0.00 
    6   -1    9      5.58      0.00 
    7   -1    9     -3.50      0.00 
    8   -1    9      0.81      0.00 
    9   -1    9      0.63      0.00 
   -7    0    9     -1.03      0.00 
   -6    0    9      2.89      0.00 
   -5    0    9     -4.54      0.00 
   -4    0    9      3.75      0.00 
   -3    0    9     -0.02      0.00 
   -2    0    9     -4.74      0.00 
   -1    0    9      8.15      0.00 
    0    0    9     -8.88      0.00 
    1    0    9      6.44      0.00 
    2    0    9     -1.32      0.00 
    3    0    9     -4.26      0.00 
    4    0    9      7.54      0.00 
    5    0    9     -7.45      0.00 
    6    0    9      4.82      0.00 
    7    0    9     -1.13      0.00 
    8    0    9     -1.70      0.00 
    9    0    9      2.16      0.00 
   -7    1    9     -2.11      0.00 
   -6    1    9      2.86      0.00 
   -5    1    9     -1.78      0.00 
   -4    1    9     -1.30      0.00 
   -3    1    9      5.57      0.00 
   -2    1    9     -9.08      0.00 
   -1    1    9      9.56      0.00 
    0    1    9     -6.44      0.00 
    1    1    9      1.00      0.00 
    2    1    9      4.88      0.00 
    3    1    9     -8.86      0.00 
    4    1    9      9.11      0.00 
    5    1    9     -6.15      0.00 
    6    1    9      1.99      0.00 
    7    1    9      1.70      0.00 
    8    1    9     -3.62      0.00 
    9    1    9      3.07      0.00 
   -6    2    9      1.28      0.00 
   -5    2    9      1.59      0.00 
   -4    2    9     -5.63      0.00 
   -3    2    9      8.60      0.00 
   -2    2    9     -9.08      0.00 
   -1    2    9      6.33      0.00 
    0    2    9     -1.04      0.00 
    1    2    9     -4.62      0.00 
    2    2    9      8.52      0.00 
    3    2    9     -9.27      0.00 
    4    2    9      6.65      0.00 
    5    2    9     -2.29      0.00 
    6    2    9     -1.52      0.00 
    7    2    9      3.60      0.00 
    8    2    9     -3.71      0.00 
    9    2    9      2.33      0.00 
   10    2    9     -0.79      0.00 
   -6    3    9     -0.58      0.00 
   -5    3    9      3.56      0.00 
   -4    3    9     -6.80      0.00 
   -3    3    9      7.56      0.00 
   -2    3    9     -5.05      0.00 
   -1    3    9      0.46      0.00 
    0    3    9      4.35      0.00 
    1    3    9     -7.57      0.00 
    2    3    9      8.02      0.00 
    3    3    9     -5.55      0.00 
    4    3    9      1.39      0.00 
    5    3    9      2.36      0.00 
    6    3    9     -4.12      0.00 
    7    3    9      3.70      0.00 
    8    3    9     -1.86      0.00 
    9    3    9      0.02      0.00 
   10    3    9      0.54      0.00 
   -5    4    9      3.27      0.00 
   -4    4    9     -4.38      0.00 
   -3    4    9      2.95      0.00 
   -2    4    9      0.74      0.00 
   -1    4    9     -4.65      0.00 
    0    4    9      6.82      0.00 
    1    4    9     -6.59      0.00 
    2    4    9      4.17      0.00 
    3    4    9     -0.25      0.00 
    4    4    9     -3.47      0.00 
    5    4    9      5.04      0.00 
    6    4    9     -4.11      0.00 
    7    4    9      1.73      0.00 
    8    4    9      0.87      0.00 
    9    4    9     -2.39      0.00 
   10    4    9      1.95      0.00 
   -5    5    9      1.56      0.00 
   -4    5    9     -0.59      0.00 
   -3    5    9     -2.12      0.00 
   -2    5    9      5.01      0.00 
   -1    5    9     -6.37      0.00 
    0    5    9      5.34      0.00 
    1    5    9     -2.52      0.00 
    2    5    9     -0.83      0.00 
    3    5    9      3.82      0.00 
    4    5    9     -5.44      0.00 
    5    5    9      4.59      0.00 
    6    5    9     -1.83      0.00 
    7    5    9     -0.95      0.00 
    8    5    9      2.69      0.00 
    9    5    9     -3.14      0.00 
   10    5    9      2.19      0.00 
   -4    6    9      1.85      0.00 
   -3    6    9     -4.47      0.00 
   -2    6    9      5.68      0.00 
   -1    6    9     -4.52      0.00 
    0    6    9      1.52      0.00 
    1    6    9      2.03      0.00 
    2    6    9     -4.65      0.00 
    3    6    9      5.57      0.00 
    4    6    9     -4.78      0.00 
    5    6    9      2.46      0.00 
    6    6    9      0.49      0.00 
    7    6    9     -2.44      0.00 
    8    6    9      2.84      0.00 
    9    6    9     -2.25      0.00 
   -3    7    9     -3.41      0.00 
   -2    7    9      3.35      0.00 
   -1    7    9     -1.25      0.00 
    0    7    9     -1.80      0.00 
    1    7    9      4.44      0.00 
    2    7    9     -5.59      0.00 
    3    7    9      4.89      0.00 
    4    7    9     -2.87      0.00 
    5    7    9      0.45      0.00 
    6    7    9      1.44      0.00 
    7    7    9     -2.16      0.00 
    8    7    9      1.84      0.00 
    9    7    9     -1.06      0.00 
   -2    8    9      0.66      0.00 
   -1    8    9      0.82      0.00 
    0    8    9     -2.67      0.00 
    1    8    9      3.87      0.00 
    2    8    9     -3.75      0.00 
    3    8    9      2.41      0.00 
    4    8    9     -0.63      0.00 
    5    8    9     -0.71      0.00 
    6    8    9      1.12      0.00 
    7    8    9     -0.78      0.00 
    8    8    9      0.37      0.00 
    0    9    9     -1.39      0.00 
    1    9    9      1.69      0.00 
    2    9    9     -1.15      0.00 
    3    9    9      0.00      0.00 
    4    9    9      0.90      0.00 
    5    9    9     -0.97      0.00 
    6    9    9      0.34      0.00 
    7    9    9      0.40      0.00 
    3   10    9     -0.71      0.00 
    4   10    9      0.97      0.00 
    5   10    9     -0.60      0.00 
   -3   -7   10     -3.21      0.00 
   -2   -7   10      3.60      0.00 
   -1   -7   10     -2.34      0.00 
    0   -7   10      0.31      0.00 
    1   -7   10      1.40      0.00 
    2   -7   10     -2.03      0.00 
   -5   -6   10     -2.09      0.00 
   -4   -6   10      3.35      0.00 
   -3   -6   10     -3.97      0.00 
   -2   -6   10      2.71      0.00 
   -1   -6   10      0.21      0.00 
    0   -6   10     -2.79      0.00 
    1   -6   10      3.73      0.00 
    2   -6   10     -3.08      0.00 
    3   -6   10      1.31      0.00 
    4   -6   10      0.43      0.00 
   -5   -5   10     -3.58      0.00 
   -4   -5   10      3.51      0.00 
   -3   -5   10     -1.92      0.00 
   -2   -5   10     -1.11      0.00 
   -1   -5   10      4.42      0.00 
    0   -5   10     -5.84      0.00 
    1   -5   10      4.70      0.00 
    2   -5   10     -2.09      0.00 
    3   -5   10     -0.90      0.00 
    4   -5   10      3.04      0.00 
    5   -5   10     -3.10      0.00 
   -6   -4   10      2.94      0.00 
   -5   -4   10     -2.94      0.00 
   -4   -4   10      0.89      0.00 
   -3   -4   10      2.37      0.00 
   -2   -4   10     -5.77      0.00 
   -1   -4   10      7.65      0.00 
    0   -4   10     -6.57      0.00 
    1   -4   10      3.11      0.00 
    2   -4   10      0.99      0.00 
    3   -4   10     -4.40      0.00 
    4   -4   10      5.81      0.00 
    5   -4   10     -4.53      0.00 
    6   -4   10      1.94      0.00 
   -6   -3   10      2.22      0.00 
   -5   -3   10      0.03      0.00 
   -4   -3   10     -3.69      0.00 
   -3   -3   10      6.75      0.00 
   -2   -3   10     -8.41      0.00 
   -1   -3   10      7.61      0.00 
    0   -3   10     -3.84      0.00 
    1   -3   10     -1.11      0.00 
    2   -3   10      5.06      0.00 
    3   -3   10     -7.12      0.00 
    4   -3   10      6.52      0.00 
    5   -3   10     -3.38      0.00 
    6   -3   10      0.05      0.00 
    7   -3   10      1.42      0.00 
   -6   -2   10      0.75      0.00 
   -5   -2   10      3.05      0.00 
   -4   -2   10     -6.95      0.00 
   -3   -2   10      8.23      0.00 
   -2   -2   10     -7.00      0.00 
   -1   -2   10      3.67      0.00 
    0   -2   10      1.40      0.00 
    1   -2   10     -5.92      0.00 
    2   -2   10      7.62      0.00 
    3   -2   10     -6.51      0.00 
    4   -2   10      3.46      0.00 
    5   -2   10      0.44      0.00 
    6   -2   10     -3.04      0.00 
    7   -2   10      3.02      0.00 
    8   -2   10     -1.46      0.00 
   -6   -1   10     -0.68      0.00 
   -5   -1   10      4.22      0.00 
   -4   -1   10     -6.57      0.00 
   -3   -1   10      5.44      0.00 
   -2   -1   10     -1.92      0.00 
   -1   -1   10     -2.29      0.00 
    0   -1   10      6.16      0.00 
    1   -1   10     -7.92      0.00 
    2   -1   10      6.18      0.00 
    3   -1   10     -2.05      0.00 
    4   -1   10     -2.11      0.00 
    5   -1   10      4.65      0.00 
    6   -1   10     -4.82      0.00 
    7   -1   10      2.88      0.00 
    8   -1   10     -0.53      0.00 
   -6    0   10     -1.65      0.00 
   -5    0   10      3.45      0.00 
   -4    0   10     -3.31      0.00 
   -3    0   10      0.19      0.00 
   -2    0   10      4.02      0.00 
   -1    0   10     -6.93      0.00 
    0    0   10      7.57      0.00 
    1    0   10     -5.56      0.00 
    2    0   10      1.12      0.00 
    3    0   10      3.80      0.00 
    4    0   10     -6.64      0.00 
    5    0   10      6.43      0.00 
    6    0   10     -3.92      0.00 
    7    0   10      0.63      0.00 
    8    0   10      1.57      0.00 
    9    0   10     -1.63      0.00 
   -6    1   10     -1.67      0.00 
   -5    1   10      1.20      0.00 
   -4    1   10      1.06      0.00 
   -3    1   10     -4.76      0.00 
   -2    1   10      7.78      0.00 
   -1    1   10     -7.95      0.00 
    0    1   10      5.06      0.00 
    1    1   10     -0.40      0.00 
    2    1   10     -4.57      0.00 
    3    1   10      7.88      0.00 
    4    1   10     -7.94      0.00 
    5    1   10      5.12      0.00 
    6    1   10     -1.20      0.00 
    7    1   10     -2.12      0.00 
    8    1   10      3.45      0.00 
    9    1   10     -2.47      0.00 
   -5    2   10     -1.40      0.00 
   -4    2   10      4.73      0.00 
   -3    2   10     -7.45      0.00 
   -2    2   10      7.85      0.00 
   -1    2   10     -5.09      0.00 
    0    2   10      0.21      0.00 
    1    2   10      4.66      0.00 
    2    2   10     -7.85      0.00 
    3    2   10      8.29      0.00 
    4    2   10     -5.76      0.00 
    5    2   10      1.70      0.00 
    6    2   10      1.85      0.00 
    7    2   10     -3.72      0.00 
    8    2   10      3.61      0.00 
    9    2   10     -2.06      0.00 
   -5    3   10     -2.63      0.00 
   -4    3   10      5.57      0.00 
   -3    3   10     -6.62      0.00 
   -2    3   10      4.46      0.00 
   -1    3   10     -0.04      0.00 
    0    3   10     -4.46      0.00 
    1    3   10      7.20      0.00 
    2    3   10     -7.37      0.00 
    3    3   10      5.04      0.00 
    4    3   10     -1.23      0.00 
    5    3   10     -2.23      0.00 
    6    3   10      3.82      0.00 
    7    3   10     -3.37      0.00 
    8    3   10      1.71      0.00 
    9    3   10     -0.18      0.00 
   -4    4   10      3.36      0.00 
   -3    4   10     -2.70      0.00 
   -2    4   10     -0.44      0.00 
   -1    4   10      4.23      0.00 
    0    4   10     -6.37      0.00 
    1    4   10      6.13      0.00 
    2    4   10     -3.87      0.00 
    3    4   10      0.33      0.00 
    4    4   10      3.01      0.00 
    5    4   10     -4.38      0.00 
    6    4   10      3.43      0.00 
    7    4   10     -1.20      0.00 
    8    4   10     -0.99      0.00 
    9    4   10      1.92      0.00 
   -4    5   10      0.44      0.00 
   -3    5   10      1.40      0.00 
   -2    5   10     -3.93      0.00 
   -1    5   10      5.38      0.00 
    0    5   10     -4.61      0.00 
    1    5   10      2.17      0.00 
    2    5   10      0.68      0.00 
    3    5   10     -3.27      0.00 
    4    5   10      4.66      0.00 
    5    5   10     -3.78      0.00 
    6    5   10      1.19      0.00 
    7    5   10      1.24      0.00 
    8    5   10     -2.52      0.00 
    9    5   10      2.53      0.00 
   -3    6   10      3.00      0.00 
   -2    6   10     -4.27      0.00 
   -1    6   10      3.53      0.00 
    0    6   10     -0.97      0.00 
    1    6   10     -2.07      0.00 
    2    6   10      4.12      0.00 
    3    6   10     -4.71      0.00 
    4    6   10      3.93      0.00 
    5    6   10     -1.80      0.00 
    6    6   10     -0.81      0.00 
    7    6   10      2.33      0.00 
    8    6   10     -2.35      0.00 
    9    6   10      1.68      0.00 
   -2    7   10     -2.31      0.00 
   -1    7   10      0.82      0.00 
    0    7   10      1.72      0.00 
    1    7   10     -3.97      0.00 
    2    7   10      4.85      0.00 
    3    7   10     -4.08      0.00 
    4    7   10      2.24      0.00 
    5    7   10     -0.15      0.00 
    6    7   10     -1.40      0.00 
    7    7   10      1.86      0.00 
    8    7   10     -1.42      0.00 
   -1    8   10     -0.60      0.00 
    0    8   10      2.08      0.00 
    1    8   10     -3.11      0.00 
    2    8   10      3.07      0.00 
    3    8   10     -2.02      0.00 
    4    8   10      0.54      0.00 
    5    8   10      0.57      0.00 
    6    8   10     -0.90      0.00 
    7    8   10      0.64      0.00 
    8    8   10     -0.37      0.00 
    1    9   10     -1.20      0.00 
    2    9   10      0.89      0.00 
    3    9   10     -0.11      0.00 
    4    9   10     -0.52      0.00 
    5    9   10      0.58      0.00 
    6    9   10     -0.17      0.00 
   -3   -6   11      2.38      0.00 
   -2   -6   11     -1.63      0.00 
   -1   -6   11     -0.29      0.00 
    0   -6   11      1.96      0.00 
    1   -6   11     -2.48      0.00 
    2   -6   11      2.03      0.00 
   -4   -5   11     -2.25      0.00 
   -3   -5   11      1.27      0.00 
   -2   -5   11      0.96      0.00 
   -1   -5   11     -3.47      0.00 
    0   -5   11      4.42      0.00 
    1   -5   11     -3.41      0.00 
    2   -5   11      1.50      0.00 
    3   -5   11      0.54      0.00 
    4   -5   11     -1.96      0.00 
   -5   -4   11      1.68      0.00 
   -4   -4   11     -0.58      0.00 
   -3   -4   11     -1.68      0.00 
   -2   -4   11      4.42      0.00 
   -1   -4   11     -6.14      0.00 
    0   -4   11      5.28      0.00 
    1   -4   11     -2.28      0.00 
    2   -4   11     -1.04      0.00 
    3   -4   11      3.52      0.00 
    4   -4   11     -4.37      0.00 
    5   -4   11      3.12      0.00 
   -5   -3   11     -0.33      0.00 
   -4   -3   11      2.89      0.00 
   -3   -3   11     -5.15      0.00 
   -2   -3   11      6.52      0.00 
   -1   -3   11     -6.12      0.00 
    0   -3   11      3.09      0.00 
    1   -3   11      1.24      0.00 
    2   -3   11     -4.67      0.00 
    3   -3   11      6.24      0.00 
    4   -3   11     -5.48      0.00 
    5   -3   11      2.62      0.00 
    6   -3   11      0.22      0.00 
   -5   -2   11     -2.36      0.00 
   -4   -2   11      5.59      0.00 
   -3   -2   11     -6.66      0.00 
   -2   -2   11      5.55      0.00 
   -1   -2   11     -2.78      0.00 
    0   -2   11     -1.48      0.00 
    1   -2   11      5.44      0.00 
    2   -2   11     -6.94      0.00 
    3   -2   11      5.92      0.00 
    4   -2   11     -3.22      0.00 
    5   -2   11     -0.27      0.00 
    6   -2   11      2.55      0.00 
    7   -2   11     -2.31      0.00 
   -5   -1   11     -3.00      0.00 
   -4   -1   11      5.35      0.00 
   -3   -1   11     -4.66      0.00 
   -2   -1   11      1.56      0.00 
   -1   -1   11      2.17      0.00 
    0   -1   11     -5.59      0.00 
    1   -1   11      7.18      0.00 
    2   -1   11     -5.59      0.00 
    3   -1   11      1.93      0.00 
    4   -1   11      1.61      0.00 
    5   -1   11     -3.78      0.00 
    6   -1   11      3.97      0.00 
    7   -1   11     -2.30      0.00 
   -5    0   11     -2.30      0.00 
   -4    0   11      2.71      0.00 
   -3    0   11     -0.37      0.00 
   -2    0   11     -3.29      0.00 
   -1    0   11      5.92      0.00 
    0    0   11     -6.58      0.00 
    1    0   11      4.90      0.00 
    2    0   11     -1.00      0.00 
    3    0   11     -3.32      0.00 
    4    0   11      5.65      0.00 
    5    0   11     -5.31      0.00 
    6    0   11      3.11      0.00 
    7    0   11     -0.44      0.00 
    8    0   11     -1.11      0.00 
   -5    1   11     -0.62      0.00 
   -4    1   11     -0.76      0.00 
   -3    1   11      3.73      0.00 
   -2    1   11     -6.42      0.00 
   -1    1   11      6.61      0.00 
    0    1   11     -4.11      0.00 
    1    1   11      0.07      0.00 
    2    1   11      4.18      0.00 
    3    1   11     -6.91      0.00 
    4    1   11      6.76      0.00 
    5    1   11     -4.15      0.00 
    6    1   11      0.66      0.00 
    7    1   11      2.05      0.00 
    8    1   11     -2.74      0.00 
   -5    2   11      1.18      0.00 
   -4    2   11     -3.54      0.00 
   -3    2   11      5.90      0.00 
   -2    2   11     -6.47      0.00 
   -1    2   11      4.06      0.00 
    0    2   11      0.33      0.00 
    1    2   11     -4.57      0.00 
    2    2   11      7.16      0.00 
    3    2   11     -7.29      0.00 
    4    2   11      4.88      0.00 
    5    2   11     -1.23      0.00 
    6    2   11     -1.94      0.00 
    7    2   11      3.52      0.00 
    8    2   11     -3.12      0.00 
    9    2   11      1.46      0.00 
   -4    3   11     -4.00      0.00 
   -3    3   11      5.18      0.00 
   -2    3   11     -3.65      0.00 
   -1    3   11     -0.28      0.00 
    0    3   11      4.47      0.00 
    1    3   11     -6.83      0.00 
    2    3   11      6.71      0.00 
    3    3   11     -4.46      0.00 
    4    3   11      1.05      0.00 
    5    3   11      2.01      0.00 
    6    3   11     -3.45      0.00 
    7    3   11      3.08      0.00 
    8    3   11     -1.62      0.00 
    9    3   11      0.28      0.00 
   -4    4   11     -2.16      0.00 
   -3    4   11      2.12      0.00 
   -2    4   11      0.25      0.00 
   -1    4   11     -3.74      0.00 
    0    4   11      5.95      0.00 
    1    4   11     -5.74      0.00 
    2    4   11      3.54      0.00 
    3    4   11     -0.33      0.00 
    4    4   11     -2.52      0.00 
    5    4   11      3.67      0.00 
    6    4   11     -2.87      0.00 
    7    4   11      1.00      0.00 
    8    4   11      0.69      0.00 
    9    4   11     -1.17      0.00 
   -3    5   11     -0.79      0.00 
   -2    5   11      2.78      0.00 
   -1    5   11     -4.35      0.00 
    0    5   11      4.03      0.00 
    1    5   11     -2.03      0.00 
    2    5   11     -0.47      0.00 
    3    5   11      2.70      0.00 
    4    5   11     -3.83      0.00 
    5    5   11      2.99      0.00 
    6    5   11     -0.79      0.00 
    7    5   11     -1.14      0.00 
    8    5   11      1.93      0.00 
   -2    6   11      2.81      0.00 
   -1    6   11     -2.59      0.00 
    0    6   11      0.70      0.00 
    1    6   11      1.73      0.00 
    2    6   11     -3.31      0.00 
    3    6   11      3.71      0.00 
    4    6   11     -3.02      0.00 
    5    6   11      1.22      0.00 
    6    6   11      0.90      0.00 
    7    6   11     -1.93      0.00 
    8    6   11      1.64      0.00 
   -1    7   11     -0.52      0.00 
    0    7   11     -1.35      0.00 
    1    7   11      3.13      0.00 
    2    7   11     -3.76      0.00 
    3    7   11      3.04      0.00 
    4    7   11     -1.52      0.00 
    5    7   11     -0.10      0.00 
    6    7   11      1.24      0.00 
    7    7   11     -1.44      0.00 
    8    7   11      0.89      0.00 
    1    8   11      2.17      0.00 
    2    8   11     -2.23      0.00 
    3    8   11      1.46      0.00 
    4    8   11     -0.32      0.00 
    5    8   11     -0.50      0.00 
    6    8   11      0.69      0.00 
   -2   -5   12     -0.76      0.00 
   -1   -5   12      2.33      0.00 
    0   -5   12     -2.87      0.00 
    1   -5   12      2.15      0.00 
    2   -5   12     -1.01      0.00 
   -3   -4   12      0.99      0.00 
   -2   -4   12     -2.97      0.00 
   -1   -4   12      4.38      0.00 
    0   -4   12     -3.77      0.00 
    1   -4   12      1.45      0.00 
    2   -4   12      0.90      0.00 
    3   -4   12     -2.40      0.00 
    4   -4   12      2.78      0.00 
   -4   -3   12     -1.83      0.00 
   -3   -3   12      3.25      0.00 
   -2   -3   12     -4.39      0.00 
   -1   -3   12      4.42      0.00 
    0   -3   12     -2.24      0.00 
    1   -3   12     -1.31      0.00 
    2   -3   12      4.04      0.00 
    3   -3   12     -4.96      0.00 
    4   -3   12      4.04      0.00 
    5   -3   12     -1.72      0.00 
   -4   -2   12     -3.77      0.00 
   -3   -2   12      4.58      0.00 
   -2   -2   12     -3.81      0.00 
   -1   -2   12      1.87      0.00 
    0   -2   12      1.40      0.00 
    1   -2   12     -4.73      0.00 
    2   -2   12      6.04      0.00 
    3   -2   12     -5.06      0.00 
    4   -2   12      2.68      0.00 
    5   -2   12      0.20      0.00 
    6   -2   12     -1.91      0.00 
   -4   -1   12     -3.73      0.00 
   -3   -1   12      3.46      0.00 
   -2   -1   12     -1.07      0.00 
   -1   -1   12     -1.93      0.00 
    0   -1   12      4.73      0.00 
    1   -1   12     -6.14      0.00 
    2   -1   12      4.85      0.00 
    3   -1   12     -1.78      0.00 
    4   -1   12     -1.09      0.00 
    5   -1   12      2.81      0.00 
    6   -1   12     -2.97      0.00 
    7   -1   12      1.62      0.00 
   -4    0   12     -1.91      0.00 
   -3    0   12      0.46      0.00 
   -2    0   12      2.44      0.00 
   -1    0   12     -4.76      0.00 
    0    0   12      5.46      0.00 
    1    0   12     -4.15      0.00 
    2    0   12      0.85      0.00 
    3    0   12      2.74      0.00 
    4    0   12     -4.49      0.00 
    5    0   12      4.03      0.00 
    6    0   12     -2.30      0.00 
    7    0   12      0.39      0.00 
   -4    1   12      0.42      0.00 
   -3    1   12     -2.49      0.00 
   -2    1   12      4.77      0.00 
   -1    1   12     -5.18      0.00 
    0    1   12      3.26      0.00 
    1    1   12      0.09      0.00 
    2    1   12     -3.67      0.00 
    3    1   12      5.83      0.00 
    4    1   12     -5.47      0.00 
    5    1   12      3.16      0.00 
    6    1   12     -0.38      0.00 
    7    1   12     -1.52      0.00 
   -4    2   12      2.17      0.00 
   -3    2   12     -3.95      0.00 
   -2    2   12      4.73      0.00 
   -1    2   12     -3.04      0.00 
    0    2   12     -0.58      0.00 
    1    2   12      4.16      0.00 
    2    2   12     -6.24      0.00 
    3    2   12      6.11      0.00 
    4    2   12     -3.90      0.00 
    5    2   12      0.84      0.00 
    6    2   12      1.68      0.00 
    7    2   12     -2.79      0.00 
    8    2   12      2.19      0.00 
   -3    3   12     -3.32      0.00 
   -2    3   12      2.55      0.00 
   -1    3   12      0.48      0.00 
    0    3   12     -4.07      0.00 
    1    3   12      6.08      0.00 
    2    3   12     -5.77      0.00 
    3    3   12      3.66      0.00 
    4    3   12     -0.77      0.00 
    5    3   12     -1.69      0.00 
    6    3   12      2.85      0.00 
    7    3   12     -2.54      0.00 
    8    3   12      1.32      0.00 
   -2    4   12     -0.21      0.00 
   -1    4   12      3.06      0.00 
    0    4   12     -5.16      0.00 
    1    4   12      5.03      0.00 
    2    4   12     -2.99      0.00 
    3    4   12      0.23      0.00 
    4    4   12      2.00      0.00 
    5    4   12     -2.87      0.00 
    6    4   12      2.31      0.00 
    7    4   12     -0.94      0.00 
    8    4   12     -0.27      0.00 
   -2    5   12     -1.74      0.00 
   -1    5   12      3.20      0.00 
    0    5   12     -3.32      0.00 
    1    5   12      1.85      0.00 
    2    5   12      0.26      0.00 
    3    5   12     -2.07      0.00 
    4    5   12      2.86      0.00 
    5    5   12     -2.17      0.00 
    6    5   12      0.60      0.00 
    7    5   12      0.71      0.00 
    8    5   12     -1.13      0.00 
   -1    6   12      1.68      0.00 
    0    6   12     -0.56      0.00 
    1    6   12     -1.14      0.00 
    2    6   12      2.29      0.00 
    3    6   12     -2.56      0.00 
    4    6   12      2.04      0.00 
    5    6   12     -0.74      0.00 
    6    6   12     -0.71      0.00 
    7    6   12      1.27      0.00 
    1    7   12     -2.02      0.00 
    2    7   12      2.43      0.00 
    3    7   12     -1.88      0.00 
    4    7   12      0.84      0.00 
    5    7   12      0.20      0.00 
    6    7   12     -0.89      0.00 
    0   -4   13      2.22      0.00 
    1   -4   13     -0.74      0.00 
   -2   -3   13      2.33      0.00 
   -1   -3   13     -2.66      0.00 
    0   -3   13      1.32      0.00 
    1   -3   13      1.21      0.00 
    2   -3   13     -3.05      0.00 
    3   -3   13      3.34      0.00 
   -2   -2   13      2.03      0.00 
   -1   -2   13     -0.99      0.00 
    0   -2   13     -1.16      0.00 
    1   -2   13      3.68      0.00 
    2   -2   13     -4.72      0.00 
    3   -2   13      3.79      0.00 
    4   -2   13     -1.85      0.00 
    5   -2   13     -0.16      0.00 
   -3   -1   13     -2.02      0.00 
   -2   -1   13      0.50      0.00 
   -1   -1   13      1.51      0.00 
    0   -1   13     -3.51      0.00 
    1   -1   13      4.69      0.00 
    2   -1   13     -3.86      0.00 
    3   -1   13      1.52      0.00 
    4   -1   13      0.63      0.00 
    5   -1   13     -1.80      0.00 
   -3    0   13     -0.36      0.00 
   -2    0   13     -1.58      0.00 
   -1    0   13      3.35      0.00 
    0    0   13     -4.01      0.00 
    1    0   13      3.16      0.00 
    2    0   13     -0.71      0.00 
    3    0   13     -1.98      0.00 
    4    0   13      3.15      0.00 
    5    0   13     -2.66      0.00 
    6    0   13      1.42      0.00 
   -3    1   13      1.31      0.00 
   -2    1   13     -2.99      0.00 
   -1    1   13      3.54      0.00 
    0    1   13     -2.32      0.00 
    1    1   13     -0.15      0.00 
    2    1   13      2.89      0.00 
    3    1   13     -4.46      0.00 
    4    1   13      3.98      0.00 
    5    1   13     -2.11      0.00 
    6    1   13      0.19      0.00 
   -2    2   13     -2.84      0.00 
   -1    2   13      1.97      0.00 
    0    2   13      0.58      0.00 
    1    2   13     -3.33      0.00 
    2    2   13      4.90      0.00 
    3    2   13     -4.62      0.00 
    4    2   13      2.76      0.00 
    5    2   13     -0.48      0.00 
    6    2   13     -1.17      0.00 
    7    2   13      1.73      0.00 
   -2    3   13     -1.35      0.00 
   -1    3   13     -0.50      0.00 
    0    3   13      3.16      0.00 
    1    3   13     -4.74      0.00 
    2    3   13      4.39      0.00 
    3    3   13     -2.60      0.00 
    4    3   13      0.39      0.00 
    5    3   13      1.29      0.00 
    6    3   13     -1.98      0.00 
    7    3   13      1.69      0.00 
   -1    4   13     -2.15      0.00 
    0    4   13      3.84      0.00 
    1    4   13     -3.83      0.00 
    2    4   13      2.16      0.00 
    3    4   13     -0.04      0.00 
    4    4   13     -1.48      0.00 
    5    4   13      1.99      0.00 
    6    4   13     -1.63      0.00 
    7    4   13      0.76      0.00 
    0    5   13      2.35      0.00 
    1    5   13     -1.44      0.00 
    2    5   13     -0.12      0.00 
    3    5   13      1.40      0.00 
    4    5   13     -1.82      0.00 
    5    5   13      1.34      0.00 
    6    5   13     -0.47      0.00 
    1    6   13      0.56      0.00 
    2    6   13     -1.27      0.00 
    3    6   13      1.44      0.00 
    4    6   13     -1.10      0.00 
    5    6   13      0.36      0.00 
    1   -2   14     -2.37      0.00 
    2   -2   14      3.03      0.00 
    0   -1   14      2.11      0.00 
    1   -1   14     -2.97      0.00 
    2   -1   14      2.61      0.00 
    3   -1   14     -1.10      0.00 
   -1    0   14     -1.92      0.00 
    0    0   14      2.40      0.00 
    1    0   14     -2.01      0.00 
    2    0   14      0.57      0.00 
    3    0   14      1.12      0.00 
    4    0   14     -1.82      0.00 
   -1    1   14     -1.95      0.00 
    0    1   14      1.36      0.00 
    1    1   14      0.12      0.00 
    2    1   14     -1.87      0.00 
    3    1   14      2.85      0.00 
    4    1   14     -2.40      0.00 
    5    1   14      1.11      0.00 
    0    2   14     -0.40      0.00 
    1    2   14      2.16      0.00 
    2    2   14     -3.19      0.00 
    3    2   14      2.90      0.00 
    4    2   14     -1.57      0.00 
    5    2   14      0.15      0.00 
    0    3   14     -1.91      0.00 
    1    3   14      2.98      0.00 
    2    3   14     -2.71      0.00 
    3    3   14      1.43      0.00 
    4    3   14      0.00      0.00 
    5    3   14     -0.88      0.00 
    1    4   14      2.30      0.00 
    2    4   14     -1.19      0.00 
    3    4   14     -0.18      0.00 
    4    4   14      0.99      0.00 
   -9    4    0      1.62      0.00 
  -10   -8    1     -0.09      0.00 
   -8  -10    2     -0.16      0.00 
   -9   -9    2     -0.16      0.00 
   -1    1    2    -29.55      0.00 
   11    7    2     -0.53      0.00 
    9   10    2     -0.65      0.00 
   -1    1    3     25.10      0.00 
   11    7    3      0.47      0.00 
   -4    9    3      1.38      0.00 
   10    9    3     -0.73      0.00 
    9   10    3      0.72      0.00 
   -3  -11    4      1.59      0.00 
   -2  -11    4     -0.99      0.00 
    2  -10    4      1.87      0.00 
   -8   -9    4     -0.83      0.00 
   -6    7    4      0.13      0.00 
   11    7    4     -0.40      0.00 
    9   10    4     -0.73      0.00 
   10   -2    5      0.04      0.00 
   -4  -10    6     -1.46      0.00 
    0  -10    6      2.42      0.00 
   -8    3    6     -0.84      0.00 
   11    6    6      0.27      0.00 
   10   -1    7     -0.63      0.00 
   -8    2    7      1.05      0.00 
   11    3    7     -0.75      0.00 
   -7    4    7      0.93      0.00 
   11    5    7     -1.28      0.00 
   10    8    7     -0.37      0.00 
    8   10    7     -0.70      0.00 
    3   11    7     -1.29      0.00 
   -3   -9    8     -0.22      0.00 
    0   -9    8      2.62      0.00 
    3   -8    8      1.53      0.00 
    7   -5    8     -2.11      0.00 
   -8    0    8     -0.49      0.00 
   -7    3    8      0.26      0.00 
   -5    6    8      0.09      0.00 
   -4    7    8     -2.97      0.00 
   -4   -8    9     -0.54      0.00 
   -7   -5    9      1.35      0.00 
   10    1    9     -1.25      0.00 
   10    6    9      1.23      0.00 
    9    8    9     -0.17      0.00 
    8    9    9     -0.60      0.00 
    2   10    9      0.14      0.00 
    6   10    9     -0.06      0.00 
   -4   -7   10      1.66      0.00 
   -6    2   10     -0.69      0.00 
   -5    4   10     -2.05      0.00 
    9    7   10      0.76      0.00 
    8   -1   11      0.36      0.00 
    9    5   11     -1.58      0.00 
    7    8   11     -0.49      0.00 
    8    1   12      1.71      0.00 
   -3    4   12     -1.26      0.00 
    3    8   12     -0.86      0.00 
    4    8   12      0.10      0.00 
   -1   -4   13     -2.58      0.00 
    2   -4   13     -0.61      0.00 
    4   -3   13     -2.43      0.00 
   -3   -2   13     -2.39      0.00 
    6   -1   13      1.83      0.00 
    7    1   13      0.89      0.00 
    6    6   13      0.38      0.00 
    0   -2   14      0.79      0.00 
   -1   -1   14     -0.99      0.00 
    4   -1   14     -0.30      0.00 
   -1    2   14     -1.03      0.00 
    5    4   14     -1.13      0.00 
    3    5   14     -0.80      0.00 
    0    0    0      0.00      0.00 
# SQUEEZE RESULTS (Version =  70515) 
# Note: Data are Listed for all Voids in the P1 Unit Cell 
# i.e. Centre of Gravity, Solvent Accessible Volume, 
# Recovered number of Electrons in the Void and 
# Details about the Squeezed Material 
loop_ 
  _platon_squeeze_void_nr 
  _platon_squeeze_void_average_x 
  _platon_squeeze_void_average_y 
  _platon_squeeze_void_average_z 
  _platon_squeeze_void_volume 
  _platon_squeeze_void_count_electrons 
  _platon_squeeze_void_content 
   1  0.500  1.000  0.500        98        41 ' ' 
# Missing Reflections Below sin(th)/lambda = 0.25 
loop_ 
  _platon_missing_refln_index_h 
  _platon_missing_refln_index_k 
  _platon_missing_refln_index_l 
  _platon_missing_refln_theta 
   -1    1    2     5.537 
   -1    1    3     6.985 
_platon_squeeze_void_probe_radius                  1.20 
_platon_squeeze_details 
) 
TITL gm01 in P-1 
CELL    8.8713    9.1631   11.2812     83.14     78.69     71.59 
SPGR P-1 
# Solvent Accessible Volume =     102.4 
# Electrons Found in S.A.V. =      41.0 
# Note: Atoms in Void as Cxxx and Qxxx all others 
C101 0.591 0.128 0.492 !      30.43 eA-3 
C102 0.439 0.097 0.448 !       5.03 eA-3 
Q103 0.493 0.884 0.407 !       1.34 eA-3 
C104 0.621 0.159 0.402 !       1.34 eA-3 
C105 0.417 1.001 0.437 !       1.29 eA-3 
C106 0.590 1.004 0.455 !       1.28 eA-3 
C107 0.384 0.936 0.407 !       1.25 eA-3 
C108 0.500 0.780 0.468 !       1.24 eA-3 
C109 0.473 0.971 0.461 !       1.09 eA-3 
C110 0.569 0.221 0.431 !       1.08 eA-3 
C111 0.718 0.060 0.451 !       1.03 eA-3 
C112 0.314 1.001 0.464 !       1.03 eA-3 
C113 0.395 0.813 0.423 !       0.82 eA-3 
C114 0.440 0.024 0.387 !       0.75 eA-3 
Q115 0.284 0.876 0.488 !       0.74 eA-3 
Q116 0.676 0.193 0.464 !       0.68 eA-3 
C117 0.393 0.189 0.455 !       0.66 eA-3 
C118 0.309 0.878 0.438 !       0.65 eA-3 
C119 0.438 0.125 0.355 !       0.61 eA-3 
Q120 0.806 0.963 0.471 !       0.53 eA-3 
Q121 0.309 0.033 0.376 !       0.52 eA-3 
Q122 0.521 0.081 0.359 !       0.51 eA-3 
) 
;
_shelx_fab_checksum              39474
_platon_squeeze_void_probe_radius 1.20
loop_
_space_group_symop_operation_xyz
'x, y, z'
'-x, -y, -z'
loop_
_atom_site_label
_atom_site_type_symbol
_atom_site_fract_x
_atom_site_fract_y
_atom_site_fract_z
_atom_site_U_iso_or_equiv
_atom_site_adp_type
_atom_site_occupancy
_atom_site_site_symmetry_order
_atom_site_calc_flag
_atom_site_refinement_flags_posn
_atom_site_refinement_flags_adp
N1 N 0.6593(2) 0.59364(19) 0.27860(17) 0.0196(4) Uani 1 1 d . .
O1 O 0.4626(2) 0.83537(17) 0.14819(17) 0.0320(4) Uani 1 1 d . .
C1 C 0.7016(3) 0.7296(2) 0.24311(19) 0.0182(5) Uani 1 1 d . .
C2 C 0.8383(3) 0.7524(3) 0.2705(2) 0.0222(5) Uani 1 1 d . .
H2 H 0.9085 0.6729 0.3135 0.027 Uiso 1 1 calc R U
C3 C 0.8730(3) 0.8902(3) 0.2356(2) 0.0272(5) Uani 1 1 d . .
H3 H 0.9669 0.9040 0.2550 0.033 Uiso 1 1 calc R U
C4 C 0.7728(3) 1.0074(3) 0.1732(2) 0.0270(6) Uani 1 1 d . .
H4 H 0.7971 1.1017 0.1499 0.032 Uiso 1 1 calc R U
C5 C 0.6359(3) 0.9864(2) 0.1445(2) 0.0237(5) Uani 1 1 d . .
H5 H 0.5660 1.0666 0.1017 0.028 Uiso 1 1 calc R U
C6 C 0.6018(3) 0.8490(2) 0.1783(2) 0.0211(5) Uani 1 1 d . .
C7 C 0.4389(3) 0.6910(2) 0.1653(2) 0.0214(5) Uani 1 1 d . .
C8 C 0.3127(3) 0.6743(3) 0.1192(2) 0.0256(5) Uani 1 1 d . .
H8 H 0.2490 0.7584 0.0752 0.031 Uiso 1 1 calc R U
C9 C 0.2788(3) 0.5348(3) 0.1372(2) 0.0281(6) Uani 1 1 d . .
H9 H 0.1907 0.5235 0.1069 0.034 Uiso 1 1 calc R U
C10 C 0.3740(3) 0.4122(3) 0.1995(2) 0.0254(5) Uani 1 1 d . .
H10 H 0.3515 0.3162 0.2113 0.030 Uiso 1 1 calc R U
C11 C 0.5026(3) 0.4285(2) 0.2450(2) 0.0208(5) Uani 1 1 d . .
H11 H 0.5682 0.3431 0.2865 0.025 Uiso 1 1 calc R U
C12 C 0.5354(3) 0.5691(2) 0.23008(19) 0.0178(5) Uani 1 1 d . .
C13 C 0.7645(3) 0.4684(2) 0.3414(2) 0.0184(5) Uani 1 1 d . .
C14 C 0.7385(3) 0.4571(2) 0.4651(2) 0.0219(5) Uani 1 1 d . .
H14 H 0.6506 0.5305 0.5090 0.026 Uiso 1 1 calc R U
C15 C 0.8427(3) 0.3356(3) 0.5281(2) 0.0260(5) Uani 1 1 d . .
H15 H 0.8253 0.3287 0.6141 0.031 Uiso 1 1 calc R U
C16 C 0.9680(3) 0.2286(3) 0.4653(2) 0.0245(5) Uani 1 1 d . .
H16 H 1.0363 0.1474 0.5084 0.029 Uiso 1 1 calc R U
C17 C 0.9978(3) 0.2366(2) 0.3362(2) 0.0190(5) Uani 1 1 d . .
C18 C 1.1261(3) 0.1279(2) 0.2679(2) 0.0223(5) Uani 1 1 d . .
H18 H 1.1955 0.0450 0.3089 0.027 Uiso 1 1 calc R U
C19 C 1.1520(3) 0.1396(2) 0.1442(2) 0.0230(5) Uani 1 1 d . .
H19 H 1.2390 0.0655 0.1001 0.028 Uiso 1 1 calc R U
C20 C 1.0497(3) 0.2618(2) 0.0816(2) 0.0219(5) Uani 1 1 d . .
H20 H 1.0682 0.2692 -0.0045 0.026 Uiso 1 1 calc R U
C21 C 0.9246(3) 0.3692(2) 0.1437(2) 0.0194(5) Uani 1 1 d . .
H21 H 0.8569 0.4509 0.1005 0.023 Uiso 1 1 calc R U
C22 C 0.8944(3) 0.3600(2) 0.2728(2) 0.0173(5) Uani 1 1 d . .
loop_
_atom_site_aniso_label
_atom_site_aniso_U_11
_atom_site_aniso_U_22
_atom_site_aniso_U_33
_atom_site_aniso_U_23
_atom_site_aniso_U_13
_atom_site_aniso_U_12
N1 0.0172(10) 0.0174(9) 0.0236(10) 0.0017(8) -0.0083(8) -0.0027(8)
O1 0.0224(10) 0.0207(8) 0.0527(12) 0.0111(8) -0.0173(9) -0.0043(7)
C1 0.0192(12) 0.0186(10) 0.0145(11) -0.0026(9) 0.0007(9) -0.0039(9)
C2 0.0243(13) 0.0266(12) 0.0174(11) -0.0008(9) -0.0065(10) -0.0082(10)
C3 0.0301(15) 0.0334(13) 0.0233(13) -0.0024(10) -0.0051(11) -0.0162(11)
C4 0.0354(15) 0.0217(11) 0.0248(13) -0.0026(10) 0.0013(11) -0.0131(11)
C5 0.0251(14) 0.0176(11) 0.0209(12) -0.0002(9) 0.0023(10) -0.0001(10)
C6 0.0165(12) 0.0209(11) 0.0233(12) -0.0028(9) -0.0014(10) -0.0028(9)
C7 0.0188(13) 0.0205(11) 0.0221(12) 0.0013(9) -0.0021(10) -0.0039(9)
C8 0.0188(13) 0.0325(13) 0.0231(13) 0.0065(10) -0.0078(10) -0.0046(10)
C9 0.0216(14) 0.0437(14) 0.0230(13) -0.0019(11) -0.0083(11) -0.0127(11)
C10 0.0267(14) 0.0266(12) 0.0251(13) -0.0028(10) -0.0034(11) -0.0114(10)
C11 0.0201(13) 0.0190(10) 0.0214(12) -0.0009(9) -0.0047(10) -0.0028(9)
C12 0.0150(12) 0.0216(11) 0.0151(11) -0.0018(9) -0.0017(9) -0.0033(9)
C13 0.0164(12) 0.0175(10) 0.0221(12) 0.0015(9) -0.0074(9) -0.0045(9)
C14 0.0196(13) 0.0241(11) 0.0201(12) -0.0043(9) -0.0026(10) -0.0031(10)
C15 0.0259(14) 0.0348(13) 0.0169(12) 0.0008(10) -0.0060(10) -0.0079(11)
C16 0.0219(13) 0.0292(12) 0.0214(12) 0.0034(10) -0.0094(10) -0.0046(10)
C17 0.0156(12) 0.0196(11) 0.0236(12) 0.0019(9) -0.0078(10) -0.0061(9)
C18 0.0193(13) 0.0191(11) 0.0283(13) 0.0020(9) -0.0084(10) -0.0038(10)
C19 0.0173(13) 0.0228(11) 0.0275(13) -0.0073(10) -0.0027(10) -0.0026(9)
C20 0.0252(14) 0.0240(11) 0.0173(11) -0.0039(9) -0.0024(10) -0.0081(10)
C21 0.0195(12) 0.0202(11) 0.0196(12) 0.0015(9) -0.0068(9) -0.0064(9)
C22 0.0164(12) 0.0172(10) 0.0205(11) -0.0003(9) -0.0059(9) -0.0069(9)
loop_
_atom_type_symbol
_atom_type_description
_atom_type_scat_dispersion_real
_atom_type_scat_dispersion_imag
_atom_type_scat_source
C C 0.0033 0.0016 'International Tables Vol C Tables 4.2.6.8 and 6.1.1.4'
H H 0.0000 0.0000 'International Tables Vol C Tables 4.2.6.8 and 6.1.1.4'
N N 0.0061 0.0033 'International Tables Vol C Tables 4.2.6.8 and 6.1.1.4'
O O 0.0106 0.0060 'International Tables Vol C Tables 4.2.6.8 and 6.1.1.4'
loop_
_geom_angle_atom_site_label_1
_geom_angle_atom_site_label_2
_geom_angle_atom_site_label_3
_geom_angle
C1 N1 C12 118.99(17)
C1 N1 C13 119.37(17)
C12 N1 C13 120.20(16)
C6 O1 C7 117.86(16)
C2 C1 C6 118.03(19)
C2 C1 N1 122.80(19)
C6 C1 N1 119.17(19)
C3 C2 C1 120.6(2)
C4 C3 C2 120.8(2)
C3 C4 C5 119.4(2)
C6 C5 C4 119.9(2)
C5 C6 O1 117.30(19)
C5 C6 C1 121.2(2)
O1 C6 C1 121.44(19)
C8 C7 O1 117.07(19)
C8 C7 C12 121.4(2)
O1 C7 C12 121.50(19)
C7 C8 C9 119.9(2)
C10 C9 C8 119.6(2)
C9 C10 C11 120.4(2)
C12 C11 C10 120.5(2)
C11 C12 C7 118.12(19)
C11 C12 N1 122.76(18)
C7 C12 N1 119.12(18)
C14 C13 C22 121.46(19)
C14 C13 N1 119.5(2)
C22 C13 N1 119.06(19)
C13 C14 C15 120.0(2)
C16 C15 C14 120.2(2)
C15 C16 C17 121.2(2)
C18 C17 C16 122.86(19)
C18 C17 C22 118.5(2)
C16 C17 C22 118.7(2)
C19 C18 C17 121.4(2)
C18 C19 C20 120.1(2)
C21 C20 C19 120.5(2)
C20 C21 C22 120.7(2)
C13 C22 C21 122.67(19)
C13 C22 C17 118.47(19)
C21 C22 C17 118.9(2)
loop_
_geom_bond_atom_site_label_1
_geom_bond_atom_site_label_2
_geom_bond_distance
N1 C1 1.404(3)
N1 C12 1.407(3)
N1 C13 1.442(3)
O1 C6 1.389(3)
O1 C7 1.390(3)
C1 C2 1.390(3)
C1 C6 1.403(3)
C2 C3 1.387(3)
C3 C4 1.379(3)
C4 C5 1.390(3)
C5 C6 1.379(3)
C7 C8 1.379(3)
C7 C12 1.400(3)
C8 C9 1.386(3)
C9 C10 1.383(3)
C10 C11 1.394(3)
C11 C12 1.392(3)
C13 C14 1.365(3)
C13 C22 1.422(3)
C14 C15 1.421(3)
C15 C16 1.366(3)
C16 C17 1.425(3)
C17 C18 1.416(3)
C17 C22 1.429(3)
C18 C19 1.366(3)
C19 C20 1.413(3)
C20 C21 1.365(3)
C21 C22 1.425(3)
loop_
_platon_squeeze_void_nr
_platon_squeeze_void_average_x
_platon_squeeze_void_average_y
_platon_squeeze_void_average_z
_platon_squeeze_void_volume
_platon_squeeze_void_count_electrons
_platon_squeeze_void_content
1 0.500 1.000 0.500 98 41 ' '
