#------------------------------------------------------------------------------
#$Date: 2019-11-25 13:33:46 +0200 (Mon, 25 Nov 2019) $
#$Revision: 240981 $
#$URL: file:///home/coder/svn-repositories/cod/cif/4/13/05/4130581.cif $
#------------------------------------------------------------------------------
#
# This file is available in the Crystallography Open Database (COD),
# http://www.crystallography.net/
#
# All data on this site have been placed in the public domain by the
# contributors.
#
data_4130581
loop_
_publ_author_name
'Cao, Jing'
'Jing, Xiaojing'
'Yan, Juanzhu'
'Hu, Chengyi'
'Chen, Ruihao'
'Yin, Jun'
'Li, Jing'
'Zheng, Nanfeng'
_publ_section_title
;
 Identifying the Molecular Structures of Intermediates for Optimizing the
 Fabrication of High-Quality Perovskite Films.
;
_journal_issue                   31
_journal_name_full               'Journal of the American Chemical Society'
_journal_page_first              9919
_journal_page_last               9926
_journal_paper_doi               10.1021/jacs.6b04924
_journal_volume                  138
_journal_year                    2016
_chemical_formula_moiety         '0.5(C4 H12 I4 O4 Pb2 S2)'
_chemical_formula_sum            'C2 H6 I2 O2 Pb S'
_chemical_formula_weight         555.12
_space_group_crystal_system      orthorhombic
_space_group_IT_number           62
_space_group_name_Hall           '-P 2c 2n'
_space_group_name_H-M_alt        'P n a m'
_atom_sites_solution_hydrogens   geom
_audit_creation_date             2015-08-24
_audit_creation_method
;
Olex2 1.2
(compiled 2015.01.06 svn.r3119 for OlexSys, GUI svn.r4979)
;
_cell_angle_alpha                90
_cell_angle_beta                 90
_cell_angle_gamma                90
_cell_formula_units_Z            4
_cell_length_a                   17.796(3)
_cell_length_b                   11.1352(17)
_cell_length_c                   4.5144(6)
_cell_measurement_reflns_used    722
_cell_measurement_temperature    99.97(11)
_cell_measurement_theta_max      26.9660
_cell_measurement_theta_min      3.6460
_cell_volume                     894.6(2)
_computing_cell_refinement
;
CrysAlisPro, Agilent Technologies,
Version 1.171.37.35 (release 13-08-2014 CrysAlis171 .NET)
(compiled Aug 13 2014,18:06:01)
;
_computing_data_collection
;
CrysAlisPro, Agilent Technologies,
Version 1.171.37.35 (release 13-08-2014 CrysAlis171 .NET)
(compiled Aug 13 2014,18:06:01)
;
_computing_data_reduction
;
CrysAlisPro, Agilent Technologies,
Version 1.171.37.35 (release 13-08-2014 CrysAlis171 .NET)
(compiled Aug 13 2014,18:06:01)
;
_computing_molecular_graphics    'Olex2 (Dolomanov et al., 2009)'
_computing_publication_material  'Olex2 (Dolomanov et al., 2009)'
_computing_structure_refinement  'ShelXL (Sheldrick, 2008)'
_diffrn_ambient_environment      N~2~
_diffrn_ambient_temperature      99.97(11)
_diffrn_detector                 'CCD plate'
_diffrn_detector_area_resol_mean 10.4741
_diffrn_detector_type            Atlas
_diffrn_measured_fraction_theta_full 0.996
_diffrn_measured_fraction_theta_max 0.997
_diffrn_measurement_details
;
#__ type_ start__ end____ width___ exp.time_
  1 omega  -83.00    6.00   1.0000    8.5000
omega____ theta____ kappa____ phi______ frames
    -      -12.5867  -38.0000  -60.0000 89

#__ type_ start__ end____ width___ exp.time_
  2 omega  -35.00   63.00   1.0000    8.5000
omega____ theta____ kappa____ phi______ frames
    -      -12.5867   19.0000  120.0000 98
;
_diffrn_measurement_device       'four-circle diffractometer'
_diffrn_measurement_device_type  'SuperNova, Dual, Cu at zero, Atlas'
_diffrn_measurement_method       '\w scans'
_diffrn_orient_matrix_UB_11      0.0327274000
_diffrn_orient_matrix_UB_12      0.0144616000
_diffrn_orient_matrix_UB_13      0.0818428000
_diffrn_orient_matrix_UB_21      0.0193117000
_diffrn_orient_matrix_UB_22      0.0133836000
_diffrn_orient_matrix_UB_23      -0.1337488000
_diffrn_orient_matrix_UB_31      -0.0120449000
_diffrn_orient_matrix_UB_32      0.0605654000
_diffrn_orient_matrix_UB_33      0.0099871000
_diffrn_radiation_monochromator  mirror
_diffrn_radiation_probe          x-ray
_diffrn_radiation_type           MoK\a
_diffrn_radiation_wavelength     0.710
_diffrn_reflns_av_R_equivalents  0.1243
_diffrn_reflns_av_unetI/netI     0.1295
_diffrn_reflns_Laue_measured_fraction_full 0.996
_diffrn_reflns_Laue_measured_fraction_max 0.997
_diffrn_reflns_limit_h_max       22
_diffrn_reflns_limit_h_min       -23
_diffrn_reflns_limit_k_max       13
_diffrn_reflns_limit_k_min       -14
_diffrn_reflns_limit_l_max       3
_diffrn_reflns_limit_l_min       -5
_diffrn_reflns_number            4266
_diffrn_reflns_point_group_measured_fraction_full 0.996
_diffrn_reflns_point_group_measured_fraction_max 0.997
_diffrn_reflns_theta_full        25.214
_diffrn_reflns_theta_max         27.452
_diffrn_reflns_theta_min         3.656
_diffrn_source                   'SuperNova (Mo) X-ray Source'
_exptl_absorpt_coefficient_mu    25.927
_exptl_absorpt_correction_T_max  1.00000
_exptl_absorpt_correction_T_min  0.36251
_exptl_absorpt_correction_type   multi-scan
_exptl_absorpt_process_details
;
CrysAlisPro, Agilent Technologies,
Version 1.171.37.35 (release 13-08-2014 CrysAlis171 .NET)
(compiled Aug 13 2014,18:06:01)
Empirical absorption correction using spherical harmonics,
 implemented in SCALE3 ABSPACK scaling algorithm.
;
_exptl_crystal_density_diffrn    4.122
_exptl_crystal_description
;
;
_exptl_crystal_F_000             952
_refine_diff_density_max         2.938
_refine_diff_density_min         -2.337
_refine_diff_density_rms         0.570
_refine_ls_extinction_method     none
_refine_ls_goodness_of_fit_ref   1.102
_refine_ls_hydrogen_treatment    constr
_refine_ls_matrix_type           full
_refine_ls_number_parameters     48
_refine_ls_number_reflns         1155
_refine_ls_number_restraints     12
_refine_ls_restrained_S_all      1.098
_refine_ls_R_factor_all          0.1052
_refine_ls_R_factor_gt           0.0617
_refine_ls_shift/su_max          0.994
_refine_ls_shift/su_mean         0.024
_refine_ls_structure_factor_coef Fsqd
_refine_ls_weighting_details
;
 w=1/[\s^2^(Fo^2^)+(0.0238P)^2^]
 where P=(Fo^2^+2Fc^2^)/3
;
_refine_ls_weighting_scheme      calc
_refine_ls_wR_factor_gt          0.1171
_refine_ls_wR_factor_ref         0.1406
_reflns_Friedel_coverage         0.000
_reflns_number_gt                765
_reflns_number_total             1155
_reflns_threshold_expression     'I > 2\s(I)'
_cod_data_source_file            ja6b04924_si_005.cif
_cod_data_source_block           jxj-1-150823-pbi2.dmso-2
_cod_database_code               4130581
_shelxl_version_number           2013-2
_shelx_space_group_comment
;
The symmetry employed for this shelxl refinement is uniquely defined
by the following loop, which should always be used as a source of
symmetry information in preference to the above space-group names.
They are only intended as comments.
;
_reflns_odcompleteness_completeness 99.52
_reflns_odcompleteness_iscentric 1
_reflns_odcompleteness_theta     27.42
_olex2_refinement_description
;
1. Fixed Uiso
 At 1.5 times of:
  All C(H,H,H) groups
2. Uiso/Uaniso restraints and constraints
Uanis(C2) \\sim Ueq, Uanis(O9) \\sim Ueq: with sigma of 0.01 and sigma for
terminal atoms of 0.02
3. Others
 Fixed Sof: H2A(0.5) H2B(0.5) H2C(0.5) H3A(0.5) H3B(0.5) H3C(0.5)
4.a Idealised Me refined as rotating group:
 C2(H2A,H2B,H2C), C3(H3A,H3B,H3C)
;
_shelx_res_file
;
TITL JXJ-1-150823-PbI2 in Pna2(1)
CELL 0.71 17.795881 11.135157 4.514374 90 90 90
ZERR 4 0.003184 0.001683 0.000613 0 0 0
LATT 1
SYMM -X,-Y,0.5+Z
SYMM 0.5+X,0.5-Y,0.5-Z
SYMM 0.5-X,0.5+Y,-Z
SFAC C H I O Pb S
UNIT 8 24 8 8 4 4
ISOR 0.01 0.02 C2 O9

L.S. 10 0 0
PLAN  20
TEMP -100
fmap 2 53
acta
SHEL 999 0.77
REM <olex2.extras>
REM <HklSrc "%.\\JXJ-1-150823-PbI2.DMSO-2.hkl">
REM </olex2.extras>

WGHT    0.023800
FVAR       0.54022
PB1   5    0.040260    0.316928    0.750000    10.50000    0.02140    0.02126 =
         0.00984    0.00000    0.00000   -0.00469
I3    3   -0.033767    0.159271    1.250000    10.50000    0.02011    0.01895 =
         0.00930    0.00000    0.00000   -0.00332
I6    3    0.109002    0.507365    0.250000    10.50000    0.02361    0.01770 =
         0.01488    0.00000    0.00000   -0.00360
S1    6    0.172232    0.189278    0.250000    10.50000    0.02321    0.02922 =
         0.02173    0.00000    0.00000   -0.00026
O9    4    0.153552    0.199500    0.605354    11.00000    0.16299    0.17136 =
         0.16629    0.00054   -0.00453   -0.00033
C2    1    0.185165    0.034561    0.250000    10.50000    0.01802    0.05658 =
         0.03309    0.00000    0.00000   -0.00497
PART -1
AFIX 137
H2A   2    0.147404   -0.003099    0.377825    10.50000   -1.50000
H2B   2    0.235526    0.015716    0.324516    10.50000   -1.50000
H2C   2    0.179857    0.003830    0.047658    10.50000   -1.50000
AFIX   0
PART 0
C3    1    0.260490    0.238953    0.250000    10.50000    0.04343    0.03907 =
         0.02007    0.00000    0.00000    0.01216
PART -1
AFIX 137
H3A   2    0.262063    0.320127    0.333649    10.50000   -1.50000
H3B   2    0.279569    0.240685    0.046406    10.50000   -1.50000
H3C   2    0.291778    0.185282    0.369944    10.50000   -1.50000
AFIX   0
HKLF 4

REM  JXJ-1-150823-PbI2 in Pna2(1)
REM R1 =  0.0617 for     765 Fo > 4sig(Fo)  and  0.1052 for all    1155 data
REM     48 parameters refined using     12 restraints

END

WGHT      0.0231      0.0000

REM Highest difference peak  2.938,  deepest hole -2.337,  1-sigma level  0.570
Q1    1   0.2406  0.0740 -0.2500  10.50000  0.05    2.41
Q2    1  -0.0630  0.3368  1.2500  10.50000  0.05    2.30
Q3    1  -0.0399  0.2616  1.2500  10.50000  0.05    2.27
Q4    1   0.0412  0.4957  0.3745  11.00000  0.05    2.20
Q5    1   0.3215  0.1674  0.2500  10.50000  0.05    2.18
Q6    1   0.1001 -0.1188  0.2500  10.50000  0.05    2.02
Q7    1   0.0761  0.1945  0.7500  10.50000  0.05    2.02
Q8    1   0.1015  0.0220  0.2500  10.50000  0.05    1.99
Q9    1   0.2326  0.1597  0.2500  10.50000  0.05    1.92
Q10   1   0.0604  0.0792  0.2500  10.50000  0.05    1.86
Q11   1  -0.0389  0.1432  1.1730  11.00000  0.05    1.83
Q12   1   0.1035  0.6203  0.3670  11.00000  0.05    1.79
Q13   1   0.0220  0.5079  0.7500  10.50000  0.05    1.76
Q14   1   0.2809  0.0998  0.2500  10.50000  0.05    1.76
Q15   1   0.3186 -0.0189  0.4769  11.00000  0.05    1.74
Q16   1   0.1168  0.0998  0.7500  10.50000  0.05    1.71
Q17   1   0.0042  0.1994  1.2500  10.50000  0.05    1.70
Q18   1   0.1820  0.1103  0.2500  10.50000  0.05    1.70
Q19   1   0.1202 -0.0168  0.2500  10.50000  0.05    1.68
Q20   1  -0.1350  0.1165  1.2500  10.50000  0.05    1.68
;
_shelx_res_checksum              98873
_shelx_hkl_file
;
   0   0  -5 744.081 501.670   2
   0   0  -4 49447.9 3920.02   1
   0   0  -4 45368.0 3508.30   2
   0   0   1 834.986 250.565   1
   0   0   2 116567. 4165.59   1
   0   0   3 1365.86 555.002   1
   0   1  -5 270.286 178.888   2
   0  -1  -5 420.341 413.409   2
   0   1  -4 166.521 159.349   2
   0  -1  -4 84.5562 99.4576   1
   0   1   1 1025.13 270.984   1
   0  -1   1 1337.45 298.002   1
   0  -1   2 108.033 103.106   1
   0   1   2 113.735 162.825   1
   0   1   3 1004.16 495.123   1
   0  -1   3 886.399 434.847   1
   0  -2  -5 234.509 297.466   2
   0   2  -5 383.216 367.639   2
   0  -2  -5 166.752 103.137   1
   0   2  -4 1944.93 720.341   2
   0  -2  -4 1527.88 661.587   1
   0  -2  -3 151.293 224.481   1
   0   2  -3-203.014 197.810   2
   0  -2   0 5311.87 430.819   2
   0   2   1 69.1867 73.3420   1
   0  -2   2 3334.88 681.816   1
   0   2   2 3064.09 691.800   1
   0   2   3-48.5504 119.171   1
   0  -2   3-277.644 247.411   1
   0   3  -5 687.021 491.511   2
   0  -3  -5 396.278 495.041   1
   0  -3  -4 92.8269 170.699   1
   0   3  -4-0.89753 166.246   2
   0   3  -3 343.985 258.872   2
   0  -3  -3 347.800 258.834   1
   0   3  -1 1341.61 311.500   2
   0  -3   0-10.3543 26.9287   2
   0   3   0 36.9356 34.6860   2
   0   3   1 1392.11 367.922   1
   0  -3   1 1514.56 340.825   2
   0   3   2 1.06398 104.006   1
   0  -3   2-19.0113 79.9407   1
   0   3   3 414.241 303.406   1
   0  -3   3 345.598 225.054   1
   0   4  -5 423.814 384.315   2
   0  -4  -5-453.304 451.029   1
   0   4  -4 338.869 278.372   2
   0  -4  -4 356.405 343.497   1
   0   4  -3-10.6779 146.903   2
   0  -4  -3 224.588 270.960   1
   0  -4  -2 166.541 233.783   1
   0   4  -1-38.0295 63.7368   2
   0  -4  -1-74.9377 151.370   1
   0   4   0 913.838 275.556   2
   0  -4   0 1338.10 281.708   2
   0  -4   1 81.7602 62.7318   2
   0   4   1 86.4552 112.440   1
   0   4   2 406.013 261.104   1
   0  -4   2 110.087 137.674   1
   0  -4   3 87.0814 118.410   1
   0   5  -5 360.147 356.585   2
   0  -5  -5-467.319 466.510   1
   0  -5  -4-270.555 308.151   1
   0   5  -4 268.776 81.8527   2
   0   5  -3 349.926 264.437   2
   0  -5  -3 735.522 448.320   1
   0  -5  -2 66.0908 81.7998   1
   0  -5  -1 817.924 349.122   1
   0  -5  -1 703.155 227.048   2
   0   5  -1 697.643 257.796   2
   0   5   0 14.2546 64.8573   2
   0  -5   0-8.99049 46.6276   2
   0   5   1 709.298 303.458   1
   0  -5   1 1031.08 326.311   2
   0   5   2 3.17842 24.6592   1
   0  -5   3 439.569 322.532   1
   0  -6  -5 1340.42 851.159   1
   0   6  -5 670.598 488.565   2
   0  -6  -4 23885.0 3030.75   1
   0   6  -4 23305.9 2572.56   2
   0   6  -3 540.418 328.601   2
   0  -6  -3 808.564 585.226   1
   0  -6  -2 43734.0 3054.65   1
   0   6  -1 340.926 189.566   2
   0  -6  -1 103.608 114.548   2
   0  -6  -1 206.452 173.879   1
   0  -6   0 60792.2 2213.90   2
   0   6   0 58961.9 2318.67   2
   0  -6   1 204.512 146.938   2
   0   6   2 43992.4 3094.08   1
   0   7  -5 1866.03 825.185   2
   0  -7  -5 806.560 615.234   1
   0   7  -4-201.243 237.545   2
   0  -7  -4 256.396 317.713   1
   0   7  -3 3861.37 918.022   2
   0  -7  -3 3191.21 1011.35   1
   0  -7  -2-76.0971 55.8675   1
   0   7  -2 52.9713 90.9897   2
   0  -7  -1 4635.99 792.648   2
   0   7  -1 4407.48 737.360   2
   0  -7  -1 4477.90 913.399   1
   0   7   0 17.6588 68.8839   2
   0  -7   0-43.5768 109.791   2
   0  -7   1 4807.23 755.281   2
   0   7   2 90.4948 144.522   1
   0   8  -5-350.105 362.970   2
   0  -8  -5 159.824 280.080   1
   0  -8  -4 1600.35 828.056   1
   0   8  -4 942.893 478.649   2
   0  -8  -3-116.708 192.172   1
   0   8  -3-9.51687 219.235   2
   0   8  -2 2792.15 702.205   2
   0  -8  -2 2535.27 793.769   1
   0  -8  -2 3102.04 669.124   2
   0  -8  -1-110.591 150.735   1
   0  -8  -1-36.7164 66.5325   2
   0   8   0 3573.08 600.593   2
   0  -8   0 3444.00 589.906   2
   0  -8   0 3489.48 879.869   1
   0  -8   1 182.974 156.354   2
   0   9  -5 1252.71 703.442   2
   0   9  -4 290.628 295.558   2
   0  -9  -4 199.471 292.461   1
   0   9  -3 1920.01 652.391   2
   0  -9  -3 2836.38 984.397   1
   0  -9  -2 105.711 136.312   2
   0   9  -2 190.974 206.404   2
   0  -9  -2 171.284 212.790   1
   0  -9  -1 3256.01 877.230   1
   0  -9  -1 4385.43 824.523   2
   0  -9   0-146.764 124.088   2
   0  -9   0-189.446 205.008   1
   0  -9   1 4755.39 820.621   2
   0  10  -4 1114.79 599.120   2
   0 -10  -4 808.418 604.078   1
   0 -10  -3 228.057 284.784   1
   0  10  -3-89.6792 151.109   2
   0 -10  -2 1636.47 692.626   1
   0  10  -2 1496.77 564.746   2
   0 -10  -2 2152.66 702.853   2
   0 -10  -1 27.8370 85.3687   1
   0 -10  -1 3.75822 23.0510   2
   0 -10   0 2727.20 813.228   1
   0 -10   0 2029.85 483.915   2
   0 -10   1 97.1250 121.917   2
   0 -11  -4-467.875 473.378   1
   0  11  -4 641.971 460.457   2
   0  11  -3 2132.41 770.349   2
   0 -11  -3 2238.22 975.818   1
   0  11  -2 446.564 344.738   2
   0 -11  -2 59.3945 138.937   1
   0  11  -1 4739.60 949.610   2
   0 -11  -1 4313.15 1122.79   1
   0 -11   0 150.566 70.7732   1
   0 -11   0 272.305 215.107   2
   0 -11   1 4593.44 879.351   2
   0 -12  -4 2937.65 1282.55   1
   0  12  -4 2974.23 1056.07   2
   0  12  -3 32.6779 103.501   2
   0 -12  -3 431.440 388.553   1
   0 -12  -2 5552.48 1424.21   1
   0  12  -2 6280.85 1411.58   2
   0 -12  -1 383.504 355.621   1
   0  12  -1-120.421 146.624   2
   0 -12   0 5488.17 1258.44   1
   0 -13  -3 235.607 332.623   1
   0 -13  -2 972.105 628.054   1
   0 -13  -1 1111.34 639.116   1
   0 -13   0 24.8400 130.716   1
   0 -13   1 925.153 500.955   1
   0 -14  -2-1277.10 762.164   1
   0 -14  -1-701.894 538.658   1
   0 -14   0 176.018 248.496   1
  -1   0  -5-268.683 312.133   2
   1   0  -5-256.974 304.034   2
   1   0  -4 56.6299 166.256   2
  -1   0  -4 258.082 341.231   1
  -1   0   1 52.6495 77.0796   1
   1   0   1 16.3091 19.6480   1
   1   0   2-11.3756 69.2855   1
  -1   0   2-36.5164 107.746   1
   1   0   3 121.725 66.9068   1
  -1   0   3-26.2284 92.0150   1
   1   1  -5 716.390 475.440   2
   1  -1  -5 136.845 281.708   2
  -1   1  -5-44.9885 126.608   2
  -1  -1  -5-121.921 224.200   1
  -1  -1  -5 243.807 441.415   2
  -1   1  -4 2705.37 836.245   2
   1  -1  -4 1810.55 754.550   1
   1   1  -4 1360.04 596.345   2
  -1  -1  -4 2266.62 801.767   1
   1  -1  -4 785.590 430.807   2
  -1   1  -3 668.772 341.275   1
   1  -1  -3 586.037 349.535   1
  -1  -1   1 1819.13 345.548   2
   1  -1   1 1324.78 300.629   1
   1   1   1 1687.87 364.801   1
  -1   1   1 2273.21 409.478   1
   1   1   2 6092.70 961.345   1
   1  -1   2 5570.85 904.754   1
  -1  -1   2 3033.06 656.830   1
  -1   1   2 3607.44 726.282   1
  -1   1   3 1110.50 478.699   1
   1   1   3 377.282 268.908   1
   1  -1   3 443.952 389.633   1
  -1  -1   3 1222.69 514.294   1
  -1  -2  -5 8524.13 1905.98   1
   1   2  -5 9254.87 1823.56   2
   1  -2  -5 9180.39 1872.18   2
  -1   2  -5 7520.45 1645.11   2
  -1  -2  -4 1434.00 654.052   1
   1   2  -4 55.3798 122.013   2
  -1   2  -4 1525.89 619.519   2
   1  -2  -4 98.5970 177.994   1
   1   2  -3 23424.1 2197.51   2
  -1  -2  -3 21507.2 2217.93   1
   1  -2  -3 22374.6 2226.59   1
  -1   2  -3 22782.2 2118.01   2
  -1  -2   0 205.000 93.3257   2
   1  -2   1 44978.8 1765.58   1
  -1   2   1 42590.8 1833.64   1
   1   2   1 46226.0 2099.64   1
  -1  -2   1 42031.9 1795.72   2
  -1   2   2 176.984 120.782   1
  -1  -2   2 249.804 197.994   1
   1   2   2 512.624 250.114   1
  -1  -2   3 22963.9 2269.09   1
  -1   2   3 23160.0 2313.13   1
   1   2   3 24176.4 2433.78   1
   1  -2   3 24012.2 2339.07   1
  -1  -3  -5 1052.99 671.460   1
   1  -3  -5 1832.37 769.883   2
   1  -3  -5 2327.21 1005.54   1
  -1   3  -5 1054.68 610.569   2
   1   3  -5 1704.28 749.498   2
   1  -3  -4 97.5579 63.0408   1
  -1  -3  -4 447.424 376.510   1
   1   3  -4 472.385 365.711   2
  -1   3  -4 856.268 476.357   2
   1  -3  -3 5874.61 1156.21   1
   1   3  -3 4960.76 1027.40   2
  -1   3  -3 3299.24 814.724   2
  -1  -3  -3 2482.34 831.230   1
   1  -3  -2 456.650 233.458   1
  -1   3  -1 5382.05 607.825   2
   1  -3  -1 7328.49 835.881   1
  -1  -3   0 2146.20 380.610   2
   1  -3   0 1934.21 230.984   2
  -1   3   0 1988.05 290.393   2
   1   3   0 1872.48 403.447   2
   1   3   1 5127.45 765.852   1
  -1  -3   1 7783.37 820.574   2
  -1   3   1 7734.80 855.237   1
   1  -3   2 891.091 367.740   1
  -1   3   2 651.969 327.175   1
  -1  -3   2 633.424 322.145   1
   1   3   2 894.304 378.021   1
  -1   3   3 5890.88 1178.18   1
  -1  -3   3 5281.00 1088.99   1
   1   3   3 3685.48 1017.70   1
   1  -3   3 2302.36 712.784   1
   1   4  -5 8462.04 1740.54   2
   1  -4  -5 8239.97 1957.03   1
   1  -4  -5 8700.66 1839.49   2
  -1   4  -5 7082.46 1587.98   2
  -1  -4  -5 8712.46 1973.31   1
  -1   4  -4 1995.78 715.757   2
  -1  -4  -4 2341.73 889.685   1
   1   4  -4 338.642 303.778   2
   1  -4  -4 165.648 324.232   1
  -1   4  -3 24175.7 2240.15   2
   1  -4  -3 21577.6 2337.61   1
   1   4  -3 21532.9 2114.60   2
  -1  -4  -3 20064.3 2333.96   1
  -1  -4  -2 2192.05 649.440   1
   1  -4  -2 1029.66 425.725   1
  -1   4  -1 36882.2 1610.94   2
  -1  -4  -1 33616.3 2095.96   1
   1   4  -1 33351.8 1754.35   2
   1  -4  -1 32708.2 1936.94   1
   1  -4   0 1132.00 213.845   2
   1   4   0 1031.01 295.697   2
  -1   4   0 1079.94 239.363   2
  -1  -4   0 759.936 242.463   2
  -1   4   1 33656.6 1929.51   1
   1   4   1 33898.5 2127.60   1
  -1  -4   1 34185.6 1817.18   2
  -1   4   2 1042.92 428.293   1
   1   4   2 2074.03 620.891   1
   1  -4   2 2273.94 586.919   1
  -1  -4   3 21273.5 2263.27   1
  -1   4   3 22775.6 2400.87   1
   1  -4   3 20446.5 2149.18   1
  -1   5  -5 371.927 361.255   2
   1   5  -5 292.416 322.127   2
  -1  -5  -5 474.997 446.235   1
   1  -5  -5 603.784 443.588   1
   1   5  -4 6631.42 1366.63   2
   1  -5  -4 6927.50 1558.45   1
  -1  -5  -4 7327.31 1646.10   1
  -1   5  -4 8300.37 1525.75   2
  -1   5  -3 93.6448 71.4463   2
   1  -5  -3-10.6960 152.292   1
   1   5  -3 291.974 268.597   2
  -1  -5  -3 68.2408 63.9917   1
   1  -5  -2 13777.6 1650.50   1
  -1  -5  -2 16380.0 1834.57   1
   1  -5  -1 231.718 179.798   1
  -1   5  -1-26.1771 39.7255   2
   1   5  -1 131.227 130.841   2
  -1  -5  -1 119.460 109.947   2
  -1  -5  -1-81.6909 109.995   1
   1  -5   0 17033.2 949.680   2
  -1  -5   0 15911.2 1192.17   2
   1   5   0 16376.6 1316.98   2
  -1   5   0 15939.1 1003.08   2
  -1  -5   1 58.3355 64.5597   2
  -1   5   1 247.003 187.383   1
   1  -5   1 82.0917 79.4080   2
  -1   5   2 14143.2 1635.12   1
   1   5   2 17289.1 1891.29   1
   1  -5   2 16066.4 1649.58   1
   1  -5   3 430.214 345.858   1
   1  -6  -5 658.726 578.266   1
   1   6  -5 1836.28 816.014   2
  -1  -6  -5 1147.00 751.230   1
  -1   6  -5 1147.29 649.098   2
  -1  -6  -4-495.288 437.337   1
   1   6  -4-80.7470 150.182   2
  -1   6  -4 318.680 309.051   2
   1  -6  -4 342.976 352.446   1
  -1  -6  -3 2724.74 890.913   1
   1   6  -3 2998.29 795.703   2
   1  -6  -3 2365.91 798.720   1
  -1   6  -3 2568.71 712.375   2
   1   6  -2 51.1122 47.6142   2
  -1  -6  -2 305.313 273.737   1
   1  -6  -2 448.564 331.837   1
   1  -6  -1 4196.20 582.737   2
  -1  -6  -1 4140.40 682.427   2
  -1  -6  -1 3939.79 838.026   1
  -1   6  -1 4533.06 651.925   2
   1  -6  -1 3504.71 722.536   1
   1   6  -1 3681.79 660.799   2
  -1   6   0 535.070 192.268   2
   1  -6   0 645.520 202.006   2
   1   6   0 763.255 315.167   2
  -1  -6   0 634.993 261.333   2
   1  -6   1 4475.90 668.454   2
  -1  -6   1 3689.01 655.010   2
  -1   6   2 293.833 287.115   1
   1   6   2 48.0549 144.018   1
   1  -7  -5 474.580 445.175   1
  -1  -7  -5 742.695 599.434   1
  -1   7  -5 357.064 356.446   2
   1   7  -5 899.459 525.237   2
  -1   7  -4-36.1575 178.798   2
   1  -7  -4 544.418 448.522   1
  -1  -7  -4 111.060 358.112   1
   1   7  -4 605.660 418.943   2
  -1  -7  -3 2739.59 912.285   1
  -1   7  -3 2417.11 700.553   2
   1  -7  -3 2751.36 899.569   1
   1   7  -3 2737.55 771.932   2
  -1  -7  -2 177.137 145.154   2
   1   7  -2 426.224 267.125   2
   1  -7  -2 130.954 125.447   1
  -1   7  -2 139.516 193.781   2
  -1  -7  -2 585.723 384.995   1
  -1  -7  -1 2471.16 716.994   1
   1  -7  -1 3437.43 626.990   2
  -1   7  -1 2953.31 566.575   2
   1  -7  -1 3129.74 725.271   1
   1   7  -1 3578.30 713.851   2
  -1  -7  -1 2725.32 631.646   2
   1  -7   0 229.963 118.688   2
  -1   7   0 192.132 121.247   2
   1   7   0 175.064 123.824   2
  -1  -7   0 159.552 122.051   2
   1  -7   0 234.559 200.202   1
   1  -7   1 3076.15 581.412   2
  -1  -7   1 3431.75 663.394   2
  -1  -7   2 311.752 253.940   2
   1   7   2 387.739 326.248   1
  -1   7   2 273.484 244.350   1
  -1   8  -5 1445.26 728.347   2
   1  -8  -5 2595.85 1136.45   1
  -1  -8  -5 2441.36 1132.53   1
   1   8  -5 2308.70 966.757   2
  -1   8  -4 248.684 221.788   2
   1   8  -4 124.023 108.359   2
  -1  -8  -4 234.974 183.695   1
   1  -8  -4 681.766 477.902   1
   1  -8  -3 6085.79 1391.03   1
  -1   8  -3 5004.43 1043.21   2
  -1  -8  -3 4688.04 1251.69   1
   1   8  -3 5322.71 1126.32   2
   1  -8  -2-297.064 262.647   1
  -1   8  -2 332.925 229.919   2
  -1  -8  -2 144.328 183.466   1
  -1  -8  -2 314.736 230.649   2
   1   8  -2 302.047 233.638   2
   1  -8  -2 153.125 135.384   2
  -1   8  -1 7686.13 1015.79   2
  -1  -8  -1 8861.37 1265.61   2
   1  -8  -1 8825.45 1096.92   2
  -1  -8  -1 7733.32 1363.80   1
   1  -8  -1 8194.30 1256.45   1
   1  -8   0 132.571 87.4361   2
  -1  -8   0-33.6074 229.699   1
   1  -8   0-133.047 157.048   1
  -1  -8   0 186.366 146.344   2
   1   8   0-74.3742 91.0072   2
   1  -8   1 8739.92 1021.89   2
  -1  -8   1 9046.71 1116.39   2
  -1  -8   2-312.484 245.146   2
  -1   8   2-329.979 283.059   1
   1  -9  -5 51.9097 161.741   1
  -1   9  -5 199.684 273.864   2
  -1   9  -4 320.416 353.061   2
   1   9  -4 780.329 494.309   2
   1  -9  -4 15.3076 80.0684   1
  -1  -9  -4 267.154 340.744   1
   1   9  -3 636.578 395.417   2
   1  -9  -3 718.664 499.910   1
  -1   9  -3 586.405 365.190   2
  -1  -9  -3 701.984 487.513   1
   1  -9  -2 837.763 372.578   2
   1   9  -2 656.230 350.540   2
   1  -9  -2 320.952 284.507   1
  -1  -9  -2 1367.37 650.022   1
  -1   9  -2 1749.89 558.869   2
  -1  -9  -2 1727.23 583.713   2
  -1  -9  -1 1153.09 455.222   2
  -1  -9  -1 1131.06 525.533   1
   1  -9  -1 1376.87 575.879   1
   1  -9  -1 1325.67 399.652   2
  -1   9  -1 1018.82 387.688   2
  -1  -9   0 1772.96 676.979   1
  -1  -9   0 1881.00 489.632   2
   1  -9   0 1491.73 363.974   2
   1  -9   0 1291.13 518.060   1
   1  -9   1 769.078 327.361   2
  -1  -9   1 1225.57 423.954   2
  -1 -10  -4 746.166 583.586   1
   1 -10  -4-46.5963 142.899   1
   1  10  -4 544.040 419.158   2
   1 -10  -3 4511.56 1263.29   1
   1  10  -3 5130.63 1177.27   2
  -1 -10  -3 2834.89 1024.37   1
  -1  10  -3 4356.38 1038.57   2
   1  10  -2 424.075 313.699   2
  -1 -10  -2 491.653 427.278   1
  -1 -10  -2 1307.79 567.192   2
   1 -10  -2 855.774 414.954   2
   1 -10  -2 51.5387 119.479   1
  -1  10  -2 911.444 425.640   2
   1 -10  -1 6207.84 848.138   2
   1 -10  -1 5272.44 1154.88   1
  -1 -10  -1 5073.64 1236.99   1
   1  10  -1 5625.55 1076.56   2
  -1 -10  -1 5581.91 987.331   2
  -1 -10   0 1325.35 418.586   2
   1 -10   0 1184.44 339.365   2
  -1 -10   0 1145.08 547.922   1
   1 -10   1 5463.32 889.719   2
  -1 -10   1 5025.58 910.688   2
   1  11  -4 4119.34 1182.37   2
   1 -11  -4 3973.29 1409.04   1
  -1 -11  -4 4016.23 1395.99   1
  -1  11  -4 3853.67 1094.01   2
  -1 -11  -3-9.15845 60.0516   1
   1  11  -3 94.7052 166.817   2
  -1 -11  -2 6849.64 1556.25   1
  -1  11  -2 7279.72 1346.56   2
   1 -11  -2 8040.58 1573.86   1
   1  11  -2 6055.55 1331.96   2
  -1 -11  -1 109.033 134.086   2
   1  11  -1 332.412 257.895   2
   1 -11  -1-206.350 238.652   1
  -1 -11  -1-7.32124 132.092   1
  -1 -11   0 7223.25 1024.08   2
  -1 -11   0 8014.28 1496.76   1
   1 -11   0 8792.79 990.448   2
   1 -11   0 8366.54 1456.58   1
  -1 -11   1 416.211 271.554   2
   1  12  -4-579.285 461.588   2
  -1 -12  -4-152.719 282.425   1
   1 -12  -4 13.3502 81.8829   1
  -1  12  -3 2036.72 794.055   2
   1  12  -3 1496.18 709.517   2
  -1 -12  -3 2435.67 1026.02   1
   1 -12  -3 2264.54 983.527   1
  -1 -12  -2 322.187 350.706   1
  -1  12  -2-456.092 365.357   2
   1  12  -2-69.6650 151.069   2
   1 -12  -2-442.702 391.411   1
   1  12  -1 3799.43 869.447   2
  -1 -12  -1 2936.99 989.222   1
   1 -12  -1 3215.44 1000.15   1
  -1 -12   0 4.75414 36.8840   1
   1 -12   0-118.911 181.626   1
  -1 -13  -3 749.973 598.861   1
   1 -13  -3 656.617 549.325   1
  -1 -13  -2 1711.83 888.453   1
   1 -13  -2 900.490 497.975   1
   1  13  -2 1391.42 683.285   2
   1  13  -1 1204.59 478.790   2
   1 -13  -1 1576.84 754.642   1
  -1 -13  -1 1282.69 681.497   1
   1 -13   0 1484.90 677.091   1
  -1 -13   0 1053.07 549.823   1
  -1 -13   1 1167.79 587.521   1
   1 -13   1 1535.74 637.480   1
  -1 -14  -2 171.503 282.398   1
  -1 -14  -1 287.525 343.388   1
  -1 -14   0-440.656 389.097   1
  -1 -14   1-239.377 279.977   1
   2   0  -5 584.446 454.797   2
  -2   0  -5 770.269 511.700   2
   2   0  -4 16061.4 2095.08   2
  -2   0  -4 19199.0 2400.47   1
  -2   0  -3 289.350 183.909   1
   2   0  -3 626.964 372.464   2
  -2   0   1 129.763 98.5663   1
  -2   0   1 122.899 103.654   2
   2   0   1 178.391 109.937   1
   2   0   2 38311.3 2379.36   1
  -2   0   2 38201.0 2335.59   1
  -2   0   3 275.727 217.800   1
   2   0   3 797.470 442.948   1
   2   1  -5 1590.93 730.729   2
  -2   1  -5 802.559 537.486   2
  -2  -1  -5 770.375 653.986   1
   2  -1  -5 1029.74 608.802   2
   2   1  -4 589.762 398.839   2
  -2  -1  -4 825.971 538.924   1
   2  -1  -4 804.334 459.290   2
  -2   1  -4 1269.71 646.429   1
  -2  -1  -3 1989.82 658.724   1
  -2   1  -3 2040.37 639.565   1
   2  -1  -3 3901.69 915.286   1
   2  -1  -3 2985.27 764.916   2
  -2   1   1 7170.91 724.774   1
   2  -1   1 3919.09 524.658   1
  -2  -1   1 6755.22 704.607   2
   2   1   1 4379.06 622.152   1
  -2   1   2 1401.77 451.465   1
   2  -1   2 1530.98 489.195   1
   2   1   2 1621.61 504.565   1
  -2  -1   2 1437.97 442.961   1
  -2  -1   3 3727.77 922.466   1
  -2   1   3 3523.38 901.336   1
   2   1   3 2080.56 717.990   1
   2  -1   3 2817.37 801.036   1
  -2  -2  -5 4740.31 1426.89   1
  -2   2  -5 4928.55 1353.84   2
   2   2  -5 2573.97 954.700   2
   2  -2  -5 2576.31 960.696   2
   2   2  -4 4736.75 1138.29   2
   2  -2  -4 4542.15 1179.35   1
  -2  -2  -4 2211.71 841.915   1
   2  -2  -4 4822.66 1124.13   2
  -2   2  -4 2834.58 843.895   2
   2   2  -3 9942.33 1433.63   2
  -2  -2  -3 12053.8 1698.48   1
   2  -2  -3 9292.42 1434.61   1
   2  -2  -2 8850.51 1115.18   1
  -2   2  -2 4679.04 804.622   1
   2  -2  -1 26707.7 1422.35   1
  -2  -2   0 6362.09 718.903   2
  -2   2   1 26120.6 1401.54   1
   2  -2   1 25313.4 1295.83   1
   2   2   1 26280.3 1674.64   1
  -2  -2   1 26672.8 1488.20   2
   2  -2   2 4765.03 837.487   1
  -2   2   2 9220.10 1160.08   1
   2   2   2 5453.09 965.774   1
  -2  -2   2 8748.64 1160.09   1
   2  -2   3 10667.0 1556.94   1
  -2   2   3 9094.24 1434.69   1
   2   2   3 10669.3 1640.77   1
  -2  -2   3 8546.30 1390.14   1
   2   3  -5 603.105 458.380   2
   2  -3  -5 359.869 96.0039   2
  -2  -3  -5 420.849 428.725   1
   2  -3  -5-100.469 209.827   1
  -2   3  -5 365.699 401.000   2
  -2  -3  -4 893.317 554.277   1
  -2   3  -4 442.984 241.561   2
   2   3  -4 379.323 319.956   2
   2  -3  -4 467.727 334.885   1
  -2   3  -3 1332.60 530.008   2
   2   3  -3 2069.15 666.166   2
  -2  -3  -3 1332.37 611.266   1
   2  -3  -3 2266.47 689.825   1
  -2   3  -2 989.743 354.169   2
   2  -3  -2 1119.86 391.721   1
  -2   3  -1 2666.16 425.682   2
   2  -3  -1 3582.30 550.811   1
   2  -3   0 2314.05 319.099   1
  -2  -3   0 1914.65 417.085   2
   2  -3   1 2555.46 426.707   1
  -2  -3   1 3699.91 587.326   2
   2   3   1 2355.28 543.741   1
  -2   3   1 3752.57 570.935   1
   2  -3   2 1107.66 385.473   1
  -2   3   2 1018.83 386.140   1
   2   3   2 1212.70 448.116   1
   2  -3   3 1486.26 586.127   1
  -2  -3   3 2251.60 712.085   1
  -2   3   3 2502.14 758.139   1
   2   3   3 1357.60 574.273   1
   2  -4  -5 1321.51 643.327   2
   2  -4  -5 2205.43 1024.35   1
   2   4  -5 2898.98 1016.22   2
  -2   4  -5 2319.86 946.969   2
  -2  -4  -5 2439.97 1048.11   1
  -2   4  -4 571.226 395.125   2
   2  -4  -4 1534.21 730.983   1
  -2  -4  -4 307.953 362.564   1
   2   4  -4 1790.64 738.177   2
  -2   4  -3 7457.63 1229.94   2
  -2  -4  -3 6678.54 1348.95   1
   2  -4  -3 6113.64 1199.80   1
   2   4  -3 6364.74 1159.58   2
   2  -4  -2 3180.31 731.657   1
   2   4  -1 12749.2 1146.31   2
   2  -4  -1 13055.6 1162.50   1
  -2  -4  -1 12938.1 1085.83   2
  -2   4  -1 11455.4 884.788   2
   2   4   0 4270.27 716.209   2
   2  -4   0 3663.50 510.629   1
  -2  -4   0 3914.69 629.651   2
  -2   4   0 3544.26 330.805   2
   2  -4   0 4143.00 317.954   2
  -2   4   1 12391.2 1117.51   1
   2   4   1 11341.0 1289.02   1
  -2  -4   1 11485.4 1105.11   2
   2   4   2 1279.08 502.361   1
   2  -4   2 1816.43 508.708   1
  -2   4   2 3307.50 741.417   1
  -2  -4   2 2683.99 654.488   2
  -2   4   3 5661.94 1176.55   1
   2  -4   3 7265.47 1294.79   1
   2  -5  -5 153.183 237.688   2
  -2  -5  -5 117.152 98.7584   1
  -2   5  -5 7.00515 49.6127   2
   2   5  -4 633.904 421.098   2
   2  -5  -4 209.586 133.297   1
  -2   5  -4 136.420 229.724   2
  -2  -5  -4 173.886 433.627   1
  -2  -5  -3 4.67566 68.8273   1
  -2   5  -3 367.725 231.889   2
   2  -5  -3 277.835 304.850   1
   2   5  -3 66.9984 123.254   2
  -2  -5  -2 417.247 305.542   1
   2  -5  -2 332.636 259.677   1
   2   5  -2 89.2654 95.5898   2
   2  -5  -1 424.632 226.727   1
  -2   5  -1 356.965 148.147   2
  -2  -5  -1 168.424 161.071   1
   2   5  -1 421.861 243.398   2
  -2  -5  -1 682.009 274.397   2
   2  -5   0 107.683 19.2026   1
   2   5   0 467.293 252.579   2
  -2  -5   0 210.124 164.995   2
  -2   5   0 357.002 120.122   2
   2  -5   0 243.155 93.1439   2
  -2   5   1 513.918 245.361   1
  -2  -5   1 339.948 199.520   2
   2  -5   2 338.124 231.966   1
  -2   5   2 308.875 345.852   1
  -2  -5   2 438.971 242.366   2
   2   5   2 392.351 272.814   1
   2  -5   3 145.204 180.391   1
   2  -6  -5 341.464 366.058   2
  -2   6  -5 675.724 530.314   2
  -2  -6  -5 574.370 521.552   1
   2  -6  -5 392.296 431.287   1
   2   6  -5 121.571 213.043   2
   2  -6  -4 8152.65 1730.08   1
   2   6  -4 8211.72 1567.57   2
  -2  -6  -4 10230.1 2030.14   1
  -2   6  -4 10974.6 1762.79   2
   2   6  -3 133.719 30.3863   2
   2  -6  -3 59.0989 71.6417   1
  -2   6  -3-27.8709 155.806   2
   2   6  -2 20120.7 1840.66   2
  -2  -6  -2 17940.6 2051.11   1
   2  -6  -2 19351.5 1986.96   1
  -2  -6  -1 182.764 137.808   1
  -2  -6  -1 245.288 192.043   2
  -2   6  -1 20.4278 68.0534   2
   2  -6  -1 107.120 92.6183   2
   2   6  -1 179.850 152.424   2
   2  -6  -1 198.057 212.086   1
  -2   6   0 23013.1 1038.22   2
  -2  -6   0 24769.2 1692.37   2
   2   6   0 23655.2 1770.71   2
   2  -6   0 22380.8 1655.71   1
   2  -6   0 22766.4 1012.20   2
  -2  -6   1 64.7837 89.4106   2
   2  -6   2 19623.7 1839.80   1
   2   6   2 20424.6 2209.97   1
  -2   6   2 19357.8 1952.58   1
  -2  -6   2 18382.8 1862.03   2
   2  -6   3 416.991 311.302   1
  -2   7  -5 1624.74 757.101   2
   2   7  -5 1010.49 540.358   2
   2  -7  -5 667.004 570.074   1
   2  -7  -5 840.908 561.498   2
  -2  -7  -5 478.295 499.999   1
   2  -7  -4 658.857 504.669   1
  -2   7  -4 777.310 454.555   2
  -2  -7  -4 457.667 431.860   1
   2   7  -4 219.844 185.906   2
  -2   7  -3 3384.35 817.724   2
   2  -7  -3 3528.24 1028.24   1
  -2  -7  -3 1731.06 754.189   1
   2   7  -3 2663.45 799.900   2
  -2  -7  -2 583.227 314.042   2
   2  -7  -2 137.157 209.578   1
  -2  -7  -2 406.818 307.236   1
   2   7  -2 272.276 216.949   2
   2  -7  -1 3846.68 613.205   2
   2  -7  -1 3932.58 784.713   1
  -2  -7  -1 3750.91 943.958   1
  -2  -7  -1 2758.08 678.290   2
  -2   7  -1 3901.86 605.715   2
   2  -7   0 743.038 198.144   2
  -2  -7   0 680.682 283.422   2
   2  -7   0 899.169 349.133   1
   2   7   0 753.848 306.965   2
  -2  -7   1 3927.01 740.130   2
   2   7   2-72.3376 136.923   1
  -2   7   2 287.103 243.614   1
  -2  -7   2 205.001 181.033   2
  -2   8  -5 4158.41 1244.43   2
   2  -8  -5 1843.59 958.669   1
   2   8  -5 1192.67 690.837   2
   2  -8  -5 2243.02 952.076   2
  -2  -8  -5 2439.71 1120.67   1
   2  -8  -4 4672.39 1366.68   1
   2   8  -4 2939.17 958.650   2
  -2   8  -4 1634.57 676.666   2
  -2  -8  -4 2559.05 1048.53   1
   2   8  -3 4995.13 1120.00   2
  -2  -8  -3 4469.10 1222.25   1
  -2   8  -3 4727.38 984.209   2
   2  -8  -3 5338.69 1313.16   1
  -2  -8  -2 4312.89 907.332   2
  -2  -8  -2 3278.77 922.215   1
   2  -8  -2 5964.23 1163.44   1
   2  -8  -2 5936.09 802.520   2
  -2   8  -2 4157.97 802.118   2
   2   8  -2 6997.84 1168.63   2
  -2   8  -1 8170.97 975.575   2
  -2  -8  -1 7548.49 1224.33   2
   2  -8  -1 9050.03 1267.58   1
  -2  -8  -1 8638.56 1516.45   1
   2  -8  -1 7763.78 918.078   2
   2  -8   0 5550.47 590.128   2
  -2  -8   0 5266.56 862.123   2
   2  -8   0 5514.51 960.387   1
  -2  -8   1 8654.63 1142.68   2
  -2  -8   2 4958.95 1021.41   2
  -2   8   2 5838.00 1165.30   1
   2  -9  -5 2068.18 1024.27   1
  -2   9  -5 2129.47 887.649   2
   2  -9  -4 1767.87 903.364   1
  -2  -9  -4 3472.03 1228.95   1
   2   9  -4 1832.94 774.362   2
  -2   9  -4 2727.90 876.819   2
  -2  -9  -3 2704.58 983.436   1
   2   9  -3 5761.27 1212.64   2
  -2   9  -3 2738.23 777.830   2
   2  -9  -3 5456.13 1354.14   1
  -2   9  -2 6427.16 1041.35   2
  -2  -9  -2 5522.00 1092.30   2
   2  -9  -2 4199.62 786.935   2
   2  -9  -2 4058.99 1005.61   1
   2   9  -2 3527.16 878.259   2
  -2  -9  -2 5268.47 1286.83   1
  -2   9  -1 4524.64 820.213   2
   2  -9  -1 6538.37 777.934   2
   2  -9  -1 6522.42 1149.26   1
  -2  -9  -1 4624.50 1172.33   1
  -2  -9  -1 4609.88 989.809   2
   2   9  -1 5148.87 1062.02   2
   2  -9   0 5594.08 638.010   2
  -2  -9   0 5121.35 870.706   2
   2  -9   0 5534.65 1021.30   1
  -2  -9   0 5200.09 1225.19   1
  -2  -9   1 5936.12 984.256   2
  -2  10  -4 105.086 176.241   2
   2 -10  -4 387.011 373.781   1
  -2 -10  -4 1017.92 685.815   1
   2  10  -4 462.187 394.066   2
  -2  10  -3 1290.84 511.568   2
   2 -10  -3 667.484 481.647   1
  -2 -10  -3 1492.05 747.212   1
   2  10  -3 962.068 514.821   2
   2  10  -2-63.3761 126.116   2
   2 -10  -2-3.56979 30.9645   1
  -2 -10  -2 410.262 308.855   1
  -2  10  -2 260.025 219.849   2
  -2 -10  -2 352.898 307.259   2
   2 -10  -1 1920.38 409.447   2
   2 -10  -1 1679.02 622.612   1
  -2  10  -1 2208.05 584.084   2
  -2 -10  -1 2189.59 804.022   1
   2  10  -1 2240.13 692.964   2
  -2 -10  -1 3087.76 785.376   2
  -2 -10   0-16.4322 50.3931   2
   2 -10   0 96.4017 90.1689   2
   2 -10   0-118.305 157.874   1
  -2 -10   0-165.064 212.260   1
  -2 -10   1 1981.57 590.438   2
   2  11  -4 106.206 193.144   2
   2 -11  -4 822.784 609.188   1
  -2 -11  -4 474.396 483.275   1
  -2  11  -4 272.120 289.449   2
   2  11  -3 1846.87 756.446   2
   2 -11  -3 1871.72 830.584   1
  -2  11  -3 1845.85 685.836   2
  -2 -11  -3 1366.47 764.481   1
   2  11  -2-248.935 275.341   2
   2 -11  -2 9.89255 54.2700   1
  -2  11  -2 36.3087 90.9163   2
   2 -11  -1 2316.57 778.922   1
  -2 -11  -1 3010.74 759.247   2
   2  11  -1 2851.26 801.950   2
  -2 -11  -1 2228.06 889.084   1
  -2 -11   0-228.872 192.146   2
   2 -11   0 478.047 338.006   1
  -2 -11   0 540.886 412.703   1
  -2 -11   1 2207.90 618.750   2
   2  12  -4 1137.58 660.772   2
   2 -12  -4 762.065 606.592   1
   2  12  -3 409.024 388.264   2
  -2 -12  -3 724.747 567.410   1
   2 -12  -3-12.2016 70.5581   1
  -2 -12  -2 2361.73 972.483   1
   2 -12  -2 1726.09 752.275   1
   2  12  -2 991.185 563.109   2
  -2  12  -2 2309.12 777.203   2
  -2 -12  -1 184.409 256.961   1
   2 -12  -1-97.1155 171.062   1
   2  12  -1 307.745 256.565   2
   2 -12   0 2316.24 810.420   1
  -2 -12   0 2337.54 832.922   1
   2 -12   1-76.4823 134.029   1
  -2 -13  -3 536.742 568.919   1
   2  13  -3 487.733 465.071   2
   2 -13  -2 169.810 252.607   1
   2  13  -2 520.039 429.117   2
  -2 -13  -2 517.173 511.742   1
   2  13  -1 279.329 242.291   2
   2 -13  -1 994.995 586.223   1
  -2 -13  -1 594.734 475.911   1
  -2 -13   0-61.7684 139.506   1
   2 -13   0 362.329 355.067   1
  -2 -13   1 917.759 539.475   1
   2 -13   1 465.037 354.124   1
  -2 -14  -3 1028.76 742.336   1
  -2 -14  -2 1142.49 735.587   1
  -2 -14  -1 2162.26 905.097   1
  -2 -14   0 611.403 456.439   1
  -2 -14   1 1008.07 652.814   1
  -3   0  -5-387.437 394.688   1
   3   0  -5-43.1367 204.266   2
  -3   0  -4 117.089 220.165   1
   3   0  -4-348.140 304.656   2
  -3   0  -3-23.4297 68.7043   1
   3   0  -3 7.76270 80.9254   2
  -3   0   0-7.12795 41.1474   2
   3   0   1-23.3888 68.9644   1
  -3   0   1 8.03798 21.5664   2
   3   0   2 50.3239 99.7741   1
  -3   0   2 15.3112 54.1256   1
  -3   0   3 137.757 175.230   1
   3   0   3-95.6870 148.474   1
   3  -1  -5-108.232 195.756   2
  -3  -1  -5 1038.02 662.265   1
  -3   1  -5 813.268 544.659   2
   3   1  -5 283.832 313.303   2
  -3  -1  -4 57.8002 130.543   1
   3  -1  -4 410.353 330.484   2
  -3   1  -4 30.6074 93.8649   1
   3   1  -4-100.468 228.257   2
  -3   1  -3 3605.77 857.125   1
  -3  -1  -3 3366.30 867.775   1
   3   1  -3 1673.68 594.923   2
   3  -1  -3 1518.17 529.503   2
  -3   1  -2 364.920 215.467   1
   3  -1  -2 739.309 302.302   2
  -3   1  -1 6803.58 676.761   1
   3  -1  -1 6302.08 624.018   2
  -3  -1   0 153.791 101.968   2
  -3   1   0 151.081 64.6592   2
  -3  -1   1 5849.07 687.271   2
   3  -1   1 6769.61 681.973   1
   3   1   1 7023.91 835.266   1
  -3   1   1 5968.41 646.214   1
  -3  -1   2 1001.63 385.134   1
  -3   1   2 1004.20 396.179   1
   3  -1   2 144.184 173.029   1
   3   1   2 212.268 151.419   1
   3  -1   3 3299.99 868.199   1
   3   1   3 2753.72 806.287   1
  -3  -1   3 1898.80 657.116   1
  -3   1   3 1405.21 553.466   1
   3  -2  -5 4626.63 1286.23   2
  -3  -2  -5 3517.31 1196.25   1
   3   2  -5 3824.28 1168.48   2
  -3   2  -5 3106.67 1090.79   2
  -3  -2  -4 4979.68 1254.56   1
   3   2  -4 5185.68 1191.37   2
   3  -2  -4 4738.40 1134.87   2
  -3  -2  -3 6838.49 1296.37   1
   3   2  -3 10043.7 1433.40   2
   3  -2  -3 9562.78 1353.53   2
  -3   2  -3 7737.19 1278.04   1
   3  -2  -3 9785.47 1475.39   1
   3  -2  -2 8906.79 1142.63   1
   3  -2  -2 9443.99 1107.73   2
  -3   2  -2 12705.0 1288.91   1
  -3   2  -1 16696.7 1002.84   1
   3  -2  -1 18274.8 1149.11   1
   3  -2  -1 18177.2 1038.68   2
  -3  -2   0 12499.9 1128.46   2
  -3  -2   1 19046.7 1325.72   2
   3   2   1 17315.9 1432.84   1
  -3   2   1 17851.5 1149.74   1
   3  -2   1 17074.5 1087.48   1
  -3   2   2 9380.33 1172.09   1
   3   2   2 12968.4 1497.13   1
  -3  -2   2 10668.6 1336.51   1
   3  -2   2 13255.6 1392.20   1
  -3  -2   3 8491.09 1392.53   1
   3  -2   3 8026.95 1360.11   1
   3   2   3 6623.10 1303.83   1
  -3   2   3 10743.3 1553.59   1
  -3  -3  -5 4298.77 1377.72   1
   3  -3  -5 1178.97 650.342   2
  -3   3  -5 3162.91 1050.15   2
   3   3  -5 2117.26 874.864   2
  -3  -3  -4 1400.33 699.203   1
  -3   3  -4 1554.37 641.664   2
   3  -3  -4 2366.19 851.556   1
   3   3  -4 3615.13 999.966   2
   3  -3  -4 2963.17 882.503   2
   3  -3  -3 5217.58 1094.78   1
   3   3  -3 5818.79 1107.81   2
   3  -3  -2 5988.14 926.667   1
   3  -3  -1 11905.4 982.185   1
  -3  -3   0 7373.73 912.245   2
   3  -3   1 15975.4 1024.91   1
  -3  -3   1 11122.0 1080.39   2
  -3   3   1 11358.3 977.557   1
   3   3   1 15632.6 1462.24   1
   3  -3   2 4173.78 782.408   1
  -3  -3   2 5241.65 914.780   2
   3   3   2 4419.15 919.917   1
  -3   3   2 6248.03 962.150   1
  -3  -3   3 5329.77 1156.20   1
  -3   3   3 5911.25 1156.96   1
   3   4  -5 7147.54 1605.47   2
  -3   4  -5 2687.40 982.857   2
  -3  -4  -5 3459.62 1242.57   1
   3  -4  -5 7823.20 1854.90   1
   3  -4  -5 5454.73 1393.86   2
   3  -4  -4 6953.49 1506.74   1
  -3  -4  -4 7217.56 1639.22   1
   3  -4  -4 6329.71 1319.46   2
  -3   4  -4 9302.20 1600.93   2
   3   4  -4 6136.18 1330.15   2
   3   4  -3 11859.8 1572.18   2
   3  -4  -3 11544.0 1628.53   1
  -3  -4  -3 7502.07 1452.72   1
  -3   4  -3 8744.73 1339.89   2
   3  -4  -2 13427.8 1463.95   1
   3  -4  -1 21385.4 1410.19   1
  -3   4  -1 19306.9 1149.12   2
  -3  -4  -1 21718.3 1520.80   2
   3   4  -1 21007.1 1571.93   2
   3   4   0 18369.6 1591.44   2
  -3  -4   0 19258.1 1508.91   2
   3  -4   0 19287.1 942.591   1
   3   4   1 17434.1 1680.61   1
  -3  -4   1 21633.1 1590.77   2
  -3   4   1 20115.9 1372.38   1
   3  -4   1 19254.3 1198.47   1
  -3  -4   2 13390.0 1523.15   2
   3  -4   2 18715.4 1620.06   1
  -3   4   2 13922.8 1504.80   1
   3   4   2 17237.3 1891.32   1
  -3   4   3 11928.7 1682.17   1
   3  -4   3 7693.37 1342.64   1
   3  -5  -5-946.134 659.187   1
   3  -5  -5-514.763 431.152   2
  -3  -5  -5 471.156 383.057   1
   3   5  -5 133.592 221.982   2
  -3   5  -5 321.138 360.043   2
  -3   5  -4 1221.23 496.473   2
   3   5  -4 803.975 484.046   2
   3  -5  -4 400.414 357.197   1
   3  -5  -4 402.328 357.587   2
  -3  -5  -3 223.343 252.213   1
   3  -5  -3 300.319 308.505   1
   3   5  -3 24.1733 71.9197   2
  -3   5  -3 79.0194 122.996   2
   3   5  -2 1256.29 457.256   2
  -3  -5  -2 1803.89 626.254   1
   3  -5  -2 1187.95 471.970   1
   3  -5  -1 220.314 146.659   1
   3   5  -1 235.891 170.284   2
  -3   5  -1 178.359 104.239   2
  -3  -5  -1 68.4095 92.0141   2
   3   5   0 3186.25 675.476   2
   3  -5   0 2664.93 428.094   1
  -3  -5   0 2897.29 595.732   2
  -3   5   1 303.601 186.874   1
  -3  -5   1 535.130 281.304   2
   3  -5   2 1806.67 508.510   1
  -3   5   2 1083.17 411.509   1
   3   5   2 2090.47 662.765   1
  -3  -5   2 1059.53 450.716   2
   3  -5   3-124.257 168.325   1
   3   6  -5-411.238 397.573   2
   3  -6  -5-62.4402 171.272   1
  -3  -6  -5 268.558 358.383   1
  -3   6  -5 63.1868 149.170   2
   3  -6  -5-26.3848 97.5874   2
  -3   6  -4 141.583 195.404   2
   3  -6  -4-103.432 190.200   1
   3   6  -4 99.5268 172.660   2
  -3  -6  -4-182.007 268.782   1
  -3   6  -3 49.6538 95.5818   2
   3   6  -3 481.863 328.896   2
  -3  -6  -3 74.5485 205.482   1
   3  -6  -3 77.9383 186.432   1
   3   6  -2 111.561 137.890   2
   3  -6  -2 324.349 206.164   1
  -3  -6  -1 113.321 127.238   1
   3  -6  -1 161.369 104.807   2
  -3  -6  -1 204.667 192.765   2
  -3   6  -1 135.351 84.6946   2
   3  -6  -1 30.0458 107.341   1
   3  -6   0 407.979 198.618   1
   3   6   0 663.893 326.943   2
   3  -6   0 502.707 120.441   2
  -3  -6   0 546.101 296.239   2
  -3  -6   1 242.722 182.904   2
  -3   6   1 19.0214 48.6535   1
  -3   6   2 563.441 314.168   1
   3   6   2 72.7451 113.437   1
   3  -6   2 507.304 280.415   1
  -3  -6   2-152.384 172.081   2
   3  -6   3-178.142 203.335   1
  -3   7  -5 3294.01 1083.89   2
  -3  -7  -5 2453.83 1103.93   1
   3  -7  -5 498.359 670.073   1
   3   7  -5 1413.96 750.590   2
   3  -7  -5 843.056 454.089   2
  -3   7  -4 1929.49 736.728   2
   3   7  -4 5096.34 1245.62   2
   3  -7  -4 4663.69 1296.37   1
  -3  -7  -4 1810.47 875.376   1
   3   7  -3 4721.36 1092.22   2
  -3  -7  -3 7227.25 1529.03   1
   3  -7  -3 3536.84 1026.82   1
  -3   7  -3 7220.41 1196.96   2
   3  -7  -2 7442.96 1247.74   1
  -3  -7  -2 5148.52 1194.45   1
   3   7  -2 6611.69 1134.17   2
  -3  -7  -2 5722.10 1019.09   2
   3  -7  -1 7105.64 760.569   2
  -3  -7  -1 8910.77 1269.84   2
  -3   7  -1 10959.4 953.107   2
   3  -7  -1 7886.96 1078.46   1
  -3  -7  -1 10251.8 1691.28   1
   3  -7   0 7637.14 553.798   2
   3  -7   0 8231.99 982.998   1
  -3  -7   0 8898.05 1131.89   2
  -3  -7   1 7561.28 1070.86   2
   3  -7   2 4812.05 922.207   1
  -3  -7   2 7251.77 1234.00   2
  -3   7   2 8091.98 1283.64   1
   3  -7   3 7514.93 1379.01   1
  -3  -8  -5 1797.40 895.298   1
   3  -8  -5 141.295 264.320   1
   3  -8  -5 1567.56 765.321   2
  -3   8  -5 673.608 487.332   2
   3   8  -5 1351.44 726.812   2
  -3   8  -4 282.302 273.773   2
   3  -8  -4 493.425 430.156   1
   3   8  -4-55.2073 134.111   2
  -3  -8  -4 957.120 637.211   1
  -3  -8  -3 1070.23 648.305   1
   3  -8  -3 1920.31 782.099   1
  -3   8  -3 1821.72 610.936   2
   3   8  -3 1926.47 695.808   2
  -3  -8  -2 376.099 323.329   1
   3   8  -2 903.507 476.251   2
   3  -8  -2 973.069 451.072   1
  -3  -8  -2 762.265 391.313   2
   3  -8  -2 474.645 211.070   2
   3  -8  -1 2557.90 437.320   2
   3  -8  -1 2901.76 696.028   1
   3   8  -1 2353.03 715.103   2
  -3  -8  -1 2073.63 771.826   1
  -3   8  -1 2445.75 489.255   2
  -3  -8  -1 1830.37 638.319   2
   3  -8   0 601.096 292.000   1
   3  -8   0 928.279 210.941   2
  -3  -8   0 800.270 379.231   2
  -3  -8   1 2543.78 644.242   2
  -3   8   2-149.212 180.792   1
  -3  -8   2 449.381 312.839   2
   3  -8   2 681.359 359.015   1
  -3   9  -5 547.559 443.864   2
   3  -9  -5-47.2942 155.053   1
  -3   9  -4 204.317 236.301   2
   3   9  -4 300.017 316.749   2
   3  -9  -4 845.203 618.314   1
  -3  -9  -4 378.328 328.323   1
   3  -9  -3 2067.67 805.092   1
   3   9  -3 1463.88 609.710   2
  -3   9  -3 1691.89 588.742   2
  -3  -9  -3 1364.25 699.722   1
  -3   9  -2 536.288 289.608   2
   3   9  -2 855.239 430.719   2
   3  -9  -2 652.969 391.750   1
  -3  -9  -2-255.966 246.695   2
   3  -9  -2 487.742 237.911   2
  -3  -9  -2 39.0058 107.978   1
  -3   9  -1 1570.00 433.301   2
   3  -9  -1 2430.55 389.347   2
  -3  -9  -1 2026.75 803.174   1
   3   9  -1 1719.61 608.276   2
  -3  -9  -1 2388.08 738.075   2
   3  -9  -1 2256.25 651.130   1
  -3  -9   0 404.841 351.810   1
   3   9   0 907.042 363.162   2
  -3  -9   0 642.094 300.366   2
   3  -9   0 397.422 241.155   1
   3  -9   0 469.150 155.540   2
  -3  -9   1 2332.81 641.967   2
   3  -9   2 93.6462 139.822   1
  -3  10  -5 1488.01 740.577   2
   3  10  -4 2239.15 899.092   2
  -3  10  -4 3789.97 1065.77   2
  -3 -10  -4 2181.44 1013.59   1
   3 -10  -4 2143.87 925.398   1
  -3 -10  -3 1830.98 869.287   1
   3  10  -3 3972.59 1079.57   2
  -3  10  -3 2546.57 766.169   2
  -3  10  -2 5096.29 957.957   2
   3  10  -2 5916.67 1284.56   2
   3 -10  -2 4970.40 1141.53   1
  -3 -10  -2 4408.17 1252.58   1
  -3 -10  -1 4375.43 990.520   2
   3  10  -1 5250.47 1123.30   2
  -3 -10  -1 3953.43 1234.16   1
   3 -10  -1 4884.01 544.400   2
  -3  10  -1 4925.90 813.988   2
   3 -10  -1 6237.44 1161.71   1
  -3 -10   0 5302.37 1270.90   1
   3 -10   0 5609.88 1053.37   1
  -3 -10   0 6005.59 1052.87   2
   3  10   0 5410.85 924.537   2
  -3 -10   1 4727.14 942.951   2
   3 -11  -4 290.858 355.024   1
   3  11  -4 534.409 442.984   2
  -3  11  -4 94.5282 168.248   2
  -3 -11  -4 616.809 557.044   1
  -3 -11  -3-182.178 466.136   1
  -3  11  -3 41.5325 100.892   2
   3 -11  -3 484.136 271.206   1
   3 -11  -2 1201.86 591.965   1
  -3 -11  -2 2390.15 993.402   1
  -3  11  -2 1888.52 623.649   2
   3  11  -2 715.880 477.184   2
   3  11  -1 48.8255 105.879   2
  -3 -11  -1 226.752 293.353   2
  -3 -11  -1 273.430 313.459   1
   3 -11  -1 259.140 250.919   1
  -3  11  -1 229.656 164.161   2
  -3 -11   0 1324.82 486.750   2
   3 -11   0 1457.81 571.770   1
  -3 -11   0 1686.04 696.121   1
   3  12  -4 161.365 254.489   2
  -3 -12  -3-735.974 583.373   1
   3  12  -3 405.941 398.691   2
   3 -12  -3 194.465 277.309   1
   3 -12  -2 75.8301 155.034   1
  -3 -12  -2 21.1635 94.7967   1
   3  12  -2 298.445 326.797   2
   3  12  -1 3.79483 29.4414   2
  -3 -12  -1 532.200 446.799   1
   3 -12  -1 233.436 254.601   1
  -3 -12   0 313.875 335.592   1
   3 -12   0 162.126 207.346   1
   3 -12   1 353.165 285.972   1
   3  13  -3 2931.52 1198.03   2
  -3 -13  -3 3067.44 1299.11   1
   3  13  -2 5957.22 1461.74   2
  -3 -13  -2 4685.59 1480.51   1
  -3 -13  -1 4969.72 1384.66   1
   3  13  -1 3752.32 919.010   2
  -3 -13   0 4009.06 1139.39   1
  -3 -14  -2 678.675 573.135   1
  -3 -14  -1-80.4799 181.766   1
  -3 -14   0 48.4429 129.675   1
  -3 -14   1-316.830 344.198   1
  -3 -15  -1 495.309 464.638   1
  -3 -15   0 403.897 390.476   1
  -3 -15   1-138.765 238.360   1
  -4   0  -5 7011.11 1677.58   1
   4   0  -5 8251.31 1704.31   2
   4   0  -4 2232.33 748.320   2
  -4   0  -4 406.278 388.515   1
   4   0  -3 19145.1 1964.44   2
  -4   0  -3 17793.7 1965.27   1
  -4   0  -2 1764.22 524.924   1
  -4   0   0 1547.16 384.592   2
  -4   0   1 35379.2 1651.60   2
   4   0   1 32383.3 1750.13   1
  -4   0   2 2617.94 623.116   1
   4   0   2 1947.78 545.288   1
   4   0   3 18085.5 2111.19   1
  -4   0   3 21212.1 2219.13   1
   4  -1  -5 644.766 515.658   2
  -4  -1  -5 353.561 378.936   1
   4   1  -5 298.026 411.044   2
  -4  -1  -4 884.180 511.579   1
   4  -1  -4 487.693 370.949   2
  -4   1  -4 1145.56 602.139   1
   4   1  -4 801.966 482.071   2
  -4  -1  -3 461.337 321.119   1
  -4   1  -3 166.801 129.393   1
   4   1  -3 222.468 204.064   2
   4  -1  -3 220.640 24.8807   2
  -4   1  -2 1108.83 390.918   1
   4  -1  -2 1664.95 470.807   2
   4  -1  -1 136.845 110.508   2
  -4   1  -1 284.311 142.280   1
  -4   1   0 625.694 190.176   2
   4  -1   0 569.499 153.160   2
  -4  -1   0 421.722 189.897   2
  -4   1   1 130.157 88.1138   1
   4   1   1 276.524 164.661   1
  -4  -1   1 165.507 98.4188   2
  -4   1   1-24.7203 38.1786   2
   4  -1   1 288.777 132.183   1
  -4  -1   2 1467.78 456.480   2
   4  -1   2 1347.67 451.737   1
  -4   1   2 1591.64 473.072   1
   4   1   2 1272.74 464.819   1
  -4  -1   2 1560.12 492.788   1
   4  -1   3 168.392 98.9023   1
   4   1   3 232.460 103.013   1
  -4  -1   3 227.722 252.312   1
  -4   1   3 211.587 215.129   1
  -4   2  -5 7965.56 1689.76   2
  -4  -2  -5 7726.69 1822.56   1
   4   2  -5 3144.60 1068.40   2
   4  -2  -5 4596.08 1276.18   2
   4  -2  -4 11232.1 1735.63   2
   4   2  -4 11986.9 1829.82   2
   4   2  -3 10876.5 1500.71   2
   4  -2  -3 11952.2 1521.06   2
   4  -2  -3 11394.7 1634.58   1
  -4  -2  -3 17132.5 2089.53   1
  -4   2  -3 15541.1 1776.40   1
  -4   2  -2 16903.2 1479.09   1
   4  -2  -2 20588.7 1624.41   2
   4  -2  -2 21041.8 1780.45   1
  -4   2  -1 21508.2 1124.47   1
   4  -2  -1 20866.3 1289.84   1
   4  -2  -1 20682.3 1094.81   2
  -4   2   0 21088.3 961.824   2
  -4  -2   0 20619.3 1595.37   2
   4   2   1 19993.1 1614.09   1
  -4  -2   1 20232.1 1455.86   2
  -4   2   1 21266.2 1258.67   1
   4  -2   1 20361.9 1163.70   1
  -4   2   2 20657.7 1734.98   1
  -4  -2   2 20471.5 1777.82   2
   4   2   2 18329.1 1819.24   1
   4  -2   2 16657.0 1553.92   1
  -4  -2   3 10878.3 1606.77   1
  -4   2   3 10593.2 1547.46   1
   4   2   3 16228.2 2049.38   1
   4  -2   3 15008.7 1859.42   1
   4  -3  -5-141.795 223.625   2
  -4   3  -5-510.287 427.902   2
   4   3  -5 160.953 238.556   2
   4  -3  -4 431.594 314.124   1
   4   3  -4 1249.43 587.969   2
  -4  -3  -4 1256.31 656.532   1
   4  -3  -4 232.709 154.934   2
   4  -3  -3 969.373 471.932   2
   4  -3  -3 1307.91 515.504   1
  -4  -3  -3 897.040 506.350   1
   4   3  -3 961.268 438.504   2
   4  -3  -2 1782.02 450.957   2
   4  -3  -2 1385.63 447.200   1
   4  -3  -1 1068.39 277.531   1
  -4  -3  -1 1640.32 415.586   2
   4  -3  -1 1121.82 244.521   2
  -4  -3   0 2002.07 511.580   2
   4   3   1 1275.32 440.514   1
   4  -3   1 1345.39 298.806   1
  -4  -3   1 865.190 338.231   2
  -4   3   1 1273.75 321.885   1
   4   3   2 2116.29 649.177   1
  -4   3   2 1545.89 464.936   1
   4  -3   2 2325.53 576.883   1
  -4  -3   2 1653.44 527.419   2
  -4   3   3 348.356 259.455   1
   4  -3   3 1156.08 473.770   1
   4  -4  -5 632.991 440.616   2
   4   4  -5 1044.46 561.551   2
  -4  -4  -5 2672.92 1076.25   1
  -4   4  -5 2320.55 927.009   2
  -4   4  -4 3922.30 1016.55   2
  -4  -4  -4 2822.65 1016.15   1
   4  -4  -4 6360.81 1427.56   1
   4   4  -4 5190.73 1221.85   2
   4  -4  -4 4783.24 1142.87   2
   4   4  -3 2134.68 692.073   2
  -4  -4  -3 3732.55 1026.50   1
   4  -4  -3 1532.76 558.267   2
   4  -4  -3 1495.69 583.102   1
   4   4  -2 11785.0 1382.28   2
   4  -4  -2 12016.9 1195.27   2
   4  -4  -2 10801.9 1281.20   1
   4  -4  -1 5032.38 508.431   2
  -4   4  -1 8125.67 740.688   2
   4  -4  -1 5151.31 655.255   1
  -4  -4  -1 8812.08 1043.16   2
   4   4   0 13074.3 1443.21   2
  -4  -4   0 12791.3 1316.02   2
   4  -4   0 12294.3 615.076   1
  -4   4   1 5384.26 683.647   1
  -4  -4   1 5886.77 892.731   2
  -4  -4   2 12432.2 1523.42   2
  -4   4   2 11647.1 1346.39   1
   4   4   2 7649.71 1313.22   1
   4  -4   2 8294.58 1111.88   1
  -4   4   3 1111.24 530.588   1
   4  -4   3 5306.17 1117.43   1
   4   5  -5-16.4345 79.0744   2
   4  -5  -5-277.013 313.486   2
  -4   5  -5-475.456 413.447   2
  -4  -5  -5-525.497 495.134   1
   4   5  -4-272.973 285.048   2
   4  -5  -4-210.295 263.976   1
   4  -5  -4-170.299 307.853   2
  -4   5  -4-186.061 226.547   2
  -4  -5  -4 66.6003 113.295   1
  -4   5  -3 124.981 146.013   2
  -4  -5  -3 23.0864 229.418   1
   4  -5  -3 24.9214 200.134   2
   4  -5  -3 41.5712 98.1403   1
   4   5  -3-210.350 216.158   2
   4  -5  -2 18.5604 34.4218   1
   4   5  -2 69.6358 175.828   2
  -4  -5  -2 146.747 217.468   1
  -4   5  -1 92.2415 106.066   2
  -4  -5  -1 100.760 144.114   2
   4  -5  -1 44.2024 61.3814   2
   4  -5  -1 199.419 138.039   1
  -4  -5   0 183.128 177.127   2
   4  -5   0-37.2685 43.1985   1
   4   5   0 62.2670 143.813   2
  -4   5   1 59.6582 67.1568   1
   4  -5   1 38.1242 64.3029   1
  -4  -5   1 93.5384 159.970   2
   4   5   2-157.450 192.662   1
  -4   5   2 73.6746 109.597   1
  -4  -5   2 19.8090 130.695   2
   4  -5   2-141.740 140.798   1
  -4   5   3 103.409 157.948   1
   4  -5   3-11.4452 51.2660   1
  -4   6  -5 3489.32 1148.56   2
   4  -6  -5 3707.13 1162.85   2
  -4  -6  -5 2944.32 1219.80   1
   4  -6  -5 3752.76 1337.52   1
   4   6  -5 3287.06 1175.09   2
   4   6  -4 1132.68 575.363   2
  -4  -6  -4 1135.60 673.744   1
   4  -6  -4 701.283 434.009   1
   4  -6  -4 805.455 435.464   2
  -4   6  -4 664.209 425.894   2
  -4  -6  -3 5936.83 1366.56   1
  -4   6  -3 7840.96 1255.19   2
   4   6  -3 7438.05 1341.34   2
   4  -6  -3 8548.70 1481.04   1
   4  -6  -2 707.772 364.200   1
  -4  -6  -2 316.227 251.475   2
  -4  -6  -2 123.430 177.823   1
  -4  -6  -1 12037.7 1430.02   2
  -4   6  -1 12748.7 932.020   2
   4  -6  -1 12426.9 725.611   2
   4  -6  -1 12548.9 1194.81   1
  -4  -6  -1 12389.7 1861.46   1
   4  -6   0 437.462 173.471   1
  -4  -6   0 878.020 338.305   2
  -4   6   1 10866.7 1126.79   1
  -4  -6   1 11804.8 1375.67   2
   4  -6   2 426.802 243.565   1
  -4  -6   2 623.585 359.572   2
   4   6   2 194.286 226.212   1
  -4   6   2 830.603 387.525   1
   4  -6   3 8374.00 1429.94   1
  -4   7  -5-52.7307 136.367   2
   4  -7  -5-244.955 294.649   2
  -4  -7  -5 27.2001 117.967   1
   4   7  -4 949.957 553.965   2
   4  -7  -4 296.236 368.950   1
   4  -7  -4 384.353 312.935   2
  -4   7  -4 376.762 316.675   2
  -4  -7  -4 986.993 635.424   1
   4   7  -3 485.315 347.501   2
  -4  -7  -3 33.6463 104.835   1
   4  -7  -3 197.571 228.490   1
  -4   7  -3 234.428 147.898   2
   4   7  -2 824.329 428.596   2
  -4  -7  -2 1164.08 525.964   2
  -4  -7  -2 688.544 452.757   1
   4  -7  -2 1570.18 572.450   1
   4  -7  -1 88.0022 14.7504   1
  -4   7  -1 280.021 151.284   2
  -4  -7  -1 300.500 286.890   1
   4   7  -1 14.9514 107.411   2
   4  -7  -1 242.213 114.896   2
  -4  -7  -1 103.603 134.701   2
  -4  -7   0 847.931 369.311   2
   4  -7   0 645.168 248.178   1
  -4  -7   1 268.432 214.471   2
   4  -7   2 584.837 273.285   1
  -4   7   2 1120.21 474.756   1
  -4  -7   2 1019.38 488.745   2
   4  -7   3-97.8887 153.746   1
  -4   8  -5 5761.83 1418.00   2
   4   8  -5 2775.03 1103.05   2
   4  -8  -5 3069.26 1218.91   1
   4  -8  -5 2271.04 951.260   2
   4  -8  -4 4031.96 1211.71   1
  -4   8  -4 3483.78 974.136   2
  -4  -8  -4 2439.74 1040.46   1
   4   8  -4 6472.56 1479.74   2
   4  -8  -4 5227.72 1160.09   2
  -4   8  -3 11482.5 1482.66   2
   4  -8  -3 7057.83 1442.01   1
   4   8  -3 7383.74 1411.69   2
  -4  -8  -3 9316.18 1828.53   1
  -4  -8  -2 7480.60 1347.31   2
   4  -8  -2 7868.38 812.298   2
  -4  -8  -2 5958.44 1400.03   1
   4   8  -2 7739.20 1332.70   2
   4  -8  -2 8154.75 1339.62   1
  -4   8  -1 13936.4 1079.43   2
   4  -8  -1 12142.9 689.188   2
   4  -8  -1 11982.8 1341.88   1
  -4  -8  -1 11715.3 1646.72   2
  -4  -8  -1 14421.9 2272.08   1
   4   8  -1 9446.42 1489.88   2
  -4  -8   0 8543.64 1216.10   2
   4   8   0 9159.38 1240.48   2
   4  -8   0 8146.31 989.566   1
  -4  -8   1 12916.9 1532.08   2
  -4   8   2 7643.49 1280.89   1
   4  -8   2 6599.05 1085.76   1
   4  -8   3 9626.74 1553.20   1
   4  -9  -5 1677.22 904.508   1
  -4   9  -5 1850.08 850.089   2
   4   9  -4 1946.66 852.905   2
   4  -9  -4 1924.80 834.836   1
  -4  -9  -4 4013.85 1330.46   1
  -4   9  -4 3908.15 1022.10   2
   4  -9  -4 1992.57 734.062   2
  -4   9  -3 3427.07 834.884   2
   4  -9  -3 4697.92 1205.50   1
   4   9  -3 3809.60 1039.82   2
  -4  -9  -3 2187.44 912.883   1
   4  -9  -2 4806.61 745.669   2
   4   9  -2 4648.15 1102.69   2
   4  -9  -2 4104.78 962.115   1
  -4  -9  -2 5364.47 1392.18   1
  -4   9  -1 4248.42 699.036   2
   4  -9  -1 4631.61 387.413   2
   4  -9  -1 5330.28 953.820   1
  -4  -9  -1 5986.50 1501.58   1
  -4  -9  -1 5850.10 1196.83   2
   4   9  -1 3093.27 890.813   2
  -4  -9   0 5253.78 1344.03   1
   4   9   0 5196.72 939.305   2
  -4  -9   0 5617.08 1020.71   2
   4  -9   0 5382.21 897.907   1
  -4  -9   1 4600.13 943.339   2
   4  -9   2 4776.50 967.639   1
  -4 -10  -4 428.483 494.413   1
   4  10  -4 723.047 438.555   2
   4 -10  -4 998.477 566.818   1
  -4  10  -4 1564.36 659.374   2
  -4 -10  -3-143.668 244.397   1
  -4  10  -3 162.740 222.982   2
   4  10  -3 198.819 263.705   2
   4 -10  -3-226.175 269.481   1
   4  10  -2 2116.98 806.157   2
   4 -10  -2 2929.08 863.770   1
  -4 -10  -2 1206.22 684.301   1
  -4 -10  -1 8.78568 57.6074   1
   4  10  -1-147.815 190.603   2
  -4  10  -1 111.614 109.271   2
   4 -10  -1 164.341 176.812   1
  -4 -10  -1-211.078 224.519   2
  -4 -10   0 3296.04 818.416   2
  -4 -10   0 3045.28 1048.73   1
   4 -10   0 3650.52 800.966   1
   4  10   0 3444.22 777.521   2
   4 -10   2 1822.69 605.289   1
   4  11  -4-57.6235 149.020   2
  -4 -11  -4 249.573 362.061   1
   4 -11  -4-398.120 407.685   1
  -4 -11  -3 272.354 350.227   1
   4 -11  -3 739.212 502.996   1
   4  11  -3 364.792 358.277   2
  -4  11  -3 747.794 422.005   2
  -4  11  -2 314.638 246.836   2
  -4 -11  -2 459.640 441.632   1
   4  11  -2 251.244 295.202   2
   4 -11  -2 864.148 488.485   1
   4 -11  -1 254.658 235.138   1
  -4 -11  -1-337.442 361.660   1
   4  11  -1 137.256 183.164   2
  -4  11  -1 128.095 103.611   2
  -4 -11   0 80.5364 79.0349   1
   4 -11   0 457.896 308.040   1
  -4 -11   0 785.341 405.653   2
   4 -11   1 356.904 264.011   1
   4  12  -4-262.590 334.020   2
   4 -12  -3 682.935 396.366   1
  -4 -12  -3-304.353 385.080   1
   4  12  -3 723.805 549.063   2
   4  12  -2-558.705 456.907   2
   4 -12  -2 385.161 319.530   1
  -4 -12  -2-650.517 542.333   1
   4  12  -1 232.813 237.580   2
  -4 -12  -1 590.733 374.207   1
   4 -12  -1 198.373 169.354   1
  -4 -12   0-21.7855 84.5092   1
   4 -12   0 60.7854 120.961   1
   4 -12   1 566.864 360.290   1
  -4 -13  -3 36.4004 137.800   1
   4  13  -3-190.677 304.514   2
   4  13  -2 497.859 436.787   2
  -4 -13  -2-231.708 331.538   1
  -4 -13  -1 326.907 363.062   1
   4  13  -1 311.686 275.217   2
  -4 -13   0 250.341 280.197   1
  -4 -14  -2 1300.91 748.916   1
  -4 -14  -1 942.172 625.420   1
  -4 -14   0 1019.03 604.231   1
  -4 -14   1 1312.25 740.042   1
  -4 -15  -1 692.813 548.589   1
  -4 -15   0 7598.69 1671.06   1
  -4 -15   1 1314.07 763.286   1
   5   0  -5 52.7687 304.423   2
  -5   0  -5 34.1748 116.271   1
   5   0  -4 298.840 281.573   2
  -5   0  -4-131.564 194.997   1
  -5   0  -3-411.544 296.964   1
   5   0  -3-54.1876 75.0721   2
   5   0  -2 32.7249 97.9207   2
  -5   0  -1-5.42371 81.4852   1
  -5   0   0-7.19740 79.7060   2
  -5   0   1 109.365 108.995   2
   5   0   1-44.9179 103.046   1
   5   0   2 51.8114 132.100   1
  -5   0   2 108.586 127.878   1
   5   0   3 64.9770 98.4036   1
  -5   0   3-131.182 171.541   1
   5  -1  -5 1026.96 551.338   2
   5   1  -5 430.564 315.569   2
  -5   1  -5-420.302 408.242   1
  -5  -1  -5 472.487 316.848   1
  -5   1  -4 3422.55 1006.03   1
   5   1  -4 2188.00 801.694   2
   5  -1  -4 2302.15 775.363   2
  -5  -1  -4 3138.29 966.118   1
   5  -1  -3 1180.30 471.539   2
   5   1  -3 952.687 461.767   2
  -5   1  -3 245.952 121.600   1
   5  -1  -2 6759.00 954.383   2
  -5   1  -2 7757.17 1049.56   1
  -5   1  -1 695.892 223.832   1
   5  -1  -1 1249.72 300.823   2
   5  -1   0 11545.0 781.484   2
  -5  -1   0 9933.66 1140.72   2
  -5   1   0 8664.85 888.053   2
  -5  -1   1 1185.34 341.883   2
  -5   1   1 1454.92 325.364   2
   5   1   1 746.739 297.196   1
   5  -1   1 658.302 249.554   1
  -5   1   2 6544.54 973.412   1
  -5  -1   2 7230.03 1113.36   1
  -5  -1   2 6701.27 1005.87   2
   5   1   2 8396.13 1218.19   1
   5  -1   2 7832.62 1092.15   1
  -5   1   3 1104.37 492.907   1
   5  -1   3-75.9995 133.183   1
   5   1   3 277.568 297.177   1
  -5  -1   3 947.818 436.840   1
   5  -2  -5 1912.90 799.927   2
   5   2  -5 2140.15 900.489   2
  -5  -2  -4 12523.9 2047.23   1
  -5   2  -4 12157.6 1906.99   1
   5  -2  -4 10387.1 1703.24   2
   5   2  -4 10906.5 1760.08   2
   5   2  -3 4816.76 1007.66   2
   5  -2  -3 4432.36 923.737   2
  -5  -2  -3 2185.53 738.099   1
  -5   2  -3 2271.33 679.967   1
  -5   2  -2 24089.3 1752.88   1
   5  -2  -2 23929.5 1729.23   2
   5  -2  -1 6842.97 666.898   2
  -5   2  -1 4008.48 507.485   1
  -5   2   0 30087.3 1386.51   2
  -5  -2   0 33170.6 2172.53   2
  -5   2   1 7537.92 736.563   1
  -5   2   1 6381.97 647.356   2
   5   2   1 4180.69 775.097   1
  -5  -2   1 7239.74 917.024   2
   5  -2   1 4494.23 573.252   1
   5   2   2 25123.6 2212.00   1
  -5   2   2 22616.6 1830.95   1
  -5  -2   2 22836.1 1958.05   2
   5  -2   2 26703.2 1965.54   1
   5  -2   3 1816.05 637.911   1
  -5   2   3 3793.69 919.399   1
   5  -3  -5 505.504 377.826   2
  -5  -3  -5 255.822 331.713   1
   5   3  -5 204.159 271.641   2
  -5   3  -5 882.985 565.787   2
  -5  -3  -4 2635.60 962.210   1
   5   3  -4 1195.56 588.246   2
   5  -3  -4 1233.73 598.206   2
   5  -3  -3-2.26933 202.024   1
  -5  -3  -3 144.406 194.438   1
   5   3  -3 409.145 329.834   2
   5  -3  -3 42.1907 62.7623   2
   5  -3  -2 3636.75 666.494   2
   5  -3  -2 3380.27 702.023   1
  -5   3  -2 3577.79 666.703   1
   5  -3  -1 616.077 218.186   1
  -5  -3  -1 772.986 320.563   2
   5  -3  -1 439.304 153.676   2
  -5   3   0 4989.04 377.749   2
  -5  -3   0 4551.40 833.372   2
  -5  -3   1 486.538 275.685   2
   5  -3   1 560.002 187.633   1
  -5   3   1 429.545 192.954   1
   5   3   2 3515.32 867.099   1
   5  -3   2 3584.31 718.774   1
  -5   3   2 3438.03 709.840   1
  -5  -3   2 3152.96 755.840   2
  -5   3   3 391.480 310.170   1
   5  -3   3 558.029 362.287   1
   5   4  -5 3460.10 1163.48   2
  -5  -4  -5 1559.14 877.497   1
  -5   4  -5 1269.27 659.023   2
   5  -4  -5 2432.90 922.649   2
   5   4  -4 11158.5 1844.78   2
  -5   4  -4 16086.5 2105.18   2
   5  -4  -4 9602.90 1626.57   2
  -5  -4  -4 16484.4 2512.98   1
   5  -4  -3 6400.38 1225.89   1
  -5  -4  -3 2989.31 908.641   1
   5  -4  -3 6548.46 1113.58   2
   5   4  -3 5901.39 1157.39   2
   5  -4  -2 23977.5 1924.86   1
   5  -4  -2 24067.7 1694.08   2
   5  -4  -1 9101.26 838.407   1
   5  -4  -1 9086.80 637.616   2
  -5  -4   0 33681.3 2278.93   2
  -5   4   1 9290.64 872.846   1
   5  -4   1 5995.37 615.252   1
  -5  -4   1 8725.92 1164.29   2
  -5   4   2 24396.7 1914.19   1
   5  -4   2 29585.8 2066.93   1
  -5  -4   2 23750.7 2159.37   2
   5   4   2 27920.7 2570.22   1
   5  -4   3 2802.58 795.939   1
  -5   4   3 5448.40 1113.12   1
   5   5  -5 2130.42 913.466   2
  -5  -5  -5 1237.33 813.925   1
  -5   5  -5 1061.04 621.562   2
   5  -5  -5 3090.91 1026.42   2
  -5   5  -4 1415.33 598.882   2
   5  -5  -4 1103.64 603.941   1
   5   5  -4 1042.11 853.082   2
  -5  -5  -4 2591.20 1038.06   1
   5  -5  -4 512.920 361.762   2
  -5  -5  -3 2455.52 863.372   1
   5   5  -3 4752.34 1080.79   2
   5  -5  -3 4819.65 1056.51   1
   5  -5  -3 5338.92 982.920   2
  -5   5  -3 3857.72 878.073   2
   5   5  -2 2246.37 657.860   2
  -5  -5  -2 3432.40 932.900   1
   5  -5  -2 1590.03 487.768   1
   5  -5  -2 2074.94 487.048   2
   5  -5  -1 9218.77 896.216   1
   5  -5  -1 9654.31 600.490   2
  -5  -5  -1 7732.43 1147.49   2
  -5   5  -1 7045.24 676.510   2
  -5  -5   0 3651.19 765.272   2
   5  -5   0 3210.91 312.881   1
   5  -5   1 7615.05 704.737   1
  -5  -5   1 8514.11 1198.30   2
  -5   5   1 8198.95 854.320   1
   5  -5   2 4158.59 783.853   1
   5   5   2 3518.19 960.989   1
  -5   5   2 2101.78 592.180   1
  -5  -5   2 2446.69 720.101   2
  -5   5   3 4510.51 1043.67   1
   5  -5   3 3111.61 878.914   1
  -5   6  -5 210.299 275.000   2
   5   6  -5 311.542 357.150   2
  -5  -6  -5-206.618 321.890   1
   5  -6  -5 365.401 352.711   2
  -5  -6  -4 1312.17 695.941   1
   5   6  -4 1357.79 645.410   2
   5  -6  -4 1713.55 748.240   1
   5  -6  -4 1493.05 584.156   2
  -5   6  -4 889.666 491.737   2
   5   6  -3 278.399 269.940   2
  -5  -6  -3-152.646 219.913   1
   5  -6  -3-55.0359 174.481   1
  -5   6  -3 35.3981 83.5669   2
   5  -6  -3-166.623 190.160   2
  -5  -6  -2 2836.53 793.296   2
   5  -6  -2 2634.09 665.689   1
   5  -6  -2 3259.43 592.647   2
  -5  -6  -2 2292.99 831.676   1
   5   6  -2 3415.73 833.254   2
   5  -6  -1 24.6226 35.3050   2
  -5   6  -1 100.159 70.7354   2
   5  -6  -1-26.4367 66.5141   1
  -5  -6  -1 131.809 229.873   1
   5   6  -1 265.388 263.377   2
  -5  -6  -1 118.450 148.685   2
   5  -6  -1 27.5092 47.0450   2
  -5  -6   0 3690.12 781.665   2
   5  -6   0 4554.51 498.597   1
  -5  -6   1-108.872 136.663   2
  -5   6   1 38.1703 101.836   1
   5  -6   1 172.502 108.164   1
   5  -6   2 2648.14 625.385   1
  -5   6   2 2617.64 687.794   1
  -5  -6   2 2886.54 800.925   2
   5  -6   3 143.131 182.557   1
  -5   7  -5 1130.82 620.906   2
  -5  -7  -5 1474.17 879.773   1
   5  -7  -5-725.629 592.102   1
   5  -7  -5 334.493 336.148   2
   5   7  -5-137.756 242.648   2
   5  -7  -4 3366.56 1073.55   1
  -5   7  -4 3662.90 998.665   2
   5  -7  -4 1802.93 660.165   2
  -5  -7  -4 2035.80 949.459   1
   5   7  -4 1648.38 746.865   2
  -5   7  -3 1149.67 458.418   2
   5   7  -3 555.494 379.447   2
   5  -7  -3 265.316 210.965   2
  -5  -7  -3 452.842 394.279   1
   5  -7  -3 624.112 394.301   1
   5  -7  -2 5872.31 1049.61   1
   5   7  -2 6199.45 1179.43   2
  -5  -7  -2 6493.83 1244.56   2
  -5  -7  -2 3683.57 1107.43   1
   5  -7  -2 6143.73 785.806   2
  -5  -7  -1 1663.57 815.942   1
   5   7  -1 1711.27 635.201   2
  -5  -7  -1 2353.95 723.490   2
   5  -7  -1 1934.37 479.053   1
  -5   7  -1 1919.38 352.529   2
  -5  -7   0 7249.93 1132.31   2
   5   7   0 7736.79 1194.31   2
   5  -7   0 6506.61 701.235   1
  -5  -7   1 1576.49 526.469   2
  -5   7   2 4708.68 933.981   1
   5  -7   2 4675.18 842.005   1
   5  -7   3 1476.38 585.015   1
  -5   8  -5-43.8938 123.527   2
   5  -8  -5 748.538 606.120   1
  -5   8  -4 1611.78 661.874   2
   5   8  -4 1962.03 835.450   2
  -5  -8  -4 2025.68 920.908   1
   5  -8  -4 2131.02 915.931   1
   5  -8  -4 1736.62 625.148   2
  -5   8  -3-255.263 216.856   2
  -5  -8  -3-99.2407 192.485   1
   5   8  -3 406.832 334.946   2
   5  -8  -3 247.168 108.100   2
   5  -8  -3 444.564 300.792   1
   5  -8  -2 4628.70 955.194   1
   5   8  -2 4565.67 1079.19   2
   5  -8  -2 4342.02 640.354   2
  -5  -8  -2 4232.02 1249.06   1
  -5   8  -1 336.605 162.438   2
   5  -8  -1 267.578 179.979   1
  -5  -8  -1 245.862 315.943   1
  -5  -8  -1-75.8941 135.082   2
   5   8  -1 66.8375 129.636   2
  -5  -8   0 5622.40 1028.25   2
   5   8   0 5527.11 1014.45   2
   5  -8   0 4754.71 684.448   1
  -5  -8   1 584.223 349.852   2
   5  -8   2 4218.10 822.662   1
  -5   8   2 3418.40 832.253   1
   5  -8   3 457.848 338.067   1
   5  -9  -5-1102.03 743.046   1
  -5   9  -5 80.9421 167.833   2
  -5   9  -4 537.957 373.900   2
   5  -9  -4 306.646 341.260   1
  -5  -9  -4 904.954 659.306   1
   5   9  -4 577.460 514.006   2
  -5   9  -3 26.9286 72.0844   2
   5   9  -3 233.367 262.976   2
   5  -9  -3 332.914 292.687   1
  -5  -9  -3-407.321 409.336   1
   5  -9  -3 250.927 200.794   2
   5   9  -2 452.172 355.460   2
   5  -9  -2 632.050 242.829   2
  -5  -9  -2 750.642 522.300   1
   5  -9  -2 1009.90 325.655   2
   5  -9  -2 713.332 390.355   1
   5  -9  -1 304.314 212.021   1
  -5  -9  -1 322.268 609.977   1
  -5  -9  -1 233.783 337.125   2
  -5   9  -1 158.544 119.584   2
   5   9  -1 116.294 174.284   2
  -5  -9   0 1578.51 570.033   2
   5  -9   0 1324.26 388.578   1
   5   9   0 1407.49 512.773   2
  -5  -9   1 258.242 215.129   2
   5  -9   2 977.768 405.132   1
   5  10  -4 2095.76 891.543   2
   5 -10  -4 2194.99 929.031   1
  -5 -10  -4 4869.47 1611.93   1
  -5  10  -4 3459.44 954.472   2
  -5  10  -3 852.534 425.177   2
   5  10  -3 1804.80 782.039   2
   5 -10  -3 2060.84 797.746   1
  -5 -10  -3 1780.69 884.560   1
   5  10  -2 4533.41 1217.45   2
  -5 -10  -2 7090.77 1780.50   1
   5 -10  -2 6114.37 703.791   2
   5 -10  -2 5739.74 1178.04   1
   5 -10  -1 3406.52 757.070   1
  -5 -10  -1 3269.14 1217.96   1
   5  10  -1 2689.30 808.757   2
  -5  10  -1 2241.00 424.887   2
  -5 -10   0 7924.68 1311.24   2
   5  10   0 7224.77 1174.79   2
  -5 -10   0 6465.98 1564.48   1
   5 -10   0 6850.82 1006.51   1
   5 -10   1 2113.69 577.760   1
   5  11  -4-382.015 393.948   2
  -5 -11  -3 2065.87 1004.08   1
  -5  11  -3 3025.07 832.673   2
   5  11  -3 2737.54 1032.25   2
   5 -11  -3 3290.98 1039.37   1
   5  11  -2-300.372 332.911   2
   5 -11  -2 275.849 262.241   1
  -5 -11  -2 298.368 371.623   1
   5 -11  -1 4208.13 878.260   1
  -5 -11  -1 5173.68 1479.30   1
   5  11  -1 4347.43 1067.46   2
  -5 -11   0 749.504 515.176   1
   5 -11   0 188.001 180.635   1
   5 -11   1 3385.94 791.127   1
  -5 -12  -3-174.410 301.067   1
   5  12  -3 363.601 402.989   2
   5  12  -2 2458.31 1009.09   2
  -5 -12  -2 1729.27 914.553   1
  -5 -12  -1 195.053 285.983   1
   5  12  -1-84.3522 147.072   2
  -5 -12   0 2391.09 916.824   1
  -5 -13  -3 2341.58 1063.62   1
   5  13  -3 2819.90 1133.09   2
  -5 -13  -2 1716.29 925.492   1
   5  13  -2 1611.52 795.847   2
  -5 -13  -1 2093.35 982.695   1
   5  13  -1 1912.70 728.564   2
  -5 -13   0 1641.15 784.375   1
  -5 -14  -2-589.138 547.872   1
  -5 -14  -1 341.445 381.561   1
   5  14  -1 345.099 300.470   2
  -5 -14   0-142.502 231.538   1
  -5 -14   1 94.7576 208.771   1
  -5 -15  -1 127.894 138.096   1
  -5 -15   0 90.1507 189.656   1
  -5 -15   1 185.003 300.593   1
  -6   0  -5 17041.3 2644.92   1
   6   0  -5 16479.4 2419.40   2
   6   0  -4 568.924 361.242   2
  -6   0  -4 757.672 485.827   1
   6   0  -3 45214.7 3039.88   2
  -6   0  -3 45501.4 3250.03   1
   6   0  -2 356.886 249.428   2
   6   0  -1 70403.8 2706.80   2
  -6   0  -1 80641.3 2875.86   1
  -6   0   0 253.950 169.947   2
  -6   0   1 76722.5 2757.22   2
   6   0   1 81625.3 3071.66   1
   6   0   2 287.317 241.941   1
  -6   0   2 342.724 251.056   1
  -6   0   2 206.520 173.711   2
  -6   0   3 46239.1 3298.99   1
   6   0   3 48233.7 3497.37   1
   6  -1  -5 80.0134 165.907   2
   6   1  -5 366.276 358.587   2
  -6  -1  -5 1079.34 635.705   1
  -6   1  -5 1009.23 629.729   1
   6  -1  -4 2180.98 767.120   2
  -6  -1  -4 1940.90 784.064   1
  -6   1  -4 1364.68 662.869   1
   6   1  -4 2410.19 842.661   2
   6   1  -3 617.108 376.707   2
   6  -1  -3 678.755 369.903   2
  -6   1  -3 1095.31 467.128   1
  -6  -1  -3 1215.24 565.837   1
  -6   1  -2 3138.82 681.134   1
   6  -1  -2 3225.23 633.439   2
   6  -1  -1 778.528 272.523   2
  -6   1  -1 569.491 239.631   1
  -6  -1  -1 451.979 237.973   1
  -6  -1   0 2381.93 609.814   2
  -6   1   0 2500.87 532.187   2
   6  -1   0 2777.10 428.073   2
  -6  -1   1 539.462 242.135   2
   6   1   1 457.274 223.175   1
   6  -1   1 894.744 293.953   1
  -6   1   1 459.615 193.753   2
  -6   1   2 3064.00 682.332   1
   6   1   2 3660.25 835.173   1
   6  -1   2 3786.94 770.656   1
  -6  -1   2 2994.66 709.549   2
  -6   1   3 793.338 451.463   1
   6  -1   3 1012.79 486.648   1
   6   1   3 1126.00 533.597   1
  -6  -2  -5 1867.85 879.636   1
   6   2  -5 991.125 628.758   2
   6  -2  -5 634.573 446.682   2
   6  -2  -4 1427.65 602.188   2
   6   2  -4 1520.84 660.282   2
  -6   2  -4 1333.09 623.483   1
  -6  -2  -4 1629.31 735.970   1
  -6   2  -3 3752.53 860.045   1
   6   2  -3 1210.88 505.613   2
   6  -2  -3 1121.24 493.427   2
  -6  -2  -3 2977.08 856.268   1
   6  -2  -2 3143.50 630.790   2
  -6   2  -2 3641.45 683.542   1
  -6  -2  -1 5235.67 806.511   2
  -6   2  -1 5227.99 599.505   1
  -6  -2   0 5501.71 954.293   2
  -6   2   0 5362.11 664.566   2
   6  -2   0 5288.34 478.772   2
  -6   2   1 2371.98 429.812   1
  -6   2   1 2590.73 443.254   2
  -6  -2   1 2480.59 584.997   2
  -6   2   2 2587.30 617.180   1
   6  -2   2 3981.65 770.192   1
   6   2   2 3460.93 847.731   1
  -6  -2   2 3001.33 729.186   2
   6  -2   3 4172.91 983.395   1
  -6   2   3 1678.65 639.454   1
   6  -3  -5-300.291 318.219   2
   6   3  -5 306.185 337.976   2
  -6  -3  -5 210.641 302.425   1
  -6   3  -5-191.614 265.295   2
   6  -3  -4 759.904 460.206   2
   6   3  -4 1073.92 543.231   2
  -6  -3  -4 1092.26 626.753   1
   6  -3  -3 158.220 231.215   2
  -6  -3  -3-263.481 51.0436   1
   6   3  -3 199.882 250.923   2
  -6   3  -3 136.457 149.124   1
  -6   3  -2 1774.01 471.915   1
   6  -3  -2 1282.47 389.772   2
   6  -3  -1 280.303 128.010   2
  -6   3  -1 241.015 128.039   1
  -6  -3  -1 240.687 204.561   2
  -6   3   0 1034.21 214.569   2
  -6  -3   0 906.022 395.222   2
  -6  -3   1 181.678 153.801   2
  -6   3   1 195.256 118.218   1
   6  -3   1 245.289 126.550   1
   6   3   2 1375.13 563.353   1
  -6  -3   2 1197.69 463.778   2
  -6   3   2 1120.28 400.152   1
   6  -3   2 1346.45 428.466   1
  -6   3   3-96.6547 33.3558   1
   6  -3   3-134.740 173.744   1
   6  -4  -5 139.904 216.220   2
  -6  -4  -5 511.542 484.854   1
   6   4  -5-480.982 432.622   2
  -6   4  -5 73.9084 113.192   2
   6  -4  -4 1010.11 532.686   2
   6   4  -4 1093.53 560.966   2
  -6  -4  -4 1879.00 839.415   1
   6   4  -3-35.3155 90.3313   2
   6  -4  -3 118.358 113.599   2
   6  -4  -2 2952.10 575.728   2
   6  -4  -2 2547.76 619.747   1
  -6  -4  -1 157.591 210.378   2
   6  -4  -1 18.0335 40.4216   2
  -6  -4   0 3574.78 774.292   2
   6  -4   1 79.3459 62.5537   1
  -6  -4   1 72.9766 117.624   2
  -6   4   1 36.0055 31.9472   1
  -6   4   2 2579.37 626.463   1
   6   4   2 3781.87 965.701   1
   6  -4   2 2794.90 619.180   1
  -6  -4   2 2504.28 719.544   2
  -6   4   3-74.6784 127.652   1
   6  -4   3 146.752 180.926   1
   6  -5  -5 70.0691 151.946   2
   6   5  -5-59.5797 155.820   2
  -6  -5  -5 297.831 380.901   1
  -6   5  -5-174.248 253.674   2
   6   5  -4 165.491 229.860   2
  -6   5  -4 81.4890 149.850   2
  -6  -5  -4 601.770 485.692   1
   6  -5  -4 33.7534 57.1275   2
   6  -5  -3-316.463 270.803   1
  -6  -5  -3 18.2966 74.8146   1
  -6   5  -3-124.428 157.014   2
   6  -5  -3 154.881 154.595   2
  -6  -5  -2 31.6715 91.5733   1
   6   5  -2 358.751 254.434   2
   6  -5  -2 201.060 144.211   2
  -6  -5  -2 716.240 391.308   2
   6  -5  -2 320.195 234.636   1
   6  -5  -1 103.111 50.8560   2
   6  -5  -1 131.258 90.5398   1
   6   5  -1 61.8232 57.0486   2
  -6  -5  -1 82.4542 192.092   2
  -6  -5   0 540.803 307.963   2
  -6  -5   1 164.767 127.551   2
  -6   5   1 62.1255 104.116   1
   6  -5   1 169.231 99.2565   1
  -6  -5   2 385.035 316.233   2
   6   5   2 252.091 261.355   1
  -6   5   2 598.450 286.711   1
   6  -5   2 273.935 182.382   1
   6  -5   3-79.1805 133.419   1
  -6   5   3-10.0280 48.2497   1
  -6  -6  -5 9146.32 2171.53   1
  -6   6  -5 9529.27 1877.44   2
   6  -6  -5 10234.4 1837.44   2
   6   6  -5 10303.5 2109.54   2
   6   6  -4 1062.69 629.188   2
  -6  -6  -4 78.2638 179.835   1
   6  -6  -4 600.526 356.124   1
  -6   6  -4 555.241 325.068   2
   6  -6  -4 635.414 405.404   2
   6  -6  -3 25340.4 2476.41   1
  -6   6  -3 22329.2 2128.08   2
   6  -6  -3 24667.5 2068.72   2
   6   6  -3 23066.4 2467.54   2
  -6  -6  -3 19642.2 2587.25   1
   6  -6  -2 250.986 183.230   1
   6   6  -2 263.661 294.275   2
   6  -6  -2 62.8395 96.3510   2
  -6  -6  -2 166.889 162.989   2
  -6  -6  -2 468.882 436.508   1
   6  -6  -1 39962.1 1846.07   1
  -6   6  -1 37691.5 1498.40   2
   6   6  -1 34573.3 2874.30   2
  -6  -6  -1 36622.4 3699.02   1
  -6  -6  -1 32873.2 2682.76   2
  -6  -6   0 109.329 100.779   2
   6   6   0 75.3680 186.662   2
   6  -6   1 35682.4 1518.77   1
  -6  -6   1 35746.8 2653.94   2
  -6   6   1 36835.3 1852.45   1
  -6   6   2 60.3305 99.7911   1
   6  -6   2 373.874 230.324   1
   6  -6   3 20828.0 2219.34   1
   6  -7  -5 78.1037 158.585   2
  -6   7  -5 686.638 543.825   2
   6   7  -5 423.624 433.048   2
  -6   7  -4 2897.53 881.983   2
   6   7  -4 3092.82 1011.08   2
   6  -7  -4 3283.07 1068.93   1
  -6  -7  -4 2815.13 1139.33   1
   6  -7  -4 2967.13 846.158   2
  -6  -7  -3 1632.33 744.888   1
   6   7  -3 341.892 305.066   2
   6  -7  -3 472.673 339.276   1
   6  -7  -3 420.269 252.582   2
  -6   7  -3 1056.63 435.210   2
   6   7  -2 5175.34 1113.58   2
   6  -7  -2 5067.35 686.451   2
  -6  -7  -2 4967.72 1330.65   1
   6  -7  -2 5374.17 951.931   1
  -6   7  -1 1325.50 284.901   2
   6  -7  -1 910.250 298.851   1
  -6  -7  -1 1388.36 785.172   1
   6   7  -1 732.372 487.392   2
  -6  -7  -1 799.444 457.672   2
  -6  -7   0 5643.53 1030.14   2
   6   7   0 6580.63 1152.43   2
   6  -7   0 4971.19 482.203   1
   6  -7   1 907.621 256.198   1
  -6  -7   1 713.197 350.262   2
   6  -7   2 5461.09 919.292   1
  -6   7   2 3783.18 820.344   1
   6  -7   3 977.200 476.263   1
  -6   8  -5 1342.50 685.293   2
   6   8  -4 688.227 561.045   2
  -6  -8  -4-218.761 320.743   1
   6  -8  -4 1652.98 781.427   1
  -6   8  -4 656.643 415.392   2
   6  -8  -4 689.091 400.263   2
  -6   8  -3 3076.60 754.247   2
  -6  -8  -3 1419.51 728.681   1
   6  -8  -3 1253.70 560.471   1
   6   8  -3 1623.91 704.607   2
   6  -8  -3 1881.99 547.872   2
   6  -8  -2 1731.57 378.552   2
   6  -8  -2 1508.54 514.894   1
  -6  -8  -2 1444.29 787.670   1
   6   8  -2 1359.57 593.841   2
  -6  -8  -1 3759.05 1345.22   1
  -6   8  -1 3072.43 425.190   2
  -6  -8  -1 1258.06 565.164   2
   6   8  -1 1323.83 590.834   2
   6  -8  -1 2218.52 504.517   1
  -6  -8   0 2314.96 692.314   2
   6  -8   0 2328.80 405.078   1
   6   8   0 2479.51 703.782   2
   6  -8   1 2109.75 420.781   1
  -6  -8   1 1874.22 635.401   2
  -6   8   2 2094.84 625.250   1
   6  -8   2 1566.97 489.249   1
   6  -8   3 1400.08 608.946   1
  -6   9  -5-391.500 367.257   2
  -6   9  -4 1736.87 666.956   2
   6   9  -4 2187.27 917.610   2
   6  -9  -4 2282.70 951.377   1
  -6  -9  -4 2221.34 1071.08   1
   6  -9  -3 37.7826 99.9560   1
  -6  -9  -3-64.0987 169.577   1
  -6   9  -3-84.5086 125.714   2
   6   9  -3 28.2943 94.4645   2
   6  -9  -3-8.15194 35.3552   2
   6  -9  -2 4017.02 884.282   1
   6  -9  -2 3903.14 533.272   2
   6   9  -2 3418.88 1049.57   2
  -6  -9  -2 4869.08 1510.29   1
   6  -9  -2 4087.27 591.582   2
  -6   9  -1 81.2707 73.7971   2
  -6  -9  -1-234.819 329.336   1
   6   9  -1 25.8451 239.660   2
   6  -9  -1 171.111 161.477   1
   6  -9   0 4753.32 656.691   1
  -6  -9   0 4325.31 982.954   2
   6   9   0 4748.38 957.270   2
   6  -9   1 105.936 100.259   1
   6  -9   2 4411.38 839.254   1
  -6  10  -4 637.593 410.796   2
   6 -10  -4 143.790 233.629   1
   6  10  -4 426.009 411.853   2
  -6 -10  -4 1211.12 772.492   1
  -6 -10  -3 851.436 650.248   1
  -6  10  -3 862.844 440.275   2
   6  10  -3 771.968 520.895   2
   6 -10  -3 648.709 406.589   1
   6 -10  -2 485.894 319.780   1
   6  10  -2 778.065 522.642   2
  -6 -10  -2 774.877 589.343   1
  -6 -10  -1 631.472 662.069   1
   6  10  -1 970.728 503.344   2
   6 -10  -1 1128.39 390.383   1
  -6  10  -1 433.251 115.572   2
  -6 -10   0 455.512 448.713   1
   6  10   0 693.978 316.024   2
   6 -10   0 545.903 245.673   1
   6 -10   1 533.471 274.101   1
   6 -10   1 960.235 334.058   1
   6  11  -4 2473.85 1039.22   2
  -6 -11  -3-72.7183 197.017   1
   6  11  -3-44.7429 135.120   2
   6 -11  -3-238.070 261.732   1
   6 -11  -2 2961.81 805.100   1
  -6 -11  -2 3238.48 1323.20   1
   6  11  -2 2377.36 961.214   2
  -6 -11  -1 427.966 442.116   1
   6 -11  -1 124.486 139.402   1
   6  11  -1-29.8968 203.712   2
  -6 -11   0 3743.55 1244.88   1
   6  11   0 4293.91 943.054   2
   6 -11   0 3612.79 686.226   1
   6 -11   1-55.3203 95.9701   1
  -6 -12  -3 2717.37 1198.43   1
   6  12  -3 3296.69 1221.71   2
   6  12  -2 234.448 309.226   2
  -6 -12  -2 145.819 276.010   1
  -6 -12  -1 3944.55 1331.07   1
   6  12  -1 5929.93 1306.95   2
  -6 -12   0 98.9577 195.639   1
   6  13  -3-630.086 575.304   2
   6  13  -2 1728.00 834.964   2
  -6 -13  -2-112.144 243.186   1
  -6 -13  -1-201.161 299.244   1
   6  13  -1 329.124 298.449   2
  -6 -13   0 310.737 347.245   1
  -6 -14  -2-693.368 605.993   1
   6  14  -2 503.948 449.074   2
  -6 -14  -1 192.720 292.107   1
   6  14  -1 33.9705 96.8841   2
  -6 -14   0 367.765 384.729   1
  -6 -14   1 193.894 319.267   1
  -6 -15  -1-576.668 508.536   1
  -6 -15   0 650.801 524.698   1
  -6 -15   1-992.860 741.212   1
   7   0  -5 264.925 301.018   2
  -7   0  -5 631.445 533.397   1
   7   0  -4-50.5137 117.103   2
  -7   0  -4-72.4574 146.123   1
   7   0  -3-40.6818 140.751   2
  -7   0  -3 187.684 207.172   1
   7   0  -2-75.7824 205.170   2
   7   0  -1 34.6257 157.245   2
  -7   0  -1 7.99770 72.1822   1
  -7   0   0 125.558 161.847   2
   7   0   0 89.0910 89.9559   2
  -7   0   1 3.17446 91.3758   2
   7   0   1 115.504 159.585   1
  -7   0   2 101.969 131.851   1
   7   0   2 118.815 145.750   1
  -7   0   2 36.9647 54.1511   2
   7   0   3-73.6401 106.679   1
   7  -1  -5 2371.64 925.551   2
  -7   1  -5 2274.44 937.576   1
  -7  -1  -5 1431.06 762.530   1
   7   1  -5 1325.88 696.319   2
   7  -1  -4 126.172 183.040   2
   7   1  -4-101.330 326.952   2
  -7   1  -4 326.153 306.405   1
  -7  -1  -4-154.130 220.537   1
  -7   1  -3 5134.02 1058.45   1
  -7  -1  -3 5381.45 1152.48   1
   7  -1  -3 5909.43 1090.46   2
   7   1  -3 4509.10 981.151   2
   7  -1  -2 41.9780 122.494   2
   7   1  -2 384.663 280.336   2
  -7  -1  -1 8855.84 1021.70   2
  -7   1  -1 10918.8 1005.26   1
  -7  -1  -1 9684.04 1174.26   1
   7  -1  -1 11989.6 1106.83   2
  -7   1   0-2.90373 58.4631   2
  -7  -1   0-11.5748 44.8495   2
  -7   1   1 9390.86 931.143   2
  -7  -1   1 9585.55 1119.43   2
   7  -1   1 8817.78 966.639   1
   7   1   2 387.709 301.930   1
  -7   1   2-20.4134 115.217   1
   7  -1   2 462.871 286.423   1
  -7   1   2 118.267 128.232   2
  -7  -1   2-6.61225 112.295   2
  -7   1   3 4749.54 1074.34   1
   7  -1   3 6258.14 1250.91   1
   7  -2  -5-124.944 205.733   2
   7   2  -5-68.3344 169.717   2
  -7  -2  -5 478.036 446.481   1
  -7   2  -4 9467.79 1674.04   1
  -7  -2  -4 12137.7 2052.24   1
   7  -2  -4 9905.13 1616.28   2
   7   2  -4 10679.6 1802.53   2
   7  -2  -3-35.6651 81.9517   2
  -7   2  -3 334.113 257.165   1
  -7  -2  -3-5.93862 38.9393   1
   7   2  -3 136.393 183.799   2
  -7   2  -2 20769.1 1692.12   1
   7  -2  -2 22356.2 1714.83   2
  -7  -2  -2 19376.8 1985.74   1
   7  -2  -1 102.699 127.497   2
  -7   2  -1 253.617 139.436   1
  -7  -2  -1 124.711 114.569   2
   7  -2   0 23790.0 1127.18   2
  -7   2   0 20305.7 1421.04   2
  -7  -2   0 21385.7 1993.92   2
  -7   2   1 25.8700 71.8957   2
  -7  -2   1 42.1086 38.9254   2
  -7   2   1 153.768 106.660   1
   7  -2   1 273.512 137.623   1
  -7   2   2 21616.5 1811.49   1
  -7  -2   2 22096.0 2035.38   2
   7  -2   2 20142.8 1767.54   1
   7   2   2 18197.1 2032.09   1
   7  -2   3 315.988 250.700   1
  -7   2   3 156.123 191.038   1
   7  -3  -5-5.54380 276.742   2
   7   3  -5-113.124 338.946   2
  -7  -3  -5-102.280 212.076   1
   7  -3  -4 602.435 354.743   2
   7   3  -4 561.460 472.473   2
  -7  -3  -4 586.999 449.013   1
   7  -3  -3 155.490 168.590   2
  -7  -3  -3 421.514 339.107   1
  -7   3  -3 511.988 331.813   1
   7  -3  -2 1514.08 433.052   2
  -7   3  -2 921.636 344.656   1
   7  -3  -1 616.621 215.511   2
  -7   3  -1 1164.57 254.306   1
  -7  -3  -1 1284.73 464.509   2
  -7  -3   0 1577.69 539.398   2
  -7   3   0 2387.93 385.079   2
  -7   3   1 588.536 215.790   1
  -7  -3   1 1003.89 421.853   2
   7  -3   1 1253.32 299.633   1
  -7   3   1 702.073 217.320   2
  -7  -3   2 1724.28 593.224   2
   7   3   2 1131.47 526.797   1
  -7   3   2 1621.63 490.877   1
   7  -3   2 1044.63 390.702   1
  -7   3   3 171.487 148.524   1
   7  -3   3 383.230 181.104   1
   7  -4  -5-361.063 344.287   2
   7   4  -5-165.727 258.186   2
  -7  -4  -5-54.4397 159.637   1
   7  -4  -4 8091.67 1433.27   2
   7   4  -4 7410.53 1529.67   2
  -7  -4  -4 8585.03 1822.01   1
   7  -4  -3 68.3152 93.3884   2
   7   4  -3 37.1945 95.1375   2
  -7  -4  -3 394.976 301.704   1
   7  -4  -2 17080.1 1377.64   2
   7   4  -2 16400.0 1811.20   2
  -7  -4  -2 15133.1 1978.95   1
   7  -4  -1 206.898 119.384   2
  -7  -4  -1 185.434 171.853   2
  -7   4   0 20642.7 798.879   2
  -7  -4   0 18737.7 1883.96   2
  -7   4   1 288.034 146.587   1
  -7  -4   1 152.281 167.081   2
   7  -4   1 337.951 140.684   1
   7   4   2 16427.0 2104.24   1
   7  -4   2 15515.5 1468.47   1
  -7  -4   2 17264.0 1950.28   2
  -7   4   2 17327.1 1593.15   1
  -7   4   3 87.5889 174.541   1
   7  -4   3 424.467 331.211   1
   7  -5  -5 5342.55 1320.81   2
   7   5  -5 5467.93 1518.56   2
  -7  -5  -5 6182.23 1768.92   1
  -7   5  -5 5575.95 1458.31   2
   7  -5  -4 604.472 396.719   2
   7   5  -4 520.723 416.687   2
  -7  -5  -4 1165.19 682.572   1
  -7   5  -4 1301.60 610.054   2
   7  -5  -3 14152.4 1568.89   2
   7   5  -3 15012.5 1984.21   2
  -7  -5  -3 12772.9 2061.58   1
   7  -5  -2 45.2565 50.3270   2
   7   5  -2 334.531 261.907   2
  -7  -5  -2 763.029 408.117   2
  -7  -5  -2 343.206 328.364   1
   7  -5  -1 22055.3 987.735   2
   7   5  -1 22221.3 2295.90   2
  -7  -5  -1 22600.0 2243.59   2
  -7  -5   0 486.458 284.281   2
  -7  -5   1 19915.9 2004.25   2
   7  -5   1 20559.2 1000.31   1
  -7   5   1 23903.7 1349.69   1
   7  -5   2 919.850 365.974   1
  -7   5   2 46.9391 27.6887   1
  -7   5   3 14237.5 1833.81   1
   7  -5   3 14441.6 1817.08   1
   7  -6  -5 561.808 480.400   2
  -7  -6  -5 684.520 603.646   1
   7   6  -5 137.964 246.862   2
  -7   6  -5 36.7807 116.496   2
   7   6  -4 1224.91 657.574   2
   7  -6  -4 1180.60 559.031   2
  -7  -6  -4 974.214 671.021   1
  -7   6  -4 956.204 477.516   2
   7  -6  -3 223.506 165.561   2
  -7  -6  -3 373.669 447.988   1
   7   6  -3 852.417 506.400   2
   7  -6  -3-162.018 197.272   1
  -7   6  -3 233.818 214.984   2
   7  -6  -2 2164.59 448.947   2
   7   6  -2 2338.09 739.553   2
   7  -6  -2 2205.45 594.045   1
  -7  -6  -2 1813.55 823.545   1
   7   6  -1 389.166 338.358   2
  -7  -6  -1 687.475 525.539   1
  -7   6  -1 138.939 90.6498   2
   7  -6  -1 474.040 192.186   1
  -7  -6  -1 351.904 303.290   2
  -7  -6   0 1149.98 463.577   2
   7   6   0 1717.87 632.141   2
   7  -6   1 245.043 106.274   1
  -7  -6   1 391.283 252.583   2
  -7   6   1 194.651 125.934   1
   7  -6   2 1074.74 391.370   1
  -7   6   2 1954.88 561.777   1
   7  -6   3 275.766 247.707   1
  -7   7  -5-1166.67 648.515   2
   7  -7  -5-53.4427 128.570   2
   7   7  -4 137.622 222.633   2
   7  -7  -4 58.3151 115.289   2
  -7  -7  -4 649.602 545.362   1
  -7   7  -4 319.915 296.233   2
   7  -7  -3 235.358 191.626   2
  -7  -7  -3 488.026 459.597   1
   7   7  -3 543.583 392.922   2
   7  -7  -3 188.267 213.510   1
  -7   7  -3 420.961 284.912   2
   7  -7  -2 188.666 125.051   2
   7   7  -2 61.2657 124.396   2
   7  -7  -2 193.744 175.687   1
  -7  -7  -2 86.5304 219.340   1
   7  -7  -1 213.414 132.905   1
   7   7  -1 24.1792 201.503   2
  -7  -7  -1 325.322 307.696   2
  -7   7  -1 92.8560 69.2510   2
  -7  -7   0 265.012 259.953   2
   7   7   0 234.757 221.520   2
  -7  -7   1-54.4609 109.095   2
   7  -7   1 24.9410 42.5182   1
  -7   7   2-151.376 159.230   1
   7  -7   2 53.4872 84.7054   1
   7  -7   3-123.818 166.718   1
  -7   8  -5 384.237 367.496   2
   7  -8  -4 2967.47 811.434   2
  -7   8  -4 3387.73 938.910   2
   7   8  -4 2790.57 1035.88   2
  -7  -8  -4 2873.14 1194.56   1
   7  -8  -4 2869.57 1002.56   1
   7  -8  -3 183.352 166.263   2
  -7   8  -3 162.430 174.678   2
  -7  -8  -3 179.776 282.361   1
   7  -8  -3 124.773 90.6621   1
   7   8  -3 191.103 291.901   2
   7  -8  -2 6445.66 1036.10   1
   7   8  -2 5260.01 1254.86   2
  -7  -8  -2 4948.94 1522.62   1
   7  -8  -2 6496.75 696.480   2
  -7   8  -1-34.3991 38.9283   2
  -7  -8  -1 192.017 95.2423   1
   7   8  -1 67.8013 140.586   2
   7  -8  -1 218.093 136.983   1
  -7  -8   0 7744.94 1290.72   2
   7   8   0 7686.79 1281.58   2
   7  -8   1 77.1409 67.6527   1
   7  -8   1 72.8668 72.0287   1
  -7   8   2 6315.07 1076.91   1
   7  -8   2 7336.87 1021.76   1
  -7   9  -5 54.4993 136.465   2
  -7   9  -4-2.52655 25.3058   2
   7  -9  -4-241.765 295.833   1
   7   9  -4 191.914 274.600   2
  -7  -9  -4 228.836 352.269   1
  -7  -9  -3 1370.50 826.259   1
  -7   9  -3 1266.18 481.272   2
   7   9  -3 1463.80 699.740   2
   7  -9  -3 704.624 425.323   1
   7  -9  -2 266.379 117.930   2
   7   9  -2 59.3425 141.410   2
  -7  -9  -2 274.876 373.504   1
   7  -9  -2 667.823 335.846   1
   7  -9  -1 1219.22 343.180   1
  -7  -9  -1 1612.77 912.071   1
   7   9  -1 1231.80 612.686   2
   7  -9   0 67.7953 54.9565   1
   7   9   0 135.560 164.076   2
   7  -9   1 1200.78 319.837   1
   7  -9   1 905.385 246.495   1
   7  10  -4 2255.34 984.073   2
  -7 -10  -4 1892.59 1058.02   1
  -7 -10  -3 283.182 310.543   1
  -7  10  -3 481.369 306.775   2
   7  10  -3 700.789 516.983   2
   7 -10  -3-180.187 218.857   1
   7  10  -2 2750.74 1020.41   2
  -7 -10  -2 2528.85 1144.95   1
   7 -10  -2 2986.69 747.376   1
   7 -10  -1 75.5510 91.9907   1
  -7 -10  -1 15.3096 415.246   1
   7  10  -1-103.494 172.765   2
  -7 -10   0 4153.55 1388.16   1
   7  10   0 3583.15 870.583   2
   7 -10   0 2017.53 353.090   1
   7 -10   1 147.615 122.222   1
  -7 -11  -3 7744.09 2154.34   1
   7  11  -3 6345.73 1683.18   2
   7  11  -2-390.122 397.423   2
  -7 -11  -2 1024.60 755.762   1
  -7 -11  -1 11059.9 2405.91   1
   7  11  -1 8720.43 1602.61   2
  -7 -11   0 388.352 335.082   1
   7  11   0 296.160 240.132   2
  -7 -12  -3 549.901 584.918   1
   7  12  -3 34.7656 131.611   2
   7  12  -2 1051.51 665.207   2
  -7 -12  -2 2348.25 1155.48   1
  -7 -12  -1 122.549 243.868   1
   7  12  -1 263.606 272.805   2
  -7 -12   0 1854.08 874.248   1
   7  13  -3 950.614 718.374   2
   7  13  -2-413.096 415.838   2
  -7 -13  -2 31.7854 133.738   1
  -7 -13  -1 1899.12 948.311   1
   7  13  -1 2621.95 907.906   2
  -7 -13   0-356.865 390.768   1
   7  14  -2 133.510 235.168   2
  -7 -14  -1 332.070 393.798   1
   7  14  -1 126.376 191.549   2
  -7 -14   0 181.642 281.847   1
  -7 -14   1 266.627 404.129   1
  -7 -15   0 7.55858 26.2254   1
   8   0  -5 14205.7 2296.00   2
  -8   0  -5 14494.2 2429.27   1
   8   0  -4 34.7029 186.940   2
  -8   0  -4 1544.92 659.593   1
  -8   0  -3 27405.5 2565.79   1
   8   0  -3 28027.4 2479.51   2
   8   0  -2 29.2714 44.4236   2
  -8   0  -1 51305.3 2558.63   1
   8   0  -1 55881.9 2799.53   2
  -8   0  -1 56569.5 2567.27   2
  -8   0   0 732.493 393.279   2
   8   0   0 1010.73 389.666   2
  -8   0   1 56109.9 2642.89   2
   8   0   2 2012.65 618.252   1
  -8   0   2 265.268 215.872   2
   8   0   3 30689.8 2884.28   1
  -8  -1  -5 587.761 488.325   1
   8   1  -5 74.2861 166.373   2
   8  -1  -5 88.2868 228.891   2
  -8   1  -5 115.065 211.593   1
  -8   1  -4 773.632 472.150   1
   8  -1  -4 1135.72 547.094   2
   8   1  -4 1373.74 657.004   2
  -8  -1  -4 713.816 462.760   1
   8  -1  -3 253.254 253.049   2
   8   1  -3 451.043 335.964   2
  -8   1  -3 512.394 272.288   1
  -8  -1  -3 766.803 433.191   1
   8  -1  -2 2002.00 548.762   2
   8   1  -2 2168.76 613.247   2
   8  -1  -1 666.697 280.590   2
  -8   1  -1 1288.55 354.635   2
  -8  -1  -1 1216.24 429.612   1
  -8  -1  -1 1249.94 416.953   2
  -8   1  -1 1225.79 347.116   1
  -8   1   0 4273.42 793.113   2
  -8  -1   0 4283.77 911.568   2
   8  -1   0 5310.03 686.909   2
  -8   1   1 891.101 317.411   2
  -8  -1   1 604.470 299.301   2
   8   1   2 3077.24 815.114   1
   8  -1   2 2691.13 693.635   1
  -8   1   2 1826.67 529.298   2
  -8  -1   2 2411.96 646.680   2
  -8   1   2 2212.68 631.595   1
   8  -1   3 706.482 418.661   1
   8  -2  -5 643.245 453.670   2
   8   2  -5 931.939 700.166   2
  -8  -2  -5 68.8261 170.572   1
  -8  -2  -4 4378.31 1256.84   1
   8  -2  -4 4027.18 1045.49   2
   8   2  -4 3186.42 975.362   2
  -8   2  -4 3510.73 1020.90   1
   8  -2  -3 1871.85 580.925   2
   8   2  -3 2212.85 724.641   2
  -8  -2  -3 595.339 394.033   1
  -8   2  -3 624.320 309.583   1
  -8   2  -2 8394.95 1102.14   1
   8  -2  -2 6761.99 980.107   2
  -8  -2  -2 8306.22 1339.95   1
  -8   2  -1 1211.82 310.230   1
  -8  -2  -1 1524.37 508.221   2
   8  -2  -1 2425.55 512.249   2
  -8   2   0 9581.49 1047.91   2
  -8  -2   0 7555.48 1253.86   2
   8  -2   0 8823.21 757.802   2
  -8   2   1 2521.95 501.188   1
  -8  -2   1 1508.08 513.316   2
   8  -2   1 1220.44 339.188   1
  -8   2   1 2504.39 464.236   2
  -8   2   2 6898.35 1042.98   1
   8  -2   2 7854.36 1134.42   1
  -8  -2   2 6516.59 1134.51   2
   8   2   2 8193.08 1406.52   1
   8  -2   3 857.977 460.327   1
   8  -3  -5 732.457 493.117   2
   8   3  -5 26.5906 217.593   2
  -8  -3  -5 785.009 593.791   1
   8  -3  -4 811.923 418.480   2
   8   3  -4 91.4626 170.112   2
  -8  -3  -4 428.560 396.835   1
  -8   3  -4 1204.20 585.265   1
   8  -3  -3-10.3308 177.350   2
   8   3  -3 44.4453 62.6945   2
  -8  -3  -3 385.701 329.251   1
  -8   3  -3 437.985 316.051   1
   8  -3  -2 1313.80 403.342   2
   8   3  -2 1300.91 492.509   2
  -8  -3  -2 1569.70 613.077   1
  -8   3  -2 1621.55 448.472   1
  -8   3  -1 872.408 224.270   1
   8  -3  -1 482.021 209.858   2
  -8  -3  -1 808.016 440.305   2
  -8  -3   0 2378.71 703.974   2
  -8   3   0 1674.72 216.157   1
  -8   3   0 2092.61 393.503   2
   8  -3   1 622.903 204.622   1
  -8  -3   1 478.740 315.812   2
  -8   3   1 618.248 209.629   1
  -8   3   1 381.381 157.823   2
  -8  -3   2 1122.64 459.738   2
   8   3   2 1371.09 589.255   1
   8  -3   2 1313.85 430.403   1
  -8   3   2 1437.12 480.758   1
   8  -3   3 649.175 389.269   1
  -8   3   3 288.428 257.362   1
   8  -4  -5-165.670 231.598   2
   8   4  -5 491.792 454.094   2
  -8  -4  -5-364.094 417.395   1
  -8   4  -5-362.152 368.295   2
   8  -4  -4 1342.23 568.677   2
   8   4  -4 1393.32 681.487   2
  -8  -4  -4 1008.93 652.896   1
   8  -4  -3 368.225 265.661   2
   8   4  -3 167.457 205.934   2
  -8  -4  -3 92.1837 167.643   1
  -8  -4  -2 2156.00 667.560   2
   8   4  -2 1903.53 626.850   2
   8  -4  -2 2882.37 583.484   2
  -8  -4  -2 1783.22 692.259   1
   8  -4  -1 149.578 101.285   2
  -8  -4  -1 167.861 254.964   2
  -8  -4   0 2778.09 766.573   2
  -8   4   0 2733.48 349.712   2
  -8  -4   1 98.7875 243.991   2
   8  -4   1 37.4230 42.5969   1
  -8   4   1 129.596 101.131   1
  -8  -4   2 2683.98 790.690   2
   8  -4   2 1817.20 495.104   1
   8   4   2 2432.24 838.388   1
  -8   4   2 3165.34 676.837   1
  -8   4   3 144.576 179.610   1
   8  -4   3-157.641 189.168   1
   8  -5  -5-48.2409 123.392   2
   8   5  -5-254.514 333.767   2
  -8  -5  -5 452.292 481.093   1
  -8   5  -5-138.880 227.658   2
   8  -5  -4-306.006 269.504   2
   8   5  -4 240.028 288.031   2
  -8  -5  -4 382.973 397.046   1
   8  -5  -3 252.147 190.275   2
  -8  -5  -3 595.642 459.642   1
   8   5  -3 367.843 312.872   2
   8  -5  -2 773.873 291.681   2
   8   5  -2 593.971 352.918   2
  -8  -5  -2 456.648 379.394   1
   8   5  -1 258.278 368.911   2
   8  -5  -1 239.937 128.282   2
  -8  -5  -1 314.567 277.044   2
  -8  -5   0 340.523 231.538   2
   8   5   0 196.271 102.843   2
  -8  -5   1 287.445 276.276   2
   8  -5   1 107.421 64.2023   1
  -8   5   1 344.821 156.984   1
  -8   5   2 503.394 284.853   1
   8  -5   2 387.513 230.319   1
   8  -5   3 192.200 205.992   1
  -8   5   3 142.706 179.605   1
   8  -6  -5 5283.23 1286.50   2
  -8   6  -5 6549.81 1563.10   2
   8  -6  -4 110.778 151.695   2
   8   6  -4 177.539 252.320   2
  -8  -6  -4 1103.65 693.052   1
  -8   6  -4 779.600 448.820   2
   8   6  -3 16383.7 2181.24   2
  -8   6  -3 17630.5 1904.64   2
   8  -6  -3 15745.8 1604.18   2
  -8  -6  -3 14846.8 2410.61   1
   8  -6  -2-59.3496 75.0914   2
   8   6  -2 250.061 281.086   2
  -8  -6  -2 393.515 398.936   1
   8   6  -1 24946.6 2721.15   2
  -8   6  -1 28186.9 1334.24   2
  -8  -6  -1 21585.0 3155.25   1
  -8  -6  -1 26970.4 2749.75   2
  -8  -6   0-146.286 172.276   2
   8   6   0 200.056 210.824   2
  -8  -6   1 25141.9 2431.06   2
  -8   6   1 25829.1 1388.77   1
   8  -6   2 525.055 252.824   1
  -8   6   2 101.836 125.869   1
   8  -6   3 19415.9 2084.78   1
  -8   7  -5 689.857 502.154   2
   8  -7  -4 1780.92 654.242   2
   8   7  -4 1821.21 823.712   2
  -8  -7  -4 1456.35 884.420   1
  -8   7  -4 2146.24 766.526   2
  -8  -7  -3 208.605 299.502   1
   8  -7  -3 167.622 160.563   2
   8   7  -3 72.6618 147.535   2
  -8   7  -3-342.695 259.219   2
   8   7  -2 2916.28 926.267   2
   8  -7  -2 3463.60 539.891   2
  -8  -7  -2 3493.39 1250.31   1
  -8   7  -1 202.531 101.147   2
  -8  -7  -1 535.531 644.021   1
   8   7  -1-424.483 357.205   2
  -8  -7   0 3665.92 891.585   2
   8   7   0 3939.20 960.739   2
  -8   7   2 3629.82 776.425   1
   8  -7   2 3152.32 626.669   1
   8  -7   3 24.1671 71.9013   1
  -8   8  -5 229.074 284.583   2
  -8   8  -4 3167.99 914.074   2
   8   8  -4 2528.28 991.211   2
  -8  -8  -4 4323.24 1477.04   1
  -8   8  -3 581.050 314.230   2
  -8  -8  -3 859.422 657.884   1
   8  -8  -3 1305.76 439.670   2
   8  -8  -3 1318.18 589.532   1
   8   8  -3 1865.81 797.523   2
   8  -8  -2 5358.74 932.448   1
   8   8  -2 5267.09 1322.95   2
  -8  -8  -2 4879.30 1628.27   1
   8  -8  -2 5547.36 601.001   2
  -8  -8  -1 2198.80 1087.42   1
   8   8  -1 1928.02 767.712   2
  -8   8  -1 554.275 143.629   2
   8   8   0 7112.83 1299.30   2
  -8   8   2 5333.38 997.613   1
   8  -8   2 5016.14 783.220   1
  -8   9  -4 2011.82 703.195   2
   8   9  -4 1545.27 839.716   2
  -8  -9  -4 1596.71 1006.91   1
  -8  -9  -3 1886.35 1033.06   1
  -8   9  -3 835.622 385.784   2
   8   9  -3 621.338 474.061   2
   8  -9  -3 570.002 377.818   1
   8  -9  -2 3685.30 794.007   1
   8   9  -2 2335.87 932.030   2
  -8  -9  -2 3120.90 1325.85   1
  -8   9  -2 3370.20 643.077   2
   8   9  -1 819.445 497.283   2
   8  -9  -1 871.463 258.227   1
   8   9   0 3930.95 952.641   2
   8  10  -4 277.739 351.407   2
  -8 -10  -3-12.2525 86.7762   1
   8  10  -3-468.026 438.404   2
  -8  10  -2-135.949 127.905   2
   8  10  -2 481.213 441.830   2
  -8 -10  -2-118.703 270.395   1
   8 -10  -2-113.955 137.073   1
   8 -10  -1 246.667 140.814   1
  -8 -10  -1 448.812 503.637   1
   8  10  -1 400.053 348.316   2
  -8 -10   0 122.844 244.455   1
   8  10   0-41.1526 96.2648   2
  -8 -11  -3 273.324 425.812   1
   8  11  -3-372.411 419.662   2
   8  11  -2 3275.93 1185.72   2
  -8 -11  -2 3406.13 1418.10   1
  -8 -11  -1 172.425 456.287   1
   8  11  -1-4.97528 220.390   2
  -8 -11   0 4071.05 1437.69   1
   8  11   0 3834.21 953.223   2
  -8 -12  -3 2537.42 1320.06   1
   8  12  -3 3357.02 1344.30   2
   8  12  -2 595.846 505.589   2
  -8 -12  -2 1310.36 680.687   1
  -8 -12  -1 4204.68 1486.77   1
   8  12  -1 3011.12 970.241   2
  -8 -12   0 106.363 225.426   1
   8  13  -2 781.892 579.440   2
  -8 -13  -2 245.395 385.422   1
  -8 -13  -1-262.989 366.457   1
   8  13  -1-56.1117 128.934   2
  -8 -13   0 1145.68 737.642   1
   8  14  -2 1293.70 740.333   2
  -8 -14  -1 741.913 608.767   1
   8  14  -1-227.399 262.996   2
  -8 -14   0 1530.14 859.426   1
  -8 -14   1 57.9479 205.203   1
   9   0  -5 338.517 356.080   2
  -9   0  -5-537.153 463.616   1
   9   0  -4 250.202 270.755   2
  -9   0  -4 362.102 333.402   1
   9   0  -3 28.9313 139.203   2
  -9   0  -3 536.787 356.845   1
   9   0  -2-33.5784 62.9195   2
   9   0  -1 13.0030 100.354   2
  -9   0  -1 65.0057 141.069   1
  -9   0  -1-11.2728 32.2528   2
  -9   0   0 123.793 184.150   2
   9   0   0 33.2904 99.0522   2
  -9   0   1-120.914 127.895   2
   9   0   2-25.4432 72.5641   1
  -9   0   2-15.2590 50.9445   2
   9  -1  -5 194.490 316.548   2
   9   1  -5-24.3653 96.9722   2
  -9   1  -5 38.8400 123.018   1
  -9  -1  -5 408.441 407.734   1
   9  -1  -4 838.449 502.603   2
  -9  -1  -4 755.600 501.205   1
   9   1  -4 970.902 563.478   2
  -9   1  -4 927.717 541.917   1
  -9   1  -3 405.850 301.868   1
   9  -1  -3 103.150 148.096   2
   9   1  -3 242.212 208.437   2
  -9  -1  -3 45.0911 106.450   1
   9   1  -2 3135.91 758.013   2
  -9  -1  -2 2461.84 691.717   1
   9  -1  -2 3015.98 708.552   2
   9  -1  -1 97.7700 57.0002   2
   9   1  -1-316.768 242.388   2
  -9  -1  -1 42.6197 156.901   1
  -9  -1  -1 166.351 181.408   2
  -9   1  -1 32.2143 65.7479   2
  -9   1  -1 23.5828 55.4432   1
   9  -1   0 4055.00 638.432   2
  -9  -1   0 3968.31 924.557   2
  -9   1   0 4381.03 851.592   2
   9   1   0 3747.32 779.314   2
  -9   1   1 23.8024 51.6157   2
  -9  -1   1 40.9340 81.4502   2
  -9  -1   2 2630.98 692.846   2
   9   1   2 2408.29 752.546   1
   9  -1   2 3043.15 761.864   1
  -9   1   2 2908.32 742.371   1
  -9   1   2 3331.37 751.495   2
   9  -1   3-20.5096 137.482   1
   9  -2  -5 990.480 650.876   2
   9   2  -5 1404.20 739.207   2
  -9   2  -5 2838.54 1050.59   1
  -9  -2  -5 2531.04 1042.20   1
  -9   2  -4 6276.15 1368.99   1
   9  -2  -4 9713.32 1637.04   2
  -9  -2  -4 6307.33 1535.73   1
   9   2  -4 10762.9 1890.77   2
  -9   2  -3 5456.58 1072.62   1
   9  -2  -3 3430.27 838.193   2
   9   2  -3 3770.75 986.351   2
  -9  -2  -3 5201.73 1195.13   1
   9   2  -2 17402.5 1869.77   2
  -9  -2  -2 12365.2 1684.70   1
   9  -2  -2 15408.6 1527.04   2
  -9  -2  -1 8325.01 1290.25   2
   9  -2  -1 6307.34 909.663   2
  -9   2  -1 6133.54 794.094   2
  -9   2  -1 7059.39 781.063   1
  -9  -2   0 18637.8 2047.26   2
  -9   2   0 18662.0 1525.73   2
   9  -2   0 16341.5 1127.38   2
  -9  -2   1 4916.56 970.325   2
  -9   2   1 5958.77 751.740   2
  -9   2   2 16201.3 1643.48   1
  -9  -2   2 16057.6 1830.12   2
  -9   2   2 14904.3 1495.84   2
   9   2   2 15727.0 2019.26   1
   9  -2   2 14582.9 1595.77   1
   9  -2   3 6835.51 1312.82   1
   9  -3  -5 458.214 417.299   2
   9   3  -5 135.915 238.181   2
  -9  -3  -5-140.414 253.961   1
   9  -3  -4 5448.31 1202.33   2
   9   3  -4 5987.78 1422.54   2
  -9   3  -4 4681.64 1166.04   1
  -9  -3  -4 4514.30 1304.92   1
   9  -3  -3 364.479 273.657   2
   9   3  -3 86.8939 74.6260   2
  -9  -3  -3 248.400 268.804   1
  -9   3  -3 291.166 240.532   1
  -9   3  -2 8504.07 1044.83   1
   9   3  -2 10000.2 1472.38   2
   9  -3  -2 9471.21 1149.84   2
  -9  -3  -2 7016.72 1347.28   1
  -9  -3  -2 8542.20 1245.95   2
  -9  -3  -1 79.5341 259.330   1
   9  -3  -1 180.654 152.289   2
  -9  -3  -1 367.662 322.538   2
  -9   3  -1 65.3035 58.5486   2
  -9   3  -1 150.368 107.553   1
  -9   3   0 8289.75 585.526   1
  -9   3   0 9086.07 897.916   2
  -9  -3   0 7266.61 1294.42   2
  -9   3   1-15.9689 36.3759   2
  -9  -3   1 201.361 200.956   2
  -9   3   1 56.4053 103.639   1
  -9   3   2 10058.6 1264.62   1
  -9  -3   2 8261.04 1381.15   2
   9   3   2 8409.10 1552.02   1
   9  -3   2 7492.55 1090.59   1
   9  -3   3 412.866 311.117   1
   9  -4  -5 1573.76 717.723   2
   9   4  -5 1008.45 662.660   2
   9   4  -4 7279.04 1607.90   2
  -9  -4  -4 6408.35 1603.29   1
   9  -4  -4 10050.4 1590.19   2
   9  -4  -3 7272.45 1163.02   2
   9   4  -3 6394.70 1338.72   2
  -9   4  -2 12732.6 1225.52   1
   9  -4  -2 14487.4 1359.98   2
   9   4  -2 14095.1 1815.25   2
  -9  -4  -2 11086.0 1820.50   1
  -9  -4  -1 9690.43 1815.96   1
   9  -4  -1 9925.43 1004.82   2
  -9  -4  -1 12551.1 1807.99   2
  -9   4  -1 11622.2 954.902   2
  -9   4   0 14392.6 911.527   2
  -9  -4   0 16452.6 1935.48   2
  -9   4   1 10649.2 889.044   2
  -9   4   1 11811.4 946.123   1
   9  -4   2 12109.4 1320.53   1
  -9   4   2 13706.5 1438.73   1
   9  -4   3 10684.9 1581.39   1
   9  -5  -5 444.803 374.745   2
  -9  -5  -5 1591.13 923.076   1
   9   5  -5 324.738 382.432   2
  -9   5  -5 1218.99 745.450   2
   9  -5  -4 158.686 186.203   2
   9   5  -4-391.033 373.429   2
  -9  -5  -4-98.8719 205.010   1
  -9  -5  -3 2735.32 996.721   1
   9  -5  -3 1614.51 542.982   2
   9   5  -3 1653.73 680.188   2
   9  -5  -2 344.578 186.725   2
   9   5  -2 450.101 332.951   2
  -9  -5  -2 158.937 243.753   1
  -9  -5  -1 2667.36 1037.17   1
   9   5  -1 1736.22 705.373   2
  -9  -5  -1 2758.02 873.079   2
   9  -5  -1 1784.70 359.013   2
  -9   5  -1 2781.50 440.516   2
  -9   5   0 695.556 146.045   2
  -9  -5   0 1231.26 524.396   2
   9   5   0 995.911 495.898   2
  -9  -5   1 1468.72 585.000   2
  -9   5   1 1772.43 349.937   1
  -9   5   2 218.018 180.633   1
   9  -5   2 383.385 235.288   1
   9  -5   3 3161.58 845.851   1
   9  -6  -5 354.206 329.870   2
  -9   6  -5-353.068 366.698   2
   9  -6  -4 477.899 332.424   2
   9   6  -4 1134.09 687.804   2
  -9  -6  -4 572.411 514.168   1
  -9   6  -4 292.818 301.342   2
  -9  -6  -3 1247.48 724.629   1
   9  -6  -3 511.822 301.507   2
   9   6  -3 859.014 487.920   2
   9  -6  -2 865.001 296.037   2
   9   6  -2 614.734 379.349   2
  -9  -6  -2 306.168 354.885   1
  -9  -6  -1 359.138 412.616   1
   9   6  -1 1007.65 596.769   2
  -9   6  -1 562.339 186.030   2
  -9  -6   0 814.050 434.527   2
   9   6   0 1252.92 545.617   2
  -9   6   1 556.988 190.523   1
   9  -6   2 1310.84 384.385   1
  -9   6   2 859.925 376.453   1
   9  -6   3 505.600 322.167   1
  -9   7  -5 836.761 557.903   2
   9  -7  -4 1567.85 628.776   2
   9   7  -4 2444.64 986.758   2
  -9  -7  -4 2149.08 1006.83   1
  -9   7  -4 1718.05 697.488   2
  -9  -7  -3 647.747 558.838   1
   9  -7  -3 1963.70 575.214   2
   9   7  -3 1005.30 618.348   2
  -9   7  -3 502.122 266.382   2
   9  -7  -2 4677.59 621.800   2
   9   7  -2 4355.14 1177.87   2
  -9  -7  -2 3657.78 1353.80   1
  -9  -7  -1 1969.20 1042.31   1
   9   7  -1 2001.38 802.253   2
  -9   7  -1 1767.98 300.752   2
  -9   7  -1 1326.73 268.444   2
   9   7   0 4179.80 1028.00   2
  -9   7   2 3705.13 775.315   1
   9  -7   2 4119.80 673.744   1
  -9   8  -5-468.337 408.284   2
  -9   8  -4 2237.11 774.028   2
   9   8  -4 2544.13 1088.72   2
  -9  -8  -4 3176.36 1314.79   1
  -9   8  -3 92.3103 156.489   2
   9  -8  -3-40.2895 79.6522   2
   9   8  -3-160.567 237.121   2
  -9  -8  -3-257.294 371.963   1
   9   8  -2 4635.99 1299.23   2
  -9  -8  -2 3927.18 1474.01   1
   9  -8  -2 3617.17 447.158   2
  -9  -8  -1 177.606 302.353   1
   9   8  -1-69.4230 150.544   2
   9   8   0 5607.05 1161.81   2
  -9   8   2 3747.74 809.549   1
   9  -8   2 2967.90 555.896   1
  -9   9  -4 1653.99 658.006   2
   9   9  -4 771.635 570.348   2
  -9  -9  -4 1743.25 1052.25   1
  -9   9  -3 57.5011 100.766   2
   9   9  -3-308.733 348.641   2
  -9   9  -2 2361.16 507.344   2
   9   9  -2 2241.24 938.522   2
  -9  -9  -2 1519.81 993.651   1
  -9  -9  -1 441.386 522.216   1
   9   9  -1 136.195 209.657   2
   9   9   0 2541.34 786.711   2
   9  10  -3 2078.36 965.350   2
  -9 -10  -3 4732.99 1877.89   1
   9  10  -2 2629.34 1066.19   2
  -9 -10  -2 2378.55 1333.34   1
  -9 -10  -1 7892.89 2232.97   1
   9  10  -1 3214.76 991.851   2
  -9 -10   0 4279.98 1529.38   1
   9  10   0 3569.23 935.222   2
   9  11  -3 1221.23 783.057   2
  -9 -11  -3 1786.93 1228.78   1
   9  11  -2-546.113 492.530   2
  -9 -11  -2 114.294 390.231   1
  -9 -11  -1 2456.31 1234.58   1
   9  11  -1 2228.38 810.669   2
  -9 -11   0-107.153 239.983   1
   9  11   0-61.2375 122.670   2
   9  12  -3-628.345 587.720   2
   9  12  -2 699.925 555.379   2
  -9 -12  -2 1247.51 1064.32   1
  -9 -12  -1 586.646 580.843   1
   9  12  -1 76.3070 153.886   2
  -9 -12   0 520.259 527.275   1
   9  13  -2 1870.09 938.181   2
  -9 -13  -2 3297.43 1565.09   1
  -9 -13  -1 502.578 527.684   1
   9  13  -1 1835.61 704.213   2
  -9 -13   0 2123.73 1063.11   1
   9  14  -2 672.467 539.839   2
   9  14  -1 82.5060 162.065   2
  -9 -14   0 893.338 694.469   1
  -9 -14   1-130.945 338.637   1
  10   0  -5 3221.09 1118.94   2
 -10   0  -5 3516.55 1181.91   1
  10   0  -4 1810.82 748.573   2
 -10   0  -4 3219.56 999.697   1
  10   0  -3 8152.79 1412.83   2
 -10   0  -3 6680.95 1281.42   1
  10   0  -2 5245.57 994.568   2
 -10   0  -2 4361.47 896.030   1
  10   0  -1 12365.0 1596.97   2
 -10   0  -1 11163.6 1315.49   1
 -10   0  -1 11291.4 1387.79   2
 -10   0   0 7532.82 1224.42   2
  10   0   0 6260.60 932.850   2
 -10   0   1 13333.6 1443.79   2
  10   0   2 4340.93 982.071   1
 -10   0   2 4126.36 867.935   2
 -10   1  -5 1275.65 707.283   1
  10  -1  -5 894.398 647.744   2
  10   1  -5 899.993 601.396   2
 -10  -1  -5 1148.25 687.716   1
 -10  -1  -4-221.992 275.081   1
  10  -1  -4 100.431 211.949   2
  10   1  -4 3.18119 31.8625   2
 -10   1  -4-183.517 232.193   1
  10  -1  -3 1488.29 567.514   2
  10   1  -3 866.407 475.602   2
 -10  -1  -3 1250.62 570.139   1
 -10   1  -3 1247.86 520.677   1
  10  -1  -2 116.390 81.8158   2
  10   1  -2-12.3481 141.269   2
 -10  -1  -2-27.9031 75.5983   1
  10  -1  -1 2110.21 638.984   2
  10   1  -1 2402.65 757.785   2
 -10  -1  -1 1643.87 570.028   2
 -10   1  -1 2184.29 557.389   2
 -10   1  -1 2337.71 540.070   1
 -10   1   0 443.701 246.208   2
 -10  -1   0 334.208 317.536   2
  10   1   0 633.133 331.701   2
  10  -1   0 455.811 238.065   2
 -10   1   1 2057.12 520.120   2
 -10  -1   1 2548.32 676.573   2
 -10  -1   2 84.2744 224.642   2
  10   1   2 129.468 142.153   1
  10  -1   2 263.731 229.048   1
 -10   1   2-83.4246 126.447   1
 -10   1   2 132.952 190.449   2
  10  -1   3 1079.97 539.046   1
  10  -2  -5 3758.98 1184.33   2
  10   2  -5 3572.02 1220.45   2
 -10  -2  -5 1553.77 823.268   1
 -10   2  -5 2810.93 1042.51   1
 -10   2  -4 9908.24 1715.99   1
  10   2  -4 5751.59 1401.71   2
  10  -2  -4 6648.38 1361.40   2
 -10  -2  -4 11232.0 2041.17   1
 -10   2  -3 5808.31 1123.29   1
  10  -2  -3 10624.0 1525.33   2
  10   2  -3 10118.8 1634.15   2
 -10  -2  -3 6019.42 1298.41   1
  10  -2  -2 13393.6 1474.55   2
  10   2  -2 13404.6 1711.11   2
  10  -2  -1 10456.8 1311.21   2
  10   2  -1 12948.6 1824.91   2
 -10  -2  -1 13072.3 1750.47   2
 -10   2  -1 8958.52 1047.86   2
 -10   2  -1 10567.3 1008.79   1
 -10   2   0 22483.7 1783.25   2
 -10  -2   0 23182.7 2371.51   2
  10  -2   0 20625.4 1354.08   2
 -10   2   1 13578.9 1217.64   2
 -10  -2   1 10423.6 1483.52   2
 -10   2   2 13092.5 1540.26   1
 -10   2   2 13988.6 1508.10   2
 -10  -2   2 12779.0 1681.16   2
  10   2   2 17285.5 2211.76   1
  10  -2   2 18219.2 1837.09   1
  10  -2   3 6171.11 1257.71   1
  10  -3  -5 140.821 292.247   2
  10   3  -5-137.502 244.736   2
 -10  -3  -5 339.568 399.897   1
  10  -3  -4 598.154 400.593   2
  10   3  -4 336.506 229.853   2
 -10  -3  -4 182.167 263.355   1
 -10   3  -4 186.580 230.030   1
  10  -3  -3 249.805 89.0035   2
 -10  -3  -3 292.384 297.343   1
  10   3  -3 397.538 241.986   2
 -10   3  -3 508.417 318.890   1
  10  -3  -2 404.516 256.207   2
  10   3  -2 1081.37 541.358   2
 -10   3  -2 293.564 226.498   1
 -10  -3  -2 548.966 444.580   1
 -10  -3  -1 1640.65 693.038   1
  10  -3  -1 1414.07 450.114   2
 -10   3  -1 1362.94 317.566   1
 -10  -3  -1 1450.70 618.326   2
 -10   3  -1 1564.18 407.998   2
 -10   3   0 308.669 125.106   1
 -10   3   0 414.148 205.870   2
 -10  -3   0 489.193 341.379   2
 -10   3   1 1159.83 322.782   2
 -10  -3   1 590.150 348.782   2
 -10   3   1 1671.18 395.637   1
 -10   3   2 468.510 284.662   1
  10  -3   2 331.276 225.028   1
  10  -3   3 718.205 451.377   1
  10  -4  -5 1531.60 685.564   2
 -10  -4  -5 1486.74 767.755   1
  10   4  -5 2616.80 1099.56   2
  10  -4  -4 2027.54 705.505   2
  10   4  -4 1796.47 835.720   2
 -10  -4  -4 3622.66 1216.02   1
 -10   4  -3 2065.20 634.006   1
 -10  -4  -3 1510.87 712.572   1
  10  -4  -3 4255.56 896.944   2
  10   4  -3 4646.36 1158.74   2
 -10   4  -2 6084.33 838.859   1
  10   4  -2 4198.39 1041.23   2
  10  -4  -2 3914.22 716.448   2
 -10  -4  -2 6774.77 1484.37   1
 -10   4  -1 4079.05 428.423   1
 -10  -4  -1 4770.21 1300.87   1
  10   4  -1 3827.57 1083.09   2
 -10  -4  -1 4945.31 1230.04   2
  10  -4  -1 4706.30 735.725   2
 -10   4  -1 4978.01 692.705   2
 -10   4   0 5765.63 638.531   2
 -10  -4   0 5439.07 1146.07   2
 -10  -4   1 4150.07 1001.09   2
 -10   4   1 6320.35 734.120   2
 -10   4   1 5376.35 648.913   1
  10  -4   2 6786.90 1002.15   1
 -10   4   2 3517.57 740.464   1
  10  -4   3 1411.50 579.305   1
  10  -5  -5 606.761 443.231   2
 -10   5  -5 401.467 391.794   2
  10  -5  -4 111.439 166.388   2
 -10  -5  -4 96.6778 206.446   1
 -10  -5  -3 239.141 323.351   1
  10  -5  -3 316.780 163.510   2
  10   5  -3 273.704 313.810   2
  10  -5  -2 100.525 97.4849   2
  10   5  -2 110.743 173.936   2
 -10  -5  -2 258.040 310.390   1
 -10  -5  -1 169.478 266.187   1
  10   5  -1 877.359 525.784   2
  10  -5  -1 391.617 167.700   2
 -10   5  -1 189.317 149.222   2
 -10   5   0 182.105 82.7023   2
 -10  -5   0 401.947 328.426   2
  10   5   0 415.913 272.582   2
 -10   5   1 322.049 145.177   1
 -10   5   2 203.546 161.536   1
  10  -5   2 388.331 212.746   1
  10  -5   3 169.899 192.269   1
 -10   6  -5 743.700 532.513   2
  10  -6  -4 817.532 444.075   2
  10   6  -4 635.635 496.633   2
 -10  -6  -4 655.047 563.283   1
 -10   6  -4 758.412 389.567   2
 -10  -6  -3 2143.80 975.817   1
  10  -6  -3 3721.86 815.058   2
  10   6  -3 2024.44 800.672   2
  10  -6  -2 1137.31 336.810   2
  10   6  -2 841.266 465.818   2
 -10  -6  -2 1579.26 800.322   1
 -10  -6  -1 3596.39 1315.06   1
  10   6  -1 3689.19 1114.42   2
 -10   6  -1 4262.94 571.275   2
  10   6   0 2190.49 780.646   2
 -10   6   1 3380.40 441.113   1
  10  -6   2 2332.36 526.629   1
 -10   6   2 1289.96 467.074   1
  10  -6   3 2257.66 678.721   1
 -10   7  -5-612.427 479.964   2
  10   7  -4 349.432 376.673   2
 -10  -7  -4 333.071 423.674   1
 -10   7  -4 11.4167 57.1745   2
  10  -7  -3 567.801 310.408   2
  10   7  -3 1184.78 612.610   2
 -10   7  -3 596.661 324.085   2
 -10  -7  -3 572.512 555.791   1
  10  -7  -2 54.4357 67.4540   2
  10   7  -2 38.5257 150.200   2
 -10  -7  -2-301.094 402.995   1
 -10  -7  -1 1178.83 804.467   1
  10   7  -1 587.333 478.075   2
 -10   7  -1 972.757 273.206   2
 -10   7  -1 1006.31 233.856   2
  10   7   0 295.460 273.199   2
 -10   7   2 19.9021 55.2865   1
  10  -7   2-228.324 150.248   1
  10   8  -4 3732.87 1365.36   2
 -10  -8  -4 6927.80 2067.57   1
 -10   8  -4 7800.95 1466.60   2
  10   8  -3 4589.97 1341.71   2
 -10  -8  -3 2046.66 1201.23   1
 -10   8  -3 3194.86 786.651   2
  10   8  -2 6774.37 1660.99   2
 -10  -8  -2 7999.95 2268.72   1
 -10  -8  -1 6690.74 2126.86   1
  10   8  -1 6059.69 1460.00   2
  10   8   0 12453.7 1808.87   2
 -10   8   2 8616.08 1240.08   1
  10   9  -4 1641.06 874.424   2
 -10   9  -3 3634.05 810.681   2
  10   9  -3 1584.73 826.291   2
 -10  -9  -3 3936.80 1621.61   1
 -10   9  -2 1167.93 346.938   2
  10   9  -2 2260.01 990.908   2
 -10  -9  -2 3149.16 1496.89   1
 -10  -9  -1 4948.23 1901.66   1
  10   9  -1 5110.56 1327.21   2
  10   9   0 2046.49 721.695   2
  10  10  -3 224.612 330.504   2
 -10 -10  -3 506.516 622.900   1
  10  10  -2 1446.68 804.575   2
 -10 -10  -2 960.177 855.624   1
 -10 -10  -1 1815.76 1145.48   1
  10  10  -1 546.808 399.118   2
 -10 -10   0 124.241 269.418   1
  10  10   0 460.358 375.607   2
  10  11  -3-456.444 494.902   2
 -10 -11  -3-562.732 681.830   1
  10  11  -2 57.3083 161.279   2
 -10 -11  -2 604.235 683.792   1
 -10 -11  -1 1001.36 809.080   1
  10  11  -1 397.616 361.051   2
 -10 -11   0-213.515 356.425   1
  10  11   0-72.0385 137.176   2
  10  12  -2 453.242 453.209   2
 -10 -12  -2 337.850 504.439   1
 -10 -12  -1 406.955 505.569   1
  10  12  -1 335.563 329.571   2
 -10 -12   0-751.300 670.377   1
  10  13  -2 833.871 612.947   2
 -10 -13  -1-467.964 532.991   1
  10  13  -1-176.728 239.406   2
 -10 -13   0 819.301 701.091   1
  10  14  -1 467.703 394.504   2
 -11   0  -5-594.536 488.933   1
  11   0  -5-13.4431 73.7481   2
  11   0  -4 119.733 196.271   2
 -11   0  -4-781.968 502.087   1
  11   0  -3-49.1979 151.212   2
 -11   0  -3 39.5557 99.0468   1
 -11   0  -2-95.9231 134.533   1
  11   0  -2 143.124 196.664   2
  11   0  -1 53.7848 165.452   2
 -11   0  -1 43.8670 92.2857   2
 -11   0   0-9.68989 44.9269   2
  11   0   0 229.465 180.945   2
 -11   0   1-165.429 165.969   2
 -11   0   2 242.868 213.076   2
  11   0   2 82.2046 67.1769   1
  11  -1  -5 738.094 533.521   2
  11   1  -5 1004.99 704.317   2
 -11  -1  -5 1167.66 673.739   1
 -11   1  -5 1095.30 658.753   1
  11  -1  -4 281.309 294.285   2
  11   1  -4-627.495 457.971   2
 -11   1  -4-52.6602 125.486   1
 -11  -1  -4-195.389 261.515   1
  11  -1  -3 3401.29 910.215   2
  11   1  -3 2886.09 868.130   2
 -11  -1  -3 3603.16 1004.90   1
 -11   1  -3 3603.76 936.961   1
  11  -1  -2 104.207 193.177   2
  11   1  -2 41.0554 98.3881   2
 -11  -1  -2 87.3106 266.429   1
  11   1  -1 5215.39 1189.23   2
  11  -1  -1 4136.92 945.636   2
 -11   1  -1 5153.66 840.845   1
 -11  -1  -1 5001.25 1091.57   2
 -11   1  -1 5032.33 938.170   2
 -11   1   0-190.822 184.195   2
 -11  -1   0-23.8879 89.6754   2
  11   1   0 58.7689 127.441   2
  11  -1   0 74.5823 36.4799   2
 -11   1   1 4702.91 826.291   2
 -11  -1   1 5030.24 1022.56   2
 -11  -1   2 176.731 191.248   2
  11  -1   2 222.678 239.823   1
 -11   1   2 111.249 151.632   1
  11   1   2 43.6908 107.190   1
 -11   1   2-193.683 183.578   2
 -11   2  -5 3442.78 1171.08   1
  11  -2  -5 2782.29 1024.11   2
  11   2  -5 2675.15 1082.46   2
 -11  -2  -5 3839.35 1346.97   1
  11  -2  -4 2954.96 951.051   2
  11   2  -4 3186.51 1057.84   2
 -11   2  -4 1698.64 708.168   1
 -11  -2  -4 1980.15 880.961   1
 -11   2  -3 7663.74 1291.77   1
  11  -2  -3 5346.07 1101.31   2
  11   2  -3 6309.03 1329.44   2
 -11  -2  -3 9285.49 1658.15   1
  11   2  -2 4955.02 1083.69   2
 -11  -2  -2 3513.47 939.118   1
  11  -2  -2 5175.29 949.823   2
 -11  -2  -1 10837.3 1640.78   1
  11   2  -1 8426.06 1539.74   2
  11  -2  -1 6512.86 1095.50   2
 -11  -2  -1 10184.6 1659.02   2
 -11   2  -1 9155.76 1170.19   2
 -11   2  -1 11948.0 1135.44   1
 -11   2   0 5906.46 780.416   1
 -11   2   0 4673.30 834.165   2
 -11  -2   0 5373.81 1180.75   2
  11   2   0 5422.92 1053.85   2
 -11   2   1 8490.01 1004.14   2
 -11  -2   1 7911.94 1345.37   2
 -11   2   2 5770.62 1065.27   1
  11  -2   2 2807.60 735.727   1
 -11   2   2 5404.54 953.752   2
  11  -2   3 9119.86 1568.64   1
  11  -3  -5-94.9387 281.531   2
  11   3  -5 437.199 452.750   2
  11  -3  -4 1876.17 727.752   2
  11   3  -4 2315.73 909.984   2
 -11   3  -4 3845.58 1050.62   1
 -11  -3  -4 3368.60 1160.22   1
 -11   3  -3 423.442 269.465   1
 -11  -3  -3 397.109 354.336   1
  11  -3  -3 820.686 458.595   2
  11   3  -3 1430.75 632.031   2
 -11   3  -2 5706.55 905.189   1
  11   3  -2 3740.37 995.551   2
  11  -3  -2 3476.87 746.376   2
 -11  -3  -2 6198.91 1354.25   1
 -11  -3  -1 981.967 545.272   1
 -11   3  -1 1259.64 312.072   1
  11   3  -1 1493.45 637.279   2
  11  -3  -1 1421.05 469.981   2
 -11  -3  -1 1160.12 604.755   2
 -11   3  -1 1451.82 434.179   2
 -11   3   0 5970.23 636.911   1
 -11   3   0 4610.55 726.924   2
 -11  -3   0 5889.71 1242.91   2
  11   3   0 5416.32 1109.58   2
 -11   3   1 1240.87 365.565   2
 -11  -3   1 1162.79 550.342   2
 -11   3   1 1568.55 407.939   1
 -11   3   2 3696.57 802.264   1
 -11   3   2 3163.67 711.617   2
  11  -3   3 453.763 335.051   1
 -11  -4  -5 6303.45 1833.34   1
  11  -4  -5 3628.76 1118.27   2
  11  -4  -4 3318.18 957.615   2
  11   4  -4 3093.82 1048.20   2
 -11  -4  -4 2451.46 988.272   1
 -11   4  -3 12355.7 1564.86   1
  11  -4  -3 7622.04 1248.00   2
  11   4  -3 7306.54 1494.16   2
 -11  -4  -3 10128.5 1910.94   1
 -11   4  -2 5291.47 792.465   1
 -11  -4  -2 4029.81 1162.42   1
  11  -4  -2 6223.50 949.332   2
  11   4  -2 6687.59 1404.08   2
 -11   4  -1 13892.9 814.385   1
 -11  -4  -1 10644.4 1979.17   1
  11   4  -1 10955.1 1917.00   2
  11  -4  -1 13808.4 1290.30   2
 -11   4  -1 13956.6 1284.64   2
 -11   4   0 8578.68 850.836   2
 -11  -4   0 7352.79 1394.83   2
  11   4   0 9202.79 1511.70   2
 -11   4   1 11917.7 997.544   1
 -11   4   1 12084.9 1069.80   2
  11  -4   2 4959.61 886.709   1
 -11   4   2 6653.50 1027.94   1
  11  -4   3 9801.79 1527.75   1
  11  -5  -5-46.5598 197.064   2
 -11   5  -5 460.024 422.375   2
  11   5  -4 1039.13 686.698   2
 -11  -5  -4 597.018 523.782   1
 -11  -5  -3 1609.33 731.750   1
  11  -5  -3 678.028 346.008   2
  11   5  -3 1060.13 546.380   2
  11  -5  -2 2404.06 553.955   2
  11   5  -2 2870.27 944.389   2
 -11  -5  -2 2104.40 944.834   1
 -11  -5  -1 1235.77 700.581   1
  11   5  -1 1232.49 657.056   2
 -11   5  -1 1594.86 420.999   2
  11  -5  -1 2044.89 405.197   2
  11   5   0 4201.79 1060.81   2
 -11   5   0 3250.98 434.464   2
 -11   5   1 1441.19 311.524   1
 -11   5   2 2408.51 599.102   1
  11  -5   2 2903.06 627.015   1
  11  -5   3 1143.79 469.585   1
 -11   6  -5-10.2183 62.6735   2
  11  -6  -4-330.126 290.000   2
  11   6  -4 554.673 419.383   2
 -11  -6  -4 711.710 601.747   1
  11  -6  -3 448.356 287.871   2
  11   6  -3 672.891 523.503   2
 -11  -6  -3-77.8465 190.988   1
  11  -6  -2-76.5481 93.9012   2
  11   6  -2 33.3427 107.412   2
 -11  -6  -2-487.420 485.774   1
  11   6  -1 159.644 100.345   2
 -11   6  -1 599.418 248.843   2
  11   6   0-11.3689 54.7015   2
 -11   6   1 233.431 100.551   1
  11  -6   2 120.904 115.812   1
 -11   6   2-145.247 146.706   1
 -11   7  -5 1169.89 603.381   2
  11   7  -4 767.631 574.133   2
 -11  -7  -4 2341.83 1157.45   1
 -11   7  -4 2802.90 900.927   2
  11  -7  -3 3324.02 758.988   2
  11   7  -3 2949.95 1045.93   2
 -11   7  -3 2065.38 675.580   2
 -11  -7  -3 2726.13 1223.96   1
  11  -7  -2 2141.25 454.573   2
  11   7  -2 1823.19 914.280   2
 -11  -7  -2 2256.05 1152.02   1
 -11  -7  -1 5882.58 1878.52   1
  11   7  -1 5887.74 1475.07   2
 -11   7  -1 4389.38 500.193   2
 -11   7  -1 4183.74 615.792   2
  11   7   0 4738.85 1128.55   2
 -11   7   2 2317.64 604.297   1
 -11  -8  -4 717.747 684.398   1
  11   8  -4 587.880 519.768   2
 -11   8  -4-75.5601 144.756   2
  11   8  -3 469.629 442.493   2
 -11  -8  -3 994.055 764.227   1
 -11   8  -3 844.832 403.399   2
  11   8  -2 283.312 345.813   2
 -11  -8  -2 606.860 644.294   1
 -11  -8  -1 1685.78 1137.09   1
  11   8  -1 1216.25 627.448   2
  11   8   0 1010.53 508.162   2
  11   9  -3 363.508 355.447   2
 -11  -9  -3 748.533 487.802   1
  11   9  -2-88.1556 199.102   2
 -11  -9  -2 378.973 542.252   1
 -11  -9  -1 736.077 718.342   1
  11   9  -1 207.117 270.839   2
  11   9   0-90.5642 156.332   2
 -11  -9   0 612.162 605.122   1
  11  10  -3 2026.72 1035.37   2
 -11 -10  -3 4676.44 1963.95   1
  11  10  -2 3228.57 1227.50   2
 -11 -10  -2 2536.29 1498.15   1
 -11 -10  -1 7143.02 2296.89   1
  11  10  -1 5356.26 1362.65   2
 -11 -10   0 1539.53 1026.38   1
  11  10   0 3260.54 946.121   2
  11  11  -3 1141.60 802.523   2
  11  11  -2 1905.83 930.981   2
 -11 -11  -2 1581.28 1158.19   1
 -11 -11  -1 780.124 742.756   1
  11  11  -1 645.512 407.150   2
 -11 -11   0 3186.99 1490.81   1
  11  12  -2 205.887 309.710   2
 -11 -12  -2 318.100 512.373   1
 -11 -12  -1 1481.70 1009.77   1
  11  12  -1 331.068 335.533   2
 -11 -12   0 273.352 425.857   1
  11  13  -1 2012.57 827.084   2
 -11 -13   0 4651.01 1833.89   1
  11  14  -1 426.363 385.051   2
 -12   0  -5 46.0929 137.134   1
  12   0  -5 467.892 442.163   2
 -12   0  -4 9198.26 1756.40   1
  12   0  -4 11038.9 1945.55   2
  12   0  -3 93.4517 58.6814   2
 -12   0  -3 891.315 503.742   1
  12   0  -2 23145.7 2314.93   2
 -12   0  -2 20002.6 2027.35   1
  12   0  -1 535.295 369.464   2
 -12   0  -1 1154.24 504.917   2
 -12   0   0 24730.8 2384.27   2
  12   0   0 24386.1 1971.52   2
 -12   0   1 360.790 271.981   2
 -12   0   2 19169.9 1971.75   2
  12  -1  -5 903.375 557.221   2
  12   1  -5 1108.61 666.142   2
 -12   1  -5 2407.81 982.096   1
 -12  -1  -5 944.595 636.415   1
  12  -1  -4 57.1980 287.034   2
  12   1  -4-121.912 225.734   2
 -12   1  -4 448.984 370.067   1
 -12  -1  -4 311.126 334.093   1
  12  -1  -3 3019.44 873.252   2
  12   1  -3 2928.13 924.920   2
 -12  -1  -3 2676.20 869.044   1
 -12   1  -3 2155.21 731.299   1
 -12   1  -2 76.8884 116.098   1
  12  -1  -2 284.385 297.898   2
  12   1  -2 268.010 268.850   2
 -12   1  -2 125.790 133.154   2
 -12  -1  -2 558.133 359.353   1
 -12  -1  -1 3733.22 903.762   1
  12   1  -1 2961.78 914.676   2
  12  -1  -1 3271.61 871.040   2
 -12  -1  -1 2991.82 876.032   2
 -12   1  -1 3385.32 836.606   2
 -12   1  -1 3409.40 708.925   1
 -12   1   0 584.998 348.994   2
 -12  -1   0 285.313 264.569   2
  12   1   0 337.008 245.310   2
  12  -1   0 315.155 260.880   2
 -12   1   1 3247.53 709.547   2
 -12  -1   1 3315.50 859.364   2
 -12   1   2 537.920 345.863   1
 -12   1   2 59.5737 104.398   2
  12  -2  -5 654.194 661.254   2
  12   2  -5 974.649 670.146   2
 -12  -2  -5 1445.44 760.067   1
 -12   2  -5 727.174 532.609   1
 -12   2  -4 2657.88 888.552   1
  12  -2  -4 1260.34 635.948   2
  12   2  -4 1058.17 623.316   2
 -12  -2  -4 3017.93 1080.83   1
  12  -2  -3 3181.84 889.166   2
 -12   2  -3 2571.20 759.385   1
 -12  -2  -3 2548.85 872.012   1
  12   2  -3 3578.60 1026.13   2
  12  -2  -2 2506.90 698.895   2
  12   2  -2 2429.28 815.319   2
 -12   2  -2 2656.17 622.693   2
 -12  -2  -2 3188.92 932.180   1
 -12  -2  -1 4823.71 1111.74   1
  12   2  -1 2950.05 937.991   2
  12  -2  -1 3300.69 815.279   2
 -12  -2  -1 5077.46 1240.08   2
 -12   2  -1 3831.78 829.561   2
 -12   2  -1 5199.04 787.488   1
 -12   2   0 2072.49 482.870   1
 -12  -2   0 3492.54 960.127   2
  12   2   0 2344.24 710.065   2
 -12   2   0 3343.36 735.141   2
 -12  -2   1 3861.16 981.916   2
 -12   2   1 4127.27 731.518   2
 -12   2   2 2437.79 706.224   1
  12  -2   2 3012.86 793.097   1
 -12   2   2 2283.02 630.794   2
  12  -2   3 2521.72 856.912   1
  12  -3  -5 428.838 397.659   2
 -12  -3  -5 512.476 504.133   1
  12  -3  -4-12.6264 60.7517   2
  12   3  -4 246.440 321.158   2
 -12   3  -4 145.664 204.966   1
 -12  -3  -4 85.9705 186.428   1
 -12  -3  -3 1103.01 613.501   1
  12  -3  -3 761.610 385.143   2
  12   3  -3 1256.45 616.513   2
 -12   3  -3 644.162 361.236   1
  12  -3  -2 508.795 305.844   2
  12   3  -2 334.924 357.456   2
 -12  -3  -2 147.377 211.595   1
 -12   3  -1 1315.14 341.628   1
 -12  -3  -1 1454.20 696.444   1
  12   3  -1 1421.62 645.009   2
  12  -3  -1 1223.17 429.739   2
 -12   3  -1 1155.85 431.109   2
 -12   3   0 196.337 124.957   1
 -12   3   0 64.9284 90.1828   2
 -12  -3   0 371.812 314.602   2
  12   3   0 158.636 128.342   2
 -12   3   1 1396.00 397.666   2
 -12   3   1 1826.39 466.089   1
  12  -3   2 119.564 158.074   1
 -12   3   2 358.693 269.783   1
 -12   3   2 199.480 171.489   2
  12  -3   3 1301.14 603.686   1
  12  -4  -5 900.011 565.616   2
  12  -4  -4 483.428 368.484   2
  12   4  -4-171.285 257.658   2
 -12  -4  -3 3701.31 1204.66   1
  12  -4  -3 3567.19 870.339   2
  12   4  -3 3800.34 1106.04   2
 -12   4  -3 3569.37 841.136   1
 -12   4  -2 707.909 301.166   1
  12  -4  -2 155.295 159.003   2
  12   4  -2 431.882 365.402   2
 -12  -4  -2 673.370 487.123   1
 -12   4  -1 6033.72 561.412   1
 -12  -4  -1 5648.97 1480.71   1
  12   4  -1 7322.51 1599.88   2
 -12   4  -1 5721.52 912.172   2
  12  -4  -1 5799.46 853.824   2
 -12   4   0 451.547 218.979   2
  12   4   0 732.036 419.605   2
 -12   4   1 6070.19 730.893   1
 -12   4   1 7025.97 855.340   2
  12  -4   2 424.969 256.742   1
 -12   4   2 17.3133 53.0953   1
  12  -4   3 3660.88 932.030   1
  12  -5  -4-27.1602 116.478   2
  12   5  -4-77.9964 177.669   2
 -12  -5  -4-114.779 234.665   1
 -12  -5  -3 119.449 226.097   1
  12  -5  -3-214.846 208.030   2
  12   5  -3-4.55130 39.4782   2
  12  -5  -2 70.8073 97.1016   2
  12   5  -2 25.8466 95.5970   2
 -12  -5  -1-120.561 230.968   1
  12   5  -1-217.032 276.815   2
 -12   5  -1 181.574 162.970   2
  12  -5  -1 45.8218 56.4577   2
 -12   5   0 74.6420 72.7286   2
  12   5   0 61.1337 126.760   2
 -12   5   1 4.02305 16.0114   1
 -12   5   1 45.2862 62.3045   2
 -12   5   2-84.0743 110.890   1
  12  -5   2 216.927 172.489   1
 -12   6  -5 458.436 422.100   2
  12  -6  -4 5339.48 1206.50   2
  12   6  -4 6984.65 1724.66   2
 -12  -6  -4 4636.52 1573.53   1
  12  -6  -3 193.777 193.763   2
  12   6  -3 199.413 271.799   2
 -12  -6  -3 76.5726 195.860   1
 -12  -6  -2 9085.63 2170.41   1
  12  -6  -2 11329.3 1256.99   2
  12   6  -2 11067.6 2108.05   2
 -12  -6  -1-66.1651 337.716   1
 -12   6  -1 225.644 199.429   2
  12   6  -1 218.686 281.214   2
 -12   6   0 13162.8 718.332   2
  12   6   0 15512.5 2104.17   2
 -12   6   2 12002.3 1339.96   1
  12   7  -4 149.935 261.419   2
 -12  -7  -4 249.463 388.640   1
 -12   7  -4 330.928 311.347   2
  12   7  -3 1721.20 837.218   2
 -12   7  -3 2925.53 777.322   2
 -12  -7  -3 2977.80 1324.59   1
  12   7  -2 216.960 302.319   2
  12  -7  -2 224.852 149.808   2
 -12  -7  -1 4354.18 1620.40   1
  12   7  -1 3808.24 1209.10   2
 -12   7  -1 3280.48 446.849   2
 -12   7  -1 3077.07 542.819   2
  12   7   0 217.907 138.970   2
 -12   7   2 373.357 237.141   1
  12   8  -3 1089.71 706.492   2
 -12  -8  -3 631.125 662.652   1
 -12   8  -3 1250.57 496.671   2
  12   8  -2 1430.84 802.812   2
 -12  -8  -2 910.813 893.608   1
 -12  -8  -1 2965.06 1468.67   1
  12   8  -1 1310.10 696.765   2
  12   8   0 2285.95 773.499   2
  12   9  -3 2063.73 1024.58   2
 -12  -9  -3 3799.98 1771.20   1
  12   9  -2 212.008 315.380   2
 -12  -9  -2 906.118 865.325   1
 -12  -9  -1 6181.48 2157.43   1
  12   9  -1 5378.73 1415.01   2
  12   9   0 982.807 547.977   2
 -12  -9   0 937.286 809.208   1
  12  10  -3 1772.15 991.722   2
 -12 -10  -3 2592.76 1524.10   1
  12  10  -2 318.078 392.151   2
 -12 -10  -2-476.201 653.103   1
 -12 -10  -1 3787.61 1739.32   1
  12  10  -1 2700.28 988.449   2
 -12 -10   0-99.8680 258.269   1
  12  10   0 575.813 408.150   2
  12  11  -2 1092.41 725.680   2
 -12 -11  -2-638.532 764.407   1
 -12 -11  -1 3826.08 1729.75   1
  12  11  -1 1807.32 859.723   2
 -12 -11   0 1129.00 891.197   1
  12  12  -2 624.169 546.208   2
 -12 -12  -1-618.396 679.858   1
  12  12  -1 56.4308 141.302   2
 -12 -12   0 2812.47 1344.34   1
  12  13  -1 1146.95 637.556   2
  13   0  -5 408.706 418.526   2
 -13   0  -5-979.840 636.593   1
 -13   0  -4-263.362 300.607   1
  13   0  -4 552.859 437.314   2
  13   0  -3 190.935 263.602   2
 -13   0  -3-81.4262 147.273   1
 -13   0  -2 179.404 196.058   1
  13   0  -2-221.523 237.421   2
  13   0  -1-69.2925 185.432   2
 -13   0  -1-198.904 227.034   2
 -13   0   0 56.2863 113.511   2
  13   0   0 32.3895 113.929   2
 -13   0   1-7.87890 39.4572   2
  13  -1  -5 836.628 586.690   2
  13   1  -5-34.1545 123.548   2
 -13   1  -5 1031.24 648.513   1
 -13  -1  -5 580.910 504.515   1
  13  -1  -4 1663.45 741.406   2
  13   1  -4 1384.86 681.520   2
 -13   1  -4 1466.83 707.237   1
 -13  -1  -4 1118.20 647.612   1
  13  -1  -3 405.749 306.399   2
  13   1  -3 314.052 303.146   2
 -13  -1  -3 1485.83 654.717   1
 -13   1  -3 1559.46 615.301   1
 -13   1  -2 1817.54 578.956   1
  13  -1  -2 2824.12 813.279   2
  13   1  -2 2268.60 817.037   2
 -13  -1  -2 2415.12 773.626   1
 -13  -1  -1 2454.51 740.122   1
  13   1  -1 1018.80 522.309   2
  13  -1  -1 1440.98 555.915   2
 -13  -1  -1 1719.63 704.997   2
 -13   1  -1 2430.25 744.700   2
 -13   1   0 3733.24 874.252   2
 -13  -1   0 3746.67 983.954   2
  13   1   0 3267.64 813.751   2
  13  -1   0 3476.21 712.603   2
 -13   1   1 1351.46 489.419   2
 -13  -1   1 980.953 544.953   2
 -13   1   2 2767.25 742.362   2
  13  -2  -5 4336.34 1261.08   2
 -13  -2  -5 3761.85 1333.24   1
 -13   2  -5 4142.58 1282.70   1
 -13   2  -4 359.339 327.192   1
  13  -2  -4 272.112 311.315   2
  13   2  -4-121.466 213.955   2
 -13  -2  -4 221.526 293.885   1
 -13   2  -3 9461.08 1489.76   1
  13  -2  -3 6690.34 1299.88   2
  13   2  -3 9106.61 1691.81   2
 -13  -2  -3 8410.46 1649.84   1
  13  -2  -2 51.6810 167.065   2
  13   2  -2 408.402 352.492   2
 -13  -2  -2 276.277 277.644   1
 -13  -2  -1 14672.1 2001.57   1
  13   2  -1 12837.3 2049.86   2
  13  -2  -1 14079.7 1688.99   2
 -13   2  -1 16390.9 1848.81   2
 -13   2  -1 16069.3 1442.26   1
 -13   2   0-119.711 121.119   1
 -13   2   0-34.0634 75.6615   2
 -13  -2   0-142.665 198.794   2
  13   2   0-36.7407 88.3889   2
 -13   2   1 13765.3 1416.01   2
 -13   2   2 553.592 347.680   1
 -13   2   2-9.66935 41.9362   2
  13  -3  -5-714.754 520.276   2
 -13   3  -4 498.831 383.195   1
  13  -3  -4-134.189 201.102   2
 -13  -3  -4 263.389 332.368   1
 -13  -3  -3-37.1743 114.004   1
  13  -3  -3 36.3856 53.7208   2
 -13   3  -3 251.769 228.617   1
  13  -3  -2 52.1853 162.907   2
  13   3  -2 59.4839 236.376   2
 -13  -3  -2-214.027 261.892   1
 -13   3  -2 70.5798 104.230   2
 -13   3  -1 33.9029 75.5423   1
 -13  -3  -1-148.784 216.603   1
 -13   3  -1-115.837 145.406   2
  13  -3  -1-49.3861 24.3738   2
 -13   3   0 100.150 117.672   2
 -13   3   0 253.385 153.694   1
  13   3   0 216.882 193.489   2
 -13   3   1-7.62800 42.3652   2
 -13   3   1 15.4215 44.5890   1
 -13   3   2 333.897 250.900   1
 -13   3   2 221.130 195.004   2
  13  -3   3-37.6730 99.6662   1
  13  -4  -5 3256.62 1113.06   2
  13  -4  -4 11.5850 58.0170   2
  13   4  -4-89.4740 191.063   2
 -13  -4  -4 31.6790 119.926   1
 -13  -4  -3 6594.83 1625.12   1
 -13   4  -3 8796.88 1337.28   1
  13  -4  -3 7498.83 1291.57   2
  13   4  -3 8431.25 1737.68   2
 -13   4  -2 219.122 162.534   1
  13  -4  -2 10.0957 43.7853   2
  13   4  -2 283.593 300.821   2
 -13  -4  -2 143.217 209.465   1
 -13   4  -2 50.9461 87.0851   2
 -13   4  -1 11246.9 821.077   1
 -13  -4  -1 9312.60 1903.17   1
 -13   4  -1 11951.6 1444.25   2
  13   4  -1 14160.4 2269.66   2
  13  -4  -1 12879.9 1284.51   2
 -13   4   0-125.231 118.345   2
  13   4   0-61.7570 128.865   2
 -13   4   0 112.032 61.7960   1
 -13   4   0 76.5569 52.1331   1
 -13   4   1 12722.4 1080.19   1
 -13   4   1 12284.2 1175.28   2
 -13   4   2-56.9314 98.2750   1
  13  -5  -4 5008.61 1196.45   2
  13   5  -4 4732.03 1421.26   2
 -13  -5  -4 4401.07 1517.49   1
 -13  -5  -3 955.557 658.360   1
  13  -5  -3-151.388 179.950   2
  13   5  -3 537.865 448.416   2
  13   5  -2 6522.86 1629.56   2
 -13  -5  -2 5996.24 1644.55   1
  13  -5  -2 6921.71 1114.85   2
 -13   5  -2 6209.57 950.482   2
 -13  -5  -1 1075.37 694.293   1
 -13   5  -1 1254.28 442.535   2
  13   5  -1 225.839 119.155   2
  13  -5  -1 512.685 193.844   2
 -13   5   0 10758.3 966.180   2
  13   5   0 11904.0 1838.57   2
 -13   5   1 258.935 119.009   1
 -13   5   1 704.146 274.548   2
 -13   5   2 7026.68 1027.46   1
 -13   6  -5 2183.65 926.161   2
  13   6  -4 704.050 566.407   2
 -13  -6  -4 898.733 709.429   1
  13  -6  -3 1413.78 535.580   2
  13   6  -3 999.635 624.366   2
 -13  -6  -3 1237.42 808.490   1
  13   6  -2 1036.43 662.754   2
  13  -6  -2 1381.71 490.079   2
 -13  -6  -2 1178.45 853.624   1
 -13   6  -2 1371.23 423.039   2
 -13  -6  -1 2382.17 1195.88   1
 -13   6  -1 1854.79 512.167   2
  13   6  -1 2091.69 882.111   2
 -13   6   0 1668.53 297.616   2
  13   6   0 1800.47 725.604   2
 -13   6   2 1433.92 461.566   1
 -13  -7  -4-363.240 481.889   1
 -13   7  -4 411.507 350.011   2
  13   7  -3-155.069 263.791   2
 -13  -7  -3 484.640 549.620   1
  13   7  -2 97.4570 209.705   2
 -13  -7  -2-668.110 653.046   1
 -13  -7  -1 986.099 775.986   1
 -13   7  -1 991.143 307.448   2
  13   7  -1 930.553 608.209   2
  13   7   0 381.047 330.413   2
  13   8  -3 2509.16 1068.24   2
 -13  -8  -3 3327.59 1572.30   1
  13   8  -2-34.5060 127.625   2
 -13  -8  -2-1661.32 1122.70   1
 -13  -8  -1 4251.22 1720.06   1
  13   8  -1 3902.45 1219.28   2
  13   8   0 279.467 268.955   2
  13   9  -3 133.798 269.827   2
 -13  -9  -3 653.548 755.854   1
  13   9  -2 387.130 436.249   2
 -13  -9  -2-306.508 514.046   1
 -13  -9  -1 438.771 572.140   1
  13   9  -1 65.5603 253.187   2
 -13  -9   0 1229.76 888.919   1
  13   9   0 742.810 518.912   2
  13  10  -2-457.443 475.101   2
 -13 -10  -2 519.473 699.456   1
 -13 -10  -1 4425.18 1908.05   1
  13  10  -1 2308.70 924.044   2
 -13 -10   0 743.634 830.126   1
  13  10   0 585.863 424.591   2
  13  11  -2 4797.26 1543.41   2
 -13 -11  -2 5900.40 2287.51   1
 -13 -11  -1 168.180 367.582   1
  13  11  -1 101.699 21.5157   2
 -13 -11   0 7322.43 2419.54   1
  13  12  -1 1567.64 759.843   2
 -13 -12   0 1108.98 971.051   1
  14   0  -5 137.524 247.394   2
 -14   0  -5 1469.36 789.291   1
 -14   0  -4 14842.4 2319.73   1
  14   0  -4 18673.8 2608.15   2
  14   0  -3 200.772 206.911   2
 -14   0  -3 1754.61 724.300   1
  14   0  -2 28314.6 2926.96   2
 -14   0  -2 36550.9 2930.83   1
 -14   0  -1 223.283 213.881   1
 -14   0  -1 395.837 415.007   2
  14   0  -1 339.130 310.688   2
 -14   0   0 47036.2 3421.48   2
  14   0   0 38315.7 2636.59   2
 -14   0   1 357.833 269.287   2
  14  -1  -5 483.751 453.796   2
 -14   1  -5 273.969 337.769   1
 -14  -1  -5 1045.69 686.143   1
  14  -1  -4 508.519 418.666   2
  14   1  -4 188.052 333.404   2
 -14   1  -4 96.1446 176.800   1
  14  -1  -3 418.578 343.458   2
  14   1  -3 284.083 330.283   2
 -14  -1  -3-128.393 196.874   1
 -14   1  -3 591.782 425.041   1
 -14   1  -2 551.095 317.429   1
  14  -1  -2 775.645 426.943   2
  14   1  -2 732.429 465.499   2
 -14  -1  -2 1249.11 567.644   1
 -14  -1  -1 402.945 342.309   1
 -14   1  -1 728.828 452.363   2
  14   1  -1 262.208 339.451   2
  14  -1  -1 586.995 329.279   2
 -14   1   0 851.329 425.941   2
 -14  -1   0 917.535 465.732   2
  14   1   0 1095.67 483.294   2
 -14   1   1 191.586 187.267   2
  14  -2  -5 128.160 162.144   2
 -14   2  -5 446.753 426.641   1
  14  -2  -4 817.826 518.408   2
  14   2  -4 581.453 479.253   2
 -14  -2  -4 731.622 518.232   1
 -14   2  -4 22.2915 82.4477   1
 -14   2  -3 1060.58 505.460   1
 -14  -2  -3 1344.96 689.759   1
  14  -2  -3 313.936 225.358   2
  14   2  -3 798.178 582.293   2
  14  -2  -2 804.678 438.224   2
  14   2  -2 635.018 467.197   2
 -14   2  -2 801.101 374.653   1
 -14  -2  -2 815.613 489.951   1
 -14  -2  -1 1385.26 670.740   1
 -14   2  -1 467.771 329.375   2
  14   2  -1 1006.50 564.724   2
  14  -2  -1 815.474 425.986   2
 -14   2  -1 1038.31 388.637   1
 -14   2   0 429.283 224.368   1
 -14   2   0 794.938 365.321   2
  14   2   0 808.627 390.475   2
 -14   2   1 876.528 373.877   2
 -14   2   2 1485.30 603.010   1
 -14   2   2 932.959 434.360   2
  14  -3  -5 388.660 389.279   2
  14  -3  -4-655.282 454.352   2
  14   3  -4-31.6585 253.836   2
 -14  -3  -4-394.283 413.979   1
 -14   3  -4 642.246 440.760   1
 -14  -3  -3 456.831 408.708   1
  14  -3  -3 479.024 347.769   2
  14   3  -3 204.321 351.546   2
 -14   3  -3 340.827 253.048   1
  14  -3  -2 111.188 79.8010   2
  14   3  -2 368.888 370.092   2
 -14  -3  -2-142.861 219.059   1
 -14   3  -1 420.698 208.779   1
 -14  -3  -1 300.375 311.413   1
 -14   3  -1 172.713 191.814   2
  14   3  -1 264.705 382.674   2
  14  -3  -1 490.664 319.590   2
 -14   3   0 12.5969 43.7063   2
 -14   3   0 166.443 133.759   1
  14   3   0 160.637 175.546   2
 -14   3   1 392.531 244.226   2
 -14   3   1 520.746 258.210   1
 -14   3   2 15.1674 54.8653   1
 -14   3   2 59.6457 104.524   2
  14  -4  -4-136.078 203.933   2
  14   4  -4-465.238 450.478   2
 -14  -4  -4 189.775 299.293   1
 -14  -4  -3-279.675 339.696   1
  14  -4  -3 244.449 199.900   2
  14   4  -3 229.205 297.201   2
 -14   4  -3 63.5428 113.098   1
  14   4  -2-46.7126 201.848   2
  14  -4  -2-98.7418 92.7285   2
 -14  -4  -2 232.096 300.949   1
 -14   4  -2 49.6303 90.7564   2
 -14   4  -2 32.2516 62.9491   1
 -14   4  -1-57.7444 61.5373   1
 -14  -4  -1-248.462 307.881   1
 -14   4  -1 138.825 203.196   2
  14   4  -1 114.517 202.763   2
  14  -4  -1 191.729 157.320   2
 -14   4   0 246.431 180.744   2
  14   4   0 284.385 275.364   2
 -14   4   0 161.988 89.7677   1
 -14   4   1 43.0597 63.4247   2
 -14   4   1 100.321 97.5953   1
 -14   4   2 205.144 189.688   1
  14  -5  -4 651.304 442.838   2
  14   5  -4 495.195 520.926   2
 -14  -5  -4 994.467 719.462   1
  14  -5  -3 808.814 437.414   2
  14   5  -3 144.600 245.982   2
 -14  -5  -3 182.752 294.364   1
  14   5  -2 45.6890 105.087   2
  14  -5  -2 277.200 231.100   2
 -14  -5  -2 549.294 502.233   1
 -14   5  -2 284.118 173.182   2
 -14  -5  -1-15.0004 82.2916   1
 -14   5  -1 702.565 399.528   2
  14   5  -1 11.1756 388.348   2
  14  -5  -1 416.136 202.716   2
 -14   5   0 228.054 150.832   2
  14   5   0-72.8912 23.2247   2
 -14   5   1 300.277 137.258   1
 -14   5   1 454.344 236.900   2
 -14   5   2 122.029 134.700   1
 -14  -6  -4 10085.7 2411.37   1
  14   6  -4 7630.81 1959.15   2
  14   6  -3 281.179 302.935   2
 -14  -6  -3 986.744 738.015   1
  14   6  -2 14893.0 2656.51   2
  14  -6  -2 12685.2 1375.03   2
 -14  -6  -2 14394.8 2849.97   1
 -14   6  -2 15176.3 1506.12   2
 -14  -6  -1 884.652 684.290   1
 -14   6  -1 548.932 287.913   2
  14   6  -1 388.043 386.732   2
 -14   6   0 21161.4 1201.13   2
  14   6   0 23708.3 2701.54   2
 -14   7  -4 221.272 258.802   2
  14   7  -3 561.558 529.110   2
 -14  -7  -3 634.092 642.644   1
  14   7  -2-132.394 250.599   2
 -14  -7  -2-715.686 683.467   1
 -14  -7  -1 1811.05 1051.96   1
  14   7  -1 1513.89 767.806   2
  14   7   0 733.427 475.170   2
  14   8  -3 511.159 525.274   2
 -14  -8  -3 1086.78 918.866   1
  14   8  -2 1210.15 701.433   2
 -14  -8  -2-15.4358 109.321   1
 -14  -8  -1 2332.00 1267.34   1
  14   8  -1 1766.89 853.849   2
  14   8   0 1437.27 647.275   2
 -14  -8   0 2844.55 1302.68   1
  14   9  -3 1163.39 821.895   2
  14   9  -2 707.163 595.783   2
 -14  -9  -2-492.405 659.052   1
 -14  -9  -1 1784.57 1106.55   1
  14   9  -1 1449.25 754.971   2
 -14  -9   0-76.3082 223.763   1
  14   9   0 210.893 260.005   2
  14  10  -2 398.705 446.475   2
 -14 -10  -2 1565.43 1233.14   1
 -14 -10  -1 480.048 1039.28   1
  14  10  -1 169.883 257.494   2
 -14 -10   0 280.144 449.304   1
 -14 -11  -1 2304.87 1518.03   1
  14  11  -1 1562.71 792.108   2
 -14 -11   0-591.891 681.523   1
  14  12  -1-454.252 417.661   2
 -15   0  -5-34.9072 123.612   1
 -15   0  -4 253.610 306.538   1
  15   0  -4 198.311 274.568   2
  15   0  -3-84.4769 165.937   2
 -15   0  -3 118.340 194.067   1
  15   0  -2 363.132 404.181   2
 -15   0  -2-314.076 277.687   1
 -15   0  -1 106.181 168.328   1
  15   0  -1 18.4035 127.198   2
  15   0   0 29.4659 169.391   2
 -15   0   0 119.722 153.532   1
 -15   1  -5 383.692 406.599   1
  15   1  -4 41.3163 128.734   2
 -15   1  -4 845.769 572.317   1
 -15  -1  -4 1327.92 724.516   1
 -15  -1  -3-205.203 254.928   1
  15  -1  -3 283.585 288.623   2
  15   1  -3 358.208 408.204   2
 -15   1  -3-77.3485 144.695   1
 -15   1  -2 1122.00 485.073   1
  15   1  -2 267.663 308.877   2
  15  -1  -2 496.445 378.196   2
 -15  -1  -2 1241.78 586.965   1
 -15  -1  -1 337.254 288.244   1
  15   1  -1-282.101 288.377   2
  15  -1  -1 214.328 217.685   2
 -15   1   0 409.714 292.912   2
  15   1   0 833.064 415.811   2
 -15   1   1 197.461 211.872   2
  15  -2  -5 2273.41 977.466   2
 -15   2  -5 3178.55 1161.20   1
  15  -2  -4-332.688 338.332   2
  15   2  -4 307.406 360.364   2
 -15  -2  -4 1478.26 786.565   1
 -15   2  -4 1556.63 650.906   1
 -15   2  -3 7740.93 1413.43   1
 -15  -2  -3 6029.41 1457.84   1
  15   2  -3 7476.86 1690.53   2
  15  -2  -3 6753.17 1404.26   2
  15   2  -2 122.157 177.973   2
  15  -2  -2 682.968 493.248   2
 -15   2  -2 1493.13 529.624   1
 -15  -2  -2 1370.61 643.895   1
 -15  -2  -1 10058.0 1707.53   1
 -15   2  -1 7693.99 1430.72   2
  15   2  -1 10190.0 1829.31   2
  15  -2  -1 11441.9 1539.03   2
 -15   2   0 750.373 330.008   1
 -15   2   0 741.482 386.414   2
  15   2   0 1288.59 530.587   2
 -15   2   1 11003.6 1382.91   2
 -15   2   2 405.840 314.863   1
  15  -3  -5 1757.86 940.709   2
  15  -3  -4-234.535 278.785   2
  15   3  -4 341.047 389.278   2
 -15  -3  -4 265.173 345.775   1
 -15   3  -4 361.767 338.377   1
 -15  -3  -3 4154.58 1275.67   1
  15  -3  -3 3444.35 1022.90   2
  15   3  -3 3549.03 1222.11   2
 -15   3  -3 2662.12 766.299   1
  15   3  -2 274.761 309.197   2
  15  -3  -2 140.247 191.157   2
 -15  -3  -2 789.258 525.455   1
 -15  -3  -1 5676.08 1399.37   1
 -15   3  -1 4451.69 1043.43   2
  15   3  -1 6863.40 1583.78   2
  15  -3  -1 6982.56 1099.59   2
 -15   3  -1 6478.59 876.301   1
 -15   3   0 1134.47 434.362   2
 -15   3   0 1488.50 432.786   1
  15   3   0 1157.06 531.226   2
 -15   3   1 7068.44 1042.32   1
 -15   3   1 6266.14 978.174   2
 -15   3   2 28.6600 76.7191   1
 -15   3   2 696.604 393.611   2
  15  -4  -4 343.695 334.357   2
  15   4  -4 1007.52 655.632   2
 -15  -4  -4 2004.92 945.313   1
 -15  -4  -3 5876.53 1629.32   1
 -15   4  -3 8102.18 1320.06   1
  15   4  -3 4867.45 1465.88   2
  15  -4  -3 7265.75 1415.12   2
  15   4  -2 2006.65 973.504   2
  15  -4  -2 1155.26 529.116   2
 -15  -4  -2 2486.34 1039.28   1
 -15   4  -2 3005.13 614.028   1
 -15   4  -1 8592.59 801.155   1
 -15  -4  -1 7801.21 1790.85   1
 -15   4  -1 8011.33 1347.19   2
  15   4  -1 8913.73 1826.57   2
  15  -4  -1 9440.80 1137.94   2
 -15   4   0 3021.93 660.082   2
  15   4   0 3508.48 982.448   2
 -15   4   0 2181.49 377.555   1
 -15   4   1 8357.05 919.386   1
 -15   4   1 9182.01 1140.64   2
 -15   4   2 2033.72 636.058   2
 -15   4   2 1588.09 554.148   1
  15   5  -4 1355.06 766.705   2
 -15  -5  -4 1570.61 920.595   1
  15  -5  -3 106.544 170.879   2
  15   5  -3-513.138 488.559   2
 -15  -5  -3-379.396 432.116   1
  15   5  -2 1987.99 955.420   2
  15  -5  -2 2102.21 627.823   2
 -15  -5  -2 2264.03 1031.81   1
 -15   5  -2 3078.47 753.306   2
 -15  -5  -1 39.1005 133.029   1
 -15   5  -1 295.483 177.872   2
  15   5  -1 153.515 166.171   2
 -15   5   0 2653.38 545.619   2
  15   5   0 2560.45 894.546   2
 -15   5   1 86.7998 76.0549   1
 -15   5   1 327.205 203.639   2
  15   6  -3 560.029 498.957   2
 -15  -6  -3 997.378 679.928   1
  15   6  -2 417.085 447.018   2
  15  -6  -2 158.608 150.558   2
 -15  -6  -2-440.324 495.148   1
 -15  -6  -1 63.1454 182.575   1
 -15   6  -1 986.217 392.910   2
  15   6  -1 1257.71 726.495   2
 -15   6   0 468.111 177.612   2
  15   6   0 920.596 545.125   2
  15   7  -3-57.4876 176.299   2
 -15  -7  -3 1457.84 987.424   1
  15   7  -2 731.512 602.936   2
 -15  -7  -2-761.788 708.429   1
 -15  -7  -1 2341.70 1269.60   1
  15   7  -1 3242.98 1125.90   2
  15   7   0-100.966 180.660   2
 -15  -7   0-292.838 399.136   1
  15   8  -3 2245.93 1139.57   2
 -15  -8  -3 3010.07 1551.36   1
  15   8  -2-1.67795 255.432   2
 -15  -8  -2-1194.81 961.225   1
 -15  -8  -1 4589.59 1809.14   1
  15   8  -1 3841.45 1279.31   2
 -15  -8   0-27.9747 129.704   1
  15   8   0-599.008 445.538   2
  15   9  -2 435.458 471.228   2
 -15  -9  -2 690.374 372.613   1
 -15  -9  -1 1789.35 1166.62   1
  15   9  -1 1704.87 789.041   2
 -15  -9   0 1440.50 978.682   1
  15   9   0 1282.56 659.567   2
  15  10  -2 1924.82 821.249   2
 -15 -10  -1 1680.44 1174.59   1
  15  10  -1 1729.98 832.700   2
 -15 -10   0 1921.57 1186.02   1
  15  11  -1-207.965 287.934   2
 -15 -11   0 1977.52 1267.13   1
 -16   0  -4 4582.53 1328.25   1
  16   0  -4 3002.81 1112.06   2
  16   0  -3 303.862 334.736   2
 -16   0  -3 1252.48 622.077   1
  16   0  -2 5819.06 1470.66   2
 -16   0  -2 8311.22 1511.14   1
 -16   0  -1 1194.04 521.013   1
  16   0  -1 453.292 378.669   2
 -16   0   0 6833.90 1204.09   1
 -16   1  -5 755.956 584.162   1
  16  -1  -4 1352.93 708.368   2
  16   1  -4 906.432 683.133   2
 -16   1  -4 2012.51 823.470   1
 -16  -1  -4 2540.72 1023.93   1
 -16  -1  -3-196.127 255.743   1
  16  -1  -3-192.762 257.235   2
  16   1  -3 344.911 367.567   2
 -16   1  -3 216.977 249.835   1
 -16   1  -2 2380.52 735.074   1
  16   1  -2 1696.38 840.238   2
  16  -1  -2 1910.75 806.837   2
 -16  -1  -2 1748.02 716.557   1
  16   1  -1 167.190 163.647   2
  16  -1  -1 301.823 265.820   2
 -16   1  -1 209.624 208.572   1
  16   1   0 2429.94 744.501   2
 -16  -1   0 1911.75 686.674   1
  16  -2  -4 966.357 600.625   2
  16   2  -4 973.211 664.782   2
 -16  -2  -4 876.662 617.800   1
 -16   2  -4 1149.41 621.309   1
 -16   2  -3 6909.59 1409.77   1
 -16  -2  -3 5826.67 1454.00   1
  16  -2  -3 4766.01 1254.76   2
  16   2  -3 4413.11 1367.96   2
 -16   2  -2 1669.34 592.358   1
  16   2  -2 2256.08 946.210   2
  16  -2  -2 1256.66 645.442   2
 -16  -2  -2 212.852 733.042   1
 -16  -2  -1 7057.37 1442.91   1
  16   2  -1 7207.81 1578.97   2
  16  -2  -1 5733.01 1103.34   2
 -16   2   0 3095.41 809.272   2
  16   2   0 3114.37 866.251   2
 -16   2   1 6910.50 1142.90   2
 -16   2   2 2204.21 756.633   1
  16  -3  -4-76.3492 165.564   2
  16   3  -4 97.5775 216.739   2
 -16  -3  -4 59.0413 166.156   1
 -16  -3  -3-191.636 277.042   1
  16  -3  -3 148.309 332.149   2
  16   3  -3 66.0247 172.676   2
 -16   3  -3-25.5546 78.3691   1
  16   3  -2-169.329 272.744   2
  16  -3  -2 307.042 62.8505   2
 -16  -3  -2 226.228 286.232   1
 -16   3  -1 348.711 214.823   1
 -16  -3  -1 165.572 265.723   1
 -16   3  -1 632.669 335.690   2
  16   3  -1 591.192 456.841   2
  16  -3  -1 157.615 150.456   2
 -16   3   0 874.908 420.414   2
 -16   3   0 620.426 334.792   1
  16   3   0 990.640 512.607   2
 -16   3   1 455.843 272.366   2
 -16   3   1 356.111 235.528   1
 -16   3   2 722.763 389.554   1
  16  -4  -4 1014.85 601.750   2
  16   4  -4 1331.63 719.954   2
 -16  -4  -4 566.809 535.640   1
 -16  -4  -3 2131.80 971.144   1
  16  -4  -3 260.470 287.515   2
  16   4  -3 1189.99 771.032   2
 -16   4  -3 2685.19 769.649   1
  16   4  -2 1432.25 792.338   2
  16  -4  -2 1064.78 532.799   2
 -16   4  -2 901.090 343.117   1
 -16  -4  -2-129.041 230.895   1
 -16  -4  -1 1422.86 677.672   1
 -16   4  -1 2097.02 696.336   2
  16   4  -1 2361.11 938.960   2
  16  -4  -1 1829.75 515.285   2
 -16   4  -1 2345.38 438.272   1
 -16   4   0 1283.36 460.906   2
  16   4   0 1019.60 541.250   2
 -16   4   0 678.642 230.699   1
 -16   4   1 1654.76 493.192   2
 -16   4   1 1877.54 440.663   1
 -16  -5  -4 884.392 701.750   1
  16   5  -3-90.3114 215.207   2
 -16  -5  -3 141.541 267.913   1
  16   5  -2 963.374 681.725   2
  16  -5  -2 731.093 374.003   2
 -16  -5  -2 831.815 630.395   1
 -16  -5  -1 1003.36 674.482   1
 -16   5  -1 588.997 342.700   2
  16   5  -1 1340.76 724.716   2
 -16   5   0 504.162 267.124   2
  16   5   0 566.862 412.131   2
 -16   5   1 144.446 114.977   1
 -16   5   1 533.088 274.024   2
  16   6  -3-389.208 461.559   2
 -16  -6  -3 237.968 373.758   1
  16   6  -2 4503.98 1512.33   2
 -16  -6  -2 3043.39 1306.52   1
 -16  -6  -1 154.214 285.189   1
  16   6  -1 137.014 266.136   2
  16   6   0 5574.19 1350.48   2
 -16  -6   0 4726.87 1579.82   1
  16   7  -3 870.893 711.424   2
 -16  -7  -3 596.142 638.926   1
  16   7  -2 947.366 634.899   2
 -16  -7  -2 540.655 596.792   1
 -16  -7  -1 1514.70 956.956   1
  16   7  -1 710.041 539.138   2
 -16  -7   0 2316.99 1131.48   1
  16   7   0 1865.47 793.348   2
  16   8  -2 1141.96 765.930   2
 -16  -8  -2-194.303 386.657   1
 -16  -8  -1 6526.09 2165.65   1
  16   8  -1 5536.90 1542.00   2
 -16  -8   0 1446.98 938.117   1
  16   8   0 1549.29 735.328   2
  16   9  -2 1817.55 969.840   2
 -16  -9  -2 3402.96 1733.32   1
 -16  -9  -1 1225.35 1066.52   1
  16   9  -1 1096.56 674.687   2
 -16  -9   0 4069.82 1652.25   1
 -16 -10  -1 1223.51 1003.94   1
  16  10  -1-217.260 299.849   2
 -16 -10   0-288.539 462.767   1
 -17   0  -4-93.2866 196.253   1
  17   0  -4 387.806 413.278   2
  17   0  -3-312.188 360.258   2
 -17   0  -3-9.86457 57.0438   1
  17   0  -2-393.569 382.876   2
 -17   0  -2 46.0966 114.241   1
 -17   0  -1 2.45070 24.5460   1
  17   0  -1 243.733 249.784   2
 -17   0   0-159.848 182.850   1
 -17   1  -4 459.490 419.541   1
  17  -1  -4 1851.33 880.995   2
  17   1  -4 803.395 614.154   2
 -17  -1  -4 975.939 650.219   1
 -17  -1  -3-70.2710 157.381   1
  17  -1  -3-80.9413 372.145   2
  17   1  -3 46.9212 110.878   2
 -17   1  -2 704.959 420.714   1
  17   1  -2 520.110 458.660   2
  17  -1  -2 103.850 188.859   2
 -17  -1  -2 500.709 394.426   1
 -17  -1  -1 511.346 369.620   1
  17   1  -1 376.189 335.227   2
  17  -1  -1 194.843 215.073   2
 -17   1  -1 453.359 291.639   1
 -17  -1   0 101.722 157.839   1
 -17   1   0 728.148 358.106   1
  17  -2  -4 1108.11 668.472   2
  17   2  -4 699.459 588.599   2
 -17  -2  -4 2216.83 1043.19   1
 -17   2  -4 2025.13 856.880   1
 -17   2  -3 1588.51 718.288   1
 -17  -2  -3 1704.39 803.844   1
  17  -2  -3 1973.58 870.758   2
  17   2  -3 1223.07 675.150   2
 -17   2  -2 4005.41 962.346   1
  17   2  -2 2712.62 1052.84   2
  17  -2  -2 1854.26 752.740   2
 -17  -2  -2 3301.97 1060.20   1
 -17  -2  -1 1453.60 689.469   1
  17   2  -1 2718.88 971.329   2
  17  -2  -1 1736.06 607.350   2
  17   2   0 2968.43 875.768   2
 -17  -2   0 3053.33 942.284   1
  17  -3  -4 907.236 598.733   2
  17   3  -4 1231.18 805.558   2
 -17  -3  -4-328.456 398.945   1
 -17  -3  -3 5136.76 1493.04   1
  17  -3  -3 4443.32 1270.67   2
  17   3  -3 2608.24 1152.76   2
 -17   3  -3 5194.55 1183.01   1
  17   3  -2 275.214 297.739   2
  17  -3  -2 637.881 428.519   2
 -17  -3  -2 23.4034 93.1437   1
 -17   3  -2 556.314 332.991   1
 -17  -3  -1 5154.99 1320.72   1
  17   3  -1 7131.45 1627.59   2
  17  -3  -1 5747.54 1012.09   2
 -17   3  -1 7475.76 1072.40   1
 -17   3   0 238.656 217.907   2
 -17   3   0 284.664 217.611   1
  17   3   0 385.699 215.002   2
 -17  -3   0 186.234 253.056   1
 -17   3   1 4393.16 899.705   2
 -17   3   1 5856.81 973.342   1
 -17  -4  -4 3643.41 1386.47   1
 -17  -4  -3 1712.13 854.230   1
  17  -4  -3 1763.31 722.367   2
  17   4  -3 1285.76 823.870   2
  17   4  -2 5184.17 1578.02   2
  17  -4  -2 4925.08 1083.14   2
 -17  -4  -2 6009.52 1585.25   1
 -17  -4  -1 1197.30 754.080   1
 -17   4  -1 1735.37 640.098   2
  17   4  -1 3112.70 1153.89   2
  17  -4  -1 2018.16 548.562   2
 -17   4  -1 2008.81 423.471   1
  17   4   0 6354.55 1382.92   2
 -17  -4   0 4729.82 1418.48   1
 -17   4   0 7104.08 1127.64   2
 -17   4   0 4886.29 707.627   1
 -17   4   1 1450.86 494.477   2
  17   5  -3 257.458 402.943   2
 -17  -5  -3 961.869 706.400   1
  17   5  -2 58.1510 144.115   2
  17  -5  -2 175.601 205.280   2
 -17  -5  -2-378.370 427.280   1
 -17  -5  -1 72.6495 181.913   1
  17   5  -1 277.116 331.745   2
  17   5   0 411.689 362.581   2
 -17  -5   0 297.257 368.346   1
  17   6  -3 1067.49 844.034   2
 -17  -6  -3-900.850 731.850   1
  17   6  -2 575.393 674.792   2
 -17  -6  -2 78.0025 208.802   1
 -17  -6  -1-505.731 516.086   1
  17   6  -1 166.352 196.492   2
 -17  -6   0 730.300 610.259   1
  17   6   0 319.796 316.886   2
 -17  -7  -3 2496.80 1313.17   1
  17   7  -2 2308.36 1161.19   2
 -17  -7  -2 450.384 543.061   1
 -17  -7  -1 3440.09 1484.09   1
  17   7  -1 2573.22 1072.34   2
 -17  -7   0 3118.56 1317.11   1
  17   7   0 2144.23 906.779   2
  17   8  -2 47.2985 157.913   2
 -17  -8  -2 808.709 784.275   1
 -17  -8  -1 1454.54 993.571   1
  17   8  -1 1151.73 697.743   2
 -17  -8   0 169.917 323.557   1
  17   8   0 1337.49 699.913   2
 -17  -9  -1 1125.29 922.314   1
  17   9  -1 893.172 617.819   2
 -17  -9   0-313.783 460.062   1
 -18   0  -4 1509.62 817.208   1
  18   0  -4 1297.97 796.105   2
  18   0  -3 3355.00 1228.21   2
 -18   0  -3 4316.59 1261.04   1
 -18   0  -2 176.643 231.648   1
  18   0  -2-250.856 310.057   2
 -18   0  -1 6821.66 1331.96   1
  18   0  -1 8236.02 1515.94   2
 -18   0   0 237.718 279.094   1
 -18   1  -4 741.885 556.431   1
  18   1  -4 685.635 593.981   2
 -18  -1  -4 1063.17 697.615   1
 -18  -1  -3-854.033 565.260   1
  18   1  -3-201.475 312.621   2
  18  -1  -3-371.557 401.298   2
 -18   1  -3-19.2373 80.9417   1
 -18   1  -2 718.923 447.716   1
  18   1  -2 156.979 280.627   2
  18  -1  -2 979.083 598.957   2
 -18  -1  -2 1110.51 602.334   1
 -18  -1  -1-13.7989 61.8088   1
  18   1  -1 269.325 366.812   2
 -18   1  -1-184.153 214.414   1
  18  -1  -1 583.839 372.835   2
 -18  -1   0 1151.31 554.200   1
 -18   1   0 1119.37 474.252   1
  18  -2  -4 1250.66 751.743   2
 -18  -2  -4 1688.60 894.707   1
 -18   2  -3 4060.27 1189.50   1
 -18  -2  -3 3040.53 1102.94   1
  18   2  -3 1511.73 838.159   2
  18  -2  -3 1184.31 657.644   2
 -18   2  -2 1229.70 561.393   1
  18   2  -2 1599.13 786.814   2
  18  -2  -2 2057.28 820.391   2
 -18  -2  -2 857.768 548.135   1
 -18  -2  -1 5127.78 1252.95   1
  18   2  -1 4031.77 1176.08   2
  18  -2  -1 3826.81 913.922   2
 -18   2  -1 5702.64 1168.51   1
 -18  -2   0 1900.03 714.417   1
 -18  -3  -4 798.108 632.624   1
 -18  -3  -3-242.687 321.958   1
  18   3  -3-3.62684 44.4903   2
  18  -3  -3 112.989 213.868   2
  18   3  -2 944.228 623.606   2
  18  -3  -2 424.210 288.184   2
 -18  -3  -2 102.271 197.133   1
 -18   3  -2-0.75364 486.914   1
 -18   3  -1 382.765 264.135   1
 -18  -3  -1-22.6783 87.9724   1
  18   3  -1 670.104 476.155   2
  18  -3  -1 270.142 220.676   2
 -18  -3   0 948.614 576.097   1
 -18   3   0 1482.82 544.129   1
  18   3   0 859.297 525.536   2
 -18  -4  -3 149.892 265.396   1
  18   4  -3 355.178 451.795   2
  18   4  -2 2977.59 1191.92   2
  18  -4  -2 2217.02 717.801   2
 -18  -4  -2 3089.34 1146.55   1
 -18  -4  -1 1175.27 679.622   1
  18   4  -1 929.133 594.952   2
 -18  -4   0 3682.90 1253.79   1
  18   4   0 3673.92 1060.17   2
  18   5  -3-202.690 348.164   2
 -18  -5  -3 99.8547 229.447   1
  18   5  -2 117.097 244.553   2
 -18  -5  -2-832.378 634.464   1
 -18  -5  -1-247.008 335.636   1
  18   5  -1-179.038 268.315   2
 -18  -5   0 523.152 495.119   1
  18   5   0-136.269 213.155   2
 -18  -6  -3 1350.38 899.688   1
  18   6  -2-475.080 497.901   2
 -18  -6  -2 103.791 240.612   1
 -18  -6  -1 2706.49 1192.98   1
  18   6  -1 5379.71 1511.22   2
 -18  -6   0 219.377 339.044   1
  18   6   0 290.931 122.107   2
  18   7  -2 480.486 502.650   2
 -18  -7  -2 976.239 793.966   1
 -18  -7  -1 487.300 541.194   1
  18   7  -1 673.774 535.750   2
 -18  -7   0 1612.08 963.220   1
 -18  -8  -2 170.998 357.124   1
 -18  -8  -1 5151.71 1862.32   1
  18   8  -1 5172.24 1502.35   2
 -18  -8   0-469.526 541.822   1
 -18  -9  -1 1896.84 1193.64   1
 -18  -9   0 1760.95 1126.39   1
 -19   0  -4-57.3322 165.767   1
  19   0  -4-533.474 538.832   2
  19   0  -3-868.792 652.224   2
 -19   0  -3-223.722 295.078   1
 -19   0  -2-9.90288 57.2653   1
  19   0  -2 153.394 241.918   2
 -19   0  -1 72.3769 141.266   1
  19   0  -1 80.6078 213.131   2
 -19   0   0-10.1682 47.1446   1
  19  -1  -4 85.0530 210.787   2
 -19  -1  -4 2792.31 1166.67   1
 -19  -1  -3-108.749 208.338   1
  19   1  -3 692.512 599.192   2
  19  -1  -3 896.205 569.902   2
 -19   1  -3 745.261 607.666   1
 -19   1  -2 2743.08 923.791   1
  19   1  -2 1387.25 756.888   2
  19  -1  -2 1749.35 778.405   2
 -19  -1  -2 3240.96 1058.39   1
 -19  -1  -1 437.000 353.856   1
  19   1  -1 397.702 377.056   2
 -19   1  -1 52.4259 120.465   1
  19  -1  -1 283.218 251.693   2
 -19  -1   0 1802.90 683.107   1
 -19   1   0 2048.03 647.811   1
  19  -2  -4 2698.78 1202.63   2
 -19  -2  -4 3023.68 1224.86   1
 -19  -2  -3-294.375 349.097   1
  19  -2  -3-199.143 297.338   2
 -19   2  -2 7610.91 1533.16   1
  19   2  -2 4319.25 1431.99   2
  19  -2  -2 4106.89 1177.93   2
 -19  -2  -2 5080.99 1368.29   1
 -19  -2  -1 232.591 97.3597   1
  19   2  -1 501.979 379.070   2
  19  -2  -1 286.181 219.686   2
 -19   2  -1 332.807 302.617   1
 -19  -2   0 4370.96 1162.09   1
 -19   2   0 6569.47 1182.65   1
 -19  -3  -3 263.420 340.615   1
  19   3  -3 337.079 440.785   2
  19  -3  -3 238.120 318.708   2
  19   3  -2 253.281 279.656   2
  19  -3  -2 406.883 333.118   2
 -19  -3  -2-370.903 379.155   1
 -19  -3  -1 531.358 427.937   1
  19   3  -1 391.552 415.686   2
  19  -3  -1 46.8949 111.150   2
 -19  -3   0-129.544 214.276   1
 -19  -4  -3 23.8813 106.970   1
  19   4  -3 994.140 775.169   2
  19   4  -2 4955.12 1593.28   2
 -19  -4  -2 5487.40 1533.03   1
 -19  -4  -1 369.372 381.585   1
  19   4  -1 367.122 351.050   2
 -19  -4   0 6245.46 1665.09   1
 -19  -5  -3 610.651 570.342   1
  19   5  -2 1229.96 813.856   2
 -19  -5  -2 1491.22 848.763   1
 -19  -5  -1 1433.77 809.555   1
  19   5  -1 2824.96 1128.14   2
 -19  -5   0 1473.57 841.895   1
  19   6  -2 57.9210 295.215   2
 -19  -6  -2 196.878 330.185   1
 -19  -6  -1 923.485 535.091   1
  19   6  -1 1037.29 636.125   2
 -19  -6   0 1484.94 895.794   1
 -19  -7  -2 905.129 760.777   1
 -19  -7  -1-13.9764 91.6426   1
  19   7  -1-133.493 240.143   2
 -19  -7   0 2159.96 1129.80   1
 -19  -8  -1 517.360 591.808   1
 -19  -8   0 927.553 769.750   1
  20   0  -3 6566.88 1883.79   2
 -20   0  -3 11096.7 2204.17   1
 -20   0  -2 209.634 275.701   1
  20   0  -2-215.165 285.447   2
 -20   0  -1 13214.6 1986.24   1
  20   0  -1 12516.8 1869.75   2
 -20   0   0 349.275 279.493   1
 -20  -1  -3 931.257 631.731   1
  20   1  -3 1689.10 935.359   2
  20  -1  -3 772.336 610.287   2
 -20   1  -2 1093.36 632.961   1
  20   1  -2-33.0577 117.063   2
  20  -1  -2 614.676 554.944   2
 -20  -1  -2 456.341 407.728   1
 -20  -1  -1 2368.89 837.293   1
  20   1  -1 2005.57 789.792   2
 -20   1  -1 2231.11 833.196   1
  20  -1  -1 1683.22 646.190   2
 -20  -1   0-390.529 313.843   1
 -20   1   0 227.516 266.608   1
 -20  -2  -3 102.193 210.400   1
  20   2  -3-308.917 418.477   2
  20  -2  -3 321.668 385.079   2
  20   2  -2 232.779 322.290   2
  20  -2  -2 233.261 267.995   2
 -20  -2  -2 282.955 325.804   1
 -20  -2  -1-217.975 261.569   1
  20   2  -1 489.642 404.035   2
  20  -2  -1 762.807 394.309   2
 -20   2  -1 1357.36 679.762   1
 -20  -2   0 139.642 204.012   1
 -20   2   0-103.237 158.922   1
 -20  -3  -3-129.350 241.973   1
  20   3  -3-802.376 692.531   2
  20   3  -2 496.879 459.358   2
  20  -3  -2 580.902 396.802   2
 -20  -3  -2 847.999 578.355   1
 -20  -3  -1 482.304 409.737   1
  20   3  -1 54.4343 182.944   2
 -20  -3   0 157.091 236.307   1
 -20  -4  -3 357.078 416.695   1
  20   4  -2 428.298 461.688   2
 -20  -4  -2 206.691 297.776   1
 -20  -4  -1-321.214 356.739   1
  20   4  -1-321.341 353.991   2
 -20  -4   0 170.658 269.144   1
  20   5  -2-107.128 236.024   2
 -20  -5  -2-779.136 613.754   1
 -20  -5  -1 706.153 568.711   1
  20   5  -1-142.844 241.835   2
 -20  -5   0-157.461 278.798   1
 -20  -6  -2-454.274 500.430   1
 -20  -6  -1 5267.28 1714.53   1
  20   6  -1 8390.37 1907.37   2
 -20  -6   0 33.1891 216.947   1
 -20  -7  -1 1627.64 990.296   1
  20   7  -1 767.985 582.578   2
 -20  -7   0 927.875 752.979   1
  21   0  -3 714.650 608.585   2
 -21   0  -2 234.586 308.516   1
  21   0  -2-108.272 202.543   2
 -21   0  -1-120.166 194.395   1
  21   0  -1 16.7468 255.200   2
 -21   0   0-298.039 262.826   1
 -21  -1  -3 1367.41 796.055   1
  21   1  -3 670.946 605.935   2
  21  -1  -3-303.192 384.635   2
  21   1  -2-144.495 368.639   2
  21  -1  -2-19.3129 119.881   2
 -21  -1  -2 372.143 379.108   1
 -21  -1  -1 789.148 490.503   1
  21   1  -1 596.948 451.826   2
  21  -1  -1 1254.98 576.763   2
 -21   1  -1 1210.91 660.672   1
 -21  -1   0 106.072 163.933   1
 -21   1   0 467.961 351.398   1
 -21  -2  -3 179.109 284.836   1
  21   2  -3-65.3846 194.531   2
  21   2  -2 2925.80 1131.66   2
  21  -2  -2 2712.68 924.011   2
 -21  -2  -2 2713.66 1018.03   1
 -21  -2  -1 551.114 419.267   1
  21   2  -1 28.0356 97.2728   2
 -21  -2   0 2277.08 823.335   1
 -21  -3  -3 270.714 353.000   1
  21   3  -2 2148.94 1073.53   2
 -21  -3  -2 1131.11 672.654   1
 -21  -3  -1 590.870 455.239   1
  21   3  -1-86.5319 178.155   2
 -21  -3   0 2189.97 884.726   1
 -21  -4  -3 113.385 235.103   1
  21   4  -2 1514.50 987.697   2
 -21  -4  -2 1290.65 776.357   1
 -21  -4  -1 35.7396 119.322   1
  21   4  -1 92.7657 155.392   2
 -21  -4   0 2012.43 1042.26   1
 -21  -5  -2 1080.45 720.914   1
 -21  -5  -1 3434.64 1228.96   1
  21   5  -1 1846.36 894.128   2
 -21  -5   0 318.214 400.492   1
 -21  -6  -1-490.992 467.691   1
 -21  -6   0-147.214 291.041   1
 -21  -7   0-804.137 713.757   1
  22   0  -3 2481.18 1217.71   2
  22   0  -2 826.661 572.697   2
 -22   0  -1 4771.03 1266.08   1
  22   0  -1 4123.50 1098.33   2
 -22   0   0 202.709 220.652   1
  22  -1  -3 521.745 502.849   2
  22  -1  -2 303.465 322.184   2
 -22  -1  -2-425.211 418.962   1
 -22  -1  -1 433.906 433.807   1
  22   1  -1 976.358 555.119   2
 -22  -1   0 190.409 221.201   1
 -22  -2  -3-575.833 522.880   1
  22   2  -2 1804.53 991.486   2
  22  -2  -2 1861.89 755.674   2
 -22  -2  -2 1677.21 816.466   1
 -22  -2  -1 214.727 263.405   1
  22   2  -1-96.8620 182.262   2
 -22  -2   0 1459.96 643.608   1
 -22  -3  -3 437.604 452.876   1
  22   3  -2 311.426 382.984   2
 -22  -3  -2-107.635 208.766   1
 -22  -3  -1 877.440 555.455   1
  22   3  -1 369.989 371.198   2
 -22  -3   0 333.880 344.919   1
 -22  -4  -2 292.577 355.367   1
 -22  -4  -1 545.720 466.982   1
  22   4  -1-15.9251 79.7523   2
 -22  -4   0 1017.16 662.233   1
 -22  -5  -2 270.980 359.493   1
 -22  -5  -1 231.556 326.903   1
 -22  -5   0 1002.06 719.962   1
 -22  -6  -1 2410.34 1137.63   1
 -22  -6   0-31.6587 137.304   1
  23   0  -2 138.295 226.699   2
  23   1  -2 726.318 621.908   2
  23  -1  -2-339.390 339.930   2
 -23  -1  -1-203.024 256.874   1
  23   1  -1 909.637 543.508   2
 -23  -1   0-31.9167 91.0268   1
 -23  -1   1-372.773 328.731   1
  23   2  -2 1775.61 937.607   2
 -23  -2  -2 1887.91 877.204   1
 -23  -2  -1 552.252 424.232   1
  23   2  -1 541.593 436.180   2
 -23  -2   0 428.048 356.040   1
 -23  -3  -2 1347.67 742.299   1
 -23  -3  -1 119.284 204.896   1
  23   3  -1 284.595 329.146   2
 -23  -3   0 2093.90 813.172   1
 -23  -4  -2 234.894 318.202   1
 -23  -4  -1 2240.69 945.003   1
 -23  -4   0 1044.35 672.401   1
 -23  -5  -1 1007.84 683.163   1
 -23  -5   0 439.694 480.509   1
  24   0  -2 298.397 333.455   2
  24   2  -1 784.159 524.083   2
 -24  -2   0 1480.64 660.143   1
 -24  -2   1 731.955 518.827   1
 -24  -3  -1-292.812 320.629   1
 -24  -3   0-143.758 224.869   1
 -24  -3   1-406.329 451.268   1
 -24  -4  -1 119.869 217.991   1
 -24  -4   0-216.236 306.290   1
 -24  -4   1 793.913 730.988   1
   0   0   0    0.00    0.00   0
TITL JXJ-1-150823-PbI2 in Pna2(1)
REM Pna2(1) (#33, found as P2(1)cn in -cba setting)
CELL 0.71073  17.795881  11.135157   4.514374  90.0000  90.0000  90.0000
ZERR    4.00   0.003184   0.001683   0.000613   0.0000   0.0000   0.0000
LATT -1
SYMM -x,-y, z+1/2
SYMM  x+1/2,-y+1/2, z
SYMM -x+1/2, y+1/2, z+1/2
SFAC C H N O
UNIT 44.00 40.00 4.00 4.00
TREF
HKLF 4
END
;
_shelx_hkl_checksum              10220
_olex2_submission_special_instructions 'No special instructions were received'
loop_
_space_group_symop_operation_xyz
'x, y, z'
'-x, -y, z+1/2'
'x+1/2, -y+1/2, -z+1/2'
'-x+1/2, y+1/2, -z'
'-x, -y, -z'
'x, y, -z-1/2'
'-x-1/2, y-1/2, z-1/2'
'x-1/2, -y-1/2, z'
loop_
_atom_site_label
_atom_site_type_symbol
_atom_site_fract_x
_atom_site_fract_y
_atom_site_fract_z
_atom_site_U_iso_or_equiv
_atom_site_adp_type
_atom_site_occupancy
_atom_site_site_symmetry_order
_atom_site_calc_flag
_atom_site_refinement_flags_posn
_atom_site_refinement_flags_adp
_atom_site_refinement_flags_occupancy
_atom_site_disorder_assembly
_atom_site_disorder_group
Pb1 Pb 0.04026(6) 0.31693(9) 0.7500 0.0175(3) Uani 1 2 d S T P . .
I3 I -0.03377(10) 0.15927(14) 1.2500 0.0161(4) Uani 1 2 d S T P . .
I6 I 0.10900(11) 0.50737(14) 0.2500 0.0187(5) Uani 1 2 d S T P . .
S1 S 0.1722(4) 0.1893(6) 0.2500 0.0247(17) Uani 1 2 d S T P . .
O9 O 0.1536(19) 0.200(3) 0.605(8) 0.167(14) Uani 1 1 d . U . . .
C2 C 0.1852(17) 0.035(3) 0.2500 0.036(8) Uani 1 2 d S TU P . .
H2A H 0.1474 -0.0031 0.3778 0.054 Uiso 0.5 1 calc GR . . A -1
H2B H 0.2355 0.0157 0.3245 0.054 Uiso 0.5 1 calc GR . . A -1
H2C H 0.1799 0.0038 0.0477 0.054 Uiso 0.5 1 calc GR . . A -1
C3 C 0.2605(18) 0.239(3) 0.2500 0.034(8) Uani 1 2 d S T P . .
H3A H 0.2621 0.3201 0.3336 0.051 Uiso 0.5 1 calc GR . . B -1
H3B H 0.2796 0.2407 0.0464 0.051 Uiso 0.5 1 calc GR . . B -1
H3C H 0.2918 0.1853 0.3699 0.051 Uiso 0.5 1 calc GR . . B -1
loop_
_atom_site_aniso_label
_atom_site_aniso_U_11
_atom_site_aniso_U_22
_atom_site_aniso_U_33
_atom_site_aniso_U_23
_atom_site_aniso_U_13
_atom_site_aniso_U_12
Pb1 0.0214(6) 0.0213(6) 0.0098(5) 0.000 0.000 -0.0047(5)
I3 0.0201(10) 0.0190(9) 0.0093(9) 0.000 0.000 -0.0033(7)
I6 0.0236(10) 0.0177(9) 0.0149(10) 0.000 0.000 -0.0036(8)
S1 0.023(4) 0.029(4) 0.022(4) 0.000 0.000 0.000(3)
O9 0.163(16) 0.171(16) 0.166(17) 0.001(9) -0.005(10) 0.000(9)
C2 0.018(13) 0.057(16) 0.033(15) 0.000 0.000 -0.005(12)
C3 0.04(2) 0.039(18) 0.020(15) 0.000 0.000 0.012(16)
loop_
_atom_type_symbol
_atom_type_description
_atom_type_scat_dispersion_real
_atom_type_scat_dispersion_imag
_atom_type_scat_source
C C 0.0033 0.0016 'International Tables Vol C Tables 4.2.6.8 and 6.1.1.4'
H H 0.0000 0.0000 'International Tables Vol C Tables 4.2.6.8 and 6.1.1.4'
I I -0.4742 1.8119 'International Tables Vol C Tables 4.2.6.8 and 6.1.1.4'
O O 0.0106 0.0060 'International Tables Vol C Tables 4.2.6.8 and 6.1.1.4'
Pb Pb -3.3944 10.1111 'International Tables Vol C Tables 4.2.6.8 and 6.1.1.4'
S S 0.1246 0.1234 'International Tables Vol C Tables 4.2.6.8 and 6.1.1.4'
loop_
_geom_angle_atom_site_label_1
_geom_angle_atom_site_label_2
_geom_angle_atom_site_label_3
_geom_angle
_geom_angle_site_symmetry_1
_geom_angle_site_symmetry_3
I3 Pb1 I3 91.60(5) 1_554 .
I3 Pb1 I6 174.15(5) . .
I3 Pb1 I6 174.15(5) 1_554 1_556
I3 Pb1 I6 91.31(3) 1_554 .
I3 Pb1 I6 91.31(3) . 1_556
I3 Pb1 I6 89.64(5) 1_554 5_566
I3 Pb1 I6 89.64(5) . 5_566
I6 Pb1 I6 85.30(5) 5_566 1_556
I6 Pb1 I6 85.30(5) 5_566 .
I6 Pb1 I6 85.35(5) . 1_556
O9 Pb1 I3 103.5(8) . .
O9 Pb1 I3 81.8(8) . 1_554
O9 Pb1 I3 103.5(8) 6_557 1_554
O9 Pb1 I3 81.8(8) 6_557 .
O9 Pb1 I6 102.4(8) 6_557 .
O9 Pb1 I6 164.4(8) . 5_566
O9 Pb1 I6 102.4(8) . 1_556
O9 Pb1 I6 164.4(8) 6_557 5_566
O9 Pb1 I6 81.9(8) 6_557 1_556
O9 Pb1 I6 81.9(8) . .
O9 Pb1 O9 30.4(17) . 6_557
Pb1 I3 Pb1 91.60(5) . 1_556
Pb1 I6 Pb1 85.35(5) 1_554 .
Pb1 I6 Pb1 94.70(5) 5_566 1_554
Pb1 I6 Pb1 94.70(5) 5_566 .
O9 S1 O9 155(2) . 6_556
O9 S1 C2 95.5(11) 6_556 .
O9 S1 C2 95.5(11) . .
O9 S1 C3 99.7(12) 6_556 .
O9 S1 C3 99.7(12) . .
C3 S1 C2 101.8(15) . .
S1 O9 Pb1 117.2(17) . .
O9 O9 Pb1 74.8(8) 6_557 .
O9 O9 S1 167.6(12) 6_557 .
loop_
_geom_bond_atom_site_label_1
_geom_bond_atom_site_label_2
_geom_bond_distance
_geom_bond_site_symmetry_2
Pb1 I3 3.1484(14) 1_554
Pb1 I3 3.1484(14) .
Pb1 I6 3.3299(15) 1_556
Pb1 I6 3.3299(15) .
Pb1 I6 3.299(2) 5_566
Pb1 O9 2.49(3) .
Pb1 O9 2.49(3) 6_557
I3 Pb1 3.1484(14) 1_556
I6 Pb1 3.299(2) 5_566
I6 Pb1 3.3299(15) 1_554
S1 O9 1.64(4) .
S1 O9 1.64(4) 6_556
S1 C2 1.74(3) .
S1 C3 1.67(3) .
O9 O9 1.31(7) 6_557
