#------------------------------------------------------------------------------
#$Date: 2019-11-25 13:34:41 +0200 (Mon, 25 Nov 2019) $
#$Revision: 240984 $
#$URL: file:///home/coder/svn-repositories/cod/cif/4/13/05/4130584.cif $
#------------------------------------------------------------------------------
#
# This file is available in the Crystallography Open Database (COD),
# http://www.crystallography.net/
#
# All data on this site have been placed in the public domain by the
# contributors.
#
data_4130584
loop_
_publ_author_name
'Cao, Jing'
'Jing, Xiaojing'
'Yan, Juanzhu'
'Hu, Chengyi'
'Chen, Ruihao'
'Yin, Jun'
'Li, Jing'
'Zheng, Nanfeng'
_publ_section_title
;
 Identifying the Molecular Structures of Intermediates for Optimizing the
 Fabrication of High-Quality Perovskite Films.
;
_journal_issue                   31
_journal_name_full               'Journal of the American Chemical Society'
_journal_page_first              9919
_journal_page_last               9926
_journal_paper_doi               10.1021/jacs.6b04924
_journal_volume                  138
_journal_year                    2016
_chemical_formula_sum            'C3 H7 I2 N O Pb'
_chemical_formula_weight         534.09
_space_group_crystal_system      monoclinic
_space_group_IT_number           14
_space_group_name_Hall           '-P 2yn'
_space_group_name_H-M_alt        'P 1 21/n 1'
_atom_sites_solution_hydrogens   geom
_audit_creation_method           SHELXL-2014/6
_cell_angle_alpha                90
_cell_angle_beta                 92.661(3)
_cell_angle_gamma                90
_cell_formula_units_Z            4
_cell_length_a                   4.53212(12)
_cell_length_b                   18.2385(5)
_cell_length_c                   11.5566(4)
_cell_measurement_reflns_used    2081
_cell_measurement_temperature    293(2)
_cell_measurement_theta_max      26.9660
_cell_measurement_theta_min      3.6460
_cell_volume                     954.23(5)
_computing_structure_refinement  'SHELXL-2014/6 (Sheldrick, 2014)'
_diffrn_ambient_temperature      293(2)
_diffrn_measured_fraction_theta_full 0.998
_diffrn_measured_fraction_theta_max 0.999
_diffrn_measurement_device_type  'SuperNova, Dual, Cu at zero, Atlas'
_diffrn_measurement_method       '\w scans'
_diffrn_radiation_type           MoK\a
_diffrn_radiation_wavelength     0.71073
_diffrn_reflns_av_R_equivalents  0.0473
_diffrn_reflns_av_unetI/netI     0.0588
_diffrn_reflns_Laue_measured_fraction_full 0.998
_diffrn_reflns_Laue_measured_fraction_max 0.999
_diffrn_reflns_limit_h_max       5
_diffrn_reflns_limit_h_min       -5
_diffrn_reflns_limit_k_max       23
_diffrn_reflns_limit_k_min       -23
_diffrn_reflns_limit_l_max       8
_diffrn_reflns_limit_l_min       -14
_diffrn_reflns_number            4577
_diffrn_reflns_point_group_measured_fraction_full 0.998
_diffrn_reflns_point_group_measured_fraction_max 0.999
_diffrn_reflns_theta_full        25.242
_diffrn_reflns_theta_max         27.480
_diffrn_reflns_theta_min         3.530
_exptl_absorpt_coefficient_mu    24.083
_exptl_crystal_colour            Yellow
_exptl_crystal_density_diffrn    3.718
_exptl_crystal_description       block
_exptl_crystal_F_000             912
_refine_diff_density_max         2.775
_refine_diff_density_min         -2.915
_refine_diff_density_rms         0.446
_refine_ls_extinction_method     none
_refine_ls_goodness_of_fit_ref   1.048
_refine_ls_hydrogen_treatment    constr
_refine_ls_matrix_type           full
_refine_ls_number_parameters     75
_refine_ls_number_reflns         2181
_refine_ls_number_restraints     0
_refine_ls_restrained_S_all      1.048
_refine_ls_R_factor_all          0.0421
_refine_ls_R_factor_gt           0.0380
_refine_ls_shift/su_max          0.001
_refine_ls_shift/su_mean         0.000
_refine_ls_structure_factor_coef Fsqd
_refine_ls_weighting_details
'w=1/[\s^2^(Fo^2^)+(0.0362P)^2^] where P=(Fo^2^+2Fc^2^)/3'
_refine_ls_weighting_scheme      calc
_refine_ls_wR_factor_gt          0.0843
_refine_ls_wR_factor_ref         0.0880
_reflns_Friedel_coverage         0.000
_reflns_number_gt                1972
_reflns_number_total             2181
_reflns_threshold_expression     'I > 2\s(I)'
_cod_data_source_file            ja6b04924_si_004.cif
_cod_data_source_block           jxj-1-150829-bingtontg
_cod_original_sg_symbol_H-M      'P 21/n'
_cod_database_code               4130584
_shelx_space_group_comment
;
The symmetry employed for this shelxl refinement is uniquely defined
by the following loop, which should always be used as a source of
symmetry information in preference to the above space-group names.
They are only intended as comments.
;
_shelxl_version_number           2014/6
_shelx_res_file
;
TITL CF solution in P21/n
CELL 0.71073 4.532125 18.238478 11.55665 90 92.6607 90
ZERR 4 0.000123 0.000467 0.000354 0 0.0025 0
LATT 1
SYMM 0.5-X,0.5+Y,0.5-Z
SFAC C H I N O Pb
UNIT 12 28 8 4 4 4

L.S. 40
PLAN  25
BOND
fmap 2
acta
SHEL 999 0.77
REM <olex2.extras>
REM <HklSrc "%.\\JXJ-1-150829-BINGTONTG.hkl">
REM </olex2.extras>

WGHT    0.036200
FVAR       1.47635
PB1   6    0.239196    0.528587    0.328779    11.00000    0.00938    0.01556 =
         0.01148    0.00029    0.00160    0.00040
I1    3   -0.245991    0.610019    0.485448    11.00000    0.01210    0.01450 =
         0.01440   -0.00212    0.00208   -0.00025
I2    3    0.718404    0.464630    0.167544    11.00000    0.01202    0.02748 =
         0.01537   -0.00877    0.00275   -0.00148
O0AA  5    0.193683    0.642066    0.219382    11.00000    0.02567    0.02307 =
         0.01751    0.00276    0.00210   -0.00103
N2    4   -0.123779    0.701484    0.094594    11.00000    0.02082    0.01565 =
         0.00513   -0.00352    0.00687   -0.00055
C4    1    0.060084    0.648508    0.122423    11.00000    0.02676    0.01502 =
         0.02132    0.00172    0.00530   -0.00189
AFIX  43
H4    2    0.094218    0.613185    0.066569    11.00000   -1.20000
AFIX   0
C5    1   -0.259183    0.706942   -0.022482    11.00000    0.02580    0.02458 =
         0.02027    0.00585   -0.00388   -0.00618
AFIX 137
H5A   2   -0.206721    0.752979   -0.056160    11.00000   -1.50000
H5B   2   -0.470057    0.703890   -0.019033    11.00000   -1.50000
H5C   2   -0.189629    0.667540   -0.069083    11.00000   -1.50000
AFIX   0
C6    1   -0.207530    0.755746    0.179812    11.00000    0.02087    0.01912 =
         0.02335    0.00251    0.00540    0.00341
AFIX 137
H6A   2   -0.074364    0.752882    0.246724    11.00000   -1.50000
H6B   2   -0.405251    0.746163    0.202141    11.00000   -1.50000
H6C   2   -0.198089    0.803901    0.146650    11.00000   -1.50000
AFIX   0
HKLF 4

REM  CF solution in P21/n
REM R1 =  0.0380 for    1972 Fo > 4sig(Fo)  and  0.0421 for all    2181 data
REM     75 parameters refined using      0 restraints

END

WGHT      0.0362      0.0000

REM Highest difference peak  2.775,  deepest hole -2.915,  1-sigma level  0.446
Q1    1   0.0542  0.5286  0.3193  11.00000  0.05    2.77
Q2    1   0.5072  0.5255  0.3209  11.00000  0.05    2.35
Q3    1   0.4272  0.5277  0.3398  11.00000  0.05    2.34
Q4    1   0.5400  0.4646  0.1590  11.00000  0.05    1.94
Q5    1   0.9406  0.4619  0.1703  11.00000  0.05    1.87
Q6    1   0.4247  0.4739  0.1800  11.00000  0.05    1.77
Q7    1   0.2281  0.5830  0.3160  11.00000  0.05    1.67
Q8    1   0.0004  0.5261  0.5215  11.00000  0.05    1.60
Q9    1  -0.0690  0.6111  0.4957  11.00000  0.05    1.50
Q10   1   0.0960  0.5862  0.2762  11.00000  0.05    1.46
Q11   1   0.4299  0.6066  0.3631  11.00000  0.05    1.44
Q12   1  -0.0172  0.6018  0.2942  11.00000  0.05    1.37
Q13   1   0.0462  0.4830  0.2691  11.00000  0.05    1.29
Q14   1  -0.0524  0.6646  0.5442  11.00000  0.05    1.29
Q15   1   0.4276  0.5729  0.2762  11.00000  0.05    1.29
Q16   1   0.6994  0.5025  0.1617  11.00000  0.05    1.28
Q17   1   0.8015  0.5370  0.1801  11.00000  0.05    1.27
Q18   1   0.0561  0.5654  0.3922  11.00000  0.05    1.26
Q19   1   0.2467  0.4767  0.3178  11.00000  0.05    1.25
Q20   1   0.9021  0.5060  0.1050  11.00000  0.05    1.25
Q21   1  -0.2378  0.5423  0.4773  11.00000  0.05    1.23
Q22   1   0.3883  0.4790  0.3899  11.00000  0.05    1.21
Q23   1   0.8956  0.4760  0.2927  11.00000  0.05    1.20
Q24   1   0.4217  0.4933  0.2637  11.00000  0.05    1.19
Q25   1   0.3764  0.4835  0.2802  11.00000  0.05    1.19
;
_shelx_res_checksum              82462
_shelx_hkl_file
;
   0   0  -2 16371.8 892.745   2
   0   0  -3-73.4461 100.097   2
   0   0  -4 2715.90 492.036   2
   0   0  -5 531.723 257.771   2
   0   0  -6 517288. 15204.2   2
   0   0  -7-43.3354 177.895   2
   0   0  -8 27560.9 2333.76   2
   0   0  -9 30.1220 232.903   2
   0   0 -10-34.3631 141.056   2
   0   0 -11 599.113 474.695   2
   0   0 -12 154459. 7837.46   2
   0   0 -13 148.546 287.622   2
   0   0 -14 28644.4 3375.00   2
   0   0 -15 89.2868 410.177   2
   0   1  -2 5446.06 499.121   2
   0  -1  -2 4864.13 433.176   2
   0  -1  -3 6984.99 673.876   2
   0   1  -3 6034.57 676.777   2
   0  -1  -4 417.966 192.490   2
   0   1  -4 269.929 182.642   2
   0   1  -5 71464.4 3317.18   2
   0  -1  -5 72305.8 3207.58   2
   0  -1  -6 12799.3 1317.02   2
   0   1  -6 9512.48 1151.07   2
   0   1  -7 22064.5 1947.16   2
   0   1   7 16295.9 1438.08   2
   0  -1  -7 20874.6 1863.89   2
   0  -1  -8 37077.1 2788.59   2
   0   1  -8 26459.2 2482.42   2
   0  -1  -9 2421.14 677.321   2
   0   1  -9 2842.48 781.279   2
   0   1 -10 180.757 327.697   2
   0  -1 -10 158.804 340.792   2
   0   1 -11 24816.4 2651.28   2
   0  -1 -11 25071.9 2717.98   2
   0  -1 -12 6391.35 1423.35   2
   0   1 -12 8347.54 1579.33   2
   0   1 -13 428.231 394.775   2
   0  -1 -13-229.683 241.293   2
   0  -1 -14 7065.98 1738.28   2
   0   1 -14 8725.95 1862.48   2
   0   1 -15 2265.34 960.974   2
   0  -1 -15 3616.81 1125.87   2
   0   2  -2 104368. 3527.41   2
   0  -2  -2 121981. 3473.26   2
   0  -2  -3 4910.72 498.259   2
   0   2  -3 3704.43 495.484   2
   0  -2  -4 49276.0 2237.47   2
   0   2  -4 41230.6 2252.97   2
   0   2  -5 6324.27 868.030   2
   0  -2  -5 9536.91 991.205   2
   0  -2  -6 319248. 9897.25   2
   0   2  -6 306728. 9988.24   2
   0   2  -7 13938.3 1546.73   2
   0   2   7 14391.9 1322.58   2
   0  -2  -7 15197.8 1558.33   2
   0   2  -8 61072.2 3666.79   2
   0  -2  -8 68200.6 3848.28   2
   0  -2  -9 8497.13 1330.88   2
   0   2  -9 9014.18 1405.84   2
   0  -2 -10 12970.3 1787.49   2
   0   2 -10 10051.2 1634.40   2
   0  -2 -11 12974.5 1877.23   2
   0   2 -11 12264.3 1857.76   2
   0   2 -12 92743.7 5760.82   2
   0  -2 -12 86405.8 5591.95   2
   0   2 -13 13161.9 2115.51   2
   0  -2 -13 13462.8 2225.90   2
   0   2 -14 25733.3 3213.70   2
   0  -2 -14 29171.3 3336.78   2
   0   2 -15 4593.35 1377.04   2
   0  -2 -15 3624.59 1122.79   2
   0  -3   1 309.231 57.5437   3
   0  -3  -1 276.251 74.5369   1
   0   3  -2 158230. 4184.02   3
   0  -3  -3 75126.0 2715.39   2
   0   3  -3 78137.1 2971.58   2
   0  -3  -4 88868.2 3136.81   2
   0   3  -4 66813.2 3111.27   2
   0   3  -5 782.589 320.937   2
   0   3   5 305.216 150.422   2
   0  -3  -5 783.294 268.029   2
   0  -3  -6 18313.2 1562.91   2
   0   3  -6 12534.1 1398.62   2
   0  -3  -7 5154.73 902.187   2
   0   3   7 5056.14 762.625   2
   0   3  -7 5298.46 948.651   2
   0   3  -8 88250.9 4683.88   2
   0  -3  -8 94093.4 4608.69   2
   0   3  -9 14631.9 1885.72   2
   0  -3  -9 19566.6 2027.56   2
   0  -3 -10 15991.9 1957.64   2
   0   3 -10 16603.4 2046.62   2
   0  -3 -11 3826.17 1080.25   2
   0   3 -11 3442.16 1039.55   2
   0  -3 -12 23782.3 2748.45   2
   0   3 -12 20643.8 2611.63   2
   0  -3 -13 1376.42 739.742   2
   0   3 -13 975.133 528.130   2
   0  -3 -14 35956.4 3715.00   2
   0   3 -14 29011.7 3454.59   2
   0  -3 -15 3970.40 1212.05   2
   0   3 -15 6109.03 1614.81   2
   0  -4   0 57447.9 1723.72   3
   0  -4   1 2567.56 186.893   3
   0  -4  -1 1980.54 226.896   1
   0   4  -1 2097.36 172.907   3
   0   4  -2 191479. 5109.36   3
   0  -4   2 199801. 5128.84   3
   0  -4  -3 116.351 67.1728   2
   0   4  -3 61.9902 38.4939   3
   0   4  -4 147724. 5419.34   2
   0   4  -4 156990. 4548.00   3
   0  -4  -5 512.643 199.017   2
   0   4  -5 500.405 254.753   2
   0   4  -6 57580.2 3179.09   2
   0  -4  -6 63623.1 3127.79   2
   0   4   7 19407.9 1522.31   2
   0  -4  -7 22720.9 1890.54   2
   0   4  -7 19018.4 1863.54   2
   0   4  -8 107638. 5346.07   2
   0  -4  -8 133128. 5616.36   2
   0  -4  -9 730.602 288.591   2
   0   4  -9 431.503 386.559   2
   0   4 -10 27010.0 2673.51   2
   0  -4 -10 30230.9 2764.98   2
   0  -4 -11 521.146 405.466   2
   0   4 -11 96.0389 288.288   2
   0   4 -12 34079.3 3297.53   2
   0  -4 -12 39404.4 3569.64   2
   0  -4 -13 8454.14 1739.62   2
   0   4 -13 8512.58 1727.28   2
   0   4 -14 28794.3 3370.91   2
   0  -4 -14 28417.4 3383.02   2
   0  -4 -15 985.100 772.141   2
   0  -5   0 118.464 65.2679   3
   0  -5  -1 54463.3 1721.73   1
   0   5  -1 54210.4 1510.66   3
   0  -5  -2 189507. 5204.87   1
   0  -5   2 177701. 4834.94   3
   0   5  -2 185094. 4813.64   3
   0   5  -3 106488. 3032.02   3
   0  -5  -4 201226. 6860.44   2
   0   5  -4 248554. 6330.44   3
   0  -5  -5 5928.91 736.148   2
   0   5  -5 4764.29 799.322   2
   0   5  -5 5568.96 501.618   3
   0  -5  -6 136.206 110.507   2
   0   5  -6 272.462 213.655   2
   0   5  -7 14056.8 1577.55   2
   0   5  -7 16060.4 1098.71   3
   0   5  -8 48698.8 3324.85   2
   0  -5  -8 61314.6 3526.67   2
   0  -5  -9 42404.4 3089.34   2
   0   5  -9 38238.5 3096.37   2
   0   5 -10 85977.6 5104.39   2
   0  -5 -10 101302. 5352.82   2
   0  -5 -11 204.444 307.738   2
   0   5 -11 252.941 333.505   2
   0  -5 -12 475.711 314.710   2
   0   5 -12 640.989 450.345   2
   0   5 -13 1484.83 888.774   2
   0  -5 -13 2351.69 790.909   2
   0   5 -14 13408.3 2253.95   2
   0  -5 -14 14981.2 2434.61   2
   0  -5 -15 5484.32 1548.41   2
   0  -6   0 16760.3 774.354   3
   0   6  -1 3232.09 275.352   3
   0  -6   1 2845.53 250.577   3
   0  -6  -1 3216.63 340.973   1
   0   6  -2 55966.5 1890.77   3
   0  -6  -2 60654.3 2199.57   1
   0   6  -3 2388.46 243.511   3
   0  -6   3 2554.30 272.159   3
   0  -6  -4 60652.1 2372.80   2
   0   6  -4 43581.9 1631.67   3
   0  -6  -5 30115.9 1784.10   2
   0   6  -5 25360.5 1191.98   3
   0  -6  -6 9584.12 1049.85   2
   0   6  -6 7645.28 645.164   3
   0   6  -7 497.350 260.857   2
   0  -6  -7 1244.65 395.786   2
   0   6  -7 818.180 240.912   3
   0   6  -8 19757.6 2006.53   2
   0  -6  -8 27079.1 2241.83   2
   0   6  -9 24369.6 1583.22   3
   0   6  -9 26439.0 2434.24   2
   0  -6  -9 29296.3 2497.27   2
   0  -6 -10 12214.4 1700.61   2
   0   6 -10 8707.73 1441.60   2
   0   6 -11 15567.1 2202.61   2
   0  -6 -11 22120.8 2461.41   2
   0   6 -12 5619.81 1266.53   2
   0  -6 -12 5687.33 1325.98   2
   0  -6 -13 591.719 457.904   2
   0   6 -13 579.991 482.406   2
   0  -6 -14 7624.60 1718.72   2
   0  -6 -15 12376.9 2232.98   2
   0  -7   0 50.5458 50.8678   3
   0  -7  -1 8916.12 634.280   1
   0  -7  -1 8443.42 629.668   3
   0   7  -1 10373.0 570.037   3
   0  -7   1 9853.61 541.547   3
   0  -7   2 175776. 4925.88   3
   0  -7  -2 175580. 5257.08   1
   0   7  -3 1343.33 182.219   3
   0  -7   3 1049.54 173.508   3
   0  -7  -3 1221.28 250.590   1
   0  -7  -4 340310. 9309.97   2
   0   7  -4 316872. 8504.29   3
   0  -7  -5 5753.98 763.061   2
   0   7  -5 5979.18 490.247   3
   0  -7  -6 829.353 307.506   2
   0   7  -6 364.563 145.068   3
   0   7  -7 1671.05 313.293   3
   0  -7  -7 1145.29 380.600   2
   0  -7  -8 52988.9 3267.43   2
   0  -7  -9 6049.22 1119.99   2
   0   7  -9 4251.53 593.427   3
   0  -7 -10 208985. 8630.27   2
   0  -7 -11 7535.99 1421.64   2
   0  -7 -12 921.978 367.623   2
   0  -7 -13-630.051 617.603   2
   0  -7 -14 7167.72 1651.63   2
   0  -7 -15 2869.57 1167.99   2
   0  -8   0 34921.1 1381.33   3
   0   8  -1 24299.1 1039.39   3
   0  -8  -1 23122.2 1175.67   1
   0  -8   1 19830.2 937.419   3
   0   8   1 24524.2 1218.09   1
   0  -8  -1 23090.8 1144.02   3
   0   8  -2 13100.4 667.629   3
   0  -8  -2 13471.8 868.975   1
   0  -8   2 11982.7 646.488   3
   0  -8  -3 6583.57 635.572   1
   0  -8   3 7376.56 494.245   3
   0  -8   3 7137.56 866.621   2
   0   8  -3 7533.94 497.590   3
   0   8  -4 15023.2 788.813   3
   0  -8  -4 18524.3 1179.37   1
   0  -8   5 22596.8 1866.86   2
   0   8  -5 24019.0 1130.61   3
   0   8  -6 13425.0 841.742   3
   0  -8  -6 16417.3 1425.62   2
   0   8  -7 5184.78 545.940   3
   0  -8  -7 5537.43 881.098   2
   0  -8  -8 7630.72 1144.27   2
   0   8  -9 13763.7 1084.98   3
   0  -8  -9 14014.0 1702.69   2
   0  -8 -10 2347.10 755.312   2
   0  -8 -11 10692.4 1701.07   2
   0  -8 -12 795.412 511.471   2
   0  -8 -13 1971.11 758.450   2
   0  -8 -14 305.866 467.829   2
   0  -8 -15 15046.0 2610.77   2
   0   9   0 92.3759 78.2002   1
   0  -9   0-8.36123 44.8158   3
   0  -9  -1 47638.2 2026.68   1
   0   9   1 53660.4 2107.28   1
   0  -9  -1 51663.1 1998.15   3
   0  -9   1 51118.5 1795.89   3
   0   9  -2 167619. 4838.48   3
   0  -9   2 171059. 4803.63   3
   0  -9  -3 10756.2 852.566   1
   0   9  -3 9831.56 602.336   3
   0  -9  -4 146006. 4964.19   1
   0   9  -4 162251. 4390.36   3
   0  -9   4 170186. 6020.96   2
   0  -9   4 145559. 4462.27   3
   0   9  -5 43772.9 1657.65   3
   0  -9  -5 43921.1 2319.54   2
   0  -9   5 45121.8 2744.53   2
   0   9  -6 667.019 171.623   3
   0  -9  -6 786.323 280.334   2
   0   9  -7 19421.8 1135.05   3
   0  -9  -7 23671.5 1858.23   2
   0  -9  -8 108376. 5000.66   2
   0   9  -9 2608.40 430.731   3
   0  -9  -9 3319.94 800.548   2
   0  -9 -10 131293. 6433.10   2
   0  -9 -11 8423.62 1499.98   2
   0  -9 -12 3422.26 977.092   2
   0  -9 -13 1054.76 618.136   2
   0  -9 -14 24914.5 3159.48   2
   0  -9 -15 112.982 627.422   2
   0 -10   0 1676.65 266.516   3
   0 -10  -1 28030.2 1385.15   3
   0 -10   1 26687.8 1206.30   3
   0 -10  -1 30995.0 1515.00   1
   0 -10   2 89378.7 2837.03   3
   0 -10  -2 92078.9 3260.16   1
   0 -10  -2 85161.5 3256.91   3
   0 -10  -3-15.9947 94.1297   1
   0 -10   3 47.1950 54.5192   3
   0  10  -3 105.142 79.2627   3
   0  10  -4 41240.1 1597.74   3
   0 -10   4 48582.2 2752.66   2
   0 -10  -4 44185.2 2096.90   1
   0 -10   4 44819.5 1707.13   3
   0  10  -5 2977.12 346.873   3
   0 -10  -5 2675.41 479.050   1
   0  10  -6 1928.35 288.891   3
   0 -10  -6 2447.64 555.578   2
   0  10  -7 36399.0 1674.21   3
   0 -10  -7 51067.2 2825.05   2
   0 -10  -8 30965.4 2396.15   2
   0 -10  -9-515.577 424.480   2
   0  10  -9 197.537 120.267   3
   0 -10 -10 10463.3 1587.80   2
   0 -10 -11 290.383 309.212   2
   0 -10 -12 1679.29 754.854   2
   0 -10 -13 23961.7 2920.55   2
   0 -10 -14 7575.77 1744.71   2
   0 -11   0 100.069 66.4256   3
   0 -11   1 4115.11 417.840   3
   0 -11  -1 3219.45 434.579   3
   0 -11  -2 126042. 4409.37   1
   0 -11   2 131056. 3976.70   3
   0  11  -2 135936. 4524.99   1
   0 -11  -2 135282. 4484.07   3
   0 -11   3 911.729 178.964   3
   0 -11  -3 873.560 242.549   1
   0  11  -3 765.871 164.869   3
   0 -11   4 93757.2 4235.44   2
   0  11  -4 81461.0 2752.98   3
   0 -11   4 101532. 2966.85   3
   0 -11  -4 80579.3 3292.93   1
   0  11  -5 2931.30 354.713   3
   0 -11  -6 18624.4 1563.77   2
   0  11  -6 15693.5 920.733   3
   0  11  -7 862.677 206.187   3
   0 -11  -7 1147.29 373.221   2
   0 -11  -8 137833. 5895.22   2
   0 -11  -9 503.024 189.760   2
   0  11  -9 1197.19 284.667   3
   0 -11 -10 22204.4 2366.87   2
   0 -11 -11-214.523 297.171   2
   0 -11 -12 18420.5 2427.02   2
   0 -11 -13 354.122 349.674   2
   0 -11 -14 44242.8 4287.75   2
   0  12   0 161330. 4795.10   1
   0 -12   0 129356. 4264.31   3
   0 -12  -1 20652.5 1209.42   3
   0  12   1 20978.2 1339.95   1
   0  12  -1 20584.1 1302.61   1
   0 -12   1 19833.6 1051.28   3
   0 -12   2 5047.45 466.729   3
   0 -12  -2 4359.06 565.918   3
   0  12  -2 4743.35 609.617   1
   0 -12  -2 4547.28 592.546   1
   0 -12  -3 672.339 221.519   3
   0  12  -3 488.029 132.773   3
   0 -12   3 613.000 157.498   3
   0 -12  -3 778.061 236.980   1
   0  12  -4 2785.20 340.082   3
   0 -12   4 2093.83 307.838   3
   0  12  -5 3261.72 373.817   3
   0  12  -6 89043.7 3086.44   3
   0 -12  -6 111761. 4383.55   2
   0 -12  -7 69684.2 3481.25   2
   0  12  -7 46350.1 1969.47   3
   0 -12  -8 12110.6 1459.32   2
   0 -12  -9-120.303 202.070   2
   0 -12 -10 1080.33 569.090   2
   0 -12 -11 1044.29 643.280   2
   0 -12 -12 33195.3 3314.49   2
   0 -12 -13 41085.8 3906.25   2
   0 -12 -14 12681.5 2198.82   2
   0  13   0 105.939 90.8744   1
   0 -13   0 127.943 112.356   3
   0 -13  -1 27521.6 1485.82   3
   0  13   1 29378.1 1692.43   1
   0 -13   1 28109.4 1337.93   3
   0  13  -1 28908.6 1666.35   1
   0 -13  -2 43657.0 2104.28   3
   0 -13   2 41426.3 1710.20   3
   0  13  -2 46239.8 2222.03   1
   0  13  -3 9586.09 715.712   3
   0 -13  -3 8545.18 902.532   3
   0 -13   3 8368.50 631.619   3
   0 -13  -4 27885.6 1865.37   3
   0 -13   4 30260.5 1372.49   3
   0  13  -4 29826.8 1377.19   3
   0  13  -5 24515.8 1203.00   3
   0  13  -6 1740.09 283.950   3
   0 -13  -6 1302.22 411.714   2
   0 -13  -7 12702.9 1434.04   2
   0  13  -7 10557.3 803.664   3
   0 -13  -8 26315.0 2242.02   2
   0 -13  -9 3228.97 786.077   2
   0 -13 -10 13296.6 1825.42   2
   0 -13 -11 6405.67 1328.85   2
   0 -13 -12 2239.84 855.566   2
   0 -13 -13 345.241 384.008   2
   0 -13 -14 13238.4 2265.95   2
   0 -14   0 219709. 6613.90   3
   0  14   0 238351. 7117.16   1
   0 -14   1 15395.9 968.674   3
   0 -14  -1 16461.0 1105.66   3
   0  14  -1 14826.3 1183.80   1
   0  14   1 14976.4 1210.05   1
   0 -14  -2 1358.40 327.774   3
   0  14  -2 1318.43 340.544   1
   0 -14   2 1434.35 267.007   3
   0  14  -3 1284.97 345.386   1
   0 -14  -3 1403.51 374.911   3
   0 -14   3 1614.66 273.386   3
   0  14  -4 44.6236 44.0104   3
   0 -14  -4 144.483 142.674   3
   0 -14  -5 13816.3 1361.07   3
   0  14  -5 14178.6 895.847   3
   0 -14  -6 178585. 6884.01   2
   0  14  -6 203791. 5742.78   3
   0 -14  -7 12996.8 1470.12   2
   0  14  -7 11433.9 808.999   3
   0 -14  -8 10581.8 1391.04   2
   0 -14  -9 3889.91 877.020   2
   0 -14 -10 581.514 337.391   2
   0 -14 -11 6409.29 1394.78   2
   0 -14 -12 67055.0 4898.79   2
   0 -14 -13 3773.18 1182.90   2
   0 -15   0 117.618 81.5888   3
   0  15   0 69.5455 83.0538   1
   0 -15   1 18429.8 1143.53   3
   0  15   1 23420.3 1585.76   1
   0 -15  -1 20600.5 1298.10   3
   0  15  -1 23422.9 1547.69   1
   0 -15  -2 1933.31 404.517   3
   0 -15   2 1935.94 319.952   3
   0  15  -2 2050.44 455.414   1
   0 -15   3 1514.92 264.863   3
   0 -15  -3 1477.82 364.496   3
   0  15  -3 1444.72 382.008   1
   0 -15  -4 12456.7 1244.91   3
   0 -15   4 11407.7 811.186   3
   0  15  -5 23243.4 1220.82   3
   0 -15  -5 19108.6 1651.50   3
   0 -15  -6 3437.25 709.537   2
   0  15  -6 2468.21 350.156   3
   0 -15  -6 2487.98 606.508   3
   0 -15  -7 5545.91 959.240   2
   0 -15  -8 22.2582 247.246   2
   0 -15  -9 1726.56 634.060   2
   0 -15 -10 16486.6 2063.82   2
   0 -15 -11 12716.7 1944.82   2
   0 -15 -12 2069.71 851.712   2
   0 -15 -13-37.9735 429.353   2
   0  16   0 107168. 4100.61   1
   0 -16   0 95829.4 3594.51   3
   0 -16   1 10716.3 844.074   3
   0  16   1 10885.9 1099.90   1
   0  16  -1 11406.6 1090.86   1
   0 -16  -1 11452.4 960.366   3
   0  16  -2 31106.1 1938.15   1
   0 -16   2 29152.0 1477.18   3
   0 -16  -2 31067.3 1801.98   3
   0 -16   3 2480.60 366.994   3
   0 -16  -3 2504.87 504.539   3
   0  16  -3 2341.42 499.830   1
   0 -16   4 23417.2 1229.81   3
   0 -16  -4 20873.6 1633.19   3
   0  16  -5 18542.7 1125.60   3
   0 -16  -5 16658.5 1538.80   3
   0 -16  -6 80613.6 3892.28   2
   0 -16  -6 68493.0 3682.06   3
   0 -16  -7 163.717 205.245   3
   0 -16  -7 447.891 299.975   2
   0 -16  -8 29790.4 2501.97   2
   0 -16  -9 16324.8 1925.34   2
   0 -16 -10 6667.31 1279.58   2
   0 -16 -11 12228.2 1946.99   2
   0 -16 -12 40085.4 3785.39   2
   0 -17   0 124.492 91.9343   3
   0  17   0-157.354 153.866   1
   0 -17  -1 3397.28 517.680   3
   0  17   1 2998.76 585.066   1
   0 -17   1 3167.02 462.186   3
   0  17  -1 3398.85 601.484   1
   0 -17   2 4442.11 536.552   3
   0  17  -2 4241.12 687.946   1
   0 -17  -2 4172.95 623.394   3
   0  17  -3 43283.3 2417.79   1
   0 -17   3 39043.0 1782.46   3
   0 -17  -3 40749.5 2294.44   3
   0  17  -4 494.439 243.729   1
   0 -17   4 398.415 150.248   3
   0 -17  -4 205.550 116.241   3
   0  17  -5 713.607 297.913   1
   0 -17  -5 891.748 358.548   3
   0 -17  -6 4152.89 811.478   2
   0 -17  -6 3362.00 743.316   3
   0 -17  -7 1595.42 528.059   2
   0 -17  -7 1974.22 585.382   3
   0 -17  -8 3202.70 780.633   3
   0 -17  -8 2509.36 761.840   2
   0 -17  -9 24154.3 2396.86   2
   0 -17  -9 20578.2 2176.25   3
   0 -17 -10 87.7332 257.827   3
   0 -17 -10 317.243 244.303   2
   0 -17 -11 4571.37 1150.94   2
   0  18   0 31004.6 2059.83   1
   0 -18   0 30721.5 1719.12   3
   0 -18   1 1312.32 298.138   3
   0  18   1 608.221 256.707   1
   0 -18  -1 1420.20 353.484   3
   0  18  -1 1061.46 350.485   1
   0  18  -2 75868.2 3452.20   1
   0 -18   2 70157.6 2738.21   3
   0 -18  -2 65471.4 3001.82   3
   0 -18  -3 437.254 245.772   3
   0 -18   3 159.783 126.219   3
   0  18  -3 225.861 178.558   1
   0 -18   4 46356.9 2019.89   3
   0  18  -4 45495.2 2680.55   1
   0 -18  -4 51084.4 2754.76   3
   0  18  -5 979.160 344.020   1
   0 -18  -5 860.534 310.698   3
   0 -18  -6 19738.3 1840.70   2
   0 -18  -6 20609.2 1860.56   3
   0 -18  -7 1775.81 550.938   3
   0 -18  -7 2966.28 774.238   2
   0 -18  -8 46245.4 3266.32   2
   0 -18  -8 37388.7 2886.56   3
   0 -18  -9 677.277 507.318   2
   0 -18  -9 242.947 316.366   3
   0 -18 -10 12151.6 1741.90   3
   0 -18 -10 11711.0 1771.15   2
   0 -19   0 55.0349 73.5750   3
   0  19   0 210.674 168.809   1
   0 -19  -1 633.652 240.651   3
   0  19  -1 627.275 294.599   1
   0 -19   1 543.793 212.186   3
   0  19   1 626.021 283.188   1
   0 -19   2 6734.82 697.742   3
   0  19  -2 6701.70 931.602   1
   0 -19  -2 5661.53 771.020   3
   0  19  -3 56281.5 3066.94   1
   0 -19  -3 56674.6 2872.80   3
   0 -19   3 58536.6 2391.43   3
   0 -19  -4 15177.7 1461.84   3
   0  19  -4 17754.1 1608.15   1
   0 -19  -5 458.185 269.372   3
   0  19  -5 89.7090 144.393   1
   0 -19  -6-26.5365 95.2210   3
   0 -19  -6 362.689 291.256   2
   0  19  -6 352.250 243.685   1
   0 -19  -7 1764.42 578.492   2
   0 -19  -7 1995.44 588.323   3
   0 -19  -8 3699.49 914.927   2
   0 -19  -8 2511.88 734.019   3
   0 -19  -9 23344.9 2344.35   3
   0 -19  -9 25733.3 2540.42   2
   0  20   0 14274.5 1457.15   1
   0 -20   0 14823.3 1188.71   3
   0  20  -1 280.629 266.470   1
   0 -20  -1 125.001 123.507   3
   0 -20   1 200.458 113.808   3
   0  20   1 199.568 188.943   1
   0 -20  -2 15902.9 1362.82   3
   0  20  -2 16876.6 1582.99   1
   0 -20  -3 1264.57 376.621   3
   0  20  -3 1298.02 456.048   1
   0  20  -4 11077.8 1314.32   1
   0 -20  -4 8541.91 1085.04   3
   0  20  -5 719.322 341.021   1
   0 -20  -5 1209.60 427.268   3
   0 -20  -6 16414.4 1708.77   3
   0 -20  -6 16324.3 1743.67   2
   0 -20  -7 3090.16 823.587   2
   0  20  -7 3251.54 763.146   1
   0 -20  -7 2930.03 734.965   3
   0 -20  -8 15967.1 1956.66   2
   0 -20  -8 11180.8 1545.31   3
   0 -20  -9 2545.27 751.527   3
   0  21   0 353.890 203.769   1
   0 -21   0 311.808 183.700   3
   0  21  -1 10556.1 1278.04   1
   0 -21  -1 11395.8 1106.78   3
   0  21  -2 21907.0 1843.87   1
   0 -21  -2 19326.3 1548.94   3
   0  21  -3 9699.13 1216.11   1
   0 -21  -3 9989.47 1116.73   3
   0 -21  -4 28270.3 2078.51   3
   0  21  -4 34818.5 2457.16   1
   0 -21  -5 11666.9 1359.98   3
   0  21  -5 14096.4 1544.90   1
   0 -21  -6 1106.70 497.538   2
   0  21  -6 1456.46 522.722   1
   0 -21  -6 995.133 396.424   3
   0  21  -7 1466.92 504.480   1
   0 -21  -7 1573.19 551.103   2
   0 -21  -7 1957.21 599.885   3
   0 -21  -8 2041.55 598.779   3
   0  22   0 43209.5 2840.19   1
   0  22  -1 1763.10 527.661   1
   0 -22  -1 1806.15 418.275   3
   0 -22  -2 1833.81 465.373   3
   0  22  -2 1931.27 548.818   1
   0 -22  -3 516.682 230.310   3
   0  22  -3 526.749 337.903   1
   0 -22  -4 1485.40 440.889   3
   0  22  -4 695.173 368.420   1
   0 -22  -5 2841.59 670.925   3
   0  22  -5 2718.99 682.728   1
   0  22  -6 20869.6 1988.33   1
   0 -22  -6 18420.1 1874.13   3
   0 -22  -7 907.297 419.563   3
   0 -22  -8 167.939 311.088   3
   0  23   0-162.491 281.212   1
   0  23  -1 18568.4 1842.56   1
   0  23  -2 23194.8 2061.19   1
   0 -23  -3 472.424 205.631   3
   0  23  -3 464.789 258.220   1
   0  23  -4 21475.4 2006.74   1
   0 -23  -4 20108.2 1789.10   3
   0  23  -5 22296.5 2080.72   1
   0 -23  -5 20138.8 1864.22   3
   0 -23  -6 840.685 330.611   3
   0 -23  -7 6647.68 1188.73   3
   0  24  -1 7673.07 1208.67   1
   0  24  -2 1576.66 551.487   1
   0  24  -3 355.380 227.919   1
   0 -24  -5 1537.37 540.825   3
   0 -24  -6 2901.28 711.814   3
   1   0 -15 9947.72 2043.19   2
   1   0 -14-41.3348 300.811   2
   1   0 -13 2009.40 919.781   2
   1   0 -12-608.633 589.530   2
   1   0 -11 30415.6 3025.06   2
   1   0 -10 469.593 513.032   2
   1   0  -9 10104.6 1480.18   2
   1   0  -8-176.544 324.471   2
   1   0  -7 1870.91 518.503   2
   1   0  -6 416.183 250.412   2
   1   0  -5 67308.7 3131.49   2
   1   0  -4 639.036 359.271   2
   1   0  -3 7427.52 677.721   2
   1   0  -2 0.91269 72.1422   2
   1   0  -1 16014.5 564.214   1
  -1   0   1 14197.9 706.158   3
  -1   0   0 53.4258 30.2321   1
  -1   0   0 745.469 123.965   3
  -1   0  -1 18137.5 753.751   3
  -1   0  -2 54.3333 42.1611   3
   1   0   2 241.776 127.202   2
  -1   0  -3 24550.9 1119.12   3
   1   0   3 22498.3 1259.67   2
  -1   0  -4 105.545 143.819   2
   1   0   4 273.488 216.363   2
  -1   0  -5 9277.17 1025.55   2
   1   0   5 10121.1 974.641   2
  -1   0  -6 1.89816 146.021   2
   1   0   7 4497.70 769.336   2
  -1   0  -7 5597.03 913.958   2
  -1   0  -8 75.4870 151.470   2
  -1   0  -9 39604.9 3120.09   2
  -1   0 -10-16.3166 185.177   2
  -1   0 -11 12816.2 1919.39   2
  -1   0 -12 56.8201 214.939   2
  -1   0 -13 781.385 616.867   2
  -1   0 -14-240.960 379.749   2
  -1   0 -15 19541.2 2876.43   2
   1  -1 -15 1057.55 720.561   2
   1   1 -14 12369.6 2121.99   2
   1  -1 -14 13858.4 2286.50   2
   1  -1 -13-251.940 334.776   2
   1   1 -13 283.523 378.517   2
   1  -1 -12 54.8547 274.163   2
   1   1 -12 322.721 426.567   2
   1  -1 -11 441.135 363.902   2
   1   1 -11-104.383 355.824   2
   1  -1 -10 232145. 9669.86   2
   1   1 -10 267465. 10063.5   2
   1   1  -9 8296.00 1372.70   2
   1  -1  -9 8809.34 1374.52   2
   1   1  -8 70428.5 3947.49   2
   1  -1  -8 65651.6 3809.87   2
   1   1  -7 7684.13 1136.78   2
   1  -1  -7 10126.2 1260.51   2
   1   1  -6 492.810 289.989   2
   1  -1  -6 992.445 393.878   2
   1   1  -5 14666.1 1342.94   2
   1  -1  -5 18696.9 1396.05   2
   1  -1  -4 358586. 10539.3   2
   1   1  -4 392190. 10830.7   2
   1  -1  -3 17979.2 1162.99   2
   1   1  -3 22156.0 1293.99   2
  -1  -1   2 258156. 7112.91   3
   1   1  -2 273164. 7316.31   2
  -1  -1   1 2697.35 274.545   3
   1   1  -1 3348.98 304.684   2
   1   1  -1 2921.71 230.064   1
  -1   1   1 2722.32 273.596   3
  -1  -1   0 259.715 75.1140   3
  -1   1   0 215.046 59.1070   3
  -1  -1   0 207.281 62.8235   1
   1  -1   1 29621.1 986.671   3
  -1  -1  -1 29563.2 1109.14   3
  -1   1  -1 28487.4 988.248   3
  -1  -1  -2 266404. 7109.58   3
  -1   1  -2 264899. 6921.16   3
   1   1   2 268443. 7166.96   2
  -1  -1  -3 32917.8 1576.33   2
  -1   1  -3 33656.7 1326.93   3
   1  -1   3 35001.1 1655.24   2
  -1  -1  -3 34015.6 1457.28   3
   1   1   3 32136.8 1526.02   2
   1  -1   4 343988. 9774.14   2
   1   1   4 342032. 9554.09   2
  -1  -1  -4 328515. 9739.18   2
  -1  -1  -5 9827.40 1053.13   2
   1  -1   5 11012.9 1068.81   2
  -1   1  -5 10653.3 1093.14   2
   1   1   5 11921.2 1025.80   2
   1   1   6 3158.23 574.233   2
  -1   1  -6 2413.11 605.299   2
  -1  -1  -6 2597.08 600.352   2
   1   1   7 6641.95 869.157   2
  -1   1  -7 5529.01 1007.75   2
  -1  -1  -7 5417.31 934.969   2
   1  -1   7 6268.23 893.736   2
  -1  -1  -8 74825.9 4017.64   2
  -1   1  -8 63987.8 3792.25   2
  -1   1  -9 6503.63 1159.94   2
  -1  -1  -9 7572.10 1281.45   2
  -1  -1 -10 179161. 7928.11   2
  -1   1 -10 186680. 8041.76   2
  -1   1 -11-227.135 274.850   2
  -1  -1 -11 589.089 456.946   2
  -1  -1 -12 618.938 223.403   2
  -1   1 -12 295.305 270.803   2
  -1  -1 -13 1798.18 838.922   2
  -1   1 -13 1637.33 870.554   2
  -1  -1 -14 10934.4 2099.58   2
  -1   1 -14 9947.94 1896.02   2
  -1  -1 -15 1492.62 779.818   2
   1  -2 -15 2106.74 980.003   2
   1  -2 -14 9392.01 1898.37   2
   1   2 -14 9605.86 1884.85   2
   1  -2 -13 5929.93 1417.75   2
   1   2 -13 7547.22 1594.93   2
   1   2 -12 3862.87 1069.88   2
   1  -2 -12 2901.42 955.788   2
   1   2 -11 12717.3 1858.37   2
   1  -2 -11 11065.0 1737.33   2
   1   2 -10 22276.3 2381.42   2
   1  -2 -10 23613.0 2419.80   2
   1   2  -9 3312.73 790.774   2
   1  -2  -9 4766.02 997.985   2
   1   2  -8 55316.0 3493.37   2
   1  -2  -8 57909.4 3435.67   2
   1   2  -7 10699.2 1349.64   2
   1  -2  -7 12132.2 1371.97   2
   1  -2  -6 1717.37 442.169   2
   1   2  -6 879.750 382.670   2
   1  -2  -5 26888.3 1718.32   2
   1   2  -5 24249.4 1805.91   2
   1   2  -4 95451.4 3812.49   2
   1  -2  -4 107238. 3837.12   2
   1   2  -3 2133.69 369.692   2
   1  -2  -3 2666.04 400.407   2
  -1  -2   2 238875. 6862.35   2
   1   2  -2 239941. 6912.05   2
  -1  -2   2 255746. 6688.70   3
  -1  -2   1 11935.1 631.558   2
   1   2  -1 12347.7 655.340   2
  -1  -2   1 12438.8 666.680   3
  -1  -2   0 858.609 148.916   3
  -1  -2   0 629.058 118.380   1
  -1   2   0 459.672 92.4579   3
   1  -2   0 1103.50 137.644   3
  -1  -2  -1 45471.3 1558.36   3
   1  -2   1 46661.3 1323.66   3
  -1  -2  -2 149022. 4407.58   3
  -1   2  -2 156802. 4055.95   3
  -1  -2  -2 155093. 4315.63   2
   1   2   2 149842. 4273.38   2
   1   2   3 16124.8 934.792   2
  -1  -2  -3 15887.5 993.335   2
  -1  -2  -3 15365.2 937.081   3
  -1   2  -3 17340.8 793.646   3
  -1  -2  -4 87481.0 3341.28   2
   1   2   4 79295.7 3068.55   2
  -1  -2  -5 13432.8 1206.87   2
   1  -2   5 15705.2 1318.97   2
   1   2   5 12393.4 1027.48   2
   1   2   6 598.422 255.627   2
  -1  -2  -6 624.935 258.505   2
  -1   2  -6 348.499 257.662   2
   1  -2   7 16901.1 1558.41   2
  -1  -2  -7 14614.9 1548.50   2
  -1   2  -7 16107.5 1610.02   2
  -1   2  -8 48784.4 3282.49   2
   1   2   8 50005.7 2788.97   2
  -1  -2  -9 18134.1 1962.67   2
  -1   2  -9 17228.3 1936.92   2
  -1   2 -10 13173.2 1859.84   2
  -1  -2 -10 13561.8 1803.61   2
  -1   2 -11 1968.15 702.646   2
  -1  -2 -11 2283.75 785.318   2
  -1  -2 -12 1820.29 696.873   2
  -1   2 -12 1817.79 818.364   2
  -1  -2 -13 9815.49 1812.13   2
  -1   2 -13 5390.50 1459.44   2
  -1  -2 -14 5805.94 1524.25   2
  -1  -2 -15 9529.40 2092.05   2
   1   3 -14 38881.9 3910.96   2
   1  -3 -14 39820.0 4010.33   2
   1   3 -13 317.082 348.875   2
   1  -3 -13 844.105 494.500   2
   1   3 -12 12306.6 1969.09   2
   1  -3 -12 9540.23 1726.91   2
   1   3 -11 1950.53 847.684   2
   1  -3 -11 2212.28 748.474   2
   1  -3 -10 56690.5 3864.03   2
   1   3 -10 57269.4 3960.30   2
   1  -3  -9 18521.2 1980.06   2
   1   3  -9 19076.0 2142.05   2
   1   3  -8 116910. 5833.00   2
   1  -3  -8 154933. 6098.80   2
   1  -3  -7 9323.31 1168.20   2
   1   3  -7 6308.81 784.040   3
   1   3  -7 9296.43 1244.13   2
  -1  -3   7 6654.26 969.295   2
   1  -3  -6 15060.4 1357.65   2
   1   3  -6 15425.1 1550.69   2
   1   3  -5 32994.3 1657.10   3
   1  -3  -5 34228.4 1986.54   2
   1   3  -5 35865.9 2231.60   2
   1  -3  -4 214239. 6295.03   2
   1   3  -4 222815. 6638.47   2
  -1  -3   3 67169.5 2316.56   3
  -1  -3   3 62295.6 2587.33   2
   1   3  -3 62934.8 2660.54   2
   1   3  -2 245162. 6689.55   2
  -1  -3   2 244002. 6686.50   2
  -1  -3   1 46819.2 1721.24   3
   1   3  -1 52406.4 1772.20   2
  -1  -3   1 50901.4 1722.82   2
   1  -3   0 5372.66 327.596   3
  -1  -3   0 4494.58 364.877   1
  -1  -3   0 5004.04 405.374   3
  -1   3  -1 77732.3 2208.34   3
  -1  -3  -1 79757.5 2590.98   1
  -1  -3  -1 81280.9 2582.92   3
   1   3   2 233952. 6075.89   2
  -1  -3  -2 253658. 6508.79   3
  -1  -3  -2 242686. 6230.55   2
  -1   3  -2 220664. 5888.37   3
  -1  -3  -3 54962.8 2157.49   2
  -1   3  -3 57256.7 1727.50   3
  -1  -3  -3 54797.4 2159.82   3
   1   3   3 52040.9 1928.94   2
   1   3   4 128279. 4213.86   2
  -1  -3  -4 146979. 4705.65   2
   1   3   5 15489.7 1089.22   2
  -1  -3  -5 15079.2 1282.88   2
  -1  -3  -6 17410.6 1537.50   2
   1   3   6 17271.1 1265.80   2
   1  -3   6 14793.2 1448.98   2
  -1  -3  -7 21958.1 1913.58   2
   1  -3   7 22426.3 1875.81   2
  -1  -3  -8 110822. 5018.79   2
   1   3   8 79495.4 3734.65   2
  -1  -3  -9 20564.4 2095.73   2
  -1   3  -9 14913.1 1809.35   2
  -1   3 -10 48591.9 3600.48   2
  -1  -3 -10 51789.6 3714.32   2
  -1  -3 -11 296.213 372.762   2
  -1  -3 -12 10518.7 1826.32   2
  -1  -3 -13 2205.09 901.509   2
  -1  -3 -14 34526.6 3697.23   2
  -1  -3 -15 696.568 482.391   2
   1  -4 -14 25485.3 3165.95   2
   1   4 -14 23255.1 3077.17   2
   1   4 -13 29636.5 3258.19   2
   1  -4 -13 27298.2 3100.68   2
   1   4 -12 42263.3 3695.88   2
   1  -4 -12 43099.4 3701.84   2
   1   4 -11 1711.45 729.034   2
   1  -4 -11 2103.04 732.264   2
   1   4 -10 9302.49 1492.59   2
   1  -4 -10 9578.24 1489.77   2
   1   4  -9 7975.79 1413.75   2
   1  -4  -9 9559.33 1405.52   2
   1   4  -8 75692.1 4307.62   2
   1  -4  -8 77518.8 4037.01   2
   1   4  -7 40997.6 2134.07   3
   1   4  -7 42961.6 2901.20   2
   1   4  -6 87925.9 4152.21   2
  -1  -4   6 80371.7 3779.77   2
   1  -4  -6 77945.0 3568.27   2
   1   4  -5 1254.24 280.230   3
   1  -4  -5 1563.12 393.948   2
   1   4  -5 1111.62 341.424   2
  -1  -4   5 979.596 310.543   2
   1   4  -4 52477.0 2630.42   2
   1  -4  -4 60813.5 2525.62   2
   1   4  -4 58116.4 2191.53   3
  -1  -4   4 48231.9 2516.32   2
  -1  -4   3 13856.0 1084.10   2
   1   4  -3 14420.0 1115.05   2
  -1  -4   3 13978.0 842.308   3
  -1  -4   2 68028.7 2335.21   3
  -1  -4   2 74048.2 2667.13   2
   1  -4  -2 69675.6 2066.15   1
   1   4  -2 74286.3 2616.08   2
  -1  -4   1 4409.37 396.359   3
   1   4  -1 4184.06 379.455   2
  -1  -4   1 3997.47 397.590   2
  -1  -4   0 125949. 3829.94   3
  -1  -4   0 134665. 3850.38   1
   1  -4   0 136429. 3648.14   3
  -1  -4  -1 15085.4 833.776   1
  -1  -4  -1 14504.6 817.724   3
  -1  -4  -2 91986.4 2908.55   3
  -1  -4  -2 80311.5 2546.08   2
  -1   4  -3 124.517 38.8065   3
   1   4   3 64.7126 67.4301   2
  -1  -4  -3 69.3548 98.3006   3
  -1  -4  -3 49.0894 75.1988   2
   1   4   4 78137.9 2753.77   2
  -1  -4  -4 77961.2 3057.61   2
   1   4   5 984.863 253.580   2
  -1  -4  -5 1020.32 327.944   2
   1   4   6 84957.7 3388.88   2
   1  -4   6 85566.3 3964.88   2
  -1  -4  -6 82291.7 3872.71   2
  -1  -4  -7 62423.8 3475.06   2
   1   4   8 47485.1 2662.20   2
  -1  -4  -8 49642.5 3249.91   2
  -1  -4  -9 1882.82 671.050   2
  -1  -4 -10 13072.6 1819.87   2
  -1  -4 -11 3615.66 1049.45   2
  -1  -4 -12 34601.4 3346.92   2
  -1  -4 -13 28958.4 3259.54   2
  -1  -4 -14 17677.6 2707.31   2
  -1  -4 -15 488.712 502.254   2
   1  -5 -14 42164.1 4077.99   2
   1   5 -14 36174.5 3862.88   2
   1   5 -13 614.727 518.584   2
   1  -5 -13 867.991 553.194   2
   1   5 -12 15449.1 2254.31   2
   1  -5 -12 18670.7 2354.01   2
   1  -5 -11 2789.76 920.844   2
   1   5 -11 2564.97 866.136   2
   1   5 -10 11406.2 1670.45   2
   1  -5 -10 11999.0 1691.83   2
   1  -5  -9 3143.96 798.118   2
   1   5  -9 3117.36 844.749   2
   1  -5  -8 70840.9 3858.52   2
   1   5  -8 73381.1 4096.40   2
   1   5  -7 7081.28 1187.18   2
   1   5  -7 6770.05 758.635   3
   1  -5  -7 8426.49 1095.62   2
   1   5  -6 17870.3 1675.44   2
  -1  -5   6 15555.5 1558.01   2
   1  -5  -6 15989.1 1427.76   2
   1  -5  -5 12308.7 1132.30   2
   1   5  -5 11904.9 1254.14   2
   1   5  -5 14634.5 986.312   3
  -1  -5   5 12304.1 1251.88   2
  -1  -5   4 35454.5 2102.26   2
   1   5  -4 38685.4 2103.02   2
  -1  -5   4 33787.3 1603.67   3
   1   5  -4 39685.4 1669.40   3
   1   5  -3 5105.41 490.416   3
  -1  -5   3 4980.95 480.081   3
  -1  -5   3 5050.51 644.379   2
   1   5  -3 4451.08 590.002   2
   1  -5  -2 109977. 3228.28   1
  -1  -5   2 116335. 3922.83   2
  -1  -5   2 118691. 3534.71   3
  -1   5   1 31111.2 1071.13   1
  -1  -5   1 33613.7 1442.59   2
  -1  -5   1 30264.3 1296.15   3
  -1  -5   0 33.4744 37.6283   3
  -1  -5   0 89.7195 50.6405   1
  -1  -5  -1 12439.5 757.764   1
  -1  -5  -1 9874.75 690.111   3
  -1  -5  -2 106019. 3582.47   1
  -1  -5  -2 106947. 3585.22   3
  -1  -5  -2 117354. 3263.30   2
  -1  -5  -3 2332.09 387.088   3
  -1  -5  -3 3442.86 412.417   2
  -1  -5  -4 51478.5 2344.09   3
  -1  -5  -4 51010.4 2292.86   2
   1   5   5 42550.5 1895.06   2
  -1  -5  -5 40019.2 2206.38   2
  -1  -5  -6 9703.92 1118.68   2
   1   5   6 8657.79 860.183   2
   1  -5   6 8278.73 1093.24   2
  -1  -5  -7 206.792 100.033   2
  -1  -5  -8 76090.3 4026.14   2
   1   5   8 53965.3 2852.39   2
  -1  -5  -9 1545.16 572.640   2
  -1  -5 -10 8234.89 1410.63   2
  -1  -5 -11 13338.0 1947.76   2
  -1  -5 -12 15869.2 2249.44   2
  -1  -5 -13 791.787 451.973   2
  -1  -5 -14 29550.9 3374.89   2
  -1  -5 -15 2043.72 873.602   2
   1  -6 -14 26120.2 3164.20   2
   1   6 -14 23460.8 3000.22   2
   1   6 -13 12070.5 2088.04   2
   1  -6 -13 13712.7 2163.30   2
   1  -6 -12 98634.2 5822.19   2
   1   6 -12 89475.5 5844.65   2
   1   6 -11 59.6031 310.691   2
   1  -6 -11 141.095 369.601   2
   1   6 -10 657.629 412.296   2
   1  -6 -10 1294.31 539.534   2
   1  -6  -9 2241.67 644.330   2
   1   6  -9 1719.08 671.176   2
   1   6  -8 27087.6 2342.94   2
   1  -6  -8 26514.1 2171.18   2
   1   6  -7 23119.3 1497.99   3
   1  -6  -7 26600.8 1984.32   2
   1   6  -7 24002.4 2062.67   2
  -1  -6   6 323615. 10559.9   2
   1  -6  -6 309042. 10098.1   2
  -1  -6   5 2553.58 630.229   2
   1  -6  -5 2560.57 517.782   2
   1   6  -5 3136.40 670.164   2
   1   6  -4 4130.95 697.842   2
  -1  -6   4 4970.19 747.652   2
  -1  -6   4 4479.07 498.992   3
  -1  -6   3 118.041 94.8558   3
   1  -6  -3 50.0592 19.9002   1
  -1  -6   3 108.291 175.709   2
   1   6  -3 63.9873 45.8227   3
   1   6  -3 94.7491 129.109   2
   1   6  -2 14903.6 859.530   3
  -1  -6   2 14014.9 856.624   3
  -1  -6   2 15846.2 1123.44   2
   1  -6  -2 15388.2 731.189   1
  -1  -6   1 25952.1 1200.77   3
  -1  -6   1 28606.4 1352.56   2
  -1   6   1 26062.9 1015.96   1
  -1  -6   0 367277. 10517.4   1
  -1  -6   0 384948. 10514.6   3
  -1  -6  -1 22526.1 1156.64   3
  -1  -6  -1 24819.1 1212.46   1
  -1  -6  -2 7639.42 508.368   2
  -1  -6  -2 6735.26 624.164   1
  -1  -6  -2 8014.90 683.671   3
  -1  -6  -3 828.688 192.241   2
  -1  -6  -3 576.844 194.855   3
  -1  -6  -4 2969.53 497.314   3
  -1   6  -4 3322.76 230.318   3
  -1  -6  -5 555.614 190.796   2
  -1  -6  -6 361674. 11052.1   2
  -1  -6  -7 26998.1 2122.84   2
  -1  -6  -8 22329.4 2047.61   2
   1   6   8 15254.1 1325.01   2
  -1  -6  -9 116.803 314.380   2
  -1  -6 -10 3138.67 862.151   2
  -1  -6 -11 898.492 498.264   2
  -1  -6 -12 103358. 6176.81   2
  -1  -6 -13 15583.5 2302.91   2
  -1  -6 -14 14623.6 2437.14   2
  -1  -6 -15-672.019 550.148   2
   1  -7 -14 1491.60 609.225   2
   1   7 -14 283.984 313.898   2
   1   7 -13 1874.20 888.763   2
   1  -7 -13 2050.28 775.240   2
   1   7 -12 188.081 352.498   2
   1  -7 -12 394.230 552.412   2
   1   7 -11 12445.6 1862.26   2
   1  -7 -11 15459.1 2031.14   2
   1   7 -10 6237.48 1299.12   2
   1  -7 -10 7703.32 1328.57   2
   1   7  -9 858.650 329.384   2
   1  -7  -9 1089.81 457.876   2
   1  -7  -8 6597.67 1071.15   2
   1   7  -8 6994.59 1186.37   2
   1   7  -7 30558.9 2416.93   2
   1   7  -7 35785.3 1874.72   3
   1   7  -6 612.092 243.323   2
  -1  -7   6 449.762 272.145   2
   1  -7  -6 791.532 364.392   2
   1   7  -5 39083.7 2372.65   2
  -1  -7   5 41559.6 2531.06   2
   1  -7  -5 38929.3 2183.32   2
   1   7  -4 10211.3 1035.05   2
  -1  -7   4 10172.0 1104.59   2
   1   7  -4 9987.68 770.105   3
  -1  -7   4 12508.7 850.993   3
  -1  -7   3 13770.9 857.697   3
   1  -7  -3 11818.1 738.176   1
  -1  -7   3 12599.0 1187.96   2
   1   7  -3 11708.4 788.792   3
  -1  -7   2 7594.39 619.648   3
   1  -7  -2 7269.10 508.327   1
  -1  -7   2 7700.92 778.612   2
   1   7  -2 6982.87 581.693   3
  -1  -7   1 118436. 3515.77   3
  -1   7   1 112119. 3263.61   1
  -1  -7   0 635.762 164.277   1
  -1   7   0 558.962 129.613   1
  -1  -7  -1 49540.3 1949.57   1
  -1  -7  -1 44907.6 1874.21   3
   1  -7   1 45291.4 1331.59   3
  -1  -7  -2 3514.03 453.093   1
  -1  -7  -2 2777.17 419.057   3
  -1  -7  -3 8749.01 821.128   3
  -1  -7  -3 8174.25 782.842   1
  -1  -7  -4 9994.61 866.307   2
  -1  -7  -4 8303.24 869.230   3
  -1  -7  -5 96480.3 3812.83   2
  -1   7  -5 93948.8 2662.18   3
  -1   7  -6 100.805 45.1151   3
  -1  -7  -6 733.339 270.365   2
  -1   7  -7 11628.5 765.914   3
  -1  -7  -7 14650.3 1497.72   2
  -1  -7  -8 6394.85 1097.96   2
  -1  -7  -9 2233.89 706.447   2
  -1  -7 -10 6404.73 1276.08   2
  -1  -7 -11 32792.6 3162.30   2
  -1  -7 -12 329.172 491.389   2
  -1  -7 -13 384.314 428.244   2
  -1  -7 -14 508.930 562.243   2
  -1  -7 -15 130.797 286.515   2
   1  -8 -14 17144.8 2544.12   2
   1   8 -14 23681.9 3119.26   2
   1  -8 -13 1203.89 604.034   2
   1   8 -13 775.730 619.617   2
   1  -8 -12 106553. 6147.10   2
   1   8 -12 101149. 6099.96   2
   1   8 -11 9747.26 1631.67   2
   1  -8 -11 10786.8 1708.73   2
   1  -8 -10 2229.14 706.279   2
   1   8 -10 1298.91 665.267   2
   1  -8  -9 14800.9 1709.08   2
   1   8  -9 11935.5 1703.11   2
   1  -8  -8 31116.0 2357.56   2
   1   8  -8 28056.4 2525.37   2
   1   8  -7 604.306 382.964   2
   1  -8  -7 569.380 308.956   2
   1   8  -7 733.208 235.925   3
   1  -8  -6 265857. 8211.74   2
   1   8  -6 282238. 8803.60   2
  -1  -8   6 283749. 8949.39   2
  -1  -8   5 9601.02 1183.39   2
  -1  -8   5 9733.25 818.649   3
   1   8  -4 2919.50 398.038   3
   1  -8  -4 3109.31 403.195   1
  -1  -8   4 3308.48 643.915   2
  -1  -8   4 2953.50 405.579   3
   1   8  -3 4261.35 468.851   3
  -1  -8   3 4600.06 702.204   2
  -1  -8   3 4204.69 462.016   3
   1  -8  -3 3490.42 394.863   1
   1   8  -2 25744.9 1288.91   3
  -1  -8   2 24345.6 1269.45   3
   1  -8  -2 30643.3 1267.25   1
  -1  -8   2 29051.7 1658.82   2
  -1  -8   1 4657.51 475.133   3
   1   8  -1 4295.82 453.748   3
  -1  -8   1 5522.02 619.030   2
  -1   8   1 5058.84 434.424   1
  -1   8   0 513309. 12811.3   1
  -1  -8   0 472817. 13151.9   1
   1   8   0 498204. 13123.1   3
  -1  -8   0 486924. 13138.5   3
  -1  -8  -1 5196.50 545.081   3
   1  -8   1 5147.04 291.200   3
  -1  -8  -1 4957.73 547.741   1
  -1  -8  -2 14072.2 982.716   1
  -1  -8  -2 15049.1 1033.61   3
  -1  -8  -3 1666.18 302.226   2
  -1  -8  -3 1660.75 367.668   3
  -1  -8  -3 1527.28 338.861   1
  -1  -8  -4 9298.63 943.517   3
  -1  -8  -4 9227.11 901.363   1
  -1  -8  -4 10128.4 867.124   2
  -1  -8  -5 11592.5 1149.98   3
  -1   8  -5 13183.5 531.828   3
  -1  -8  -6 257608. 9032.60   2
  -1   8  -6 294061. 7520.86   3
  -1  -8  -7 520.547 264.374   2
  -1   8  -7 616.684 153.824   3
  -1  -8  -8 22147.9 2044.93   2
  -1   8  -8 19763.2 1071.97   3
  -1   8  -9 10812.8 837.044   3
  -1  -8  -9 10604.2 1533.95   2
  -1  -8 -10 1286.48 562.370   2
  -1  -8 -11 7793.86 1477.34   2
  -1  -8 -12 93987.6 5925.16   2
  -1  -8 -13 392.080 390.605   2
  -1  -8 -14 19730.9 2755.99   2
  -1  -8 -15 5738.59 1496.82   2
   1  -9 -14 11757.3 2118.36   2
   1  -9 -13-54.8695 204.307   2
   1  -9 -12 19339.8 2419.74   2
   1  -9 -11 11245.5 1766.88   2
   1   9 -11 8290.86 1510.81   2
   1   9 -10 793.109 548.200   2
   1  -9 -10 1260.42 516.118   2
   1  -9  -9 16710.2 1818.05   2
   1   9  -9 15113.6 1869.58   2
   1  -9  -8 22412.1 1993.07   2
   1  -9  -7 7695.07 1100.16   2
   1   9  -7 5863.59 699.882   3
   1  -9  -6 15279.0 1417.28   2
   1   9  -6 16585.1 1138.16   3
  -1  -9   5 5683.37 620.112   3
  -1  -9   5 6442.74 1025.99   2
   1  -9  -5 5278.18 599.842   1
  -1  -9   4 168.890 84.8138   3
   1  -9  -4 82.0721 72.2294   1
  -1  -9   3 25850.6 1803.04   2
  -1  -9   3 25253.8 1305.52   3
   1  -9  -3 25910.8 1273.38   1
   1   9  -3 26803.6 1361.28   3
   1  -9  -2 12523.4 806.397   1
  -1  -9   2 11605.9 831.691   3
   1   9  -2 13343.6 866.866   3
  -1  -9   2 12964.5 1123.49   2
  -1  -9   1 13614.8 903.918   3
  -1   9   1 15874.3 885.560   1
   1   9  -1 15743.0 977.541   3
  -1   9   0 220.424 103.579   1
   1   9   0 293.011 119.021   3
  -1  -9  -1 439.913 175.703   3
   1  -9   1 482.861 91.1882   3
  -1  -9  -1 428.120 177.554   1
  -1  -9  -2 12380.1 960.186   3
  -1  -9  -2 11485.0 921.104   1
  -1  -9  -3 16828.5 1253.71   3
  -1  -9  -3 20351.8 1134.03   2
  -1  -9  -3 18621.2 1259.15   1
  -1  -9  -4 99.9631 82.2977   1
  -1  -9  -4 90.6606 70.8107   3
  -1  -9  -5 31006.1 1816.37   2
  -1  -9  -5 22489.9 1700.19   3
  -1   9  -6 9494.18 485.329   3
  -1  -9  -6 10730.5 1159.77   2
  -1  -9  -6 8581.49 1061.66   3
  -1  -9  -7 275.732 230.945   2
  -1   9  -7 108.150 48.6019   3
  -1   9  -8 24074.9 1165.29   3
  -1  -9  -8 28262.3 2329.66   2
  -1   9  -9 13456.7 906.898   3
  -1  -9  -9 18080.0 1990.44   2
  -1  -9 -10 1632.03 657.015   2
  -1  -9 -11 20475.6 2438.99   2
  -1  -9 -12 10793.8 1839.46   2
  -1  -9 -13 1035.38 560.547   2
  -1  -9 -14 11772.8 2167.07   2
   1 -10 -14 25271.7 3116.42   2
   1 -10 -13 1851.29 792.900   2
   1 -10 -12 47405.4 3942.02   2
   1 -10 -11 6471.34 1317.56   2
   1 -10 -10 18479.6 2063.56   2
   1 -10  -9 7803.58 1295.16   2
   1 -10  -8 72050.0 3976.66   2
   1 -10  -7 347.468 226.244   2
   1  10  -7 861.458 257.963   3
   1 -10  -6 74633.2 3220.51   1
   1 -10  -6 80970.2 3819.21   2
  -1 -10   5 7146.61 1129.64   2
   1 -10  -5 8262.37 775.999   1
  -1 -10   5 8547.80 783.015   3
  -1 -10   4 75636.3 3586.14   2
   1 -10  -4 69132.2 2525.58   1
  -1 -10   3 3520.02 655.009   2
   1 -10  -3 3820.44 456.976   1
  -1 -10   3 3547.70 447.710   3
  -1 -10   2 130104. 4245.43   3
  -1 -10   2 143425. 5021.34   2
  -1  10   1 52.6589 54.4363   1
  -1 -10   1 133.411 85.8247   3
  -1  10   0 109806. 3573.37   1
  -1 -10   0 118773. 3864.62   3
  -1  10  -1 64.6308 36.2104   1
   1 -10   1 116.364 54.1799   3
  -1 -10  -1 67.7569 90.6737   1
  -1 -10  -1 50.8165 79.8039   3
   1 -10   2 106940. 2850.91   3
  -1 -10  -2 99895.4 3794.28   3
  -1 -10  -3 891.900 262.736   1
  -1 -10  -3 803.875 257.283   3
  -1 -10  -4 95186.7 3411.45   2
  -1 -10  -4 74540.3 3398.82   3
  -1 -10  -5 7602.89 935.444   3
  -1 -10  -5 9240.55 950.960   2
  -1 -10  -6 70410.3 3486.01   3
  -1  10  -6 67368.5 1965.32   3
  -1 -10  -7 246.105 228.974   3
  -1 -10  -7 462.981 266.321   2
  -1  10  -7 459.325 106.358   3
  -1 -10  -8 73441.8 4012.22   2
  -1  10  -8 66544.0 2276.22   3
  -1 -10  -9 3874.08 908.948   2
  -1 -10 -10 19674.8 2254.58   2
  -1 -10 -11 10517.0 1781.83   2
  -1 -10 -12 44783.2 3949.62   2
  -1 -10 -13 2081.77 889.086   2
  -1 -10 -14 18722.5 2812.44   2
   1 -11 -13 86.3358 467.715   2
   1 -11 -12 5799.62 1356.80   2
   1 -11 -11 2015.10 718.527   2
   1 -11 -10 23799.9 2366.78   2
   1 -11  -9 40438.6 2964.05   2
   1 -11  -8 28859.4 2361.81   2
   1 -11  -7 4626.22 875.869   2
   1 -11  -6 2160.95 403.462   1
   1  11  -6 2237.35 392.661   3
  -1 -11   5 4502.76 557.429   3
  -1 -11   5 4200.43 866.503   2
   1 -11  -5 3024.80 468.338   1
   1  11  -5 3196.55 460.577   3
  -1 -11   4 37753.9 2472.14   2
   1 -11  -4 32319.9 1661.02   1
  -1 -11   4 33274.9 1660.13   3
   1 -11  -3 87517.6 3128.15   1
  -1 -11   3 88797.2 3983.34   2
  -1 -11   3 85943.9 3081.00   3
  -1 -11   2 32540.6 1618.93   3
  -1 -11   2 38571.4 2202.66   2
  -1  11   1 2948.81 403.252   1
  -1 -11   1 2857.06 412.623   3
   1 -11   0 103.601 59.5380   3
  -1 -11   0 205.015 115.010   3
  -1 -11  -1 15248.7 1130.61   1
   1 -11   1 13416.6 639.289   3
  -1 -11  -1 12841.8 986.715   3
  -1 -11  -2 35310.0 1895.04   3
   1 -11   2 39761.5 1210.72   3
  -1 -11  -3 100864. 3878.83   3
  -1 -11  -4 40240.8 1983.94   2
  -1 -11  -4 31065.6 1995.74   3
  -1 -11  -5 538.366 232.681   3
  -1 -11  -5 602.166 213.637   2
  -1 -11  -6 441.418 206.800   3
  -1 -11  -6 339.016 122.035   2
  -1 -11  -7 11804.3 1385.28   3
  -1 -11  -7 16680.5 1639.68   2
  -1  11  -8 25206.3 1060.05   3
  -1 -11  -8 24750.2 2173.43   3
  -1 -11  -9 32124.0 2743.87   2
  -1 -11 -10 20669.9 2350.02   2
  -1 -11 -11 6083.78 1271.97   2
  -1 -11 -12 1527.44 691.811   2
  -1 -11 -13 5583.72 1448.97   2
   1 -12 -13 524.212 573.127   2
   1 -12 -12 21048.3 2569.04   2
   1 -12 -11 3212.00 917.999   2
   1 -12 -10 19108.6 2148.36   2
   1 -12  -9 226.224 275.633   2
   1 -12  -8 53799.1 3432.81   2
   1 -12  -7 916.639 438.800   2
   1  12  -6 22003.7 1366.52   3
  -1 -12   5 4733.03 575.872   3
   1 -12  -5 4504.99 590.159   1
   1  12  -5 5388.89 628.506   3
  -1 -12   4 75591.2 3889.57   2
   1 -12  -4 73754.4 2921.94   1
  -1 -12   4 73770.6 2865.33   3
   1  12  -4 75200.3 2840.38   3
  -1 -12   3 195.190 125.195   3
  -1 -12   3 62.7356 138.393   2
   1  12  -3-52.5939 32.2579   3
   1  12  -3-26.6350 94.5675   1
   1 -12  -3 74.5343 58.5844   1
  -1 -12   2 84360.5 3050.14   3
  -1 -12   2 89643.3 3812.60   2
   1  12  -2 89783.4 3435.27   1
   1  12  -1 143.804 118.445   1
   1  12  -1 155.678 104.104   3
  -1 -12   1 342.575 148.683   3
   1  12   0 15857.3 1239.90   1
  -1 -12   0 16112.1 1132.53   3
   1 -12   0 16112.2 883.433   3
  -1 -12  -1 1517.31 338.571   3
   1 -12   1 1419.62 191.983   3
   1  12   1 1766.19 400.433   1
  -1 -12  -2 105361. 3578.85   3
   1 -12   2 83530.8 2437.02   3
  -1 -12  -3 5179.95 717.156   3
  -1 -12  -4 65421.4 3279.39   3
  -1 -12  -4 92083.9 3334.28   2
  -1 -12  -5 403.601 276.537   3
  -1 -12  -5 780.091 250.014   2
  -1 -12  -6 24631.3 1823.62   2
  -1 -12  -6 17802.6 1650.95   3
  -1 -12  -7 537.918 309.221   3
  -1 -12  -7 727.991 356.861   2
  -1 -12  -8 39875.7 2936.68   3
  -1 -12  -8 61707.1 3597.83   2
  -1 -12  -9 6380.64 1204.45   2
  -1 -12  -9 4706.40 988.796   3
  -1 -12 -10 17235.7 2009.06   3
  -1 -12 -10 23405.1 2463.67   2
  -1 -12 -11 927.523 527.142   3
  -1 -12 -11 623.047 465.337   2
  -1 -12 -12 13157.3 1918.62   3
  -1 -12 -12 16612.8 2336.76   2
   1 -13 -13 1155.88 658.078   2
   1 -13 -12 1102.25 524.322   2
   1 -13 -11 2848.26 800.017   2
   1 -13 -10 110402. 5758.03   2
   1 -13  -9 25255.8 2346.40   2
   1 -13  -8 12978.0 1599.78   2
   1 -13  -7 470.811 311.594   2
  -1 -13   6 432.479 145.780   3
   1  13  -6 639.423 242.137   3
   1 -13  -5 1753.00 372.568   1
   1  13  -5 1359.13 312.338   3
  -1 -13   5 1791.79 365.956   3
  -1 -13   4 105602. 4983.83   2
   1 -13  -4 100253. 3859.49   1
   1  13  -4 127436. 3977.40   3
  -1 -13   4 104812. 3832.41   3
   1  13  -4 119197. 4484.28   1
   1  13  -3 61353.6 2871.03   1
   1  13  -3 56835.3 2433.42   3
  -1 -13   3 60530.3 3275.43   2
   1 -13  -3 64661.7 2613.12   1
  -1 -13   3 54931.8 2402.67   3
   1  13  -2 62118.3 2539.78   3
   1  13  -2 55483.6 2728.37   1
  -1 -13   2 58387.3 3105.94   2
  -1 -13   2 58385.4 2444.30   3
   1  13  -1 150.165 98.1163   3
   1  13  -1 254.869 173.234   1
  -1 -13   1 189.996 123.210   3
   1 -13  -1 425.182 160.049   3
  -1 -13   0 161.974 105.517   3
   1 -13   0 178.919 65.1848   3
   1  13   0 81.2216 101.069   1
  -1  13   0 341.498 160.129   1
  -1  13  -1 150.473 109.299   1
   1 -13   1 316.091 96.2165   3
  -1 -13  -1 183.736 123.863   3
   1  13   1 379.266 184.627   1
  -1  13  -2 75425.0 2954.65   1
  -1 -13  -2 78554.6 3178.78   3
   1 -13   2 74940.2 2229.70   3
  -1 -13  -3 53122.6 2630.25   3
  -1 -13  -4 97928.7 4035.49   3
  -1 -13  -4 93782.2 3670.02   2
  -1 -13  -5 5430.16 843.904   3
  -1 -13  -5 6321.33 854.990   2
  -1 -13  -6 1591.23 468.480   3
  -1 -13  -6 2817.36 595.895   2
  -1 -13  -7 2496.78 608.407   3
  -1 -13  -7 2789.01 620.689   2
  -1 -13  -8 9035.51 1294.79   3
  -1 -13  -8 12365.1 1572.52   2
  -1 -13  -9 16426.1 1882.67   3
  -1 -13  -9 26570.5 2461.28   2
  -1 -13 -10 58873.0 4033.09   3
  -1 -13 -10 85746.2 4936.72   2
  -1 -13 -11 7384.63 1472.71   2
  -1 -13 -11 4510.54 1064.67   3
  -1 -13 -12 842.405 545.164   3
  -1 -13 -12 1155.13 613.210   2
   1 -14 -13 2480.51 1022.42   2
   1 -14 -12 13265.5 2034.70   2
   1 -14 -11 16158.3 2106.95   2
   1 -14 -10 2154.94 707.481   2
   1 -14  -9 11976.2 1631.21   2
   1 -14  -8 2717.83 702.878   2
   1 -14  -7 1727.82 527.035   2
  -1 -14   6 25728.2 1589.92   3
   1  14  -5 16017.7 1153.26   3
  -1 -14   5 18460.2 1249.18   3
   1  14  -4 1561.32 337.670   3
   1  14  -4 1600.45 426.642   1
  -1 -14   4 2278.85 422.155   3
   1  14  -3 218.511 158.129   1
   1  14  -3-2.68198 134.638   3
  -1 -14   3 137.753 97.2648   3
  -1 -14   2 550.530 212.562   3
   1  14  -2 783.012 305.417   1
   1  14  -2 900.584 256.361   3
  -1 -14   2 885.674 348.162   2
  -1  14   1 762.313 228.189   1
  -1 -14   1 579.189 206.777   3
   1 -14  -1 384.993 126.714   3
   1  14  -1 552.335 216.425   3
   1  14  -1 800.076 271.557   1
  -1  14   0 44969.8 2065.64   1
   1  14   0 45996.4 2406.33   1
   1 -14   0 41041.6 1702.10   3
  -1 -14   0 42000.3 2079.10   3
  -1  14  -1 4962.70 611.843   1
  -1 -14  -1 4180.97 609.874   3
   1  14   1 4659.80 721.570   1
   1 -14   1 4706.30 420.932   3
  -1 -14  -2 2219.74 453.053   3
  -1  14  -2 2289.34 436.143   1
   1 -14   2 2415.23 247.611   3
  -1 -14  -3 6923.78 865.976   3
  -1 -14  -4 768.670 302.595   3
  -1 -14  -5 12266.3 1191.48   2
  -1 -14  -5 8425.70 1081.37   3
  -1 -14  -6 27903.3 1996.08   2
  -1 -14  -6 19785.8 1816.64   3
  -1 -14  -7 1031.86 420.055   3
  -1 -14  -7 601.197 288.664   2
  -1 -14  -8 1586.00 497.062   3
  -1 -14  -8 2235.71 633.566   2
  -1 -14  -9 13769.2 1731.90   3
  -1 -14  -9 18865.6 2093.77   2
  -1 -14 -10 329.710 330.213   3
  -1 -14 -10 1002.30 559.908   2
  -1 -14 -11 5632.21 1211.66   3
  -1 -14 -11 9649.40 1679.32   2
   1 -15 -12 101.704 295.301   2
   1 -15 -11 14234.9 2000.45   2
   1 -15 -10 64931.9 4251.05   2
   1 -15  -9 1270.63 498.303   2
   1 -15  -8 32577.5 2619.23   2
   1 -15  -7 11022.0 1386.21   2
  -1 -15   6-31.2058 138.500   3
   1  15  -5 25220.0 1944.30   1
  -1 -15   5 31321.2 1717.67   3
   1  15  -4 102514. 4385.88   1
  -1 -15   4 106876. 3840.77   3
   1  15  -3 73.9928 128.161   1
  -1 -15   3 268.317 88.0351   3
   1 -15  -2 67415.4 2720.95   3
  -1 -15   2 68205.9 3534.78   2
   1  15  -2 65509.3 3081.64   1
   1 -15  -1 34178.2 1678.39   3
   1  15  -1 34948.5 2114.57   1
  -1  15   1 34300.7 1891.26   1
  -1 -15   1 39540.1 1934.85   3
  -1  15   0 73.2225 77.3941   1
   1 -15   0 347.405 122.419   3
   1  15   0 324.497 114.603   1
  -1 -15   0 266.534 137.868   3
   1  15   1 26009.4 1847.37   1
  -1  15  -1 27482.2 1628.67   1
   1 -15   1 27497.2 1213.24   3
  -1 -15  -1 28259.1 1755.94   3
   1 -15   2 66193.5 2162.71   3
  -1  15  -2 76764.3 3052.53   1
  -1 -15  -2 72279.0 3133.02   3
   1 -15   3 256.191 72.2320   3
  -1 -15  -3 615.303 288.310   3
  -1  15  -3 386.176 226.672   1
  -1 -15  -4 79354.0 3669.18   3
  -1 -15  -5 30871.2 2204.36   3
  -1 -15  -5 35364.0 2215.60   2
  -1 -15  -6-169.024 274.256   2
  -1 -15  -6 183.686 181.840   3
  -1 -15  -7 12084.9 1409.85   2
  -1 -15  -7 10390.6 1348.25   3
  -1 -15  -8 22120.2 2154.87   3
  -1 -15  -8 32113.2 2575.85   2
  -1 -15  -9 2126.49 755.648   2
  -1 -15  -9 1346.75 561.538   3
  -1 -15 -10 62864.0 4247.88   2
  -1 -15 -10 48693.2 3619.22   3
  -1 -15 -11 11751.9 1761.43   3
   1 -16 -12 1439.02 741.336   2
   1 -16 -11 2395.64 775.532   2
   1 -16 -10 852.944 471.810   2
   1 -16  -9 28.9714 158.878   2
   1 -16  -8 8821.60 1384.55   2
   1 -16  -7 10241.7 1360.46   2
  -1 -16   6 13601.1 1139.91   3
   1  16  -5 9247.25 1158.47   1
  -1 -16   5 9492.43 905.925   3
   1  16  -4 11344.9 1233.72   1
  -1 -16   4 11359.0 991.902   3
  -1 -16   3 287.476 105.958   3
   1  16  -3 394.051 185.014   1
   1 -16  -3 236.475 143.248   3
  -1 -16   2 11900.5 1020.28   3
   1 -16  -2 10017.6 918.106   3
   1  16  -2 11771.0 1206.16   1
   1 -16  -1 10386.6 844.786   3
  -1 -16   1 8876.11 877.540   3
  -1  16   1 11223.0 1028.15   1
   1  16  -1 10094.0 1111.54   1
   1  16   0 22570.3 1717.17   1
   1 -16   0 19682.5 1119.09   3
  -1 -16   0 24431.5 1550.07   3
  -1  16   0 21144.0 1448.21   1
   1 -16   1 15880.5 892.650   3
   1  16   1 17977.7 1558.66   1
  -1  16  -1 17752.0 1306.80   1
  -1 -16  -1 19108.7 1450.02   3
  -1  16  -2 13284.1 1137.75   1
  -1 -16  -2 13608.5 1223.51   3
   1 -16   2 13909.3 741.648   3
  -1 -16  -3 1770.27 439.640   3
   1 -16   3 2429.54 227.127   3
  -1  16  -3 2301.03 480.707   1
  -1 -16  -4 14447.4 1390.02   3
  -1 -16  -5 2849.14 649.105   3
  -1 -16  -5 3273.24 657.821   2
  -1 -16  -6 14077.5 1439.21   2
  -1 -16  -6 8938.62 1214.16   3
  -1 -16  -7 13912.0 1617.46   3
  -1 -16  -7 17172.4 1729.53   2
  -1 -16  -8 3416.86 826.153   3
  -1 -16  -8 5411.28 1064.78   2
  -1 -16  -9 4019.49 926.408   3
  -1 -16 -10 2921.58 779.177   3
   1 -17 -11 7390.58 1465.61   2
   1 -17 -10 26421.9 2668.51   2
   1 -17  -9 274.849 377.912   2
   1 -17  -8 54955.6 3624.02   2
   1 -17  -7 4224.37 878.132   2
   1  17  -6 4105.46 797.419   1
  -1 -17   6 5499.26 710.568   3
   1  17  -5 15796.5 1581.46   1
  -1 -17   5 17603.6 1294.33   3
   1 -17  -4 42523.8 2451.89   3
   1  17  -4 46664.9 2729.32   1
  -1 -17   4 44056.9 2221.55   3
  -1 -17   3 114.690 93.4251   3
   1  17  -3 27.2426 107.335   1
   1 -17  -3 97.8343 74.3722   3
   1 -17  -2 73329.6 3008.53   3
   1  17  -2 75435.4 3537.40   1
  -1 -17   2 69102.4 3002.86   3
   1  17  -1 17052.3 1521.51   1
  -1 -17   1 16766.0 1259.41   3
   1 -17  -1 15194.7 1075.46   3
  -1  17   1 17850.6 1382.78   1
   1 -17   0 182.812 93.2975   3
  -1 -17   0-42.9398 100.921   3
  -1  17   0 205.025 102.243   1
   1  17   0-38.5460 126.984   1
   1  17   1 19676.0 1680.94   1
  -1  17  -1 20004.1 1443.35   1
   1 -17   1 20056.7 1052.19   3
  -1 -17  -1 20666.9 1547.74   3
   1 -17   2 62018.9 2183.27   3
  -1  17  -2 71461.7 3104.82   1
  -1 -17  -2 72565.7 3234.75   3
  -1  17  -3 94.1541 86.1735   1
  -1 -17  -3 111.961 58.9721   3
  -1 -17  -4 46662.6 2723.00   3
  -1  17  -4 50690.6 2639.09   1
  -1 -17  -5 11965.1 1377.32   3
  -1 -17  -5 17714.3 1553.66   2
  -1 -17  -6 2106.02 576.495   3
  -1 -17  -6 2958.94 652.648   2
  -1 -17  -7 7452.15 1168.61   3
  -1 -17  -7 9374.35 1292.27   2
  -1 -17  -8 48542.4 3361.48   3
  -1 -17  -9 103.451 211.072   3
  -1 -17 -10 19237.9 2204.28   3
   1 -18 -11 980.967 529.922   2
   1 -18 -10 58.9524 296.019   2
   1 -18  -9 1262.97 450.623   2
   1 -18  -8 4378.56 985.310   2
   1 -18  -7 27060.7 2345.34   2
   1  18  -7 24967.2 2178.50   1
  -1 -18   6 4626.21 666.467   3
   1  18  -6 3218.31 748.177   1
  -1 -18   5 3440.15 547.952   3
   1 -18  -5 2737.24 609.089   3
   1  18  -5 3038.74 689.212   1
  -1 -18   4 2434.12 466.692   3
   1  18  -4 1616.66 530.087   1
   1 -18  -4 1381.38 393.203   3
   1 -18  -3 883.875 306.208   3
   1  18  -3 651.985 311.135   1
  -1 -18   3 392.226 170.146   3
   1  18  -2 9125.29 1130.52   1
  -1 -18   2 8248.48 894.449   3
   1 -18  -2 8381.09 865.547   3
   1 -18  -1 19111.8 1209.70   3
  -1  18   1 18158.3 1460.01   1
  -1 -18   1 17796.1 1354.31   3
   1  18  -1 17197.3 1593.21   1
  -1  18   0 4461.79 685.610   1
   1  18   0 4447.68 788.867   1
   1 -18   0 4023.69 496.130   3
  -1 -18   0 4042.30 648.428   3
   1 -18   1 17406.2 1009.79   3
  -1  18  -1 20584.8 1514.13   1
   1  18   1 20911.6 1781.13   1
  -1 -18  -1 21588.8 1596.68   3
  -1 -18  -2 2381.19 517.848   3
  -1  18  -2 2257.14 481.763   1
  -1  18  -3 426.915 221.596   1
  -1 -18  -3 397.482 247.315   3
  -1 -18  -4 3443.96 684.144   3
  -1  18  -4 2896.43 606.051   1
  -1  18  -5 1215.20 398.994   1
  -1 -18  -5 1020.21 383.267   2
  -1 -18  -5 1106.04 439.032   3
  -1 -18  -6 4364.98 856.984   2
  -1 -18  -6 2966.13 713.774   3
  -1 -18  -7 35073.1 2695.09   3
  -1 -18  -8 2459.10 712.192   3
  -1 -18  -9 136.258 175.055   3
   1 -19 -10 8781.13 1526.26   2
   1 -19  -9 1796.21 743.031   2
   1 -19  -8 46179.7 3407.88   2
   1  19  -8 44238.9 3139.13   1
   1 -19  -7 1788.26 636.270   2
   1  19  -7 1277.09 505.243   1
   1 -19  -6 2809.69 651.584   3
   1  19  -6 3001.42 731.394   1
   1  19  -5 348.247 194.917   1
  -1 -19   5 520.432 210.338   3
   1 -19  -5 428.119 237.434   3
  -1 -19   4 26071.9 1673.73   3
   1  19  -4 27252.7 2146.63   1
   1 -19  -4 21447.3 1697.16   3
   1 -19  -3 8061.72 933.691   3
   1  19  -3 7207.03 1046.07   1
  -1 -19   3 9491.10 948.525   3
   1 -19  -2 43575.6 2194.61   3
  -1 -19   2 39432.2 2206.25   3
   1  19  -2 44174.3 2730.45   1
   1  19  -1 6304.98 978.135   1
  -1  19   1 6209.19 853.043   1
  -1 -19   1 5660.18 759.300   3
   1 -19  -1 6856.72 713.497   3
   1 -19   0 113.995 123.873   3
   1  19   0 198.678 129.624   1
  -1  19   0 366.421 247.353   1
  -1 -19   0 88.5825 126.886   3
  -1  19  -1 1042.57 326.661   1
  -1 -19  -1 616.219 275.380   3
  -1  19  -2 36669.7 2221.56   1
  -1 -19  -2 37557.7 2386.44   3
  -1 -19  -3 5790.65 873.769   3
  -1  19  -3 6723.03 899.281   1
  -1  19  -4 22031.2 1734.68   1
  -1 -19  -4 19686.6 1746.68   3
  -1  19  -5 1757.77 500.561   1
  -1 -19  -5 1680.40 490.958   3
  -1 -19  -6 3144.79 735.588   3
  -1 -19  -7 452.165 276.240   3
  -1 -19  -8 32406.9 2738.32   3
  -1 -19  -9 1627.25 587.331   3
   1 -20 -10-258.214 264.473   2
   1 -20  -9 580.448 326.251   2
   1 -20  -9 1031.51 446.012   3
   1 -20  -8 697.912 391.906   2
   1 -20  -8-2.93904 391.041   3
   1  20  -7 15718.4 1789.33   1
   1 -20  -7 15317.6 1690.26   3
   1 -20  -7 14910.1 1795.56   2
   1 -20  -6 42418.9 2792.78   3
   1  20  -6 47758.9 3119.88   1
   1 -20  -5 8195.33 1082.86   3
   1  20  -5 8284.92 1227.65   1
  -1 -20   4 1951.09 443.864   3
   1 -20  -4 1715.63 458.027   3
   1  20  -4 1998.50 575.503   1
  -1 -20   3 152.754 129.458   3
   1 -20  -3 195.238 166.112   3
   1  20  -3 367.167 283.079   1
   1  20  -2-73.9685 171.882   1
  -1 -20   2 267.455 165.151   3
   1 -20  -2 234.402 154.914   3
   1  20  -1 13030.1 1464.60   1
   1 -20  -1 12603.8 1014.08   3
  -1 -20   1 11448.3 1133.49   3
  -1  20   0 75308.1 3513.43   1
   1  20   0 77208.8 3941.80   1
  -1 -20   0 65763.9 3187.09   3
  -1  20  -1 22692.2 1736.93   1
  -1 -20  -1 22240.9 1702.58   3
  -1 -20  -2 793.124 353.161   3
  -1  20  -2 549.771 295.042   1
  -1 -20  -3 818.378 352.686   3
  -1  20  -3 937.236 365.515   1
  -1  20  -4 688.198 319.150   1
  -1 -20  -4 746.677 324.473   3
  -1  20  -5 8108.58 1096.56   1
  -1 -20  -5 8440.12 1174.61   3
  -1  20  -6 44664.4 2799.83   1
  -1 -20  -6 38863.1 2810.89   3
  -1 -20  -7 17996.5 1954.05   3
  -1 -20  -8 331.207 328.033   3
   1 -21  -9 870.013 477.099   3
   1 -21  -9 1327.40 548.925   2
   1 -21  -8 5779.09 1081.68   3
   1 -21  -8 4662.93 1103.95   2
   1 -21  -7 7318.33 1270.39   2
   1 -21  -7 6071.27 1046.53   3
   1  21  -6 566.104 393.621   1
   1 -21  -6 1027.20 417.960   3
   1 -21  -5 6447.11 973.712   3
   1  21  -5 6075.30 1055.81   1
   1  21  -4 22110.7 2014.33   1
   1 -21  -4 18349.1 1583.50   3
   1  21  -3 2675.07 666.967   1
   1 -21  -3 3466.14 596.904   3
  -1 -21   3 3088.00 563.048   3
   1  21  -2 13455.1 1533.10   1
  -1 -21   2 12786.4 1235.84   3
   1  21  -1 12719.3 1512.73   1
  -1 -21   1 13880.2 1275.68   3
  -1  21   0 302.379 296.919   1
   1  21   0 5.14851 115.672   1
  -1 -21   0 191.748 174.579   3
  -1 -21  -1 7020.04 946.269   3
  -1  21  -1 7492.83 1003.96   1
  -1 -21  -2 14075.8 1413.84   3
  -1  21  -2 10856.9 1229.15   1
  -1  21  -3 6050.09 910.211   1
  -1 -21  -3 6243.68 994.688   3
  -1  21  -4 18392.9 1688.38   1
  -1 -21  -4 18216.5 1726.07   3
  -1  21  -5 10948.9 1318.77   1
  -1 -21  -5 10763.8 1364.41   3
  -1 -21  -6 171.127 221.761   3
  -1  21  -6 560.699 339.126   1
  -1 -21  -7 2114.40 692.509   3
  -1  21  -7 2372.81 656.953   1
   1 -22  -8 4689.51 1151.39   2
   1 -22  -8 2985.49 791.577   3
   1 -22  -7 3787.53 851.848   3
   1 -22  -7 2889.05 832.481   2
   1 -22  -6 33776.0 2498.82   3
   1 -22  -5 15537.1 1537.51   3
   1  22  -5 15172.2 1757.70   1
   1  22  -4 1148.59 501.485   1
   1  22  -3 1515.12 541.507   1
  -1 -22   2 2142.17 493.250   3
   1  22  -2 1156.12 441.276   1
   1  22  -1 7825.31 1226.54   1
  -1 -22   1 9185.41 1051.58   3
  -1  22   0 46384.4 2797.23   1
  -1 -22   0 40504.9 2464.59   3
   1  22   0 47869.9 3157.31   1
  -1 -22  -1 10589.5 1198.80   3
  -1  22  -1 8583.39 1124.89   1
  -1  22  -2 1845.78 475.530   1
  -1 -22  -2 1693.66 479.485   3
  -1  22  -3 1866.51 530.676   1
  -1 -22  -3 1799.59 542.807   3
  -1  22  -4 1279.30 435.524   1
  -1 -22  -4 1464.64 441.367   3
  -1  22  -5 10619.2 1325.24   1
  -1 -22  -5 10533.1 1391.97   3
  -1  22  -6 38106.5 2661.40   1
  -1 -22  -6 30776.8 2562.82   3
  -1  22  -7 5049.15 970.609   1
   1 -23  -7 480.735 345.769   2
   1  23  -3 6933.76 1168.10   1
   1  23  -2 1743.91 605.208   1
   1  23  -1 1532.15 548.913   1
  -1 -23   0 234.456 186.149   3
  -1  23   0 329.460 160.435   1
  -1  23  -1 99.2997 131.341   1
  -1 -23  -1 493.438 258.941   3
  -1 -23  -2 1105.04 399.088   3
  -1  23  -2 798.680 305.894   1
  -1 -23  -3 7085.24 1087.95   3
  -1  23  -3 6912.29 1048.47   1
  -1  23  -4 5479.51 930.209   1
  -1 -23  -4 6763.04 1112.95   3
  -1 -23  -5 2438.67 621.854   3
  -1  23  -5 2594.47 662.208   1
  -1  23  -6 1075.30 438.586   1
  -1 -23  -6 574.373 364.481   3
  -1  24  -1 6383.65 1041.48   1
  -1  24  -2 22390.2 1994.60   1
  -1 -24  -2 20252.4 1843.37   3
  -1  24  -3 239.413 119.567   1
  -1 -24  -3 395.830 233.273   3
  -1  24  -4 14102.0 1586.74   1
  -1 -24  -4 14948.1 1713.19   3
  -1 -24  -5 5572.80 1053.28   3
  -1  25  -1 2931.25 737.941   1
  -1  25  -2 304.536 293.627   1
  -1  25  -3 25742.4 2236.49   1
   2   0 -14 29321.7 3407.22   2
   2   0 -13-503.581 444.096   2
   2   0 -12 135016. 7210.08   2
   2   0 -11 346.493 380.948   2
   2   0 -10 774.957 432.298   2
   2   0  -9-48.3055 199.615   2
   2   0  -8 38104.1 2788.17   2
   2   0  -7 320.995 276.213   2
   2   0  -6 415036. 12517.6   2
   2   0  -5-39.8020 154.034   2
   2   0  -4 1643.60 380.689   2
   2   0  -3-4.15891 149.737   2
  -2   0   2 17249.8 1038.24   3
   2   0  -2 18232.5 768.129   1
  -2   0   1 55.2912 54.8659   3
   2   0  -1 276.634 154.668   3
   2   0   0 634457. 15985.4   3
  -2   0   0 599666. 15577.2   1
  -2   0   0 640008. 15992.3   3
  -2   0  -1-12.8867 74.2678   3
   2   0   1-35.5954 72.9623   3
   2   0   2 4421.73 435.551   3
  -2   0  -2 5070.04 474.013   3
  -2   0  -3 132.903 88.8136   3
   2   0   3 173.641 155.376   2
   2   0   3-9.65839 62.0040   3
  -2   0  -4 1923.80 318.232   3
   2   0   4 1672.70 355.665   2
  -2   0  -5 158.392 162.358   3
   2   0   5-768.266 276.673   2
  -2   0  -6 405511. 11403.5   3
  -2   0  -7 294.363 167.626   3
   2   0   7-107.737 95.5366   2
  -2   0  -8 13056.5 1240.65   3
  -2   0  -9-77.6316 137.296   3
  -2   0 -10 440.558 102.440   3
  -2   0 -11 23.6987 160.859   3
  -2   0 -12 78074.3 4290.05   3
  -2   0 -13 69.8562 88.7290   3
  -2   0 -14 14559.7 1872.17   3
  -2   0 -15-102.444 170.135   3
   2  -1 -14 7619.28 1769.63   2
   2   1 -14 4434.52 1307.45   2
   2   1 -13 4020.54 1145.80   2
   2  -1 -13 4142.65 1206.83   2
   2  -1 -12 10043.6 1770.40   2
   2   1 -12 11061.6 1958.47   2
   2   1 -11 8737.02 1581.58   2
   2  -1 -11 10732.8 1691.33   2
   2  -1 -10 634.384 379.015   2
   2   1 -10 280.448 211.595   2
   2  -1  -9 3447.50 887.133   2
   2   1  -9 2903.40 767.553   2
   2   1  -8 17788.6 1907.46   2
   2  -1  -8 20839.4 1983.69   2
   2   1  -7 56010.5 3263.21   2
   2  -1  -7 52954.6 3114.15   2
   2   1  -6 5778.77 923.686   2
   2  -1  -6 7793.02 1103.36   2
   2  -1  -5 15819.4 1340.04   2
   2   1  -5 16724.4 1438.44   2
   2  -1  -4 1531.89 382.476   2
   2   1  -4 955.541 291.472   2
  -2  -1   3 1975.16 336.695   3
   2  -1  -3 2062.28 400.265   2
   2   1  -3 1796.20 404.803   2
   2   1  -2 19849.4 1137.80   2
   2   1  -2 18293.5 852.609   1
  -2   1   2 17017.2 1034.23   3
  -2  -1   2 17479.1 1051.18   3
   2  -1  -2 17413.9 1070.65   3
   2  -1  -2 18369.9 684.642   1
  -2  -1   1 137660. 4255.95   3
   2  -1  -1 144742. 4305.34   3
   2   1  -1 137498. 3981.87   1
  -2   1   1 141340. 4222.08   3
  -2  -1   0 621.733 123.431   1
  -2  -1   0 862.899 189.332   3
   2  -1   0 520.971 138.066   3
   2   1   0 575.613 143.146   3
  -2   1   0 520.094 93.8567   1
  -2   1   0 569.040 150.560   3
  -2  -1  -1 12197.2 751.674   1
  -2   1  -1 13945.1 792.164   3
  -2  -1  -1 13464.3 832.877   3
   2   1   1 12675.5 791.018   3
   2  -1   1 13374.6 768.171   3
   2  -1   2 10424.5 661.726   3
   2   1   2 11252.7 740.991   3
  -2  -1  -2 9975.84 722.975   3
  -2   1  -2 9368.59 635.605   3
   2   1   3 1790.86 304.593   3
   2  -1   3 2100.01 292.517   3
   2   1   3 2292.70 367.143   2
  -2  -1  -3 2510.03 364.437   3
  -2   1  -3 2246.89 317.388   3
   2  -1   4 336.496 155.195   2
  -2   1  -4 166.271 81.4550   3
  -2  -1  -4 161.516 116.369   3
  -2   1  -5 102850. 3459.24   3
  -2  -1  -5 104459. 3654.74   3
   2  -1   5 101612. 4017.69   2
   2   1   5 92273.7 3818.85   2
  -2  -1  -6 3510.81 569.195   3
  -2   1  -6 3589.59 533.076   3
  -2   1  -7 1720.21 380.146   3
  -2  -1  -7 1689.25 404.696   3
   2  -1   7 1865.66 526.679   2
   2   1   7 1936.79 490.687   2
  -2   1  -8 18526.1 1442.30   3
  -2  -1  -8 18495.0 1534.35   3
  -2   1  -9 1353.61 390.760   3
  -2  -1  -9 1263.48 412.471   3
  -2  -1 -10-46.1108 170.241   3
  -2   1 -10 407.078 301.240   3
  -2  -1 -11 37359.2 2714.71   3
  -2   1 -11 36285.5 2570.97   3
  -2  -1 -12 3370.81 816.923   3
  -2   1 -12 3722.70 822.336   3
  -2  -1 -13 1576.55 636.372   3
  -2   1 -13 496.395 287.305   3
  -2  -1 -14 7025.02 1302.83   3
  -2   1 -14 7569.07 1275.43   3
  -2  -1 -15 1776.45 669.297   3
   2   2 -14 30033.3 3472.37   2
   2  -2 -14 30540.0 3516.55   2
   2   2 -13 11838.2 2016.26   2
   2  -2 -13 10976.5 1936.44   2
   2   2 -12 81058.4 5356.83   2
   2  -2 -12 71438.8 4984.20   2
   2   2 -11 2403.32 829.039   2
   2  -2 -11 2682.46 947.609   2
   2   2 -10 5242.51 1111.13   2
   2  -2 -10 5816.31 1196.27   2
   2   2  -9 19164.6 2110.75   2
   2  -2  -9 17603.9 1969.14   2
   2  -2  -8 50342.0 3237.95   2
   2   2  -8 54669.5 3418.49   2
   2   2  -7 18968.5 1779.80   2
   2  -2  -7 16112.6 1619.00   2
   2  -2  -6 238015. 7504.59   2
   2   2  -6 220263. 7554.37   2
   2  -2  -5 4739.41 740.978   2
   2   2  -5 4344.25 713.882   2
   2  -2  -4 31331.8 1813.32   2
   2   2  -4 27344.5 1785.18   2
   2   2  -3 4729.95 623.539   2
   2  -2  -3 4602.94 574.745   3
  -2  -2   3 5403.49 581.301   3
   2   2  -2 85075.4 2946.13   2
   2  -2  -2 79456.5 2917.99   3
  -2  -2   2 81976.9 2905.30   3
   2   2  -2 82236.7 2648.65   1
  -2   2   1 3119.24 370.254   3
   2   2  -1 2711.94 323.017   1
  -2  -2   1 2491.39 357.619   3
   2  -2  -1 3010.71 384.648   3
  -2  -2   0 245891. 6984.84   1
  -2   2   0 269671. 7129.47   3
  -2  -2   0 281310. 7361.64   3
   2  -2   0 256299. 7091.62   3
  -2  -2  -1 5136.85 482.006   1
  -2  -2  -1 6073.91 551.525   3
   2   2   1 6155.37 539.112   3
  -2   2  -1 5588.88 456.874   3
   2  -2   1 6215.96 483.847   3
   2  -2   2 35600.0 1375.65   3
   2   2   2 31491.4 1505.28   3
   2   2   2 36171.4 1432.63   2
  -2   2  -2 35744.7 1391.04   3
  -2  -2  -2 38094.9 1640.65   3
  -2   2  -3 749.909 170.979   3
  -2  -2  -3 912.471 228.199   3
   2   2   3 813.375 211.770   2
   2   2   3 775.073 195.949   3
   2  -2   3 861.716 178.654   3
  -2  -2  -4 35663.6 1752.96   3
   2  -2   4 35418.0 2014.04   2
   2   2   4 38274.3 1838.62   2
  -2   2  -4 37985.1 1558.66   3
  -2  -2  -5 4707.40 616.823   3
   2   2   5 3837.55 568.755   2
  -2   2  -5 5073.11 516.046   3
  -2  -2  -6 174474. 5919.33   3
   2  -2   6 165972. 6303.74   2
   2   2   6 175466. 5988.00   2
  -2  -2  -7 18511.5 1474.98   3
  -2   2  -7 19750.5 1325.94   3
  -2  -2  -8 33882.6 2188.83   3
  -2   2  -8 33977.2 1961.02   3
   2   2   8 30539.4 2156.19   2
  -2   2  -9 1060.43 333.092   3
  -2  -2  -9 706.406 277.295   3
  -2  -2 -10 6836.79 1049.85   3
  -2   2 -10 8310.40 1063.32   3
  -2  -2 -11 8504.00 1260.49   3
  -2   2 -11 10428.4 1288.68   3
  -2  -2 -12 54582.5 3610.71   3
  -2   2 -12 59681.7 3468.49   3
  -2  -2 -13 9143.72 1457.48   3
  -2   2 -13 11424.5 1491.12   3
  -2   2 -14 14861.9 1781.84   3
  -2  -2 -14 14150.6 1897.08   3
  -2  -2 -15 1713.48 661.158   3
   2  -3 -14 23573.1 3024.31   2
   2   3 -14 24489.8 3169.07   2
   2   3 -13 1461.38 777.890   2
   2  -3 -13 1257.83 670.530   2
   2  -3 -12 23847.3 2742.22   2
   2   3 -12 21550.7 2676.53   2
   2   3 -11 561.431 309.622   2
   2  -3 -11 520.692 355.403   2
   2   3 -10 13215.6 1816.36   2
   2  -3 -10 15398.4 1953.19   2
   2   3  -9 26435.2 2507.79   2
   2  -3  -9 28304.6 2476.94   2
   2  -3  -8 85552.6 4218.21   2
   2   3  -8 65387.1 4035.73   2
   2   3  -7 223.966 126.133   2
   2  -3  -7 296.803 234.678   2
   2  -3  -6 23558.1 1823.84   2
  -2  -3   6 19740.4 1682.51   2
   2   3  -6 21960.8 1838.03   2
   2  -3  -5 2084.12 477.413   2
  -2  -3   5 1403.92 401.292   2
   2  -3  -5 2214.57 460.429   3
   2   3  -5 2083.41 495.289   2
  -2  -3   4 38103.4 2076.59   2
  -2  -3   4 41697.9 1962.28   3
   2  -3  -4 34692.6 2009.92   3
   2   3  -4 43758.4 2298.57   2
   2  -3  -3 43837.3 2092.30   3
  -2  -3   3 47941.6 2054.14   3
   2   3  -3 50579.0 2317.08   2
   2  -3  -2 91795.4 3189.51   3
  -2  -3   2 87819.0 3143.76   3
   2   3  -2 89403.5 2948.98   1
   2   3  -2 96668.1 3214.90   2
   2   3  -1 2454.62 309.262   2
   2  -3  -1 2354.95 325.609   3
   2   3  -1 2617.10 336.568   1
  -2  -3   1 2454.01 354.531   3
  -2   3   0 58.3379 62.4693   3
  -2  -3   0 14.1898 45.9294   1
  -2  -3   0 1.47469 77.7886   3
   2   3   0 115.075 71.6959   2
  -2  -3  -1 13337.3 846.825   1
   2  -3   1 15012.2 754.343   3
  -2   3  -1 15331.1 777.092   3
  -2  -3  -1 13337.7 898.379   3
   2  -3   2 77693.0 2467.65   3
   2   3   2 79530.3 2849.21   3
   2   3   2 78988.0 2466.93   2
  -2   3  -2 79874.1 2517.80   3
   2   3   3 56654.6 2325.93   3
   2   3   3 55932.6 2099.51   2
  -2  -3  -3 62164.7 2413.44   3
  -2   3  -3 60275.6 1982.58   3
  -2  -3  -4 40755.3 1976.65   3
   2   3   4 39723.9 1827.87   2
  -2   3  -5 13272.9 815.888   3
  -2  -3  -5 12553.6 1065.14   3
   2   3   5 13155.5 1028.91   2
  -2   3  -6 4089.03 492.478   3
  -2  -3  -6 4709.63 681.219   3
   2  -3   6 4225.93 771.991   2
   2   3   6 3532.23 543.827   2
  -2   3  -7 18352.7 1211.47   3
  -2  -3  -7 15294.0 1372.97   3
  -2   3  -8 65433.6 2785.19   3
  -2  -3  -8 55912.9 3064.50   3
   2   3   8 57006.3 2988.16   2
  -2   3  -9 17510.1 1391.64   3
  -2  -3  -9 14363.7 1502.33   3
  -2  -3  -9 12746.9 1624.62   2
  -2  -3 -10 6204.36 1037.46   3
  -2   3 -10 7259.97 946.725   3
  -2  -3 -11 8864.78 1311.86   3
  -2   3 -11 10469.7 1236.29   3
  -2  -3 -12 10243.7 1484.77   3
  -2   3 -12 11529.6 1368.47   3
  -2  -3 -13 4627.51 1039.82   3
  -2   3 -13 4411.87 891.508   3
  -2  -3 -14 18426.4 2213.59   3
  -2  -3 -15 3888.19 1023.96   3
   2   4 -14 22990.8 2984.85   2
   2  -4 -14 29330.3 3345.21   2
   2  -4 -13 5615.00 1420.01   2
   2   4 -13 7746.84 1601.62   2
   2   4 -12 31176.8 3158.48   2
   2  -4 -12 29799.7 3068.95   2
   2   4 -11 487.841 427.984   2
   2  -4 -11 1194.60 696.248   2
   2   4 -10 20193.0 2304.24   2
   2  -4 -10 20911.6 2273.34   2
   2  -4  -9 6461.10 1154.70   2
   2   4  -9 7161.19 1292.31   2
   2   4  -8 92647.0 4944.91   2
   2  -4  -8 97390.0 4688.44   2
   2  -4  -7 7139.27 1038.72   2
   2   4  -7 6098.80 1044.19   2
   2  -4  -6 39430.0 2489.11   2
  -2  -4   6 35988.4 2404.21   2
  -2  -4   5 6013.95 851.904   2
   2  -4  -5 7672.69 930.238   2
   2   4  -5 7816.13 982.440   2
   2  -4  -4 104047. 4121.38   3
  -2  -4   4 105535. 4122.00   2
  -2  -4   4 117128. 3967.66   3
   2   4  -4 123831. 4415.25   2
  -2  -4   3 15210.2 1087.63   2
   2   4  -3 14985.8 1134.48   2
   2  -4  -3 12662.9 1035.31   3
  -2  -4   3 13988.8 994.643   3
   2   4  -2 143974. 4309.19   1
  -2  -4   2 136030. 4383.75   3
   2  -4  -2 133688. 4395.18   3
   2   4  -2 141195. 4461.22   2
   2   4  -1 2302.05 337.474   1
   2  -4  -1 2179.54 315.338   3
  -2  -4   1 2778.43 399.605   3
   2   4  -1 2781.03 351.331   2
   2  -4   0 41125.3 1571.85   3
  -2  -4   0 39105.4 1624.77   1
  -2  -4   0 41010.8 1790.83   3
   2   4   0 41101.6 1374.87   2
  -2   4  -1 11360.0 646.563   3
  -2  -4  -1 13046.0 899.270   3
   2  -4   1 12236.6 651.635   3
  -2  -4  -1 12255.7 823.652   1
   2  -4   2 141049. 4070.03   3
  -2  -4  -2 136020. 4599.71   1
   2   4   3 6549.74 662.244   3
   2   4   3 5705.49 443.424   2
  -2   4  -3 5855.97 414.289   3
  -2  -4  -3 6435.67 661.621   3
  -2  -4  -4 118249. 4117.06   3
  -2   4  -4 116013. 3394.56   3
   2   4   4 117232. 3688.41   2
   2   4   5 1973.68 343.556   2
   2  -4   5 1859.15 491.579   2
  -2  -4  -5 1650.18 389.440   3
  -2   4  -5 1796.50 262.807   3
  -2   4  -6 33083.1 1470.69   3
  -2  -4  -6 28809.1 1894.80   3
   2   4   6 30105.6 1701.47   2
  -2   4  -7 20788.8 1225.31   3
  -2  -4  -7 17827.8 1516.86   3
  -2  -4  -7 15507.7 1523.90   2
   2   4   8 56368.9 2877.04   2
  -2  -4  -8 54147.3 3335.00   2
  -2  -4  -8 60643.5 3235.06   3
  -2  -4  -9 2005.41 649.473   2
  -2   4  -9 2032.84 433.997   3
  -2  -4  -9 2225.38 584.322   3
  -2   4 -10 21731.0 1643.09   3
  -2  -4 -10 19091.1 1899.60   3
  -2  -4 -10 20015.4 2165.90   2
  -2   4 -11 1323.76 405.077   3
  -2  -4 -11 789.817 297.236   3
  -2  -4 -11 683.185 316.170   2
  -2  -4 -12 14659.9 1821.43   3
  -2   4 -12 16440.6 1597.36   3
  -2  -4 -12 11610.3 1910.80   2
  -2  -4 -13 7681.73 1384.27   3
  -2   4 -13 10851.4 1364.60   3
  -2  -4 -14 15696.6 2055.54   3
   2  -5 -14 13217.3 2200.51   2
   2   5 -14 13172.2 2249.97   2
   2   5 -13 328.980 345.242   2
   2  -5 -13 498.784 457.710   2
   2   5 -12 461.147 459.495   2
   2  -5 -12 1077.65 653.791   2
   2   5 -11 669.309 367.201   2
   2  -5 -11 882.538 567.021   2
   2   5 -10 89402.5 5237.10   2
   2  -5 -10 89755.4 5065.15   2
   2  -5  -9 29695.4 2514.70   2
   2   5  -9 32478.9 2840.83   2
   2  -5  -8 36394.5 2639.82   2
   2   5  -8 40482.8 2998.13   2
   2  -5  -7 1811.05 542.490   2
   2   5  -7 3104.11 737.007   2
  -2  -5   6 2851.80 672.848   2
   2  -5  -6 4258.57 750.724   2
   2   5  -6 2851.12 673.390   2
  -2  -5   5 15976.5 1416.28   2
  -2  -5   5 18086.8 1255.48   3
   2  -5  -5 14764.4 1321.56   2
   2   5  -5 19401.3 1624.93   2
   2   5  -5 14818.3 1220.02   3
  -2  -5   4 159235. 5717.42   2
  -2  -5   4 170121. 5323.86   3
   2   5  -4 169602. 5845.22   2
  -2  -5   3 111146. 3859.09   2
   2   5  -3 118523. 4020.67   2
   2   5  -3 94354.6 3486.03   1
   2  -5  -3 110910. 3875.89   3
   2  -5  -3 98279.1 2766.87   1
   2  -5  -2 88563.6 3248.15   3
  -2  -5   2 99345.0 3190.69   2
   2   5  -2 93037.6 3215.20   1
  -2  -5   2 86275.4 3199.16   3
   2   5  -2 95880.2 3329.27   2
   2   5  -1 12910.2 896.773   1
   2   5  -1 13206.3 779.875   2
   2  -5  -1 12791.6 833.004   3
  -2  -5   1 12588.0 919.118   3
   2  -5   0 4678.14 424.178   3
  -2  -5   0 4633.53 491.751   1
   2   5   0 4505.27 521.496   1
  -2  -5   0 4565.79 527.410   3
  -2  -5  -1 37348.8 1782.47   3
  -2  -5  -1 37961.0 1699.56   1
   2  -5   1 39417.5 1364.38   3
   2  -5   2 131836. 3590.65   3
  -2  -5  -2 132219. 4305.39   1
  -2   5  -2 125983. 3599.59   3
  -2  -5  -2 137536. 4457.01   3
  -2  -5  -3 81801.4 3137.30   1
  -2   5  -3 91033.4 2381.76   3
  -2  -5  -3 86647.2 3160.48   3
  -2  -5  -4 137622. 4562.78   3
  -2   5  -4 134933. 3587.29   3
   2  -5   5 918.661 342.590   2
  -2  -5  -5 1052.58 318.368   3
  -2   5  -5 998.565 178.760   3
   2   5   5 676.645 188.609   2
  -2   5  -6 174.743 81.3812   3
  -2  -5  -6-15.3037 97.3844   3
   2   5   6 252.194 137.895   2
  -2   5  -7 29507.6 1407.69   3
  -2  -5  -7 26434.4 1937.54   3
  -2  -5  -7 23903.0 1929.45   2
  -2  -5  -8 37960.5 2525.52   3
   2   5   8 39237.7 2285.75   2
  -2  -5  -8 31731.2 2509.38   2
  -2  -5  -9 28382.9 2256.09   3
  -2  -5  -9 24341.2 2326.89   2
  -2  -5 -10 54956.7 3490.29   3
  -2  -5 -10 51571.2 3738.67   2
  -2  -5 -11 1823.50 677.275   2
  -2   5 -11 1787.55 441.265   3
  -2  -5 -11 2378.24 678.523   3
  -2  -5 -12 301.358 334.417   2
  -2   5 -12 332.272 199.149   3
  -2  -5 -12 102.160 95.5359   3
  -2  -5 -13 3309.20 927.019   3
  -2  -5 -13 2383.82 867.915   2
  -2  -5 -14 9076.04 1582.28   3
   2   6 -14 2805.64 1180.52   2
   2   6 -13 699.227 480.107   2
   2  -6 -13 1846.43 873.872   2
   2   6 -12 6845.13 1513.14   2
   2  -6 -12 9140.85 1668.61   2
   2   6 -11 30616.4 2985.48   2
   2  -6 -11 32287.9 3007.07   2
   2   6 -10 9429.57 1610.19   2
   2  -6 -10 9168.88 1447.30   2
   2   6  -9 4649.91 1024.54   2
   2  -6  -9 5060.33 1028.54   2
   2  -6  -8 23884.1 2080.35   2
   2   6  -8 19974.7 2047.04   2
   2  -6  -7 1158.37 377.627   2
   2   6  -7 1872.60 611.746   2
  -2  -6   6 4895.16 888.964   2
   2   6  -6 8152.78 1127.76   2
   2  -6  -6 6786.88 955.832   2
   2   6  -5 38914.3 2459.07   2
  -2  -6   5 41290.0 2021.58   3
  -2  -6   4 20279.0 1515.63   2
   2  -6  -4 21425.9 930.722   1
  -2  -6   4 24381.9 1425.93   3
   2   6  -4 24307.5 1665.26   2
   2   6  -4 23239.0 1433.70   3
   2   6  -3 3817.73 565.339   2
  -2  -6   3 3769.26 562.092   2
   2   6  -3 3712.38 505.512   1
   2  -6  -3 3192.54 236.418   1
  -2  -6   3 3495.97 494.434   3
  -2  -6   2 47230.4 1990.51   2
   2   6  -2 51648.7 2127.91   1
   2   6  -2 49760.9 2058.10   2
   2  -6  -2 49948.9 2119.45   3
   2   6  -1 983.710 245.961   1
   2  -6  -1 1349.53 257.642   3
  -2  -6   1 999.940 237.055   3
   2   6  -1 1120.92 199.271   2
   2  -6   0 6821.70 508.466   3
  -2  -6   0 7430.33 655.032   1
   2   6   0 7076.04 700.741   1
  -2  -6   0 6065.88 627.795   3
  -2  -6  -1 23970.9 1319.87   1
   2  -6   1 25434.8 963.152   3
  -2  -6  -1 23621.6 1379.01   3
  -2  -6  -2 37006.1 1816.02   1
   2  -6   2 35275.3 1190.42   3
  -2  -6  -3 24705.6 1521.22   1
  -2   6  -3 25760.6 889.706   3
  -2  -6  -3 25887.7 1539.89   3
  -2  -6  -4 28859.3 1701.41   3
  -2   6  -4 26209.5 935.417   3
  -2  -6  -5 10089.8 1044.28   3
  -2  -6  -5 10040.7 898.870   2
   2   6   5 9034.97 692.684   2
  -2   6  -5 10774.0 546.600   3
  -2  -6  -6 5008.12 773.210   3
  -2  -6  -6 4070.73 662.488   2
  -2   6  -6 6000.69 441.246   3
   2   6   6 3900.37 514.442   2
  -2   6  -7 2759.68 346.014   3
   2   6   7 2213.33 426.426   2
  -2  -6  -7 1872.92 478.746   2
  -2  -6  -7 2164.68 536.352   3
  -2   6  -8 22205.0 1226.39   3
  -2  -6  -8 17471.8 1696.09   3
   2   6   8 20787.8 1505.36   2
  -2  -6  -8 16154.9 1709.23   2
  -2  -6  -9 27678.1 2283.82   3
  -2  -6  -9 23682.6 2291.36   2
  -2   6 -10 6320.83 762.910   3
  -2  -6 -10 4262.64 985.560   2
  -2  -6 -10 4786.59 964.320   3
  -2   6 -11 6069.12 800.132   3
  -2  -6 -11 4692.03 1095.56   2
  -2  -6 -11 5456.30 1070.27   3
  -2  -6 -12 2604.44 853.980   2
  -2  -6 -12 3002.31 834.492   3
  -2  -6 -13 22.1398 151.074   2
  -2  -6 -13 1073.80 505.713   3
  -2  -6 -14 3804.17 975.982   3
   2   7 -13-833.730 550.136   2
   2  -7 -13-255.328 430.709   2
   2   7 -12 138.649 404.348   2
   2  -7 -12 354.146 396.046   2
   2   7 -11 3586.26 1003.76   2
   2  -7 -11 4053.35 1064.41   2
   2  -7 -10 164132. 7292.72   2
   2   7 -10 169493. 7649.56   2
   2   7  -9 3081.08 787.572   2
   2  -7  -9 2758.37 758.284   2
   2   7  -8 33594.3 2683.55   2
   2  -7  -8 36027.2 2645.91   2
   2  -7  -7 1789.24 500.629   2
   2   7  -7 1501.63 528.884   2
   2  -7  -6 554.084 301.460   2
   2   7  -6 353.425 187.526   2
  -2  -7   6 591.208 390.887   2
  -2  -7   5 4352.67 597.667   3
  -2  -7   5 3173.80 619.553   2
   2   7  -5 2813.26 654.500   2
  -2  -7   4 215184. 7504.35   2
   2   7  -4 260988. 7770.25   2
   2   7  -4 240517. 7195.75   3
   2  -7  -4 239502. 6360.24   1
  -2  -7   4 230788. 7113.53   3
  -2  -7   3 2133.51 383.899   3
  -2  -7   3 1403.28 336.280   2
   2   7  -3 3055.73 468.046   1
   2   7  -3 2028.35 414.958   2
   2   7  -3 2773.74 446.598   3
  -2  -7   2 115354. 4024.40   2
   2   7  -2 122632. 4208.00   1
  -2  -7   2 120933. 4192.24   3
   2  -7  -2 124622. 4213.20   3
  -2  -7   1 13535.4 1010.15   3
  -2  -7   1 15016.3 831.982   2
   2  -7  -1 16624.9 983.950   3
   2   7  -1 15836.6 1100.12   1
   2  -7   0 751.693 162.473   3
  -2  -7   0 737.674 216.096   1
  -2  -7   0 689.733 216.086   3
  -2   7   0 595.097 110.184   1
   2   7   0 990.457 268.840   1
  -2  -7  -1 2010.73 373.396   3
  -2  -7  -1 1483.84 297.128   1
   2  -7   1 1799.02 199.708   3
  -2  -7  -2 144927. 4626.73   3
  -2  -7  -2 144077. 4485.76   1
  -2  -7  -3 4534.31 609.453   1
  -2  -7  -3 4981.22 648.174   3
  -2  -7  -4 184702. 6096.24   3
  -2  -7  -5 5144.80 750.391   3
  -2  -7  -5 4393.44 578.906   2
  -2   7  -5 5409.94 286.542   3
  -2  -7  -6 948.389 299.951   2
  -2   7  -6 1572.81 186.205   3
  -2  -7  -7 1482.40 419.191   2
  -2  -7  -7 1582.80 452.690   3
  -2   7  -7 2116.96 262.665   3
  -2   7  -8 36574.1 1538.47   3
  -2  -7  -8 31697.8 2360.35   3
  -2  -7  -8 29829.8 2377.62   2
  -2   7  -9 2759.22 412.666   3
  -2  -7  -9 2507.24 690.113   2
  -2  -7  -9 1925.22 565.505   3
  -2  -7 -10 93417.1 5131.52   3
  -2  -7 -10 104381. 5693.63   2
  -2  -7 -11 3357.20 907.368   2
  -2  -7 -11 2113.85 666.325   3
  -2  -7 -12 574.013 236.624   2
  -2  -7 -12 532.298 361.571   3
  -2  -7 -13-269.057 318.950   2
  -2  -7 -13-359.609 316.038   3
   2   8 -13 1860.86 736.389   2
   2  -8 -13 1475.47 517.399   2
   2   8 -12 1317.29 644.985   2
   2  -8 -12 1569.58 748.036   2
   2   8 -11 26744.9 2817.93   2
   2  -8 -11 25105.8 2635.10   2
   2   8 -10 1063.27 614.663   2
   2  -8 -10 245.561 230.474   2
   2   8  -9 645.683 430.534   2
   2  -8  -9 909.216 427.095   2
   2  -8  -8 7020.16 1144.34   2
   2   8  -8 6789.57 1210.12   2
   2  -8  -7 1777.14 546.001   2
   2   8  -7 1836.03 592.667   2
  -2  -8   6 9707.50 1258.47   2
  -2  -8   6 11553.7 1060.30   3
   2  -8  -6 12227.8 1317.18   2
   2   8  -6 12924.3 1397.35   2
  -2  -8   5 33901.6 2307.67   2
   2  -8  -5 34314.2 1532.18   1
   2   8  -4 8254.50 925.520   2
   2  -8  -4 7870.20 532.171   1
  -2  -8   4 7793.58 795.053   3
  -2  -8   4 5937.62 855.754   2
   2   8  -3 757.473 242.176   1
  -2  -8   3 349.480 120.724   3
   2   8  -3 656.070 214.212   3
   2   8  -3 816.152 290.356   2
  -2  -8   3 331.822 179.525   2
   2   8  -2 12456.8 1003.18   3
   2   8  -2 13465.0 1049.32   1
  -2  -8   2 14377.5 1068.58   3
  -2  -8   1 5988.57 527.998   2
   2   8  -1 6257.53 701.768   1
  -2   8   1 6440.85 413.620   1
   2  -8  -1 7241.68 640.540   3
  -2  -8   1 6753.58 693.194   3
  -2  -8   0 23703.3 1355.02   1
  -2   8   0 20932.9 903.408   1
   2   8   0 23887.5 1484.61   1
   2  -8   0 24345.1 1079.26   3
  -2  -8   0 21871.5 1351.31   3
  -2  -8  -1 30487.8 1654.47   3
  -2  -8  -1 28415.3 1560.71   1
   2  -8   1 28575.9 1033.97   3
  -2  -8  -2 11008.3 949.371   1
  -2  -8  -2 13905.8 1119.03   3
  -2  -8  -3 24969.1 1590.11   3
  -2  -8  -4 18165.9 1384.41   3
  -2  -8  -4 15959.5 918.348   2
  -2  -8  -5 3007.18 482.805   2
  -2  -8  -5 4800.68 745.303   3
  -2  -8  -6 9172.48 1108.90   3
  -2  -8  -6 6908.01 854.758   2
  -2  -8  -7 12321.3 1387.12   3
  -2   8  -7 14561.1 644.295   3
  -2  -8  -7 11328.5 1275.82   2
  -2   8  -8 2452.52 284.903   3
  -2  -8  -8 1051.12 363.424   2
  -2  -8  -8 1734.96 529.253   3
  -2  -8  -9 29925.0 2458.13   3
  -2  -8  -9 26936.0 2428.85   2
  -2  -8 -10 3006.05 855.019   2
  -2  -8 -10 3658.22 884.929   3
  -2  -8 -11 2877.95 847.304   2
  -2  -8 -11 2370.26 721.386   3
  -2  -8 -12-139.403 214.994   2
  -2  -8 -12 850.981 453.425   3
  -2  -8 -13 3840.79 1047.49   3
   2   9 -13-140.237 458.551   2
   2  -9 -13 353.733 368.231   2
   2   9 -12 3311.95 985.716   2
   2  -9 -12 3996.86 1086.13   2
   2   9 -11 7482.01 1475.74   2
   2  -9 -11 7506.34 1393.62   2
   2  -9 -10 92932.5 5111.85   2
   2   9 -10 89185.5 5300.83   2
   2   9  -9 1438.61 547.269   2
   2  -9  -9 1500.07 546.188   2
   2  -9  -8 59841.9 3653.34   2
   2   9  -8 60116.4 3795.37   2
   2  -9  -7 9226.15 1244.28   2
   2   9  -7 10356.6 1362.34   2
  -2  -9   6 2813.77 506.221   3
   2   9  -6 2312.62 608.132   2
   2  -9  -6 2682.45 398.267   1
  -2  -9   5 33972.4 1882.47   3
   2  -9  -5 33224.4 1478.58   1
  -2  -9   5 32952.6 2318.60   2
   2   9  -4 108399. 4307.77   1
   2  -9  -4 122873. 3610.03   1
  -2  -9   4 125405. 4296.51   3
  -2  -9   4 114216. 4760.38   2
   2   9  -3 10519.5 980.692   1
  -2  -9   3 10195.1 899.342   3
  -2  -9   3 9129.65 985.599   2
   2   9  -2 129035. 4456.51   1
  -2  -9   2 140101. 4498.97   3
   2   9  -1 29862.2 1688.54   1
  -2   9   1 29244.6 1148.17   1
   2   9  -1 25189.4 1488.56   3
   2  -9  -1 27300.1 1425.72   3
  -2  -9   1 24367.2 1334.63   2
  -2  -9   1 32022.6 1679.78   3
  -2   9   0 110.086 57.0302   1
   2  -9   0 213.851 94.3122   3
  -2  -9   0 171.771 89.8577   1
  -2  -9   0 118.730 100.632   3
   2   9   0 55.8142 126.849   1
  -2  -9   0 168.823 63.6216   2
   2  -9   1 48308.1 1543.22   3
  -2  -9  -1 53821.8 2374.33   3
  -2  -9  -2 119879. 4395.03   3
  -2  -9  -3 14065.2 1192.63   3
  -2  -9  -4 128209. 4303.64   3
  -2  -9  -4 88078.8 3081.61   2
  -2  -9  -5 24811.7 1785.66   3
  -2  -9  -5 19467.8 1308.99   2
  -2  -9  -6 348.277 206.280   2
  -2  -9  -6 319.491 174.738   3
  -2  -9  -7 14380.0 1520.73   3
  -2  -9  -7 14447.4 1439.58   2
  -2  -9  -8 56545.9 3343.93   3
  -2   9  -8 52009.7 1588.14   3
  -2  -9  -9 1240.46 426.254   2
  -2  -9  -9 1570.80 553.192   3
  -2  -9 -10 48741.4 3379.21   3
  -2  -9 -10 44595.5 3401.74   2
  -2  -9 -11 4382.83 1106.07   2
  -2  -9 -11 4849.89 1051.93   3
  -2  -9 -12 811.590 434.718   3
  -2  -9 -13 2091.87 780.551   3
   2  10 -13 13584.3 2357.40   2
   2 -10 -13 19756.2 2645.31   2
   2  10 -12 1187.40 643.814   2
   2 -10 -12 1276.11 544.628   2
   2  10 -11 1447.29 690.297   2
   2 -10 -11 1349.56 625.060   2
   2  10 -10 5596.24 1170.21   2
   2 -10 -10 4704.59 1071.06   2
   2  10  -9 4124.78 957.059   2
   2 -10  -9 3844.62 846.677   2
   2 -10  -8 33505.1 2579.85   2
   2  10  -8 25806.7 2402.34   2
   2 -10  -7 23528.6 1442.68   1
   2  10  -7 23087.5 2080.36   2
  -2 -10   6 1085.71 319.174   3
   2 -10  -6 955.577 224.681   1
   2 -10  -5 9035.06 704.734   1
  -2 -10   5 8758.03 886.396   3
  -2 -10   5 6799.01 1054.64   2
   2 -10  -4 24406.9 1186.58   1
   2  10  -4 25494.6 1694.03   1
  -2 -10   4 21247.8 1432.70   3
  -2 -10   4 21297.5 1790.02   2
  -2 -10   3 5829.28 845.174   2
   2  10  -3 7390.85 837.141   1
  -2 -10   3 6435.24 722.126   3
   2  10  -2 83188.0 3313.35   1
  -2 -10   2 82292.9 3189.84   3
  -2  10   1 14975.8 810.497   1
  -2 -10   1 15793.1 1166.62   3
   2  10  -1 16411.4 1255.27   1
   2 -10   0 517.310 140.637   3
  -2 -10   0 149.343 70.4576   2
   2  10   0 448.954 156.954   1
  -2 -10   0 1043.04 291.340   3
  -2  10   0 736.803 155.669   1
   2 -10   1 35087.3 1183.52   3
  -2 -10  -1 37130.3 1956.85   3
  -2 -10  -2 39363.8 2152.06   3
  -2 -10  -3 8168.85 916.211   3
  -2 -10  -4 34232.8 2031.72   3
  -2 -10  -4 26303.8 1322.53   2
  -2 -10  -5 989.383 348.352   3
  -2 -10  -5 652.017 203.557   2
  -2 -10  -6 954.119 360.439   3
  -2 -10  -6 516.969 239.955   2
  -2 -10  -7 39848.2 2640.85   3
  -2 -10  -7 32292.5 2263.48   2
  -2 -10  -8 21861.2 2028.33   3
  -2 -10  -8 19009.7 1851.51   2
  -2 -10  -9 3835.69 851.595   2
  -2 -10  -9 5096.38 989.650   3
  -2 -10 -10 6591.21 1227.29   2
  -2 -10 -10 5840.16 1117.65   3
  -2 -10 -11 628.063 267.540   3
  -2 -10 -12 1646.41 612.577   3
   2 -11 -12 18856.9 2454.63   2
   2 -11 -11 1113.47 591.486   2
   2 -11 -10 18046.6 2100.49   2
   2 -11  -9 907.592 422.852   2
   2 -11  -8 113129. 5342.58   2
   2 -11  -7 194.433 251.985   2
   2 -11  -7 121.326 68.2876   1
  -2 -11   6 12918.8 1166.60   3
   2 -11  -6 11616.8 892.435   1
   2  11  -5 7357.98 933.325   1
   2 -11  -5 6467.93 610.644   1
  -2 -11   5 6230.87 760.115   3
  -2 -11   5 5699.38 976.253   2
   2  11  -4 66075.8 3082.83   1
  -2 -11   4 68509.4 2875.68   3
  -2 -11   3 2158.53 416.649   3
   2  11  -3 2815.94 517.313   1
  -2 -11   3 2335.63 520.173   2
   2  11  -2 110370. 4159.55   1
  -2 -11   2 123228. 4131.65   3
  -2 -11   1 450.254 181.591   2
  -2  11   1 583.474 152.890   1
  -2 -11   1 543.485 224.857   3
   2 -11   0 1092.08 212.212   3
  -2 -11   0 1110.82 318.648   3
   2  11   0 1138.37 333.330   1
  -2  11   0 983.414 210.019   1
  -2 -11   0 419.361 140.245   2
  -2  11  -1 10120.8 715.631   1
   2 -11   1 10075.2 467.518   3
  -2 -11  -1 9494.66 937.656   3
  -2 -11  -2 77776.4 3426.53   3
  -2 -11  -3 1341.19 368.943   3
  -2 -11  -3 574.069 127.073   2
  -2 -11  -4 52091.1 2620.12   3
  -2 -11  -4 35604.7 1687.57   2
  -2 -11  -5 388.953 264.343   3
  -2 -11  -5 10.9864 136.835   2
  -2 -11  -6 13946.0 1441.78   3
  -2 -11  -6 9404.93 1045.44   2
  -2 -11  -7 3165.64 746.709   3
  -2 -11  -7 2699.92 599.487   2
  -2 -11  -8 58766.2 3527.78   3
  -2 -11  -8 51724.8 3260.45   2
  -2 -11  -9 148.777 189.721   2
  -2 -11  -9 578.523 298.252   3
  -2 -11 -10 12408.2 1688.55   3
  -2 -11 -11-113.488 185.480   3
  -2 -11 -12 9888.77 1698.19   3
   2 -12 -12 23371.0 2713.33   2
   2 -12 -11-47.6909 302.420   2
   2 -12 -10 156.270 211.481   2
   2 -12  -9 2399.35 705.438   2
   2 -12  -8 11072.6 1479.48   2
   2 -12  -7 32907.4 2487.60   2
   2 -12  -6 65002.7 2559.64   1
  -2 -12   6 53078.7 2748.62   3
   2  12  -5 6689.11 910.089   1
   2 -12  -5 6823.66 659.324   1
  -2 -12   5 6401.35 779.793   3
  -2 -12   5 4888.48 903.875   2
   2  12  -4 15.9721 145.256   1
  -2 -12   4 54.5472 151.467   2
  -2 -12   3 10893.2 982.942   3
   2  12  -3 8601.28 990.530   1
  -2 -12   3 7303.76 1030.95   2
  -2 -12   2 5698.90 788.045   2
   2  12  -2 7358.92 892.398   1
  -2 -12   2 6794.70 795.085   3
   2  12  -1 14659.1 1276.21   1
  -2  12   1 14038.2 890.530   1
  -2 -12   1 14257.3 1153.26   3
  -2 -12   1 11127.2 1036.82   2
   2 -12   0 119671. 3460.67   3
   2  12   0 115774. 4420.71   1
  -2  12   0 107511. 3427.98   1
  -2 -12   0 113042. 4084.27   3
   2 -12   1 29892.7 969.174   3
   2 -12   1 27506.8 985.199   3
  -2 -12  -1 30681.4 1816.90   3
  -2 -12  -2 1751.96 256.708   2
  -2 -12  -2 1127.55 183.927   2
  -2 -12  -3 2168.16 511.488   3
  -2 -12  -3 1276.99 226.997   2
  -2 -12  -4 5162.77 802.103   3
  -2 -12  -4 3171.59 425.955   2
  -2 -12  -5 1805.77 496.589   3
  -2 -12  -5 1068.10 278.813   2
  -2 -12  -6 69341.1 3523.82   3
  -2 -12  -6 52134.3 2807.21   2
  -2 -12  -7 36364.9 2596.74   3
  -2 -12  -7 31123.7 2248.02   2
  -2 -12  -8 3743.46 826.751   3
  -2 -12  -8 3173.60 756.733   2
  -2 -12  -9-98.3892 124.036   3
  -2 -12 -10 683.225 374.209   3
  -2 -12 -11 1001.21 515.403   3
   2 -13 -12 1024.37 434.491   2
   2 -13 -11 919.868 505.003   2
   2 -13 -10 10639.8 1646.34   2
   2 -13  -9 718.764 438.400   2
   2 -13  -8 33296.7 2654.19   2
   2 -13  -7 25287.8 2177.16   2
   2 -13  -6 1586.05 355.718   1
  -2 -13   6 2271.63 499.935   3
   2  13  -6 1966.23 541.495   1
   2 -13  -5 8745.76 791.101   1
   2  13  -5 8639.66 1090.94   1
  -2 -13   5 7575.53 870.693   3
   2  13  -4 22776.3 1729.36   1
  -2 -13   4 23363.3 1573.35   3
   2  13  -3 4605.74 749.586   1
  -2 -13   3 4032.06 764.339   2
  -2 -13   3 4880.02 662.259   3
   2  13  -2 34679.1 2113.32   1
  -2 -13   2 32634.1 1910.39   3
   2  13  -1 37930.3 2270.23   1
  -2  13   1 38263.9 1719.07   1
  -2 -13   1 34351.6 2076.55   2
  -2 -13   1 37828.1 2075.60   3
  -2 -13   0 536.434 268.783   3
  -2 -13   0 170.038 121.979   2
   2  13   0 311.954 264.675   1
   2 -13   1 10100.1 464.530   3
  -2 -13  -1 8445.00 752.619   2
   2 -13   1 10112.3 495.363   3
  -2 -13  -1 10410.8 1052.33   3
  -2 -13  -2 25555.1 1174.78   2
  -2  13  -2 30525.8 1547.59   1
  -2 -13  -2 32120.8 2036.02   3
  -2 -13  -2 25121.7 1296.18   2
  -2 -13  -3 5710.12 542.181   2
  -2 -13  -3 8534.33 1003.95   3
  -2 -13  -4 22841.3 1766.69   3
  -2 -13  -4 16723.0 1130.80   2
  -2 -13  -5 40352.3 2458.56   3
  -2 -13  -5 28056.9 1732.75   2
  -2 -13  -6 2027.82 565.600   3
  -2 -13  -6 1023.25 308.993   2
  -2 -13  -7 588.160 330.132   3
  -2 -13  -7 260.789 218.487   2
  -2 -13  -8 12961.0 1627.26   3
  -2 -13  -9 997.466 449.853   3
  -2 -13 -10 6361.93 1213.82   3
  -2 -13 -11 10793.8 1690.98   3
   2 -14 -11 5288.72 1220.25   2
   2 -14 -10-175.543 287.882   2
   2 -14  -9 1505.65 574.926   2
   2 -14  -8 8821.20 1385.04   2
  -2 -14   7 6741.51 886.946   3
   2  14  -6 129038. 5383.89   1
  -2 -14   6 130181. 4893.69   3
  -2 -14   5 14607.4 1251.63   3
   2  14  -5 14884.4 1478.52   1
   2  14  -4 193.177 139.990   1
  -2 -14   4 196.252 167.945   3
  -2 -14   4 85.8613 280.950   2
  -2 -14   3 194.088 137.236   3
   2  14  -3-46.0825 236.469   1
  -2 -14   3 41.8047 145.235   2
  -2 -14   2 1657.86 401.109   3
  -2 -14   2 1700.18 472.421   2
   2  14  -2 1925.65 478.169   1
   2  14  -1 12827.9 1290.28   1
  -2 -14   1 10855.5 1159.44   2
  -2 -14   1 10932.8 1066.99   3
   2 -14   0 182476. 5037.32   3
  -2 -14   0 174215. 6005.46   3
  -2  14  -1 14835.4 1017.08   1
  -2 -14  -1 11363.7 946.337   2
   2 -14   1 12570.4 569.141   3
  -2 -14  -1 15331.0 1307.15   3
   2 -14   1 11752.4 523.022   3
  -2 -14  -2 537.517 154.192   2
  -2  14  -2 369.051 123.612   1
  -2 -14  -2 575.278 195.679   2
  -2 -14  -2 501.723 256.412   3
  -2 -14  -3 1839.04 488.216   3
  -2 -14  -3 1538.53 275.902   2
  -2 -14  -4 402.572 154.189   2
  -2 -14  -4 415.999 248.003   3
  -2 -14  -5 7240.76 1029.55   3
  -2 -14  -5 4880.90 665.487   2
  -2 -14  -6 109347. 4964.00   3
  -2 -14  -7 11723.8 1489.70   3
  -2 -14  -8 1724.93 589.011   3
  -2 -14  -9 4093.01 962.161   3
  -2 -14 -10 703.893 321.203   3
   2 -15 -11 2715.70 878.144   2
   2 -15 -10 14621.7 1970.37   2
   2 -15  -9 2934.33 900.099   2
   2 -15  -8 478.092 398.681   2
   2  15  -7 11751.3 1439.73   1
  -2 -15   7 12708.1 1252.44   3
   2  15  -6 6284.03 1005.44   1
  -2 -15   6 6458.00 858.027   3
   2  15  -5 7974.10 1087.21   1
  -2 -15   5 8423.06 956.437   3
  -2 -15   4 10756.5 1071.50   3
   2  15  -4 10899.6 1268.91   1
   2  15  -3 1475.49 418.890   1
  -2 -15   3 1297.08 357.735   3
  -2 -15   3 1107.69 494.308   2
   2  15  -2 4813.31 793.180   1
  -2 -15   2 3917.91 777.565   2
  -2 -15   2 3890.50 631.613   3
   2  15  -1 40860.6 2496.83   1
  -2  15   1 38954.5 1875.24   1
  -2 -15   1 37978.3 2172.40   3
   2  15   0 1979.95 545.584   1
  -2  15   0 1674.75 346.606   1
  -2 -15   0 1630.11 430.404   3
  -2 -15   0 1607.03 390.708   2
   2 -15   0 1319.40 219.687   3
  -2 -15  -1 3142.21 519.399   2
  -2  15  -1 4974.30 593.650   1
  -2 -15  -1 4653.60 738.415   3
   2 -15   1 4037.59 280.408   3
  -2 -15  -2 1260.53 263.857   2
  -2 -15  -2 1234.81 380.952   3
  -2  15  -2 1320.39 315.424   1
  -2 -15  -3 1836.77 496.390   3
  -2 -15  -3 1294.13 275.037   2
  -2 -15  -4 9196.30 1162.83   3
  -2 -15  -5 29245.5 2219.25   3
  -2 -15  -6 931.090 397.175   3
  -2 -15  -7 222.549 83.6472   3
  -2 -15  -8 413.514 352.489   3
  -2 -15  -9 416.073 370.630   3
  -2 -15 -10 8129.63 1448.25   3
   2 -16 -10 2574.99 880.995   2
   2 -16  -9 12627.8 1770.45   2
   2 -16  -8 26818.3 2470.41   2
   2  16  -8 22175.4 2116.89   1
   2  16  -7 312.179 238.611   1
  -2 -16   7 369.830 218.750   3
  -2 -16   6 72870.0 3377.01   3
   2  16  -6 71523.5 3864.20   1
   2  16  -5 10614.4 1310.03   1
  -2 -16   5 12885.2 1214.47   3
   2  16  -4 12969.3 1429.11   1
  -2 -16   4 13540.6 1229.75   3
   2  16  -3 4187.00 768.516   1
  -2 -16   3 5541.80 763.625   3
   2  16  -2 28124.7 2112.42   1
  -2 -16   2 31585.7 1994.44   3
   2 -16  -1 5234.10 554.858   3
   2  16  -1 5070.99 870.365   1
  -2  16   1 5207.22 645.615   1
  -2 -16   1 5862.60 808.136   3
   2 -16   0 73959.6 2487.93   3
  -2  16   0 75882.9 3027.47   1
   2  16   0 82751.9 3944.59   1
  -2 -16   0 78461.4 3474.19   3
  -2  16  -1 6488.66 716.765   1
  -2 -16  -1 7856.08 986.313   3
  -2  16  -2 19779.5 1343.87   1
  -2 -16  -2 19761.7 1662.18   3
  -2 -16  -3 2691.70 604.129   3
  -2  16  -3 1724.86 378.958   1
  -2 -16  -4 15517.4 1559.77   3
  -2 -16  -5 11924.9 1406.45   3
  -2 -16  -6 43386.4 2926.05   3
  -2 -16  -7 228.291 275.577   3
  -2 -16  -8 12870.3 1650.92   3
  -2 -16  -9 7761.45 1367.55   3
   2 -17 -10-249.931 381.031   2
   2 -17  -9 16044.9 2079.12   2
   2  17  -9 15714.3 1851.79   1
   2 -17  -8 3688.23 907.647   2
   2  17  -8 2636.99 727.782   1
  -2 -17   7 444.108 253.004   3
   2  17  -7 807.779 413.167   1
   2  17  -6 6101.64 1027.19   1
  -2 -17   6 5970.16 849.840   3
  -2 -17   5 1337.08 365.604   3
   2  17  -5 1450.96 497.165   1
  -2 -17   4 359.140 205.873   3
   2  17  -4-237.075 257.059   1
  -2 -17   3 46999.3 2509.00   3
   2  17  -3 42373.2 2749.19   1
  -2 -17   2 1551.67 431.583   3
   2  17  -2 1577.79 464.763   1
   2 -17  -2 1548.77 343.404   3
  -2 -17   1 1016.91 338.733   3
   2 -17  -1 1101.72 249.299   3
   2  17  -1 1233.25 462.571   1
   2  17   0 453.252 213.800   1
  -2 -17   0 210.921 164.141   3
  -2  17   0 571.268 172.893   1
  -2  17  -1 6184.87 727.790   1
  -2 -17  -1 6035.93 883.655   3
  -2 -17  -2 3855.71 717.798   3
  -2  17  -2 3377.64 558.510   1
  -2  17  -3 39228.3 2136.20   1
  -2 -17  -3 36291.2 2532.29   3
  -2  17  -4 199.678 179.746   1
  -2 -17  -4 251.998 88.6378   3
  -2 -17  -5 2216.94 633.286   3
  -2 -17  -6 267.375 131.903   3
  -2 -17  -7 3741.03 842.551   3
  -2 -17  -8 4066.78 927.164   3
  -2 -17  -9 16107.3 1971.53   3
   2 -18  -9 577.771 430.847   2
   2 -18  -8 32451.3 2871.34   2
   2  18  -8 35378.2 2843.51   1
  -2 -18   7 1363.81 447.712   3
   2  18  -7 699.220 377.969   1
   2  18  -6 19444.6 1951.86   1
  -2 -18   6 21750.5 1702.67   3
  -2 -18   5 498.135 270.200   3
   2  18  -5 655.771 342.713   1
   2  18  -4 39421.0 2729.37   1
  -2 -18   4 39587.7 2347.48   3
  -2 -18   3 688.240 297.480   3
   2  18  -3 599.696 311.376   1
   2 -18  -2 56187.4 2466.66   3
  -2 -18   2 52214.9 2887.12   3
   2  18  -1 3098.60 725.081   1
  -2 -18   1 2230.51 521.936   3
  -2  18   0 18771.0 1386.99   1
   2  18   0 19899.5 1870.07   1
  -2 -18   0 16546.8 1494.49   3
  -2 -18  -1 397.966 278.689   3
  -2  18  -1 989.296 286.309   1
  -2  18  -2 57114.4 2659.85   1
  -2 -18  -2 49446.9 2912.71   3
  -2  18  -3 665.508 275.381   1
  -2 -18  -3 1053.91 409.378   3
  -2  18  -4 35530.7 2167.45   1
  -2 -18  -4 33113.4 2469.76   3
  -2 -18  -5 1373.26 488.641   3
  -2 -18  -6 11660.7 1497.30   3
  -2 -18  -7 832.610 488.152   3
  -2 -18  -8 29851.1 2647.08   3
   2 -19  -8 362.682 243.203   2
   2  19  -7 337.935 312.196   1
  -2 -19   7 267.752 114.484   3
  -2 -19   6-62.4228 117.025   3
   2  19  -6 194.139 183.225   1
  -2 -19   5 212.276 157.327   3
   2  19  -5 332.509 291.868   1
  -2 -19   4 16258.3 1458.83   3
   2  19  -4 16093.8 1721.05   1
  -2 -19   3 39846.9 2405.10   3
   2  19  -3 46648.4 3031.67   1
   2  19  -2 5976.16 1040.06   1
  -2 -19   2 6447.28 923.423   3
  -2 -19   1 553.612 245.330   3
   2  19  -1 518.680 337.602   1
  -2 -19   0 340.812 221.912   3
  -2  19   0 494.100 232.568   1
   2  19   0 483.929 292.354   1
  -2  19  -1 4374.50 667.344   1
  -2 -19  -1 3888.48 720.134   3
  -2  19  -2 7772.47 897.581   1
  -2 -19  -2 8644.61 1156.22   3
  -2  19  -3 46326.4 2522.17   1
  -2 -19  -3 49331.1 3037.95   3
  -2  19  -4 8566.32 1016.12   1
  -2 -19  -4 8299.33 1253.69   3
  -2  19  -5 2778.75 600.852   1
  -2 -19  -5 2126.18 670.943   3
  -2 -19  -6 1727.98 530.390   3
  -2 -19  -7 3627.59 872.055   3
   2 -20  -8 6354.30 1332.42   2
   2  20  -6 18337.3 1987.88   1
  -2 -20   6 15600.6 1491.46   3
  -2 -20   5 2675.63 587.901   3
   2 -20  -5 3653.36 712.321   3
   2  20  -5 3130.56 770.639   1
  -2 -20   4 13904.9 1388.01   3
   2  20  -4 16082.3 1768.75   1
  -2 -20   3-0.92738 129.040   3
   2  20  -3 123.010 218.692   1
   2  20  -2 12172.4 1526.41   1
  -2 -20   2 11311.5 1271.21   3
  -2 -20   1 401.581 217.004   3
   2  20  -1 698.861 388.083   1
  -2  20   0 17850.0 1467.55   1
  -2 -20   0 15101.9 1488.71   3
  -2 -20  -1 587.030 311.415   3
  -2  20  -1 121.686 75.1774   1
  -2  20  -2 14580.5 1303.55   1
  -2 -20  -2 14401.9 1529.00   3
  -2 -20  -3 2098.78 583.910   3
  -2  20  -3 2815.96 598.660   1
  -2  20  -4 7593.59 980.695   1
  -2 -20  -4 8189.68 1247.59   3
  -2 -20  -5 32.8188 331.007   3
  -2  20  -5 381.952 274.781   1
  -2  20  -6 12953.8 1389.93   1
  -2 -20  -6 9238.25 1423.05   3
  -2 -21   5 9639.43 1135.50   3
   2  21  -5 8354.02 1323.38   1
  -2 -21   4 32598.7 2262.56   3
   2  21  -4 37740.5 2872.42   1
   2  21  -3 9390.13 1381.35   1
  -2 -21   3 7995.82 1038.30   3
   2  21  -2 10660.4 1493.44   1
  -2 -21   2 10399.4 1228.19   3
   2  21  -1 10337.9 1461.27   1
  -2 -21   1 8572.58 1119.26   3
  -2 -21   0 176.817 254.073   3
  -2  21   0-116.288 176.980   1
  -2  21  -1 5708.37 834.555   1
  -2 -21  -1 5826.93 936.503   3
  -2 -21  -2 15182.6 1602.05   3
  -2  21  -2 14125.8 1336.56   1
  -2  21  -3 8840.63 1055.54   1
  -2 -21  -3 6781.52 1083.00   3
  -2  21  -4 25206.1 1937.02   1
  -2 -21  -4 25246.5 2264.04   3
  -2  21  -5 16139.2 1542.29   1
  -2 -21  -5 13872.1 1765.46   3
  -2  21  -6 1557.58 519.159   1
  -2  21  -7 129.954 160.511   1
  -2 -22   4 472.651 307.450   3
  -2 -22   3 726.099 310.461   3
   2  22  -3 698.705 408.046   1
  -2 -22   2 3169.51 692.287   3
   2  22  -2 3536.02 895.936   1
  -2 -22   1 573.227 333.402   3
   2  22  -1 889.598 451.945   1
  -2 -22   0 28020.9 2176.03   3
  -2 -22  -1 4068.56 806.441   3
  -2  22  -1 4910.39 800.510   1
  -2 -22  -2 430.920 290.903   3
  -2  22  -2 339.897 216.249   1
  -2 -22  -3 2387.73 655.356   3
  -2  22  -3 2305.41 555.496   1
  -2 -22  -4 1841.23 623.175   3
  -2  22  -4 1370.96 435.286   1
  -2  22  -5 1638.66 488.537   1
  -2  22  -6 18079.3 1733.59   1
  -2  22  -7 2327.79 634.208   1
  -2 -23   2 19729.0 1772.70   3
  -2 -23   1 21619.7 1948.39   3
  -2 -23   0 709.986 270.728   3
  -2 -23  -1 16875.2 1728.67   3
  -2 -23  -2 18853.4 1851.90   3
  -2 -23  -3 1240.67 467.371   3
  -2  23  -4 13532.1 1436.33   1
  -2  23  -5 18424.0 1762.85   1
  -2 -24   1 4044.27 832.480   3
  -2 -24   0 4725.63 906.875   3
  -2 -24  -1 7632.59 1147.96   3
  -2 -24  -2 44.6685 232.019   3
   3   0 -13 455.299 331.936   2
   3   0 -12 690.224 527.335   2
   3   0 -11 41521.5 3537.82   2
   3   0 -10 1153.44 667.170   2
   3   0  -9 1913.91 701.645   2
   3   0  -8 509.985 404.467   2
   3   0  -7 3303.73 759.214   2
   3   0  -6-77.5762 192.009   2
   3   0  -5 54702.0 2892.83   2
   3   0  -4 774.280 342.381   2
   3   0  -4 342.895 136.299   1
   3   0  -3 4514.13 405.027   1
   3   0  -3 4541.81 656.517   2
  -3   0   3 4039.18 568.298   3
  -3   0   2 154.615 117.401   3
   3   0  -2 286.368 175.599   3
   3   0  -1 2249.88 400.216   3
  -3   0   1 3018.44 447.949   3
  -3   0   0 41.4496 27.6528   1
  -3   0   0 34.8379 73.1644   3
   3   0   0 3.36462 57.4591   3
  -3   0  -1 37890.2 1599.40   1
  -3   0  -1 43317.2 1929.32   3
   3   0   1 39678.7 1842.65   3
  -3   0  -2-1.89207 40.1768   3
   3   0   2 787.335 221.583   3
   3   0   3 36325.2 1777.25   3
  -3   0  -3 38791.9 1829.74   3
   3   0   4 62.4321 70.7098   2
  -3   0  -4 23.8480 118.560   3
  -3   0  -5 5306.18 651.980   3
  -3   0  -6 65.5340 121.421   3
   3   0   6 147.273 193.503   2
  -3   0  -7 15754.9 1282.74   3
  -3   0  -8 124.249 126.707   3
  -3   0  -9 53194.8 2851.34   3
  -3   0 -10 122.566 247.239   3
  -3   0 -11 5074.39 896.186   3
  -3   0 -12-182.172 200.560   3
  -3   0 -13 2060.18 619.154   3
   3   1 -13-267.798 368.186   2
   3  -1 -13 758.549 412.274   2
   3   1 -12 586.103 436.202   2
   3  -1 -12-218.155 405.304   2
   3   1 -11 1269.92 669.408   2
   3  -1 -11 1948.83 751.353   2
   3  -1 -10 162514. 7558.37   2
   3   1 -10 155706. 7381.46   2
   3   1  -9 7884.72 1357.62   2
   3  -1  -9 8183.33 1365.89   2
   3   1  -8 34416.4 2779.16   2
   3  -1  -8 38702.4 2907.61   2
   3   1  -7 368.256 188.263   2
   3  -1  -7 728.051 324.294   2
   3   1  -6 128.020 103.107   2
   3  -1  -6 565.176 332.176   2
   3   1  -5 8575.90 1063.95   2
   3  -1  -5 9620.37 1145.88   2
   3   1  -4 224150. 7307.98   2
   3  -1  -4 233492. 7354.47   2
   3   1  -4 226173. 6334.82   1
   3  -1  -4 216211. 6016.29   1
   3   1  -3 17566.0 1319.60   2
  -3  -1   3 14897.4 1170.20   3
   3   1  -3 16707.5 934.941   1
   3   1  -2 117127. 3912.06   2
  -3   1   2 102436. 3773.94   3
  -3  -1   2 100712. 3768.56   3
   3  -1  -2 111706. 3962.84   3
   3   1  -2 102650. 3869.28   3
  -3   1   1 1788.91 345.152   3
  -3  -1   1 1796.90 365.669   3
   3   1  -1 2186.36 401.043   3
   3  -1  -1 2156.93 384.889   3
  -3  -1   0 375.169 112.575   1
  -3   1   0 387.171 96.0421   1
  -3  -1   0 462.283 157.890   3
   3  -1   0 380.084 137.724   3
   3   1   0 596.859 196.181   3
  -3   1  -1 20770.9 1056.94   1
  -3   1  -1 22208.6 1258.73   3
  -3  -1  -1 25147.9 1438.45   3
  -3  -1  -1 21219.0 1125.80   1
   3  -1   1 20882.0 1238.14   3
   3   1   1 21475.2 1292.15   3
   3  -1   2 117149. 4046.23   3
   3   1   2 125437. 4216.84   3
  -3  -1  -2 121287. 4130.66   1
  -3   1  -2 140178. 4297.11   3
  -3  -1  -2 137445. 4373.95   3
   3  -1   3 12683.7 925.964   3
   3   1   3 13887.5 1015.42   3
  -3   1  -3 11833.4 905.004   3
  -3  -1  -3 13914.2 1029.37   3
   3   1   4 139159. 4866.84   2
  -3   1  -4 138892. 4564.29   3
  -3  -1  -4 146284. 4825.16   3
   3  -1   5 2835.45 583.431   2
   3   1   5 2533.38 503.808   2
  -3   1  -5 2876.15 455.463   3
  -3  -1  -5 2871.24 501.177   3
  -3   1  -6 2640.19 476.728   3
  -3  -1  -6 2384.42 466.978   3
   3  -1   6 2527.35 581.813   2
   3   1   7 7103.78 968.870   2
  -3   1  -7 7222.18 821.159   3
  -3  -1  -7 6624.34 838.237   3
  -3  -1  -8 35030.1 2180.11   3
  -3   1  -8 36976.8 2108.66   3
  -3   1  -9 4361.17 713.723   3
  -3  -1  -9 3867.34 713.287   3
  -3  -1 -10 89265.6 4197.79   3
  -3   1 -10 85986.1 3908.00   3
  -3   1 -11 176.516 209.025   3
  -3  -1 -11 94.6051 249.353   3
  -3   1 -12 437.262 262.960   3
  -3  -1 -12 601.433 377.260   3
  -3  -1 -13 1644.20 491.906   3
   3   2 -13 1046.90 295.289   2
   3  -2 -13 1892.57 916.633   2
   3   2 -12 3281.77 1100.06   2
   3  -2 -12 3772.71 1147.30   2
   3   2 -11 17827.7 2302.14   2
   3  -2 -11 19408.1 2421.80   2
   3   2 -10 8692.67 1517.47   2
   3  -2 -10 9755.12 1616.52   2
   3   2  -9 1617.85 600.552   2
   3  -2  -9 1301.20 555.039   2
   3  -2  -8 34860.2 2713.35   2
   3   2  -8 37161.9 2849.92   2
   3   2  -7 5720.48 1014.76   2
   3  -2  -7 4156.87 842.481   2
   3   2  -6 130.622 203.658   2
   3  -2  -6 91.4465 131.819   2
   3  -2  -5 41204.0 2510.26   2
   3   2  -5 45409.1 2596.14   2
   3   2  -4 36323.3 2150.09   2
   3  -2  -4 40651.3 2269.60   2
   3   2  -4 38843.8 1724.20   1
  -3  -2   4 36968.0 2025.09   3
   3  -2  -4 36077.8 1252.62   1
   3   2  -3 14032.8 1154.93   2
  -3  -2   3 13098.4 1070.04   3
   3  -2  -3 12960.0 1134.40   3
   3   2  -3 12688.6 860.319   1
   3   2  -2 95477.9 3425.40   2
   3   2  -2 87433.5 3028.77   1
  -3   2   2 89908.3 3316.53   3
  -3  -2   2 80477.9 3274.11   3
   3  -2  -2 87326.1 3415.15   3
  -3  -2   1 2237.65 404.834   3
   3   2  -1 2470.97 397.077   2
  -3   2   1 2178.59 382.410   3
   3   2  -1 2267.15 423.969   3
   3  -2  -1 2766.07 430.745   3
  -3   2   0 224.368 111.884   3
  -3   2   0 484.545 97.8659   1
  -3  -2   0 319.994 144.164   3
   3  -2   0 415.223 139.676   3
   3   2   0 303.853 129.146   3
  -3  -2   0 283.405 97.3317   1
   3   2   1 42262.1 1998.53   3
  -3   2  -1 43157.6 1646.78   1
  -3   2  -1 45633.8 1929.43   3
  -3  -2  -1 46900.4 2142.37   3
  -3  -2  -1 42453.5 1799.25   1
   3  -2   1 43957.2 1906.43   3
   3  -2   2 56224.1 2258.07   3
   3   2   2 59923.7 2512.05   3
  -3  -2  -2 58476.2 2433.74   1
  -3   2  -2 64151.0 2396.53   3
  -3  -2  -2 60740.5 2553.28   3
  -3  -2  -3 38388.8 1906.22   3
   3  -2   3 33125.7 1607.09   3
   3   2   3 35243.4 1826.13   3
   3   2   3 35324.9 1732.63   2
  -3   2  -3 37517.2 1701.04   3
   3   2   4 52304.9 2386.08   2
  -3   2  -4 54049.2 2220.55   3
  -3  -2  -4 57844.8 2541.76   3
   3  -2   5 2061.33 512.552   2
   3   2   5 2426.92 468.554   2
  -3   2  -5 2526.22 404.468   3
  -3  -2  -5 3020.40 558.060   3
  -3   2  -6 510.537 187.778   3
  -3  -2  -6 321.094 178.470   3
   3   2   7 22188.7 1717.45   2
  -3   2  -7 24490.1 1537.69   3
  -3  -2  -7 22925.1 1685.99   3
  -3  -2  -8 31270.3 2113.00   3
  -3   2  -8 33534.7 1910.47   3
  -3  -2  -9 25314.5 1968.06   3
  -3   2  -9 26400.4 1758.19   3
  -3   2 -10 11151.5 1159.94   3
  -3  -2 -10 10216.2 1285.51   3
  -3   2 -11 496.057 270.119   3
  -3  -2 -11 345.496 252.612   3
  -3  -2 -12 1710.34 540.639   3
  -3  -2 -13 9127.15 1431.82   3
  -3  -2 -14 4267.47 1009.99   3
   3   3 -13-154.652 365.172   2
   3  -3 -13-176.017 287.885   2
   3   3 -12 13757.1 2139.30   2
   3  -3 -12 11941.1 1980.28   2
   3  -3 -11 3462.54 1069.41   2
   3   3 -11 2583.15 858.416   2
   3   3 -10 41646.6 3486.85   2
   3  -3 -10 46232.0 3543.90   2
   3   3  -9 14525.0 1861.01   2
   3  -3  -9 15455.7 1851.88   2
   3  -3  -8 75041.8 4105.29   2
   3   3  -8 68033.0 4134.00   2
   3   3  -7 1146.02 487.116   2
   3  -3  -7 854.508 387.579   2
   3  -3  -6 14215.6 1498.82   2
   3   3  -6 12441.1 1414.31   2
   3  -3  -5 28376.7 2001.87   2
   3   3  -5 28223.5 1591.71   1
   3   3  -5 30266.1 2102.77   2
   3   3  -4 85974.8 3118.56   1
   3   3  -4 92726.6 3791.62   2
   3   3  -3 51084.5 2406.44   2
  -3  -3   3 46497.0 2282.66   3
   3  -3  -3 47104.4 2351.89   3
   3   3  -3 48369.2 2043.39   1
   3   3  -2 105899. 3700.44   2
   3   3  -2 103331. 3541.94   1
  -3  -3   2 105440. 3836.22   3
   3  -3  -2 98423.3 3812.06   3
   3   3  -1 2856.18 422.539   2
  -3   3   1 3475.20 473.218   3
  -3  -3   1 3295.17 490.280   3
   3  -3  -1 3720.37 504.331   3
   3   3   0 3183.85 375.557   2
  -3  -3   0 2419.32 343.212   1
  -3  -3   0 2817.97 472.244   3
   3   3   0 2220.57 405.896   3
  -3   3   0 2681.14 211.739   1
  -3   3   0 2087.39 350.362   3
   3  -3   0 2910.60 410.370   3
   3   3   1 40548.5 1987.15   3
  -3   3  -1 42496.4 1839.19   3
  -3  -3  -1 40903.4 1818.05   1
  -3  -3  -1 45497.0 2124.06   3
   3  -3   1 42406.1 1835.92   3
   3  -3   2 112508. 3539.73   3
  -3  -3  -2 107153. 3789.42   1
  -3   3  -2 108174. 3546.85   3
  -3  -3  -2 106285. 3899.55   3
   3  -3   3 35344.5 1592.69   3
   3   3   3 35280.3 1611.32   2
  -3  -3  -3 33557.8 1866.57   1
  -3   3  -3 36180.5 1657.34   3
  -3  -3  -3 38632.1 1976.53   3
   3   3   4 67974.0 2762.04   2
  -3   3  -4 73078.3 2662.30   3
   3  -3   5 1906.51 469.440   2
   3   3   5 2345.60 420.660   2
  -3   3  -5 2529.86 385.393   3
  -3  -3  -5 3229.19 608.779   3
   3   3   6 4601.70 653.885   2
  -3   3  -6 5680.42 625.030   3
  -3  -3  -6 5306.18 773.020   3
  -3   3  -7 27063.2 1561.64   3
  -3  -3  -7 23084.1 1770.23   3
  -3  -3  -8 56356.5 3095.54   3
  -3   3  -8 64004.8 2752.01   3
  -3  -3  -9 11687.1 1340.34   3
  -3   3  -9 11877.3 1090.13   3
  -3   3 -10 29025.6 1888.33   3
  -3  -3 -10 24707.0 2141.44   3
  -3   3 -11 780.055 288.280   3
  -3  -3 -11 1655.74 573.113   3
  -3  -3 -12 5341.78 1085.31   3
  -3  -3 -13 2932.09 856.659   3
  -3  -3 -14 17175.2 2092.30   3
   3   4 -13 19243.7 2673.67   2
   3  -4 -13 19644.1 2634.87   2
   3   4 -12 25469.4 2998.01   2
   3  -4 -12 22946.2 2753.25   2
   3   4 -11 490.752 333.458   2
   3  -4 -11 587.333 420.839   2
   3   4 -10 3616.95 988.503   2
   3  -4 -10 4958.34 1083.79   2
   3  -4  -9 16007.8 1882.93   2
   3   4  -9 18570.1 2151.19   2
   3  -4  -8 48499.4 3225.98   2
   3   4  -8 49701.1 3428.28   2
   3  -4  -7 28858.1 2301.17   2
   3   4  -7 30095.1 2421.77   2
   3  -4  -6 47825.2 2972.70   2
   3   4  -6 56611.5 3222.34   2
   3  -4  -5 6226.83 905.840   2
   3   4  -5 5277.03 660.495   1
  -3  -4   5 5953.52 774.752   3
   3   4  -5 6148.46 923.530   2
   3   4  -4 21278.3 1313.80   1
  -3  -4   4 20120.7 1442.20   3
   3   4  -4 19516.1 1574.73   2
  -3  -4   3 22831.9 1510.05   3
   3  -4  -3 25198.8 1627.57   3
   3   4  -3 23638.7 1371.15   1
   3   4  -3 27034.5 1693.18   2
   3   4  -2 63004.7 2559.78   1
   3  -4  -2 61787.0 2708.90   3
  -3  -4   2 58695.0 2674.40   3
   3   4  -2 66217.2 2644.62   2
  -3  -4   1 7992.10 811.106   3
   3  -4  -1 8826.32 793.153   3
   3   4  -1 9620.70 734.766   2
   3   4   0 61506.0 2039.86   2
  -3  -4   0 59687.2 2265.21   1
  -3   4   0 52867.7 1549.95   1
  -3   4   0 58230.3 2265.77   3
  -3  -4   0 61405.0 2625.50   3
   3  -4   0 54013.7 2194.67   3
   3   4   1 27605.4 1091.27   2
  -3  -4  -1 24121.0 1373.89   1
  -3  -4  -1 29049.0 1661.53   3
   3  -4   1 29910.8 1419.51   3
  -3   4  -1 25225.2 1312.22   3
  -3  -4  -2 34030.3 1763.97   1
   3  -4   2 35505.1 1518.09   3
   3   4   2 33160.8 1312.87   2
  -3   4  -2 36006.3 1564.63   3
  -3  -4  -2 35424.4 1878.28   3
   3  -4   3 5207.83 503.041   3
  -3  -4  -3 4025.61 593.077   1
   3   4   3 4576.71 432.634   2
  -3   4  -3 5360.35 510.759   3
  -3  -4  -3 5126.83 687.737   3
  -3   4  -4 34294.4 1585.53   3
   3   4   4 37686.3 1644.17   2
  -3  -4  -4 40517.0 2171.76   3
  -3   4  -5 1134.47 242.164   3
  -3  -4  -5 1424.50 381.044   3
   3   4   5 1391.25 299.691   2
  -3   4  -6 39931.8 1796.30   3
   3   4   6 40285.4 2030.37   2
  -3  -4  -6 43134.7 2413.13   3
  -3  -4  -7 39230.5 2395.68   3
  -3   4  -7 36058.0 1755.66   3
  -3  -4  -8 20199.2 1746.71   3
  -3   4  -8 22550.5 1429.34   3
  -3   4  -9 738.099 231.993   3
  -3  -4  -9 844.464 361.809   3
  -3  -4 -10 10264.3 1361.16   3
  -3   4 -10 10810.3 1041.13   3
  -3  -4 -11 3899.22 879.058   3
  -3  -4 -12 15360.4 1866.41   3
  -3  -4 -13 23129.9 2423.40   3
  -3  -4 -14 10089.5 1633.85   3
   3   5 -13 3924.20 1214.57   2
   3   5 -12 10180.1 1955.65   2
   3  -5 -12 10817.6 1868.73   2
   3   5 -11 260.536 444.909   2
   3  -5 -11 272.164 433.991   2
   3   5 -10 5038.43 1203.51   2
   3  -5 -10 5846.09 1178.93   2
   3   5  -9 4770.23 1051.29   2
   3  -5  -9 4904.97 1026.06   2
   3  -5  -8 66908.6 3887.17   2
   3   5  -8 60907.4 3905.69   2
   3  -5  -7 26231.5 2214.08   2
   3   5  -7 23737.3 2183.65   2
   3  -5  -6 16760.0 1610.18   2
   3   5  -6 12938.0 1480.97   2
  -3  -5   5 268.689 178.405   3
   3   5  -5 271.278 183.785   2
   3   5  -5 536.473 237.363   1
   3   5  -4 24241.9 1728.28   2
   3   5  -4 22763.7 1441.17   1
  -3  -5   4 22325.7 1534.07   3
  -3  -5   3 2449.10 469.237   3
   3  -5  -3 2524.43 490.054   3
   3   5  -3 2290.58 458.242   2
   3   5  -3 2235.37 398.884   1
   3   5  -2 50381.1 2289.90   1
  -3  -5   2 50941.2 2394.99   3
   3  -5  -2 47226.3 2251.41   3
   3   5  -2 52461.1 2281.14   2
  -3  -5   1 44605.2 2182.58   3
   3  -5  -1 43537.4 2014.88   3
   3   5  -1 44560.8 1834.64   2
  -3  -5   0 300.414 164.142   3
   3  -5   0 193.240 114.061   3
  -3  -5   0 273.024 123.953   1
   3   5   0 602.008 125.606   2
  -3   5  -1 342.966 125.004   3
  -3  -5  -1 299.288 193.833   3
   3  -5   1 299.272 103.575   3
  -3  -5  -1 258.849 98.3958   1
   3  -5   2 43855.7 1722.92   3
  -3   5  -2 45104.4 1784.74   3
  -3  -5  -2 43231.9 2208.83   3
  -3  -5  -2 43837.9 2095.98   1
   3  -5   3 2922.44 347.968   3
  -3   5  -3 2694.84 340.720   3
  -3  -5  -3 2832.47 528.738   3
   3   5   4 24363.2 1075.91   2
  -3   5  -4 24373.6 1168.74   3
  -3   5  -5 54521.5 1986.82   3
  -3  -5  -5 51891.2 2689.85   3
   3   5   6 4399.10 533.406   2
  -3   5  -6 4524.08 482.697   3
  -3  -5  -6 5523.18 824.512   3
  -3  -5  -7 3535.72 693.790   3
  -3   5  -7 2942.03 399.226   3
   3   5   7 2368.34 445.186   2
  -3  -5  -8 36176.4 2516.23   3
  -3   5  -8 43983.4 1941.44   3
  -3   5  -9 1602.34 354.345   3
  -3  -5  -9 1464.25 472.571   3
  -3  -5 -10 3979.93 858.079   3
  -3  -5 -11 17087.5 1919.09   3
  -3  -5 -12 6717.78 1248.12   3
  -3  -5 -13 2184.61 725.355   3
   3   6 -13 10577.4 1913.40   2
   3   6 -12 54519.2 4508.23   2
   3  -6 -12 61334.1 4634.34   2
   3   6 -11 180.797 298.325   2
   3  -6 -11 245.712 274.777   2
   3   6 -10 298.237 252.952   2
   3  -6 -10 84.9400 184.264   2
   3   6  -9 2917.05 880.160   2
   3  -6  -9 2651.40 725.678   2
   3  -6  -8 23036.6 2195.12   2
   3   6  -8 20158.1 2113.41   2
   3  -6  -7 13370.9 1542.59   2
   3   6  -7 12702.0 1583.01   2
   3  -6  -6 210125. 7411.16   2
   3   6  -6 189145. 7422.51   2
  -3  -6   5 2555.82 503.906   3
   3   6  -5 2771.96 631.598   2
   3   6  -5 2817.00 510.726   1
  -3  -6   4 1463.18 369.492   3
   3   6  -4 1504.78 362.621   1
   3   6  -4 1347.82 389.350   2
  -3  -6   3 3727.85 581.726   3
   3  -6  -3 4066.15 624.251   3
   3   6  -3 3960.54 602.836   2
   3   6  -3 4193.41 583.154   1
   3   6  -2 11255.9 999.044   1
   3   6  -2 10375.7 883.517   2
  -3  -6   2 11757.5 1046.10   3
   3  -6  -2 11261.8 965.052   3
   3   6  -1 7700.25 834.061   1
   3   6  -1 8390.62 638.026   2
  -3  -6   1 7261.81 833.836   3
   3  -6  -1 7454.28 741.625   3
  -3  -6   0 253440. 7520.27   1
  -3  -6   0 274198. 8007.94   3
   3  -6   0 254203. 7310.21   3
  -3  -6  -1 13580.8 1034.27   1
  -3  -6  -1 14186.2 1169.36   3
   3  -6   1 14269.3 861.085   3
  -3   6  -2 1078.63 216.470   3
  -3  -6  -2 920.950 290.250   3
   3  -6   2 1165.58 215.834   3
   3  -6   3 2815.52 325.911   3
  -3   6  -3 3405.09 364.321   3
  -3  -6  -3 3569.92 593.471   3
  -3   6  -4 3865.97 384.573   3
  -3  -6  -4 4017.66 670.873   3
   3   6   5 362.887 112.993   2
  -3   6  -5 290.519 102.678   3
   3   6   6 130374. 4472.28   2
  -3  -6  -6 142181. 5602.70   3
  -3  -6  -7 22019.1 1836.92   3
   3   6   7 20227.1 1298.97   2
  -3   6  -7 22358.5 1122.39   3
  -3  -6  -8 5164.83 889.607   3
  -3   6  -8 5180.45 529.969   3
  -3  -6  -9 1145.18 473.076   3
  -3  -6 -10 646.496 388.294   3
  -3  -6 -11 166.054 199.212   3
  -3  -6 -12 43589.7 3355.17   3
  -3  -6 -13 8475.48 1508.96   3
   3   7 -13 7874.35 1735.86   2
   3   7 -12 312.468 399.472   2
   3  -7 -12 939.222 627.062   2
   3   7 -11 3218.34 996.257   2
   3  -7 -11 2325.92 790.929   2
   3   7 -10 2984.89 917.632   2
   3  -7 -10 4559.22 1051.65   2
   3   7  -9 1737.01 683.344   2
   3  -7  -9 843.275 507.491   2
   3  -7  -8 4272.58 950.099   2
   3   7  -8 3708.84 870.274   2
   3  -7  -7 57315.0 3426.03   2
   3   7  -7 55196.6 3467.09   2
  -3  -7   6 1387.02 429.329   3
   3  -7  -6 1122.46 464.751   2
   3   7  -6 1143.90 384.885   1
   3   7  -6 1547.92 519.807   2
   3  -7  -6 750.430 126.293   1
   3   7  -5 11825.4 1138.63   1
   3   7  -5 11139.2 1276.39   2
  -3  -7   5 12494.1 1173.09   3
   3   7  -4 6591.64 800.621   1
   3   7  -4 6940.91 882.051   2
  -3  -7   4 5944.54 775.949   3
   3  -7  -3 2390.84 483.550   3
  -3  -7   3 2469.76 482.747   3
   3   7  -3 2939.24 509.477   2
   3   7  -3 2565.51 460.429   1
   3   7  -2 11564.0 1058.62   1
   3   7  -2 11419.4 864.795   2
   3  -7  -2 10740.5 952.779   3
  -3  -7   2 11853.0 1059.43   3
   3   7  -1 111745. 3326.74   2
   3   7  -1 121802. 4346.08   1
   3  -7  -1 116780. 3963.24   3
  -3  -7   1 109278. 4262.97   3
  -3  -7   0 441.936 240.344   1
  -3  -7   0 505.060 249.999   3
   3  -7   0 632.330 204.413   3
  -3  -7  -1 10673.8 1033.38   3
   3  -7   1 10210.9 688.299   3
   3  -7   2 3085.80 334.033   3
  -3  -7  -2 3460.51 575.035   3
  -3  -7  -3 2649.22 534.155   3
  -3  -7  -4 2865.04 590.507   3
  -3   7  -4 2766.28 290.874   3
  -3   7  -5 89275.0 2721.83   3
  -3  -7  -5 97621.1 4149.67   3
  -3   7  -6 118.789 51.9378   3
  -3  -7  -6 262.663 249.653   3
  -3  -7  -7 1565.69 483.972   3
  -3   7  -7 1566.85 237.893   3
  -3  -7  -8 777.042 349.347   3
  -3  -7  -9 362.012 299.133   3
  -3  -7 -10 2643.83 731.736   3
  -3  -7 -11 29254.7 2649.29   3
  -3  -7 -12 330.818 285.292   3
   3   8 -13 55.9991 167.638   2
   3   8 -12 67093.0 4954.40   2
   3  -8 -12 66434.6 4872.74   2
   3   8 -11 5326.60 1219.76   2
   3  -8 -11 6263.02 1251.61   2
   3   8 -10 1312.16 597.519   2
   3  -8 -10 2225.62 754.133   2
   3  -8  -9 7671.26 1324.64   2
   3   8  -9 6445.05 1199.61   2
   3  -8  -8 21937.5 2232.03   2
   3   8  -8 25046.8 2341.18   2
   3  -8  -7 207.581 179.900   2
   3   8  -7 456.923 296.388   2
   3   8  -6 157806. 5657.17   1
   3  -8  -6 143137. 4120.16   1
   3   8  -6 181926. 6432.36   2
  -3  -8   6 165963. 5698.29   3
   3   8  -5 5168.21 765.443   1
   3   8  -5 4987.69 809.753   2
  -3  -8   5 4974.60 745.187   3
  -3  -8   4 596.548 244.819   3
   3   8  -4 320.155 221.588   2
   3   8  -3 5382.84 668.642   2
   3  -8  -3 4360.25 671.302   3
  -3  -8   3 5169.65 726.490   3
   3   8  -3 5499.06 738.879   1
   3   8  -2 15386.2 1279.74   1
   3  -8  -2 13885.6 1105.48   3
  -3  -8   2 14948.0 1231.37   3
   3  -8  -1 978.727 269.846   3
  -3  -8   1 1241.09 351.349   3
   3   8  -1 1223.14 362.665   1
  -3  -8   0 235567. 6691.73   3
   3  -8   0 248707. 5850.71   3
  -3  -8  -1 2009.25 447.454   3
   3  -8   1 1940.36 273.163   3
   3  -8   2 6171.06 442.807   3
  -3  -8  -2 4665.39 714.335   3
  -3  -8  -3 949.614 308.025   3
  -3  -8  -4 5019.49 802.294   3
  -3  -8  -5 8403.48 1082.79   3
  -3   8  -6 126679. 3433.54   3
  -3  -8  -6 158542. 5680.21   3
  -3  -8  -7 295.340 122.971   3
  -3  -8  -8 9499.95 1282.68   3
  -3  -8  -9 3486.57 833.158   3
  -3  -8 -10 1494.67 522.840   3
  -3  -8 -11 5145.98 1086.69   3
  -3  -8 -12 38276.3 3244.05   3
   3   9 -13 3597.45 1222.28   2
   3   9 -12 11860.8 1996.11   2
   3   9 -11 2498.02 780.404   2
   3  -9 -11 1597.78 581.984   2
   3   9 -10 1140.47 603.113   2
   3  -9 -10 1805.49 651.877   2
   3  -9  -9 12715.2 1739.72   2
   3   9  -9 11898.5 1689.43   2
   3  -9  -8 13789.6 1687.56   2
   3   9  -8 11187.5 1573.40   2
   3  -9  -7 22159.6 2049.42   2
   3   9  -7 19221.8 1916.61   2
   3   9  -6 12600.4 1310.52   1
   3   9  -6 12298.3 1453.93   2
  -3  -9   6 13349.7 1287.46   3
   3   9  -5 454.007 228.081   1
  -3  -9   5-59.8852 77.4492   2
  -3  -9   5-74.1313 197.991   3
   3   9  -5 106.145 167.858   2
  -3  -9   4 234.565 67.7933   3
   3   9  -4 443.631 238.551   1
   3  -9  -3 27896.0 1820.67   3
  -3  -9   3 28383.2 1825.35   3
   3   9  -3 29968.5 1894.34   1
   3   9  -2 7100.25 887.250   1
   3  -9  -2 7266.41 795.892   3
  -3  -9   2 7312.97 865.843   3
   3   9  -1 43742.2 2411.73   1
   3  -9  -1 39494.9 1855.58   3
  -3  -9   1 41669.2 2318.69   3
  -3  -9   0 1769.91 443.674   3
   3  -9   0 1916.94 321.891   3
  -3   9   0 1576.08 164.698   1
  -3  -9  -1 1776.51 448.781   3
   3  -9   1 1579.37 236.795   3
   3  -9   2 7615.65 465.852   3
  -3  -9  -2 8691.66 994.033   3
  -3  -9  -3 14940.7 1356.46   3
  -3  -9  -4-23.6233 130.015   3
  -3  -9  -5 30991.7 2220.05   3
  -3  -9  -6 1779.34 517.956   3
  -3  -9  -7 3733.05 776.021   3
  -3  -9  -8 12942.7 1549.90   3
  -3  -9  -9 7941.15 1256.86   3
  -3  -9 -10 1071.45 542.420   3
  -3  -9 -11 20282.1 2262.14   3
   3  10 -12 34449.2 3447.27   2
   3  10 -11 1680.94 712.492   2
   3 -10 -11 220.203 306.919   2
   3 -10 -10 8660.39 1508.39   2
   3  10 -10 11925.5 1773.70   2
   3 -10  -9 11208.3 1652.83   2
   3  10  -9 11493.2 1668.06   2
   3 -10  -8 52277.9 3505.84   2
   3  10  -8 47768.1 3346.31   2
   3 -10  -7 1032.25 441.111   2
   3  10  -7 713.349 389.546   2
   3  10  -7 888.847 363.177   1
   3  10  -6 52881.6 2964.13   1
   3  10  -6 57713.7 3216.94   2
  -3 -10   6 49923.6 2780.65   3
  -3 -10   5 2662.73 607.093   2
   3  10  -5 4002.00 699.873   1
  -3 -10   5 3079.04 572.417   3
   3  10  -5 4140.40 727.326   2
   3  10  -4 42700.9 2408.66   1
  -3 -10   4 37070.1 2196.66   3
   3 -10  -3 5112.22 734.129   3
  -3 -10   3 4481.67 693.984   3
   3  10  -3 5319.33 776.034   1
   3  10  -2 81218.2 3628.78   1
   3 -10  -2 82375.7 3284.25   3
  -3 -10   2 75237.1 3393.53   3
   3 -10  -1 1117.64 279.722   3
  -3 -10   1 1067.13 321.973   3
   3  10  -1 1351.68 400.962   1
  -3  10   0 53913.9 1729.22   1
   3 -10   0 55371.7 2110.67   3
  -3 -10  -1 380.630 246.199   3
   3 -10   1 247.841 88.8890   3
  -3  10  -1 179.648 77.5735   1
   3 -10   2 55113.2 1684.24   3
  -3 -10  -2 65841.5 3073.32   3
  -3 -10  -3 1279.97 398.943   3
  -3 -10  -4 48256.5 2865.82   3
  -3 -10  -5 3901.09 756.477   3
  -3 -10  -6 40668.6 2691.26   3
  -3 -10  -7 2681.30 654.901   3
  -3 -10  -8 34919.9 2686.22   3
  -3 -10  -9 536.779 330.637   3
  -3 -10 -10 7848.04 1327.75   3
  -3 -10 -11 5212.55 1140.52   3
   3  11 -12 4670.96 1229.53   2
   3  11 -11 109.111 310.118   2
   3 -11 -11 720.162 324.652   2
   3 -11 -10 9395.52 1578.92   2
   3  11 -10 10451.9 1698.44   2
   3 -11  -9 30791.4 2821.93   2
   3  11  -9 30014.4 2783.83   2
   3 -11  -8 10756.0 1547.25   2
   3  11  -8 10136.5 1321.75   1
   3  11  -8 10296.5 1446.40   2
   3 -11  -7 289.571 243.226   2
  -3 -11   7-14.4787 188.506   3
   3  11  -7 483.812 283.972   1
  -3 -11   6 4302.20 732.193   3
   3  11  -6 3838.18 743.599   1
   3  11  -5 5734.41 883.276   1
  -3 -11   5 4365.57 703.285   3
  -3 -11   4 22306.3 1670.04   3
   3  11  -4 26339.3 1913.10   1
   3 -11  -3 55288.0 2821.87   3
  -3 -11   3 63108.7 2987.55   3
   3  11  -3 59680.6 3070.10   1
   3  11  -2 23965.7 1808.39   1
   3 -11  -2 24122.2 1553.84   3
  -3 -11   2 21055.4 1629.87   3
   3 -11  -1 686.155 201.071   3
  -3 -11   1 479.051 217.030   3
   3  11  -1 409.507 187.809   1
  -3  11   0 1452.03 204.770   1
  -3 -11   0 1415.29 413.704   3
   3 -11   0 1868.50 293.942   3
  -3  11  -1 23420.3 1067.87   1
  -3 -11  -1 22505.5 1698.11   3
   3 -11   1 24424.3 994.309   3
  -3 -11  -2 28892.2 2000.48   3
  -3 -11  -3 67296.7 3355.10   3
  -3 -11  -4 13878.9 1467.29   3
  -3 -11  -5 3848.57 794.720   3
  -3 -11  -6 291.586 242.999   3
  -3 -11  -7 14201.8 1619.09   3
  -3 -11  -8 12783.0 1614.93   3
  -3 -11  -9 25668.8 2407.70   3
  -3 -11 -10 6996.61 1307.61   3
   3 -12 -10 11144.2 1760.84   2
   3 -12  -9 542.336 441.022   2
   3 -12  -8 32442.8 2764.91   2
   3  12  -8 31628.6 2452.93   1
  -3 -12   7 1200.35 410.203   3
   3 -12  -7 921.660 402.758   2
   3  12  -7 1390.46 446.809   1
   3  12  -6 18788.5 1724.83   1
  -3 -12   6 15610.7 1471.21   3
   3  12  -5 11107.9 1288.91   1
  -3 -12   5 10430.6 1146.87   3
   3  12  -4 54110.0 2975.08   1
  -3 -12   4 49157.7 2723.34   3
   3  12  -3 4354.70 741.523   1
  -3 -12   3 3261.97 614.392   3
   3  12  -2 62904.1 3224.88   1
   3 -12  -2 57422.6 2641.17   3
  -3 -12   2 55092.9 2892.91   3
   3 -12  -1 225.579 119.647   3
  -3 -12   1 159.990 145.069   3
   3  12  -1 74.5147 108.899   1
  -3  12   0 12836.9 741.354   1
   3 -12   0 14642.7 867.724   3
  -3 -12   0 14893.0 1366.59   3
  -3  12  -1 6484.95 533.085   1
  -3 -12  -1 5647.26 831.162   3
   3 -12   1 5816.67 387.118   3
  -3 -12  -2 65213.3 3293.74   3
  -3 -12  -3 7807.13 1060.55   3
  -3 -12  -4 40070.4 2662.66   3
  -3 -12  -5 358.224 272.462   3
  -3 -12  -6 6235.67 1031.68   3
  -3 -12  -7 1606.30 557.640   3
  -3 -12  -8 27237.0 2423.04   3
  -3 -12  -9 9755.77 1486.45   3
  -3 -12 -10 6583.08 1271.43   3
   3 -13 -10 67747.3 4599.09   2
   3 -13  -9 18197.3 2221.52   2
   3  13  -9 14434.4 1735.12   1
   3 -13  -8 5747.21 1165.33   2
   3  13  -8 4224.41 882.870   1
  -3 -13   7 424.439 165.146   3
   3  13  -7 728.034 346.106   1
   3  13  -6-120.236 203.108   1
  -3 -13   6 209.528 76.3601   3
  -3 -13   5 102.906 86.0088   3
   3  13  -5 134.149 231.663   1
  -3 -13   4 69190.6 3373.02   3
   3  13  -4 67671.9 3538.64   1
  -3 -13   3 34100.8 2166.01   3
   3  13  -3 35657.1 2395.63   1
   3  13  -2 22684.7 1882.19   1
  -3 -13   2 23215.7 1787.31   3
  -3 -13   1 1739.78 440.635   3
   3  13  -1 2472.09 573.982   1
  -3 -13   0 427.179 205.069   3
  -3  13   0 299.882 118.027   1
  -3 -13  -1 1716.52 467.566   3
  -3  13  -1 1255.74 234.712   1
  -3 -13  -2 37210.4 2414.66   3
  -3 -13  -3 34799.9 2395.74   3
  -3 -13  -4 50265.5 3078.54   3
  -3 -13  -5 7344.55 1177.60   3
  -3 -13  -6 1547.42 509.440   3
  -3 -13  -7 3173.02 782.690   3
  -3 -13  -8 7361.76 1261.00   3
  -3 -13  -9 11725.7 1654.46   3
   3  14 -10 2261.90 732.429   1
   3 -14  -9 1176.03 493.332   2
   3  14  -9 697.182 495.814   1
   3 -14  -8 2084.85 684.195   2
   3  14  -8 1963.42 603.515   1
   3  14  -7 1609.74 550.974   1
  -3 -14   7 951.904 303.857   3
   3  14  -6 22237.0 2026.43   1
  -3 -14   6 22863.0 1828.69   3
   3  14  -5 26868.0 2172.18   1
  -3 -14   5 26626.3 1954.33   3
  -3 -14   4 2189.61 544.874   3
   3  14  -4 2039.48 562.564   1
  -3 -14   3 1955.34 488.088   3
   3  14  -3 2392.44 589.874   1
  -3 -14   2 21.0371 156.189   3
   3  14  -2-36.7511 253.641   1
  -3 -14   1 481.486 244.120   3
   3  14  -1 665.592 303.802   1
  -3  14   0 24322.0 1220.50   1
  -3 -14   0 22749.8 1821.14   3
  -3 -14  -1 13164.0 1344.98   3
  -3 -14  -2 3085.67 662.770   3
  -3 -14  -3 15274.7 1552.91   3
  -3 -14  -4 28.9691 171.044   3
  -3 -14  -5 3019.90 757.274   3
  -3 -14  -6 13768.7 1655.42   3
  -3 -14  -7 1150.26 514.420   3
  -3 -14  -8 1860.14 639.953   3
  -3 -14  -9 17601.1 2074.93   3
   3  15 -10 42802.1 3330.50   1
   3 -15  -9 590.382 415.894   2
   3  15  -9 285.937 266.576   1
   3 -15  -8 10888.8 1630.88   2
   3  15  -8 11608.3 1554.78   1
   3  15  -7 6510.25 1100.97   1
  -3 -15   7 7574.31 1058.18   3
  -3 -15   6 50.9884 114.007   3
   3  15  -6-59.3037 183.922   1
   3  15  -5 17874.0 1783.92   1
  -3 -15   5 17211.3 1562.77   3
  -3 -15   4 65756.8 3367.06   3
   3  15  -4 66506.5 3665.78   1
  -3 -15   3 330.611 213.433   3
   3  15  -3 90.9595 121.860   1
   3  15  -2 40725.1 2786.23   1
  -3 -15   2 44146.1 2653.85   3
   3  15  -1 25968.9 2170.99   1
  -3 -15   1 24446.2 1920.19   3
  -3 -15   0 561.654 268.701   3
  -3 -15  -1 16558.3 1576.04   3
  -3  15  -2 47504.8 2067.46   1
  -3 -15  -2 41322.5 2695.41   3
  -3 -15  -3 503.402 277.822   3
  -3  15  -3 323.636 146.415   1
  -3 -15  -4 48984.8 3108.94   3
  -3 -15  -5 17647.1 1891.72   3
  -3 -15  -6 164.954 233.031   3
  -3 -15  -7 6061.00 1147.60   3
  -3 -15  -8 12991.1 1754.83   3
   3  16  -9 1513.39 624.254   1
   3  16  -8 6831.02 1188.65   1
   3 -16  -8 6363.42 1269.12   2
   3  16  -7 6479.61 1133.28   1
  -3 -16   7 6130.87 966.551   3
   3  16  -6 6854.61 1142.17   1
  -3 -16   6 6746.97 1001.82   3
  -3 -16   5 13865.7 1405.60   3
   3  16  -5 13022.7 1567.31   1
  -3 -16   4 3886.81 750.596   3
   3  16  -4 3826.52 805.812   1
   3  16  -3 6190.60 1054.24   1
  -3 -16   3 5161.61 834.583   3
   3  16  -2 12657.5 1528.76   1
  -3 -16   2 13097.8 1395.68   3
   3  16  -1 3898.63 825.105   1
  -3 -16   1 3553.05 704.900   3
  -3 -16   0 15414.7 1518.73   3
  -3 -16  -1 21278.0 1836.54   3
  -3  16  -1 20927.0 1261.86   1
  -3  16  -2 6336.46 675.258   1
  -3 -16  -2 6445.65 1008.32   3
  -3  16  -3 10166.0 930.701   1
  -3 -16  -3 10090.8 1316.50   3
  -3 -16  -4 12787.2 1537.91   3
  -3 -16  -5 702.919 335.316   3
  -3 -16  -6 7622.12 1278.13   3
  -3 -16  -7 16850.4 1955.75   3
   3  17  -8 37459.3 3012.17   1
  -3 -17   7 2778.62 655.717   3
   3  17  -7 1964.73 613.874   1
  -3 -17   6 2846.30 640.741   3
   3  17  -6 3180.58 782.082   1
  -3 -17   5 12855.0 1378.56   3
   3  17  -5 12793.1 1590.52   1
  -3 -17   4 36694.7 2448.94   3
   3  17  -4 32980.5 2612.21   1
  -3 -17   3 363.757 208.000   3
   3  17  -3 299.529 235.526   1
   3  17  -2 52435.3 3375.08   1
  -3 -17   2 47647.6 2883.77   3
   3  17  -1 7994.39 1239.24   1
  -3 -17   1 9616.09 1209.12   3
  -3 -17   0-128.990 197.877   3
  -3 -17  -1 13882.7 1512.49   3
  -3  17  -2 38714.2 1939.46   1
  -3 -17  -2 38469.3 2661.90   3
  -3  17  -3 44.0999 84.8273   1
  -3 -17  -3-97.8222 175.602   3
  -3  17  -4 28684.8 1780.75   1
  -3 -17  -4 27150.0 2304.16   3
  -3 -17  -5 6339.02 1144.65   3
  -3 -17  -6 1448.16 551.043   3
   3  18  -7 16541.3 1946.59   1
  -3 -18   7 15238.0 1596.32   3
  -3 -18   6 1256.33 473.966   3
   3  18  -6 1340.27 511.537   1
  -3 -18   5 3780.16 752.031   3
   3  18  -5 4242.73 926.811   1
  -3 -18   4-122.727 145.606   3
   3  18  -4-177.036 206.361   1
   3  18  -3 5590.44 1065.05   1
  -3 -18   3 5149.26 869.429   3
   3  18  -2 8126.82 1288.64   1
  -3 -18   2 6818.14 1023.59   3
   3  18  -1 11727.0 1547.42   1
  -3 -18   1 14463.1 1544.35   3
  -3 -18   0 2373.09 641.103   3
  -3 -18  -1 20278.5 1864.21   3
  -3 -18  -2 443.661 254.479   3
  -3 -18  -3 3424.41 799.414   3
  -3 -18  -4 4750.09 956.717   3
  -3 -18  -5 948.233 489.050   3
  -3 -18  -6 2092.58 645.329   3
  -3 -19   7 4137.58 799.387   3
  -3 -19   6 2402.97 611.028   3
   3  19  -5 593.167 365.872   1
  -3 -19   5-42.0909 90.7686   3
   3  19  -4 16573.0 1910.37   1
  -3 -19   4 13322.4 1485.71   3
   3  19  -3 2343.34 684.366   1
  -3 -19   3 2684.31 636.113   3
   3  19  -2 36631.5 2938.71   1
  -3 -19   2 36172.9 2506.70   3
  -3 -19   1 7438.87 1127.40   3
  -3 -19   0 518.224 267.818   3
  -3 -19  -1 240.257 226.652   3
  -3 -19  -2 17396.1 1787.79   3
  -3 -19  -3 3495.75 830.424   3
  -3 -19  -4 14826.8 1777.97   3
  -3 -19  -5 3158.49 831.883   3
  -3 -20   7 13238.7 1535.07   3
  -3 -20   6 32728.9 2461.14   3
  -3 -20   5 9881.18 1281.01   3
  -3 -20   4 2942.99 693.917   3
   3  20  -4 2786.59 843.162   1
   3  20  -3 1019.50 480.870   1
  -3 -20   3 1547.83 515.760   3
   3  20  -2 148.799 169.033   1
  -3 -20   2 60.7475 131.465   3
  -3 -20   1 8681.26 1267.63   3
  -3 -20   0 43403.0 2928.42   3
  -3 -20  -1 18236.0 1859.21   3
  -3 -20  -2 1384.38 513.405   3
  -3 -20  -3 4098.08 900.970   3
  -3 -21   6 965.478 404.376   3
  -3 -21   5 1876.57 538.015   3
  -3 -21   4 12360.7 1485.47   3
  -3 -21   3 924.357 391.568   3
  -3 -21   2 11309.5 1415.93   3
  -3 -21   1 18527.3 1892.93   3
  -3 -21   0 479.559 293.222   3
  -3 -21  -1 2812.58 744.874   3
  -3 -21  -2 6550.56 1123.42   3
  -3 -22   4 659.094 395.635   3
  -3 -22   3 198.500 249.300   3
  -3 -22   2 2649.98 683.646   3
  -3 -22   1 4959.17 967.411   3
  -3 -22   0 29091.1 2462.72   3
   4   0 -12 59995.6 4761.81   2
   4   0 -11-209.860 358.364   2
   4   0 -10 729.384 537.589   2
   4   0  -9 164.033 231.033   2
   4   0  -8 15485.9 1884.66   2
   4   0  -7 122.135 96.0585   1
   4   0  -7 625.599 407.642   2
   4   0  -6 185714. 7077.90   2
   4   0  -6 175259. 5305.81   1
   4   0  -5-28.7762 58.2194   1
   4   0  -5-178.752 165.013   2
   4   0  -4 2205.07 565.853   2
   4   0  -3-41.1311 125.310   2
  -4   0   3 89.0523 156.491   3
   4   0  -2 5918.67 817.954   2
  -4   0   2 4750.82 687.759   3
  -4   0   1 502.378 201.848   3
  -4   0   0 254821. 7904.44   3
  -4   0  -1 148.167 102.512   3
  -4   0  -1 41.3983 41.3519   1
  -4   0  -2 921.314 242.581   1
  -4   0  -2 945.787 280.242   3
  -4   0  -3 28.1140 84.4269   3
  -4   0  -3 186.006 122.080   1
  -4   0  -4 509.594 237.192   3
  -4   0  -5 275.085 141.031   3
  -4   0  -6 167522. 5845.66   3
  -4   0  -7 9.19363 60.9799   3
  -4   0  -8 5484.07 841.893   3
  -4   0  -9 128.923 197.376   3
  -4   0 -10 488.405 330.119   3
   4   1 -12 5251.00 1349.36   2
   4  -1 -12 4734.36 1299.23   2
   4   1 -11 698.355 529.738   2
   4  -1 -11 3163.29 989.918   2
   4   1 -10-508.759 388.618   2
   4  -1 -10 579.989 335.632   2
   4   1  -9 6176.33 1266.17   2
   4  -1  -9 7122.83 1328.85   2
   4   1  -8 6783.71 807.076   1
   4   1  -8 7722.65 1380.65   2
   4  -1  -8 7067.74 1247.09   2
   4  -1  -7 51871.2 3345.16   2
   4   1  -7 49009.4 2289.27   1
   4   1  -7 52617.8 3465.02   2
   4  -1  -6 6457.90 1060.38   2
   4   1  -6 5171.31 600.356   1
   4  -1  -6 5720.99 508.380   1
   4   1  -6 6288.99 1041.88   2
   4  -1  -5 2089.09 558.742   2
   4   1  -5 2809.35 414.019   1
   4   1  -5 2525.58 610.136   2
   4  -1  -4 398.323 239.544   2
   4   1  -4 677.213 314.081   2
   4   1  -3 3650.47 661.062   2
   4  -1  -3 3605.23 663.963   2
  -4  -1   3 3520.21 615.897   3
   4   1  -2 8061.77 928.933   2
  -4   1   2 7402.39 857.604   3
  -4  -1   2 7851.80 907.486   3
  -4   1   1 105089. 4092.50   3
  -4  -1   1 113490. 4263.22   3
  -4   1   0 561.381 215.672   3
  -4  -1   0 862.336 312.286   3
  -4  -1  -1 708.722 197.344   1
  -4   1  -1 1060.78 330.751   3
  -4  -1  -1 845.706 259.340   3
  -4   1  -1 918.428 194.717   1
  -4   1  -2 4782.96 538.731   1
  -4   1  -2 5280.38 679.462   3
  -4  -1  -2 5400.94 731.126   3
  -4  -1  -2 4951.84 586.102   1
  -4   1  -3 1356.24 333.507   3
  -4  -1  -3 1316.48 343.144   3
  -4   1  -3 1357.08 316.909   1
  -4  -1  -3 1136.60 288.787   1
  -4   1  -4 569.389 221.830   3
  -4  -1  -4 269.855 199.694   3
   4  -1   4 324.538 265.915   2
  -4   1  -5 85321.9 3510.36   3
  -4  -1  -5 81892.6 3598.25   3
  -4   1  -6 551.958 238.931   3
  -4  -1  -6 941.282 333.985   3
  -4   1  -7 257.664 147.578   3
  -4  -1  -7 419.145 224.805   3
  -4   1  -8 7243.45 914.221   3
  -4  -1  -8 6356.67 952.391   3
  -4   1  -9 1122.56 399.752   3
  -4  -1  -9 2025.46 538.340   3
  -4  -1 -10-19.2359 84.4231   3
  -4  -1 -11 36684.1 2738.36   3
   4   2 -12 40179.4 3931.18   2
   4   2 -11 468.247 461.152   2
   4  -2 -11 1186.13 625.135   2
   4   2 -10 1689.11 711.794   2
   4  -2 -10 2861.12 877.694   2
   4   2  -9 16083.0 2066.17   2
   4  -2  -9 15687.7 1993.92   2
   4  -2  -8 30929.6 2644.41   2
   4   2  -8 27791.6 1837.57   1
   4   2  -8 29013.8 2631.59   2
   4  -2  -7 7899.73 1266.69   2
   4   2  -7 6692.87 772.892   1
   4   2  -7 7158.26 1210.22   2
   4  -2  -6 92499.6 4519.37   2
   4   2  -6 87452.1 3367.92   1
   4   2  -6 91420.6 4541.48   2
   4  -2  -5 371.464 312.080   2
   4   2  -5 355.866 175.617   1
   4   2  -5 476.867 239.091   2
   4   2  -4 8307.71 1052.97   2
   4  -2  -4 8425.89 1091.67   2
  -4  -2   4 7606.78 950.208   3
   4   2  -3 10860.5 1126.23   2
  -4  -2   3 11342.5 1143.34   3
   4   2  -2 36972.2 2064.52   2
  -4   2   2 33222.7 1955.09   3
  -4  -2   2 30531.5 1950.08   3
   4   2  -1 670.643 286.267   2
  -4   2   1 807.128 268.719   3
  -4  -2   1 1062.67 362.291   3
  -4   2   0 119008. 4319.64   3
  -4  -2   0 119406. 4502.46   3
  -4  -2  -1 4614.43 537.566   1
  -4   2  -1 4913.72 433.920   1
  -4   2  -1 4680.62 636.426   3
  -4  -2  -1 4766.35 683.952   3
  -4   2  -2 12749.4 881.873   1
  -4   2  -2 11772.4 1034.13   3
  -4  -2  -2 10941.7 923.370   1
  -4  -2  -2 13068.9 1202.47   3
  -4   2  -3 2731.68 460.411   3
  -4  -2  -3 2648.28 527.882   3
   4   2   3 2768.58 471.743   2
   4   2   4 15934.3 1265.37   2
  -4   2  -4 19264.1 1359.93   3
  -4  -2  -4 18403.3 1474.17   3
  -4   2  -5 1823.75 409.351   3
  -4  -2  -5 1242.54 381.819   3
  -4   2  -6 72032.8 3148.75   3
  -4  -2  -6 78231.1 3565.01   3
  -4   2  -7 13908.0 1218.33   3
  -4  -2  -7 15686.0 1491.22   3
  -4   2  -8 12177.3 1164.87   3
  -4  -2  -8 12679.6 1363.07   3
  -4   2  -9 296.346 164.841   3
  -4  -2  -9 404.572 327.056   3
  -4  -2 -10 3757.01 823.726   3
  -4  -2 -11 6691.45 1143.59   3
   4   3 -12 13058.8 2149.34   2
   4   3 -11-399.442 388.443   2
   4  -3 -11 974.917 632.952   2
   4   3 -10 5171.43 1212.01   2
   4  -3 -10 5900.98 1308.20   2
   4   3  -9 17876.3 2161.31   2
   4  -3  -9 17649.1 2120.80   2
   4  -3  -8 35472.8 2856.94   2
   4   3  -8 30624.2 2021.17   1
   4   3  -8 34384.5 2866.77   2
   4  -3  -7 7512.59 1209.02   2
   4   3  -7 8422.34 906.266   1
   4   3  -7 7654.45 1260.19   2
   4  -3  -6 13174.8 1577.68   2
   4   3  -6 12069.4 1074.31   1
   4   3  -6 13518.0 1590.31   2
   4  -3  -5 6698.64 1025.18   2
   4   3  -5 5862.52 959.775   2
   4   3  -5 6158.10 715.130   1
   4  -3  -4 17941.9 1627.41   2
   4   3  -4 17603.2 1253.56   1
  -4  -3   4 18486.7 1534.65   3
   4   3  -4 17643.0 1592.35   2
   4   3  -3 30695.7 1957.66   2
  -4  -3   3 26448.8 1847.22   3
   4   3  -2 34532.1 1953.00   2
  -4  -3   2 32717.3 2027.59   3
   4   3  -1 12182.8 1023.47   2
  -4  -3   1 11559.4 1150.06   3
  -4   3   1 12222.8 1076.38   3
   4   3   0 1242.34 281.597   2
  -4   3   0 1000.99 303.692   3
  -4  -3   0 1636.63 415.652   3
  -4  -3  -1 14947.6 1056.32   1
  -4   3  -1 15901.2 788.149   1
  -4   3  -1 14837.0 1149.83   3
  -4  -3  -1 16533.6 1372.07   3
  -4   3  -2 26053.7 1328.63   1
  -4  -3  -2 24033.8 1486.74   1
  -4   3  -2 29153.7 1642.57   3
  -4  -3  -2 28868.9 1899.12   3
   4  -3   3 33072.1 1780.77   3
   4   3   3 33390.7 1712.39   2
  -4   3  -3 37701.1 1895.89   3
  -4  -3  -3 35933.4 2171.55   3
  -4   3  -4 14752.2 1120.47   3
  -4  -3  -4 14344.3 1330.37   3
  -4   3  -5 20005.3 1379.45   3
  -4  -3  -5 20154.5 1615.93   3
  -4   3  -6 2274.43 441.349   3
  -4  -3  -6 2465.62 596.487   3
  -4   3  -7 15278.9 1220.46   3
  -4  -3  -7 13362.6 1432.00   3
  -4   3  -8 24261.9 1631.16   3
  -4  -3  -8 25939.0 2065.17   3
  -4  -3  -9 16230.6 1700.11   3
  -4  -3 -10 2903.21 749.451   3
  -4  -3 -11 9275.32 1396.19   3
  -4  -3 -12 3337.10 870.497   3
   4   4 -12 13808.6 2296.65   2
   4   4 -11 2218.08 820.079   2
   4  -4 -11 1962.75 771.002   2
   4   4 -10 10011.4 1748.17   2
   4  -4 -10 10358.7 1698.10   2
   4  -4  -9 7976.93 1387.93   2
   4   4  -9 6922.63 976.627   1
   4   4  -9 9233.50 1508.22   2
   4  -4  -8 45497.4 3321.75   2
   4   4  -8 40778.8 2462.98   1
   4   4  -8 46739.2 3395.65   2
   4   4  -7 3570.26 622.127   1
   4   4  -7 4424.74 927.846   2
   4  -4  -7 3743.52 859.392   2
   4  -4  -6 26815.7 2277.08   2
   4   4  -6 22631.5 1578.45   1
   4   4  -6 21980.7 2027.31   2
   4  -4  -5 9578.24 1277.94   2
  -4  -4   5 10517.8 1179.52   3
   4   4  -5 9438.12 1242.34   2
   4   4  -5 8678.94 915.109   1
   4   4  -4 46236.2 2309.06   1
  -4  -4   4 42992.2 2532.60   3
   4   4  -4 47222.7 2731.35   2
  -4  -4   3 17586.1 1471.96   3
   4   4  -3 20058.5 1549.48   2
  -4  -4   2 67714.3 3250.23   3
   4   4  -2 74012.9 3079.26   2
  -4  -4   1 1474.59 399.477   3
   4   4  -1 705.624 199.351   2
   4   4   0 12497.8 897.167   2
  -4   4   0 13048.0 1076.32   3
  -4  -4   0 12570.1 1189.26   3
   4   4   1 20253.6 1063.04   2
  -4  -4  -1 16159.7 1164.43   1
  -4   4  -1 17779.2 791.869   1
  -4   4  -1 18523.1 1277.89   3
  -4  -4  -1 19463.7 1535.11   3
   4  -4   1 18361.8 1251.07   3
   4  -4   2 56861.9 2413.30   3
  -4   4  -2 54974.0 2106.51   1
   4   4   2 50813.7 2018.66   2
  -4   4  -2 59991.9 2490.59   3
  -4  -4  -2 60256.2 2941.52   3
   4  -4   3 10681.5 898.724   3
   4   4   3 9603.28 722.273   2
  -4   4  -3 11671.7 953.068   3
  -4  -4  -3 12196.6 1217.71   3
  -4   4  -4 39558.8 1936.39   3
  -4  -4  -4 41653.8 2430.75   3
  -4   4  -5 1097.41 282.813   3
  -4  -4  -5 1423.68 430.811   3
  -4   4  -6 8515.33 846.767   3
  -4  -4  -6 7158.59 1017.95   3
  -4   4  -7 15794.0 1182.94   3
  -4  -4  -7 13503.4 1475.54   3
  -4  -4  -8 32314.9 2434.07   3
  -4  -4  -9 5393.80 1000.59   3
  -4  -4 -10 9082.95 1404.40   3
  -4  -4 -11 682.518 316.717   3
  -4  -4 -12 4286.30 969.867   3
   4   5 -12 1742.98 861.810   2
   4   5 -11 935.978 513.249   2
   4  -5 -11 1398.49 751.797   2
   4   5 -10 49380.8 4019.51   2
   4  -5 -10 51581.2 3921.56   2
   4  -5  -9 18674.4 2183.17   2
   4   5  -9 14479.5 1482.42   1
   4   5  -9 18889.8 2277.68   2
   4  -5  -8 15427.7 1847.48   2
   4   5  -8 12430.7 1316.62   1
   4   5  -8 13582.3 1788.39   2
   4  -5  -7-12.1903 257.372   2
   4   5  -7 136.626 127.250   1
   4   5  -7 330.279 270.521   2
   4  -5  -6 3147.73 778.770   2
   4   5  -6 1639.53 402.124   1
   4   5  -6 2307.74 634.407   2
   4  -5  -5 15932.0 1643.31   2
  -4  -5   5 14485.4 1396.20   3
   4   5  -5 15691.3 1557.62   2
   4   5  -5 14872.4 1259.31   1
   4   5  -4 66446.1 3068.10   1
  -4  -5   4 71621.8 3408.74   3
   4   5  -4 71002.4 3447.10   2
  -4  -5   3 51268.6 2771.99   3
   4   5  -3 56072.5 2773.82   2
  -4  -5   2 33105.3 2119.57   3
   4   5  -2 36015.1 1949.70   2
  -4  -5   1 406.587 198.328   3
   4   5  -1 321.597 163.471   2
  -4  -5   0 1452.93 389.448   3
   4   5   0 1889.74 297.301   2
   4   5   1 18879.1 855.442   2
  -4   5  -1 24735.0 861.404   1
  -4   5  -1 23022.1 1418.56   3
  -4  -5  -1 26957.8 1890.17   3
   4   5   1 22333.8 933.870   2
   4  -5   1 23139.0 1394.04   3
   4  -5   2 57357.4 2466.82   3
  -4   5  -2 66629.5 2641.62   3
  -4  -5  -2 62265.8 3103.81   3
   4  -5   3 51817.9 2255.43   3
  -4   5  -3 53098.8 2269.04   3
  -4  -5  -3 54385.1 2879.69   3
  -4   5  -4 54980.7 2295.30   3
  -4  -5  -4 50320.4 2815.87   3
  -4   5  -5 406.897 159.700   3
  -4  -5  -5 585.464 278.377   3
  -4   5  -6 563.952 198.699   3
  -4  -5  -6 288.185 160.680   3
  -4  -5  -7 18538.3 1755.56   3
  -4  -5  -8 23300.1 2089.14   3
  -4  -5  -9 17800.2 1913.55   3
  -4  -5 -10 28812.0 2632.26   3
  -4  -5 -11 1645.82 586.293   3
  -4  -5 -12-698.313 411.379   3
   4   6 -12 5683.30 1431.00   2
   4   6 -11 30977.2 3224.44   2
   4  -6 -11 30854.5 3168.75   2
   4   6 -10 3962.44 1108.71   2
   4  -6 -10 4531.51 1160.92   2
   4   6  -9 40.6037 260.220   2
   4   6  -9 394.810 284.279   1
   4  -6  -9-43.4314 265.937   2
   4  -6  -8 11514.2 1612.36   2
   4   6  -8 10016.6 1198.94   1
   4   6  -8 10146.9 1555.86   2
   4  -6  -7 350.770 194.159   2
   4   6  -7 591.934 254.690   1
   4   6  -7 305.547 162.898   2
   4  -6  -6 3916.00 901.064   2
   4   6  -6 3945.10 846.152   2
   4   6  -6 4297.06 703.626   1
  -4  -6   5 47490.8 2764.59   3
   4   6  -5 51970.5 3048.05   2
   4   6  -5 47981.9 2574.30   1
   4   6  -4 13887.5 1270.23   1
  -4  -6   4 11655.8 1232.68   3
   4   6  -4 13499.9 1334.69   2
   4   6  -3 5821.84 791.124   1
  -4  -6   3 6765.26 917.197   3
   4   6  -3 5939.01 799.036   2
  -4  -6   2 19390.1 1583.65   3
   4   6  -2 17366.2 1242.52   2
  -4  -6   1 405.716 229.302   3
   4   6  -1 529.062 130.790   2
  -4  -6   0 2579.57 544.523   3
   4  -6   0 2716.88 457.414   3
  -4   6  -1 23589.1 768.407   1
   4  -6   1 24566.6 1431.29   3
   4  -6   2 18692.7 1183.71   3
  -4  -6  -2 21833.6 1708.91   3
  -4   6  -3 33740.0 1667.73   3
  -4  -6  -3 34739.0 2259.58   3
  -4   6  -4 13324.9 936.787   3
  -4  -6  -4 12732.5 1322.48   3
  -4   6  -5 1879.38 329.349   3
  -4  -6  -5 1541.90 436.439   3
  -4  -6  -6 4080.53 814.663   3
  -4  -6  -7 7165.03 1111.68   3
  -4  -6  -8 10641.7 1427.57   3
  -4  -6  -9 34076.1 2802.48   3
  -4  -6 -10 3050.90 804.643   3
  -4  -6 -11 2454.73 769.204   3
   4   7 -12 578.224 456.370   2
   4   7 -11 982.498 605.387   2
   4  -7 -10 86327.0 5252.19   2
   4   7 -10 93551.5 5457.78   2
   4   7  -9 2518.29 805.756   2
   4   7  -9 1461.00 485.250   1
   4  -7  -9 1676.71 713.723   2
   4  -7  -8 13810.6 1840.35   2
   4   7  -8 10938.7 1304.73   1
   4   7  -8 12820.8 1786.83   2
   4  -7  -7 1666.10 603.361   2
   4   7  -7 2101.78 534.004   1
   4   7  -7 1250.70 540.915   2
   4  -7  -6 397.065 329.002   2
   4   7  -6 350.212 314.562   2
   4   7  -6-20.4484 127.796   1
  -4  -7   6-14.5331 192.757   3
  -4  -7   5 3096.35 671.872   3
   4   7  -5 3205.59 674.124   2
   4   7  -5 2648.78 562.083   1
   4   7  -4 118578. 4703.00   1
  -4  -7   4 112620. 4738.72   3
   4   7  -4 119401. 4783.57   2
  -4  -7   3 3308.70 638.729   3
   4   7  -3 3378.54 582.996   2
   4   7  -3 3648.35 669.507   1
   4   7  -2 43735.2 1993.17   2
  -4  -7   2 46334.8 2619.48   3
   4   7  -1 4343.46 341.522   2
  -4  -7   1 4916.13 774.162   3
  -4  -7   0 267.292 176.285   3
   4  -7   0 213.596 73.1651   3
  -4  -7  -1 397.884 240.769   3
   4  -7   1 516.169 180.691   3
  -4  -7  -2 62938.9 3251.65   3
  -4  -7  -3 1835.98 506.538   3
  -4   7  -4 72249.0 2629.40   3
  -4  -7  -4 74650.1 3669.11   3
  -4  -7  -5 5850.92 946.172   3
  -4  -7  -6 1439.15 515.171   3
  -4  -7  -7 326.450 194.920   3
  -4  -7  -8 14786.2 1739.40   3
  -4  -7  -9 2014.90 659.426   3
  -4  -7 -10 52192.9 3704.87   3
  -4  -7 -11 2019.09 658.928   3
   4   8 -12 1282.87 662.679   2
   4   8 -11 19208.2 2035.49   1
   4   8 -11 24259.5 2769.75   2
   4   8 -10-332.327 322.635   2
   4   8 -10 585.212 361.531   1
   4  -8 -10 287.074 569.650   2
   4   8  -9 445.477 439.753   2
   4   8  -9 371.903 300.811   1
   4  -8  -9 360.098 374.653   2
   4   8  -8 2822.70 670.596   1
   4  -8  -8 4027.47 946.408   2
   4   8  -8 3415.60 857.605   2
   4  -8  -7 1296.91 563.141   2
   4   8  -7 971.769 353.429   1
   4   8  -7 1026.55 467.605   2
   4  -8  -6 5367.33 1018.76   2
   4   8  -6 5151.71 937.520   2
  -4  -8   6 5086.95 846.193   3
   4   8  -6 5725.88 877.997   1
   4   8  -5 39304.0 2508.79   2
  -4  -8   5 36788.7 2431.00   3
   4   8  -5 39753.7 2439.27   1
  -4  -8   4 1855.57 488.248   3
   4   8  -4 1979.17 462.349   2
   4   8  -4 2473.09 561.751   1
   4   8  -3 12222.2 1273.51   1
   4   8  -3 10701.5 970.731   2
  -4  -8   3 11496.3 1252.06   3
   4   8  -2 11943.0 792.908   2
  -4  -8   2 11231.5 1217.91   3
  -4  -8   1 1025.04 357.594   3
  -4  -8   0 10982.9 1243.94   3
  -4  -8  -1 39500.7 2489.91   3
  -4  -8  -2 4361.23 774.399   3
  -4  -8  -3 30561.6 2199.40   3
  -4  -8  -4 9749.55 1221.99   3
  -4  -8  -5 2880.81 679.304   3
  -4  -8  -6 4986.37 914.785   3
  -4  -8  -7 17674.8 1844.02   3
  -4  -8  -8 1175.65 479.690   3
  -4  -8  -9 33136.1 2867.45   3
  -4  -8 -10 4496.04 1053.45   3
   4   9 -12 876.704 560.940   2
   4   9 -11 4263.24 1127.57   2
   4   9 -11 3787.14 882.088   1
   4  -9 -10 50898.0 3935.58   2
   4   9 -10 37388.2 2941.84   1
   4   9 -10 48003.3 3830.52   2
   4   9  -9 1421.21 588.858   2
   4   9  -9 1765.20 582.046   1
   4  -9  -9 2537.44 819.595   2
   4   9  -8 27390.3 2256.09   1
   4   9  -8 32284.3 2782.99   2
   4  -9  -7 2404.12 765.509   2
   4   9  -7 2816.49 686.269   2
   4   9  -7 2996.68 674.841   1
  -4  -9   6 2514.06 589.850   3
   4   9  -6 2880.71 665.224   2
   4   9  -6 2710.34 619.900   1
   4   9  -5 18896.9 1646.02   2
  -4  -9   5 16221.8 1559.22   3
   4   9  -5 18563.6 1654.59   1
   4   9  -4 82901.6 3885.81   1
   4   9  -4 78075.7 3406.74   2
  -4  -9   4 74447.4 3688.33   3
   4   9  -3 8194.83 1070.90   1
  -4  -9   3 8093.27 1057.30   3
  -4  -9   2 50330.1 2841.64   3
  -4  -9   1 11787.7 1260.07   3
  -4  -9   0 745.095 289.639   3
  -4  -9  -1 25755.4 1998.42   3
  -4  -9  -2 53407.9 3043.12   3
  -4  -9  -3 6958.16 1029.71   3
  -4  -9  -4 46998.3 2919.18   3
  -4  -9  -5 9072.38 1238.56   3
  -4  -9  -6 654.585 389.648   3
  -4  -9  -7 13454.1 1647.44   3
  -4  -9  -8 26030.9 2467.51   3
  -4  -9  -9 1705.15 659.599   3
   4  10 -11 3932.05 1147.66   2
   4  10 -11 2678.30 714.430   1
   4  10 -10 1026.39 570.813   2
   4  10 -10 945.417 497.210   1
   4 -10  -9 9135.22 1571.43   2
   4  10  -9 7965.35 1385.74   2
   4  10  -9 7327.92 1195.14   1
   4 -10  -8 18864.6 2178.45   2
   4  10  -8 13381.2 1588.44   1
   4  10  -8 14240.5 1770.46   2
   4 -10  -7 15409.5 1852.94   2
   4  10  -7 12618.9 1576.41   2
   4  10  -7 13343.6 1519.61   1
  -4 -10   6 171.946 139.528   3
   4  10  -6 186.027 260.350   2
   4  10  -6 326.575 273.023   1
   4  10  -5 13464.5 1333.04   2
  -4 -10   5 15865.5 1540.71   3
   4  10  -5 15011.2 1529.18   1
   4  10  -4 11321.3 1327.30   1
  -4 -10   4 10382.3 1225.35   3
   4  10  -3 16631.7 1615.48   1
  -4 -10   3 15014.7 1501.85   3
  -4 -10   2 30224.6 2144.64   3
  -4 -10   1 7040.45 984.054   3
  -4 -10   0-97.0273 210.674   3
  -4 -10  -1 34967.8 2404.83   3
  -4 -10  -2 14984.0 1530.66   3
  -4 -10  -3 13533.3 1476.39   3
  -4 -10  -4 24075.2 2065.32   3
  -4 -10  -5 856.506 376.875   3
  -4 -10  -6 465.979 292.936   3
  -4 -10  -7 35619.7 2814.83   3
  -4 -10  -8 9059.08 1457.00   3
  -4 -10  -9 8041.89 1458.14   3
   4  11 -11 329.093 223.686   1
   4  11 -10 10189.7 1507.18   1
   4  11 -10 10203.3 1649.21   2
   4 -11  -9 1733.22 700.863   2
   4  11  -9 1556.30 569.461   1
   4  11  -9 2086.61 685.310   2
   4  11  -8 43927.5 3113.15   1
   4  11  -8 48267.2 3366.63   2
   4 -11  -7 2518.16 746.429   2
   4  11  -7 2188.90 622.357   1
  -4 -11   7 2236.09 590.803   3
  -4 -11   6 7119.61 1061.46   3
   4  11  -6 6300.72 1019.23   1
   4  11  -5 4992.43 889.828   1
  -4 -11   5 4027.97 770.559   3
   4  11  -4 20841.2 1892.58   1
  -4 -11   4 17861.0 1667.70   3
  -4 -11   3 3838.11 754.351   3
   4  11  -3 3863.16 798.070   1
  -4 -11   2 56739.5 3140.47   3
  -4 -11   1 2188.69 569.308   3
  -4 -11   0 121.993 194.999   3
  -4 -11  -1 8913.80 1176.30   3
  -4 -11  -2 42638.1 2775.36   3
  -4 -11  -3 1154.16 461.876   3
  -4 -11  -4 24876.1 2142.53   3
  -4 -11  -5 1621.04 534.528   3
  -4 -11  -6 5840.04 1086.71   3
  -4 -11  -7 5920.86 1132.28   3
  -4 -11  -8 29082.1 2688.96   3
   4  12 -10 471.495 407.916   1
   4  12  -9 5946.40 1098.56   1
   4 -12  -8 7942.31 1451.82   2
   4  12  -8 6526.99 1168.86   1
   4 -12  -7 20663.6 2243.71   2
  -4 -12   7 19814.4 1869.24   3
   4  12  -7 18214.9 1909.76   1
  -4 -12   6 30660.4 2354.26   3
   4  12  -6 32417.4 2514.87   1
   4  12  -5 9306.52 1293.59   1
  -4 -12   5 7796.13 1116.95   3
  -4 -12   4 421.471 225.951   3
   4  12  -4 665.316 344.166   1
   4  12  -3 10888.3 1378.49   1
  -4 -12   3 8436.70 1133.05   3
  -4 -12   2 6186.15 962.538   3
  -4 -12   1 9504.78 1217.38   3
  -4 -12   0 47445.3 2982.56   3
  -4 -12  -1 26866.5 2157.13   3
  -4 -12  -2 340.059 226.659   3
  -4 -12  -3 5619.17 986.903   3
  -4 -12  -4 2061.84 600.891   3
  -4 -12  -5 365.972 326.169   3
  -4 -12  -6 37262.0 2902.94   3
  -4 -12  -7 29001.5 2608.75   3
   4  13 -10 3937.06 955.538   1
   4  13  -9 89.2419 285.884   1
   4  13  -8 14412.8 1777.15   1
   4 -13  -7 20453.9 2249.81   2
  -4 -13   7 21779.6 1991.77   3
   4  13  -7 20121.7 2041.99   1
  -4 -13   6 499.787 219.188   3
   4  13  -6 1169.79 503.418   1
  -4 -13   5 1053.77 349.791   3
   4  13  -5 988.206 356.862   1
   4  13  -4 9574.11 1354.43   1
  -4 -13   4 11664.0 1369.01   3
  -4 -13   3 1440.19 455.056   3
   4  13  -3 1542.64 547.079   1
  -4 -13   2 19605.8 1780.73   3
  -4 -13   1 39455.6 2664.86   3
  -4 -13   0 182.746 208.778   3
  -4 -13  -1 1901.70 555.162   3
  -4 -13  -2 13076.7 1525.16   3
  -4 -13  -3 1857.60 564.777   3
  -4 -13  -4 13108.0 1587.63   3
  -4 -13  -5 37071.9 2855.74   3
  -4 -13  -6 1565.44 619.281   3
  -4 -13  -7 443.941 374.103   3
   4  14  -9 81.7551 171.721   1
   4  14  -8 4630.37 1000.94   1
  -4 -14   7 2036.06 613.939   3
   4 -14  -7 2612.91 811.122   2
   4  14  -7 2134.81 640.169   1
  -4 -14   6 67821.8 3762.03   3
   4  14  -6 67916.7 4049.06   1
   4  14  -5 8921.17 1344.01   1
  -4 -14   5 10044.8 1294.00   3
   4  14  -4 226.847 157.227   1
  -4 -14   4 321.519 263.385   3
  -4 -14   3 391.421 231.662   3
   4  14  -3 477.897 245.190   1
  -4 -14   2 1665.76 536.035   3
  -4 -14   1 4868.41 907.038   3
  -4 -14   0 96075.6 4720.57   3
  -4 -14  -1 15129.8 1649.33   3
  -4 -14  -2 715.097 363.498   3
  -4 -14  -3 2980.35 752.593   3
  -4 -14  -4 364.796 284.409   3
  -4 -14  -5 5801.64 1119.73   3
  -4 -14  -6 54754.2 3748.34   3
   4  15  -8 922.791 460.960   1
  -4 -15   7 21207.9 2010.21   3
   4  15  -7 19031.2 2081.97   1
   4  15  -6 3090.81 823.410   1
  -4 -15   6 4505.02 898.888   3
  -4 -15   5 938.930 322.844   3
   4  15  -5 1523.76 590.728   1
   4  15  -4 7954.64 1322.70   1
  -4 -15   4 7616.35 1143.79   3
   4  15  -3 1778.85 598.270   1
  -4 -15   3 1939.71 572.183   3
  -4 -15   2 2836.78 685.630   3
  -4 -15   1 34710.2 2586.11   3
  -4 -15   0 2012.68 613.196   3
  -4 -15  -1 399.591 249.135   3
  -4 -15  -2 414.871 330.547   3
  -4 -15  -3 1813.43 587.637   3
  -4 -15  -4 5231.51 1036.64   3
  -4 -15  -5 33896.1 2848.43   3
   4  16  -7 416.192 376.211   1
   4  16  -6 32063.5 2829.46   1
  -4 -16   6 33428.2 2570.28   3
   4  16  -5 7237.15 1294.33   1
  -4 -16   5 5855.70 1034.60   3
  -4 -16   4 5752.27 1002.83   3
   4  16  -4 5535.18 1124.01   1
  -4 -16   3 3195.34 760.942   3
   4  16  -3 2709.98 778.915   1
  -4 -16   2 13983.4 1584.52   3
  -4 -16   1 1480.64 510.007   3
  -4 -16   0 39044.0 2878.44   3
  -4 -16  -1 2516.58 668.141   3
  -4 -16  -2 11010.6 1486.19   3
  -4 -16  -3 1160.83 477.814   3
  -4 -16  -4 8079.45 1304.34   3
   4  17  -6 4253.90 1027.75   1
  -4 -17   5 1607.01 517.603   3
   4  17  -5 2031.88 652.378   1
  -4 -17   4-130.980 159.947   3
   4  17  -4-129.487 195.798   1
   4  17  -3 30969.3 2814.41   1
  -4 -17   3 32760.9 2543.76   3
  -4 -17   2 40.9576 218.330   3
  -4 -17   1 4125.69 887.839   3
  -4 -17   0 2439.49 674.384   3
  -4 -17  -1 5955.43 1076.89   3
  -4 -17  -2 1891.78 609.321   3
  -4 -18   3 1883.60 627.746   3
   4  18  -3 1802.26 702.550   1
  -4 -18   2 24843.8 2230.44   3
  -4 -18   1 1603.32 541.513   3
   5   0 -10-373.573 501.504   2
   5   0  -9 1231.40 658.334   2
   5   0  -8-113.567 374.290   2
   5   0  -7 1450.26 569.791   2
   5   0  -6-318.063 405.472   2
   5   0  -5 52808.6 3336.83   2
   5   0  -4 163.320 276.631   2
   5   0  -3 12299.2 1392.78   2
   5   0  -2-85.0426 152.361   2
  -5   0   2 159.573 187.896   3
  -5   0   1 736.046 321.814   3
   5   0  -1 793.555 332.215   2
  -5   0   0 203.931 163.494   3
  -5   0  -1 40509.7 2437.10   3
  -5   0  -2 254.518 196.912   3
  -5   0  -3 28457.8 1995.54   3
  -5   0  -4 142.945 164.552   3
  -5   0  -5 3076.31 636.383   3
  -5   0  -6 91.5490 141.450   3
  -5   0  -7 14881.7 1519.95   3
   5   1 -10 57772.7 4576.15   2
   5  -1 -10 65045.9 4829.57   2
   5   1  -9 3710.83 1031.12   2
   5  -1  -9 3548.63 1018.30   2
   5   1  -8 10977.6 1727.85   2
   5  -1  -8 10570.3 1661.89   2
   5   1  -7-165.991 279.251   2
   5  -1  -7-72.4095 247.532   2
   5   1  -6 351.579 264.760   2
   5  -1  -6 96.0835 166.125   2
   5   1  -5 2732.50 687.196   2
   5  -1  -5 3707.50 834.563   2
   5   1  -4 80454.9 4126.40   2
   5  -1  -4 86600.8 4380.45   2
   5   1  -3 9132.86 1146.59   2
   5  -1  -3 9122.25 1213.76   2
  -5  -1   3 8919.03 1129.31   3
   5   1  -2 31427.6 2192.48   2
   5  -1  -2 31350.1 2218.33   2
  -5  -1   2 29163.2 2142.10   3
   5   1  -1 506.811 230.183   2
  -5   1   1 600.467 231.012   3
  -5  -1   1 885.503 339.911   3
  -5   1   0 34.8314 141.076   3
   5   1   0 225.907 81.1816   2
  -5  -1   0-65.1433 159.191   3
  -5   1  -1 9610.41 1083.38   3
  -5  -1  -1 10298.0 1170.80   3
  -5   1  -2 43480.0 2498.00   3
  -5  -1  -2 41806.2 2532.09   3
  -5   1  -3 5416.39 817.924   3
  -5  -1  -3 5888.02 868.508   3
  -5   1  -4 52620.1 2753.63   3
  -5  -1  -4 44342.5 2695.68   3
  -5   1  -5 226.062 197.101   3
  -5  -1  -5 163.134 107.432   3
  -5   1  -6 211.732 174.689   3
  -5  -1  -6 787.941 323.638   3
  -5  -1  -7 5598.09 941.273   3
  -5  -1  -8 12464.9 1459.28   3
   5   2 -10 2656.97 902.890   2
   5  -2 -10 3319.03 1077.57   2
   5   2  -9 4277.03 1078.67   2
   5  -2  -9 5482.05 1293.53   2
   5   2  -8 15192.8 2006.17   2
   5  -2  -8 15100.3 2009.11   2
   5   2  -7 2875.55 879.520   2
   5  -2  -7 1905.66 625.795   2
   5   2  -6-1.54959 359.194   2
   5  -2  -6 228.261 124.262   2
   5  -2  -5 36443.1 2795.85   2
   5   2  -5 38932.2 2829.68   2
   5  -2  -4 16336.1 1721.68   2
   5   2  -4 15105.9 1591.04   2
   5   2  -3 15305.3 1513.58   2
   5  -2  -3 15379.0 1594.09   2
  -5  -2   3 15283.2 1518.14   3
   5   2  -2 28669.3 1997.15   2
  -5  -2   2 28145.3 2090.67   3
   5   2  -1 996.702 307.058   2
  -5  -2   1 1372.12 396.500   3
  -5   2   1 1462.28 404.548   3
   5   2   0 666.968 256.114   2
  -5   2   0 527.168 283.972   3
  -5  -2   0 104.024 159.563   3
  -5   2  -1 32377.6 2084.45   3
  -5  -2  -1 34606.2 2306.80   3
  -5   2  -2 22067.6 1654.67   3
  -5  -2  -2 23000.9 1829.35   3
  -5   2  -3 30008.2 1980.34   3
  -5  -2  -3 29838.4 2124.17   3
  -5   2  -4 28442.0 1925.03   3
  -5  -2  -4 27454.0 2113.62   3
  -5   2  -5 287.434 184.188   3
  -5  -2  -5 327.356 231.483   3
  -5   2  -6 202.737 204.249   3
  -5  -2  -6 131.691 175.743   3
  -5  -2  -7 21282.4 1931.32   3
  -5  -2  -8 10042.9 1329.33   3
   5   3 -10 15063.1 2189.02   2
   5   3  -9 10302.0 1743.25   2
   5  -3  -9 11375.9 1815.80   2
   5  -3  -8 24738.5 2618.33   2
   5   3  -8 26322.4 2684.46   2
   5   3  -7 493.047 388.117   2
   5  -3  -7 114.727 155.618   2
   5   3  -6 4478.55 964.438   2
   5  -3  -6 5173.32 1047.15   2
   5  -3  -5 11219.8 1536.06   2
   5   3  -5 10467.5 1412.67   2
   5  -3  -4 25753.6 2219.92   2
  -5  -3   4 26586.4 2113.18   3
   5   3  -4 30293.7 2294.88   2
   5  -3  -3 21484.6 1936.14   2
  -5  -3   3 22994.1 1928.59   3
   5   3  -3 25305.7 1937.10   2
   5   3  -2 36410.9 2223.92   2
  -5  -3   2 37560.9 2463.26   3
  -5  -3   1-208.303 263.608   3
  -5   3   0 270.149 122.734   3
  -5  -3   0 802.999 334.570   3
  -5   3  -1 22010.2 1662.63   3
  -5  -3  -1 24033.0 1912.20   3
  -5   3  -2 39069.9 2239.40   3
  -5  -3  -2 37898.3 2474.97   3
  -5   3  -3 22618.2 1627.09   3
  -5  -3  -3 22507.3 1876.36   3
  -5   3  -4 25884.7 1768.50   3
  -5  -3  -4 23138.3 1994.93   3
  -5   3  -5 580.454 263.464   3
  -5  -3  -5 272.572 206.106   3
  -5  -3  -6 809.158 331.894   3
  -5  -3  -7 15532.6 1690.84   3
  -5  -3  -8 20271.0 1976.45   3
  -5  -3  -9 8310.80 1279.15   3
   5   4 -10 1184.68 411.433   2
   5   4  -9 12717.2 1929.46   2
   5  -4  -9 13069.2 1944.26   2
   5  -4  -8 16947.6 2158.79   2
   5   4  -8 15536.2 2018.28   2
   5  -4  -7 15625.7 1924.99   2
   5   4  -7 13840.9 1800.24   2
   5  -4  -6 19953.2 2168.46   2
   5   4  -6 18558.2 1987.98   2
   5  -4  -5 6077.67 1106.89   2
   5   4  -5 5157.74 999.039   2
   5  -4  -4 6598.58 1087.41   2
  -5  -4   4 6307.19 972.872   3
   5   4  -4 6068.53 996.375   2
  -5  -4   3 15817.2 1577.72   3
  -5  -4   2 28634.5 2143.68   3
  -5  -4   1 4176.02 770.252   3
  -5  -4   0 18021.1 1696.98   3
  -5   4  -1 20164.8 1547.52   3
  -5  -4  -1 22212.7 1851.58   3
  -5   4  -2 11346.4 1107.57   3
  -5  -4  -2 10262.6 1246.31   3
  -5   4  -3 9512.27 1002.91   3
  -5  -4  -3 10696.0 1291.81   3
  -5   4  -4 11630.1 1102.31   3
  -5  -4  -4 13909.1 1526.05   3
  -5  -4  -5 550.165 359.236   3
  -5  -4  -6 13810.9 1587.24   3
  -5  -4  -7 27861.1 2351.08   3
  -5  -4  -8 8575.49 1290.37   3
  -5  -4  -9 2847.59 707.716   3
   5   5  -9 4311.12 1049.40   2
   5  -5  -9 3263.63 972.041   2
   5  -5  -8 25120.1 2657.78   2
   5   5  -8 28389.2 2809.90   2
   5  -5  -7 23874.3 2469.94   2
   5   5  -7 24657.1 2406.35   2
   5  -5  -6 6024.93 1184.01   2
   5  -5  -5 559.984 416.480   2
  -5  -5   5 609.776 294.296   3
   5  -5  -4 7474.83 1173.55   2
  -5  -5   4 8028.78 1132.48   3
  -5  -5   3 3790.59 749.811   3
  -5  -5   2 22398.1 1915.99   3
  -5  -5   1 38738.6 2575.58   3
  -5  -5   0 878.104 344.791   3
  -5  -5  -1 1378.97 499.581   3
  -5   5  -2 12190.6 1127.70   3
  -5  -5  -2 12086.3 1369.77   3
  -5  -5  -3 3676.13 787.934   3
  -5   5  -3 3617.35 596.715   3
  -5  -5  -4 9228.42 1264.90   3
  -5  -5  -5 33408.9 2529.83   3
  -5  -5  -6 3055.07 754.912   3
  -5  -5  -7 2960.08 768.822   3
  -5  -5  -8 12996.2 1627.58   3
  -5  -5  -9 1177.59 544.337   3
   5  -6  -8 13213.3 1884.16   2
   5  -6  -7 4662.32 1125.66   2
   5  -6  -6 70824.0 4365.80   2
   5  -6  -5 3249.73 832.070   2
  -5  -6   5 2196.56 587.155   3
  -5  -6   4 138.422 205.037   3
  -5  -6   3 5630.09 917.165   3
  -5  -6   2 2719.63 632.704   3
  -5  -6   1 2682.92 679.229   3
  -5  -6   0 89592.9 4302.89   3
  -5  -6  -1 9573.68 1229.96   3
  -5  -6  -2 986.180 435.324   3
  -5  -6  -3 2613.28 675.769   3
  -5  -6  -4 1166.39 455.093   3
  -5  -6  -5 615.633 381.254   3
  -5  -6  -6 57646.3 3592.13   3
  -5  -6  -7 10833.6 1487.86   3
  -5  -6  -8 2069.00 602.639   3
   5  -7  -8 1223.05 572.352   2
   5  -7  -7 41359.6 3443.39   2
   5  -7  -6 219.653 285.089   2
  -5  -7   5 2130.74 577.527   3
   5  -7  -5 1910.91 664.485   2
  -5  -7   4 2657.83 629.862   3
  -5  -7   3 1140.52 418.549   3
  -5  -7   2 2855.01 658.846   3
  -5  -7   1 75563.2 3964.61   3
  -5  -7   0 1000.74 361.229   3
  -5  -7  -1 1230.68 452.216   3
  -5  -7  -2 719.293 315.641   3
  -5  -7  -3 944.227 417.854   3
  -5  -7  -4 1898.40 567.130   3
  -5  -7  -5 72058.2 4090.75   3
  -5  -7  -6 877.281 451.953   3
  -5  -7  -7 387.440 232.379   3
  -5  -7  -8-29.0091 110.881   3
   5  -8  -7 1217.76 621.488   2
   5  -8  -6 75147.9 4605.81   2
  -5  -8   5 2658.52 644.776   3
   5  -8  -5 4080.91 927.815   2
  -5  -8   4 345.670 212.221   3
  -5  -8   3 2141.95 589.943   3
  -5  -8   2 5711.86 985.549   3
  -5  -8   1 400.050 328.742   3
  -5  -8   0 95854.0 4601.33   3
  -5  -8  -1 816.606 391.834   3
  -5  -8  -2 1905.47 561.214   3
  -5  -8  -3-232.930 254.561   3
  -5  -8  -4 1017.23 445.290   3
  -5  -8  -5 3472.80 847.239   3
  -5  -8  -6 61979.5 3884.79   3
  -5  -8  -7 481.580 469.162   3
   5  -9  -7 17699.5 2218.52   2
   5  -9  -6 11687.8 1689.59   2
  -5  -9   6 7874.02 1246.09   3
  -5  -9   5 482.794 271.445   3
  -5  -9   4 87.1498 165.854   3
  -5  -9   3 14747.0 1615.98   3
  -5  -9   2 2689.75 705.107   3
  -5  -9   1 37581.0 2696.59   3
  -5  -9   0 1806.70 577.334   3
  -5  -9  -1 4211.63 856.343   3
  -5  -9  -2 2976.95 747.358   3
  -5  -9  -3 13110.9 1608.92   3
  -5  -9  -4-114.771 254.903   3
  -5  -9  -5 36450.6 2892.36   3
  -5  -9  -6 777.061 443.445   3
   5 -10  -6 23538.4 2476.47   2
  -5 -10   5-111.976 293.055   3
  -5 -10   4 14751.1 1642.29   3
  -5 -10   3 6277.00 1049.16   3
  -5 -10   2 29054.1 2380.19   3
  -5 -10   1 113.820 113.761   3
  -5 -10   0 20272.2 1957.38   3
  -5 -10  -1 425.905 274.826   3
  -5 -10  -2 28978.6 2516.58   3
  -5 -10  -3 1344.14 551.346   3
  -5 -10  -4 19460.8 2056.95   3
  -5 -10  -5 2414.83 721.195   3
  -5 -11   4 9111.35 1318.35   3
  -5 -11   3 38993.6 2820.54   3
  -5 -11   2 7201.89 1176.38   3
  -5 -11   1 2678.14 698.346   3
  -5 -11   0 1184.96 465.598   3
  -5 -11  -1 11801.7 1529.87   3
  -5 -11  -2 10550.2 1509.29   3
  -5 -11  -3 38914.1 3008.40   3
  -5 -11  -4 5753.58 1122.31   3
  -5 -12   3 4320.86 899.070   3
  -5 -12   2 21201.1 2082.53   3
  -5 -12   1 374.549 242.850   3
  -5 -12   0 4994.16 997.253   3
  -5 -12  -1 7736.11 1268.61   3
  -5 -12  -2 30686.9 2700.37   3
  -6   0   1 302.093 227.854   3
  -6   0   0 77788.5 4059.98   3
  -6   0  -1-69.4594 261.139   3
  -6   0  -2 763.332 294.829   3
  -6   0  -3-498.354 287.729   3
  -6  -1   1 63982.8 3659.82   3
  -6   1   0 311.303 249.116   3
  -6  -1   0 373.867 296.641   3
  -6   1  -1 376.289 245.834   3
  -6  -1  -1-235.641 282.806   3
  -6   1  -2 832.306 348.544   3
  -6  -1  -2 1196.70 481.394   3
  -6  -1  -3 2051.69 596.210   3
  -6  -1  -4 709.280 352.230   3
  -6  -2   2 7967.73 1247.65   3
  -6  -2   1 1206.77 474.142   3
  -6  -2   0 35497.2 2632.75   3
  -6   2  -1 2910.69 684.555   3
  -6  -2  -1 2070.48 599.219   3
  -6   2  -2 4733.80 865.100   3
  -6  -2  -2 5648.66 998.338   3
  -6  -2  -3 2158.91 644.797   3
  -6  -2  -4 3906.84 859.464   3
  -6  -2  -5 38.2190 108.358   3
   6  -3  -6 3666.23 960.418   2
  -6  -3   2 10868.6 1431.25   3
  -6  -3   1 12178.5 1511.44   3
  -6  -3   0 659.797 328.617   3
  -6  -3  -1 6646.06 1083.86   3
  -6  -3  -2 6705.96 1125.94   3
  -6  -3  -3 17197.0 1852.23   3
  -6  -3  -4 3866.86 859.253   3
  -6  -3  -5 14491.1 1711.84   3
   6  -4  -6 4588.38 1036.61   2
   6  -4  -5 7688.20 1424.08   2
   6  -4  -4 13909.0 1829.92   2
   6  -4  -3 10937.2 1551.56   2
  -6  -4   2 21794.0 2101.15   3
  -6  -4   1 543.019 217.074   3
  -6  -4   0 2629.90 666.989   3
  -6  -4  -1 14302.1 1670.33   3
  -6  -4  -2 23673.2 2208.73   3
  -6  -4  -3 9849.26 1396.86   3
  -6  -4  -4 11898.0 1549.81   3
   6  -5  -6-188.844 257.383   2
   6  -5  -5 4985.31 1123.94   2
   6  -5  -4 21394.5 2314.66   2
   6  -5  -3 23404.9 2355.08   2
  -6  -5   0 184.686 194.279   3
  -6  -5  -1 13422.0 1659.52   3
  -6  -5  -2 19900.1 2053.39   3
   6  -6  -5 31084.9 2996.11   2
   6  -6  -4 6113.70 1251.14   2
   6  -6  -3 5887.36 1194.72   2
   6  -7  -4 38474.3 3269.56   2
   0   0   0    0.00    0.00   0
TITL JXJ-1-150829-BINGTONTG in P2(1)/n
REM P2(1)/n (#14 in standard setting)
CELL 0.71073   4.532125  18.238478  11.556650  90.0000  92.6607  90.0000
ZERR    4.00   0.000123   0.000467   0.000354   0.0000   0.0025   0.0000
LATT  1
SYMM -x+1/2, y+1/2,-z+1/2
SFAC C H N O
UNIT 44.00 40.00 4.00 4.00
TREF
HKLF 4
END
;
_shelx_hkl_checksum              60513
loop_
_space_group_symop_operation_xyz
'x, y, z'
'-x+1/2, y+1/2, -z+1/2'
'-x, -y, -z'
'x-1/2, -y-1/2, z-1/2'
loop_
_atom_site_label
_atom_site_type_symbol
_atom_site_fract_x
_atom_site_fract_y
_atom_site_fract_z
_atom_site_U_iso_or_equiv
_atom_site_adp_type
_atom_site_occupancy
_atom_site_site_symmetry_order
_atom_site_calc_flag
_atom_site_refinement_flags_posn
_atom_site_refinement_flags_adp
Pb1 Pb 0.23920(6) 0.52859(2) 0.32878(3) 0.01210(12) Uani 1 1 d . .
I1 I -0.24599(10) 0.61002(3) 0.48545(5) 0.01362(15) Uani 1 1 d . .
I2 I 0.71840(11) 0.46463(3) 0.16754(5) 0.01823(16) Uani 1 1 d . .
O0AA O 0.1937(12) 0.6421(3) 0.2194(6) 0.0220(14) Uani 1 1 d . .
N2 N -0.1238(14) 0.7015(3) 0.0946(6) 0.0137(14) Uani 1 1 d . .
C4 C 0.0601(18) 0.6485(5) 0.1224(9) 0.021(2) Uani 1 1 d . .
H4 H 0.0942 0.6132 0.0666 0.025 Uiso 1 1 calc R U
C5 C -0.2592(18) 0.7069(5) -0.0225(9) 0.024(2) Uani 1 1 d . .
H5A H -0.2067 0.7530 -0.0562 0.036 Uiso 1 1 calc R U
H5B H -0.4701 0.7039 -0.0190 0.036 Uiso 1 1 calc R U
H5C H -0.1896 0.6675 -0.0691 0.036 Uiso 1 1 calc R U
C6 C -0.2075(18) 0.7557(5) 0.1798(9) 0.021(2) Uani 1 1 d . .
H6A H -0.0744 0.7529 0.2467 0.031 Uiso 1 1 calc R U
H6B H -0.4053 0.7462 0.2021 0.031 Uiso 1 1 calc R U
H6C H -0.1981 0.8039 0.1466 0.031 Uiso 1 1 calc R U
loop_
_atom_site_aniso_label
_atom_site_aniso_U_11
_atom_site_aniso_U_22
_atom_site_aniso_U_33
_atom_site_aniso_U_23
_atom_site_aniso_U_13
_atom_site_aniso_U_12
Pb1 0.00938(18) 0.01556(18) 0.0115(2) 0.00029(12) 0.00160(13) 0.00040(10)
I1 0.0121(3) 0.0145(3) 0.0144(3) -0.0021(2) 0.0021(2) -0.00025(18)
I2 0.0120(3) 0.0275(3) 0.0154(4) -0.0088(2) 0.0027(2) -0.0015(2)
O0AA 0.026(3) 0.023(3) 0.018(4) 0.003(3) 0.002(3) -0.001(3)
N2 0.021(3) 0.016(3) 0.005(4) -0.004(3) 0.007(3) -0.001(3)
C4 0.027(5) 0.015(4) 0.021(6) 0.002(4) 0.005(4) -0.002(3)
C5 0.026(5) 0.025(4) 0.020(6) 0.006(4) -0.004(4) -0.006(4)
C6 0.021(4) 0.019(4) 0.023(6) 0.003(4) 0.005(4) 0.003(3)
loop_
_atom_type_symbol
_atom_type_description
_atom_type_scat_dispersion_real
_atom_type_scat_dispersion_imag
_atom_type_scat_source
C C 0.0033 0.0016 'International Tables Vol C Tables 4.2.6.8 and 6.1.1.4'
H H 0.0000 0.0000 'International Tables Vol C Tables 4.2.6.8 and 6.1.1.4'
I I -0.4742 1.8119 'International Tables Vol C Tables 4.2.6.8 and 6.1.1.4'
N N 0.0061 0.0033 'International Tables Vol C Tables 4.2.6.8 and 6.1.1.4'
O O 0.0106 0.0060 'International Tables Vol C Tables 4.2.6.8 and 6.1.1.4'
Pb Pb -3.3944 10.1111 'International Tables Vol C Tables 4.2.6.8 and 6.1.1.4'
loop_
_geom_angle_atom_site_label_1
_geom_angle_atom_site_label_2
_geom_angle_atom_site_label_3
_geom_angle
_geom_angle_site_symmetry_1
_geom_angle_site_symmetry_3
O0AA Pb1 I2 92.97(15) . .
O0AA Pb1 I2 87.97(14) . 1_455
I2 Pb1 I2 91.783(17) . 1_455
O0AA Pb1 I1 86.67(15) . 1_655
I2 Pb1 I1 90.110(15) . 1_655
I2 Pb1 I1 174.402(17) 1_455 1_655
O0AA Pb1 I1 81.84(15) . .
I2 Pb1 I1 174.618(17) . .
I2 Pb1 I1 89.489(15) 1_455 .
I1 Pb1 I1 88.152(15) 1_655 .
O0AA Pb1 I1 169.94(16) . 3_566
I2 Pb1 I1 96.588(16) . 3_566
I2 Pb1 I1 94.850(16) 1_455 3_566
I1 Pb1 I1 90.165(14) 1_655 3_566
I1 Pb1 I1 88.513(14) . 3_566
Pb1 I1 Pb1 88.152(15) 1_455 .
Pb1 I1 Pb1 89.836(14) 1_455 3_566
Pb1 I1 Pb1 91.488(14) . 3_566
Pb1 I2 Pb1 91.782(17) . 1_655
C4 O0AA Pb1 124.8(5) . .
C4 N2 C6 121.2(8) . .
C4 N2 C5 120.9(8) . .
C6 N2 C5 117.8(7) . .
O0AA C4 N2 124.4(9) . .
loop_
_geom_bond_atom_site_label_1
_geom_bond_atom_site_label_2
_geom_bond_distance
_geom_bond_site_symmetry_2
Pb1 O0AA 2.429(6) .
Pb1 I2 3.1504(6) .
Pb1 I2 3.1615(6) 1_455
Pb1 I1 3.2459(6) 1_655
Pb1 I1 3.2694(6) .
Pb1 I1 3.3159(6) 3_566
I1 Pb1 3.2459(6) 1_455
I1 Pb1 3.3158(6) 3_566
I2 Pb1 3.1615(6) 1_655
O0AA C4 1.254(11) .
N2 C4 1.306(11) .
N2 C6 1.459(11) .
N2 C5 1.463(11) .
