#------------------------------------------------------------------------------
#$Date: 2019-11-25 15:18:35 +0200 (Mon, 25 Nov 2019) $
#$Revision: 241179 $
#$URL: file:///home/coder/svn-repositories/cod/cif/4/13/08/4130819.cif $
#------------------------------------------------------------------------------
#
# This file is available in the Crystallography Open Database (COD),
# http://www.crystallography.net/
#
# All data on this site have been placed in the public domain by the
# contributors.
#
data_4130819
loop_
_publ_author_name
'Momiyama, Norie'
'Tabuse, Hideaki'
'Noda, Hirofumi'
'Yamanaka, Masahiro'
'Fujinami, Takeshi'
'Yamanishi, Katsunori'
'Izumiseki, Atsuto'
'Funayama, Kosuke'
'Egawa, Fuyuki'
'Okada, Shino'
'Adachi, Hiroaki'
'Terada, Masahiro'
_publ_section_title
;
 Molecular Design of a Chiral Br\/onsted Acid with Two Different Acidic
 Sites: Regio-, Diastereo-, and Enantioselective Hetero-Diels-Alder
 Reaction of Azopyridinecarboxylate with Amidodienes Catalyzed by Chiral
 Carboxylic Acid-Monophosphoric Acid.
;
_journal_issue                   35
_journal_name_full               'Journal of the American Chemical Society'
_journal_page_first              11353
_journal_page_last               11359
_journal_paper_doi               10.1021/jacs.6b07150
_journal_volume                  138
_journal_year                    2016
_chemical_absolute_configuration 'CHOOSE rm ad rmad syn or unk'
_chemical_formula_moiety         'C17 H17 Br N4 O2'
_chemical_formula_sum            'C17 H17 Br N4 O2'
_chemical_formula_weight         389.25
_space_group_crystal_system      monoclinic
_space_group_IT_number           4
_space_group_name_Hall           'P 2yb'
_space_group_name_H-M_alt        'P 1 21 1'
_atom_sites_solution_hydrogens   geom
_atom_sites_solution_primary     direct
_atom_sites_solution_secondary   difmap
_cell_angle_alpha                90.0000
_cell_angle_beta                 98.981(7)
_cell_angle_gamma                90.0000
_cell_formula_units_Z            2
_cell_length_a                   10.587(5)
_cell_length_b                   5.476(3)
_cell_length_c                   15.006(8)
_cell_measurement_reflns_used    2358
_cell_measurement_temperature    123
_cell_measurement_theta_max      27.48
_cell_measurement_theta_min      5.41
_cell_volume                     859.3(8)
_computing_cell_refinement       CrystalClear
_computing_data_collection       'CrystalClear (Rigaku Inc., 2008)'
_computing_data_reduction        CrystalClear
_computing_molecular_graphics    'CrystalStructure 4.2'
_computing_publication_material  'CrystalStructure 4.2 (Rigaku, 2015)'
_computing_structure_refinement  'SHELXL Version 2014/7 (Sheldrick, 2008)'
_computing_structure_solution    'Il Milione (Burla, et al., 2007)'
_diffrn_ambient_temperature      123
_diffrn_detector_area_resol_mean 7.314
_diffrn_measured_fraction_theta_full 0.963
_diffrn_measured_fraction_theta_max 0.963
_diffrn_measurement_device_type  'Rigaku Saturn70'
_diffrn_measurement_method       \w
_diffrn_radiation_type           'Mo K\a'
_diffrn_radiation_wavelength     0.71075
_diffrn_reflns_av_R_equivalents  0.0363
_diffrn_reflns_Laue_measured_fraction_full 0.963
_diffrn_reflns_Laue_measured_fraction_max 0.963
_diffrn_reflns_limit_h_max       12
_diffrn_reflns_limit_h_min       -12
_diffrn_reflns_limit_k_max       6
_diffrn_reflns_limit_k_min       -6
_diffrn_reflns_limit_l_max       17
_diffrn_reflns_limit_l_min       -17
_diffrn_reflns_number            10237
_diffrn_reflns_point_group_measured_fraction_full 0.954
_diffrn_reflns_point_group_measured_fraction_max 0.954
_diffrn_reflns_theta_full        24.994
_diffrn_reflns_theta_max         24.994
_diffrn_reflns_theta_min         5.412
_diffrn_standards_number         0
_exptl_absorpt_coefficient_mu    2.416
_exptl_absorpt_correction_T_max  0.886
_exptl_absorpt_correction_T_min  0.540
_exptl_absorpt_correction_type   multi-scan
_exptl_absorpt_process_details   'REQAB (Rigaku, 1998)'
_exptl_crystal_colour            colorless
_exptl_crystal_density_diffrn    1.504
_exptl_crystal_density_method    'not measured'
_exptl_crystal_description       platelet
_exptl_crystal_F_000             396.00
_exptl_crystal_size_max          0.200
_exptl_crystal_size_mid          0.150
_exptl_crystal_size_min          0.050
_refine_diff_density_max         0.36
_refine_diff_density_min         -0.28
_refine_ls_abs_structure_details
;
 Flack x determined using 925 quotients [(I+)-(I-)]/[(I+)+(I-)]
 (Parsons, Flack and Wagner, Acta Cryst. B69 (2013) 249-259).
;
_refine_ls_abs_structure_Flack   0.005(5)
_refine_ls_extinction_method     none
_refine_ls_goodness_of_fit_ref   1.118
_refine_ls_hydrogen_treatment    constr
_refine_ls_number_parameters     217
_refine_ls_number_reflns         2886
_refine_ls_number_restraints     1
_refine_ls_R_factor_all          0.0318
_refine_ls_R_factor_gt           0.0265
_refine_ls_shift/su_max          0.000
_refine_ls_structure_factor_coef Fsqd
_refine_ls_weighting_details
'w = 1/[\s^2^(Fo^2^)+(0.0001P)^2^] where P=(Fo^2^+2Fc^2^)/3'
_refine_ls_weighting_scheme      calc
_refine_ls_wR_factor_gt          0.0448
_refine_ls_wR_factor_ref         0.0459
_reflns_Friedel_coverage         0.778
_reflns_Friedel_fraction_full    0.944
_reflns_Friedel_fraction_max     0.944
_reflns_number_gt                2442
_reflns_number_total             2886
_reflns_threshold_expression     F^2^>2.0\s(F^2^)
_cod_data_source_file            ja6b07150_si_004.cif
_cod_data_source_block           Sample
_cod_original_cell_volume        859.3(7)
_cod_database_code               4130819
_shelx_res_file
;

    shelxl.res created by SHELXL-2014/7

TITL ky-160116a
CELL  0.71075 10.58690 5.47630 15.00550 90.00000 98.98130 90.00000
ZERR  2 0.00540 0.00250 0.00760 0.00000 0.00660 0.00000
LATT -1
SYMM    -X, .50+Y,    -Z
SFAC C H N O BR
UNIT 34 34 8 4 2
SHEL 99999.000000 0.840885
OMIT     -5   0   4
OMIT     -5   0   5
OMIT      3  -3   0
OMIT     -6   0   3
OMIT     -3  -2   2
OMIT     -1   2   4
OMIT     -5   0   6
OMIT     -1  -1   7
OMIT     -1  -2   4
OMIT     -2   2   7
OMIT      1   0   8
OMIT      4  -1   1
OMIT      1  -2   1
OMIT     -2   1   5
OMIT      0   1   6
OMIT     -1   2   7
OMIT     -2  -2   2
OMIT      6   1   3
OMIT     -7   0   5
OMIT     -3   2   2
OMIT      3  -2   3
OMIT      2  -1   1
OMIT     -3   2   4
L.S. 10
FMAP 2
PLAN 25
WPDB -2
HTAB
BOND $H
CONF
LIST 4
TEMP -149.8
ACTA
SIZE 0.200 0.150 0.050
WGHT    0.000100
FVAR       1.92525
BR1   5    0.862984    0.373998    0.689021    11.00000    0.03474    0.07883 =
         0.04953   -0.01346    0.02292   -0.01645
O1    4    1.531539    0.365059    0.676661    11.00000    0.03080    0.05137 =
         0.04201    0.00002    0.00425    0.00456
O2    4    1.443497    0.661194    0.580505    11.00000    0.02262    0.07257 =
         0.02607    0.00831    0.00168   -0.01133
N1    3    1.313763    1.098410    0.932667    11.00000    0.02543    0.03159 =
         0.04808   -0.00427    0.00102    0.00453
N2    3    1.480919    0.922608    0.873978    11.00000    0.02277    0.02253 =
         0.03678    0.00137    0.00324    0.00041
N3    3    1.537458    0.692043    0.859944    11.00000    0.02672    0.01765 =
         0.03418    0.00067    0.00980   -0.00158
N4    3    1.568608    0.769543    0.707301    11.00000    0.02689    0.04521 =
         0.02602    0.00776    0.00375   -0.00091
AFIX  43
H4    2    1.564338    0.917366    0.684029    11.00000   -1.20000
AFIX   0
C1    1    1.187514    1.102582    0.940013    11.00000    0.02934    0.04166 =
         0.04712   -0.00310   -0.00123    0.00748
AFIX  43
H1    2    1.157890    1.231243    0.973861    11.00000   -1.20000
AFIX   0
C2    1    1.100989    0.935238    0.902225    11.00000    0.01842    0.05605 =
         0.03598    0.00095   -0.00032    0.00074
AFIX  43
H2    2    1.013525    0.947710    0.909094    11.00000   -1.20000
AFIX   0
C3    1    1.143645    0.743978    0.852930    11.00000    0.02949    0.04053 =
         0.02988    0.00218   -0.00631   -0.00754
AFIX  43
H3    2    1.085761    0.621400    0.827067    11.00000   -1.20000
AFIX   0
C4    1    1.270597    0.734842    0.842176    11.00000    0.02969    0.03008 =
         0.02763   -0.00072    0.00448   -0.00216
AFIX  43
H4A   2    1.301359    0.608911    0.807665    11.00000   -1.20000
AFIX   0
C5    1    1.352867    0.916000    0.883454    11.00000    0.02371    0.02377 =
         0.02841    0.00688    0.00160    0.00291
C6    1    1.569081    1.096051    0.925264    11.00000    0.02859    0.01673 =
         0.04834   -0.00507    0.00230   -0.00686
AFIX  23
H6A   2    1.583961    1.049562    0.989811    11.00000   -1.20000
H6B   2    1.531457    1.261918    0.920107    11.00000   -1.20000
AFIX   0
C7    1    1.691986    1.095522    0.889540    11.00000    0.02989    0.03055 =
         0.05074    0.00758   -0.00739   -0.00615
AFIX  43
H7    2    1.753854    1.215837    0.911229    11.00000   -1.20000
AFIX   0
C8    1    1.720352    0.936926    0.829156    11.00000    0.01983    0.05569 =
         0.03355    0.01400    0.00111   -0.00402
AFIX  43
H8    2    1.797437    0.954730    0.804781    11.00000   -1.20000
AFIX   0
C9    1    1.631830    0.729767    0.799021    11.00000    0.02222    0.03519 =
         0.02830    0.00557    0.00222    0.00068
AFIX  13
H9    2    1.684304    0.577762    0.799654    11.00000   -1.20000
AFIX   0
C10   1    1.516108    0.577924    0.657570    11.00000    0.01618    0.06048 =
         0.03138    0.00587    0.01233    0.00080
C11   1    1.362667    0.479875    0.529942    11.00000    0.02636    0.07536 =
         0.02278   -0.00641    0.00587   -0.00249
AFIX  23
H11A  2    1.408686    0.322148    0.531720    11.00000   -1.20000
H11B  2    1.341552    0.531647    0.466140    11.00000   -1.20000
AFIX   0
C12   1    1.241902    0.448796    0.569406    11.00000    0.02372    0.03877 =
         0.02329   -0.00724    0.00235    0.00042
C13   1    1.223534    0.255474    0.624664    11.00000    0.02690    0.03587 =
         0.04608   -0.00764   -0.00378    0.00935
AFIX  43
H13   2    1.288846    0.135929    0.637611    11.00000   -1.20000
AFIX   0
C14   1    1.112112    0.230450    0.662001    11.00000    0.04534    0.03246 =
         0.03363    0.00405    0.00452   -0.00207
AFIX  43
H14   2    1.100419    0.095825    0.699800    11.00000   -1.20000
AFIX   0
C15   1    1.018762    0.407483    0.642460    11.00000    0.02174    0.04002 =
         0.02607   -0.00886    0.00665   -0.00641
C16   1    1.034367    0.604728    0.589122    11.00000    0.02522    0.03038 =
         0.03629    0.00077    0.00230    0.00482
AFIX  43
H16   2    0.969638    0.725715    0.577117    11.00000   -1.20000
AFIX   0
C17   1    1.146351    0.623648    0.553208    11.00000    0.02768    0.03140 =
         0.03087   -0.00087    0.00219   -0.00191
AFIX  43
H17   2    1.158267    0.760233    0.516382    11.00000   -1.20000
AFIX   0
HKLF 4

REM  ky-160116a
REM R1 =  0.0265 for    2442 Fo > 4sig(Fo)  and  0.0318 for all    2886 data
REM    217 parameters refined using      1 restraints

END

WGHT      0.0214      0.0000

REM Instructions for potential hydrogen bonds
EQIV $1 x, y+1, z
HTAB N4 O1_$1
HTAB C6 N3_$1
EQIV $2 x+1, y+1, z
HTAB C8 Br1_$2
EQIV $3 x+1, y, z
HTAB C9 Br1_$3
EQIV $4 -x+3, y-1/2, -z+1
HTAB C11 O2_$4

REM Highest difference peak  0.363,  deepest hole -0.275,  1-sigma level  0.040
Q1    1   1.4224  1.3721  0.9321  11.00000  0.05    0.36
Q2    1   0.8702  0.5272  0.6836  11.00000  0.05    0.28
Q3    1   0.8236  0.3575  0.6831  11.00000  0.05    0.25
Q4    1   0.8728  0.1998  0.6868  11.00000  0.05    0.19
Q5    1   1.5864  0.6615  0.9233  11.00000  0.05    0.19
Q6    1   0.8486  0.5956  0.5370  11.00000  0.05    0.18
Q7    1   1.2617  1.1070  0.9241  11.00000  0.05    0.17
Q8    1   1.2999  0.5103  0.5571  11.00000  0.05    0.16
Q9    1   0.9853  0.5386  0.7013  11.00000  0.05    0.16
Q10   1   1.3363  0.7602  0.8829  11.00000  0.05    0.15
Q11   1   1.1938  0.5221  0.5516  11.00000  0.05    0.15
Q12   1   1.1854  0.4843  0.5492  11.00000  0.05    0.15
Q13   1   1.2603  0.2411  0.6388  11.00000  0.05    0.15
Q14   1   1.6966  1.0898  0.6896  11.00000  0.05    0.15
Q15   1   0.9205  0.3746  0.6402  11.00000  0.05    0.14
Q16   1   0.9797  0.1474  0.6997  11.00000  0.05    0.14
Q17   1   1.2923  0.6953  0.8008  11.00000  0.05    0.14
Q18   1   1.5749  0.7247  0.8387  11.00000  0.05    0.14
Q19   1   1.2355  0.3071  0.5632  11.00000  0.05    0.14
Q20   1   1.4976  0.7818  0.8660  11.00000  0.05    0.13
Q21   1   1.1984  0.3732  0.6995  11.00000  0.05    0.13
Q22   1   1.1408  0.1946  0.6199  11.00000  0.05    0.13
Q23   1   1.1405  0.7858  0.6636  11.00000  0.05    0.13
Q24   1   0.7544  0.5426  0.6817  11.00000  0.05    0.13
Q25   1   1.5790  0.7348  0.7613  11.00000  0.05    0.13
;
_shelx_res_checksum              91231
_shelx_hkl_file
;
   0   0  -6 4604.31  158.21
   0   0   6 4264.03  153.97
   0   0  -6 4593.31  158.65
   0   0   6 4393.16  157.16
   0   0   6 4557.65  162.85
   0   0  -6 4343.84  156.42
   0   0   6 4531.55  167.29
   0   0  -6 4295.91  159.12
   0   0  -7 3407.49  124.07
   0   0   7 3098.89  119.42
   0   0   7 3064.40  121.76
   0   0  -7 3065.71  120.77
   0   0  -7 3096.65  124.05
   0   0   9 1724.43   82.76
   0   0   9 1714.02   84.44
   0   0  -9 1696.32   80.00
   0   0  -9 1663.70   77.01
   0   0  10  761.34   85.04
   0   0  10  754.17   65.27
   0   0 -10  706.07   60.67
   0   0 -10  715.92   61.29
   0   0  11 2552.19  142.06
   0   0  11 2677.66  165.42
   0   0 -11 2492.83  139.93
   0   0 -11 2515.05  134.90
   0   0  12   28.47   49.38
   0   0  12    6.38   25.19
   0   0 -12    5.18   35.07
   0   0 -12   23.33   48.88
   0   0  13  831.45   90.55
   0   0  13  753.86  110.96
   0   0 -13  706.64   99.10
   0   0 -13  796.68  123.02
   0   0  14    6.67   33.77
   0   0  14   10.18   39.78
   0   0 -14   23.85   48.12
   0   0 -14   26.39   56.55
   0   0  15   59.14   49.50
   0   0  15   43.06   42.22
   0   0 -15   70.95   47.39
   0   0 -15   56.29   40.13
   0   0  16  319.21   64.95
   0   0  16  319.48   73.82
   0   0 -16  312.27   68.52
   0   0 -16  341.06   75.94
   0   0  17   12.74   35.64
   0   0  17   15.82   52.47
   0   0 -17   12.91   58.57
   0   0 -17    8.80   40.04
   0   0  18  183.30   74.66
   0   0 -18  194.43   67.63
   0   0 -18  216.36   71.91
   0   0  19  258.15   90.93
   0   0 -19  245.72   69.31
   0   1  -3 3342.84  126.27
   0   1   3 3530.10  124.64
   0   1   3 3265.65  119.75
   0   1  -3 3352.20  117.07
   0  -1   3 3022.94  107.71
   0  -1   3 3214.64  115.78
   0  -1   3 2745.34   94.59
   0  -1  -3 3132.79  112.54
   0  -1  -3 3055.89  113.91
   0   1  -5  497.25   29.88
   0   1   5  563.90   38.54
   0   1   5  598.17   31.30
   0   1   5  537.31   49.54
   0   1  -5  559.47   49.55
   0   1  -5  503.91   64.52
   0   1   5  581.67   35.74
   0   1  -5  535.37   31.45
   0  -1   5  395.10   44.69
   0  -1  -5  410.50   31.17
   0  -1   5  394.04   34.90
   0  -1   5  387.64   69.30
   0  -1  -5  421.51   26.71
   0  -1  -5  388.26   42.58
   0  -1   5  419.73   27.82
   0  -1  -5  401.03   26.12
   0   1  -6 1762.32   74.54
   0   1  -6 1908.86   99.51
   0  -1  -6 1283.69   56.59
   0  -1  -6 1230.82   59.88
   0  -1   6 1275.44   76.30
   0  -1  -6 1220.24   69.67
   0  -1   7 9649.45  251.94
   0  -1   710096.78  252.20
   0   1  -8 2248.12   75.28
   0   1  -8 2340.19  107.37
   0   1   8 2387.55   89.93
   0   1   8 2529.02   91.66
   0   1   8 2677.97   83.49
   0   1  -8 2582.45   97.46
   0  -1   8 2565.62   96.09
   0  -1  -8 2535.13   90.05
   0  -1   8 2574.75   90.43
   0  -1  -8 2457.14   98.76
   0  -1   8 2666.67   92.37
   0   1   9 2070.66   84.74
   0   1   9 2040.06   94.03
   0   1  -9 2030.75   95.99
   0   1  -9 2133.68   96.63
   0  -1   9 2267.14   92.17
   0  -1   9 2307.33  102.04
   0  -1  -9 2147.96  105.76
   0  -1  -9 2125.38   87.13
   0   1  10 2298.45  118.41
   0   1  10 2230.50  121.79
   0   1 -10 2151.81  119.56
   0   1 -10 2366.18  114.77
   0  -1  10 1945.73  169.69
   0  -1  10 1964.11  103.80
   0  -1 -10 1861.33   97.22
   0  -1 -10 1881.33  110.95
   0   1  11   76.71   38.97
   0   1  11   53.67   57.51
   0   1 -11   88.59   52.63
   0   1 -11   99.16   34.74
   0  -1  11  190.04   44.59
   0  -1  11  209.57   49.18
   0  -1 -11  207.51   49.05
   0  -1 -11  185.90   37.34
   0   1  12 1285.04  100.55
   0   1  12 1295.67   98.35
   0   1 -12 1249.06  100.81
   0   1 -12 1362.79   89.36
   0  -1  12 1384.98  115.62
   0  -1  12 1473.80  121.57
   0  -1 -12 1306.44  119.12
   0  -1 -12 1277.97   94.68
   0   1  13  207.46   67.82
   0   1  13  207.26   61.63
   0   1 -13  206.95   63.07
   0   1 -13  238.54   50.68
   0  -1  13  255.96   58.17
   0  -1  13  251.39   81.18
   0  -1 -13  248.64   77.26
   0  -1 -13  238.56   52.45
   0   1  14  415.19   85.83
   0   1  14  412.30   81.29
   0   1 -14  464.54   82.77
   0   1 -14  426.03   71.99
   0  -1  14  479.85   69.37
   0  -1  14  504.12  107.83
   0  -1 -14  483.00   91.28
   0  -1 -14  433.82   72.96
   0   1  15  598.54  103.05
   0   1  15  656.26  103.92
   0   1 -15  682.71   97.22
   0   1 -15  680.50   94.76
   0  -1  15  944.34  120.47
   0  -1  15  945.04  191.00
   0  -1 -15  903.92  217.83
   0  -1 -15  890.53  112.05
   0   1  16   -0.77   39.84
   0   1  16   11.71   55.26
   0   1 -16    8.33   41.85
   0   1 -16    4.51   33.41
   0  -1  16   14.29   27.00
   0  -1  16   -7.13   27.80
   0  -1 -16    1.88   27.15
   0  -1 -16   12.36   54.00
   0   1  17  372.23   96.32
   0   1  17  365.58   79.91
   0   1 -17  389.04   90.29
   0   1 -17  383.74   69.96
   0  -1  17  392.32   99.34
   0  -1  17  407.31   64.58
   0  -1 -17  390.49   65.66
   0  -1 -17  369.08  122.32
   0   1 -18  164.06   70.65
   0   1 -18  169.80   75.76
   0   1  18  144.49   89.71
   0  -1 -18  115.79   50.65
   0  -1  18  164.24   71.40
   0  -1 -18  121.42  101.61
   0  -1  18  165.93   65.88
   0   1  19  156.66   69.48
   0   1  19  141.45   81.21
   0   1 -19  162.09   60.36
   0   1 -19  161.54  125.52
   0  -1  19   82.95  111.03
   0  -1 -19  131.81   89.85
   0   2   0 1854.44   76.12
   0   2   0 1832.41   75.35
   0  -2   0 2053.93   79.42
   0  -2   0 2386.04   89.23
   0  -2   0 2321.68   84.09
   0  -2   0 2380.97   86.49
   0  -2   0 2332.02   85.02
   0   2  -1 2060.49   80.47
   0   2  -1 2099.01   84.77
   0   2   1 2034.09   80.67
   0   2  -1 1938.00   74.95
   0   2   1 1988.67   79.28
   0   2   1 2049.33   75.07
   0  -2   1 2068.74   79.16
   0  -2   1 2107.65   84.73
   0  -2  -1 2209.75   85.70
   0  -2  -1 2225.93   79.40
   0  -2  -1 2154.11   81.11
   0  -2   1 2145.15   80.17
   0  -2  -1 2222.37   88.88
   0  -2   1 2003.22   73.42
   0  -2  -1 2475.13   92.31
   0  -2   1 2134.50   80.79
   0   2   3 6443.05  222.69
   0  -2   3 6238.82  215.30
   0  -2   3 6314.58  216.41
   0  -2  -3 6283.90  219.72
   0   2  -4   30.78   20.78
   0   2   4   29.92   34.62
   0   2   4   29.79   16.35
   0   2   4   31.94   19.18
   0   2  -4   34.16   27.74
   0   2  -4   30.94   17.82
   0  -2   4   24.95   23.60
   0  -2  -4   21.60   21.27
   0  -2   4   21.94   41.25
   0  -2  -4   21.02   15.95
   0  -2  -4   30.16   22.74
   0  -2   4   18.80   15.16
   0   2   6 7752.78  216.81
   0   2  -6 7929.52  226.80
   0  -2   6 9111.99  243.02
   0  -2  -6 8835.80  251.69
   0   2  -7 1719.91   64.49
   0   2   7 1486.61   62.97
   0   2   7 1557.86   83.87
   0   2  -7 1686.72   61.87
   0   2  -7 1575.71   82.23
   0  -2   7 1822.60   73.64
   0  -2  -7 1809.42   66.40
   0  -2  -7 1856.56   91.65
   0  -2   7 1885.17   62.50
   0  -2   7 1852.39   85.13
   0   2  -8  724.06   56.15
   0   2  -8  688.53   62.24
   0   2   8  696.94   68.27
   0   2   8  696.41   46.28
   0   2   8  630.91   52.48
   0   2  -8  751.68   57.07
   0  -2   8  785.67   77.76
   0  -2  -8  706.55   43.16
   0  -2  -8  759.79   70.89
   0  -2   8  751.72   37.85
   0  -2   8  795.93   68.13
   0   2  -9 1466.24   95.20
   0   2   9 1427.37   91.29
   0   2   9 1326.65   77.23
   0   2   9 1444.38   74.43
   0   2  -9 1577.08   99.04
   0  -2   9 1544.60  107.53
   0  -2  -9 1408.82   77.57
   0  -2   9 1436.69   70.37
   0  -2  -9 1506.66  102.37
   0  -2   9 1501.29   84.41
   0   2  10 1672.66  119.96
   0   2  10 1869.42  114.55
   0   2 -10 1868.94  118.30
   0   2 -10 2016.14  118.36
   0  -2  10 2042.82  117.17
   0  -2  10 2121.99  143.38
   0  -2 -10 1924.44  122.88
   0  -2 -10 1853.40   95.76
   0   2  11  596.42  100.03
   0   2  11  663.28   73.27
   0   2 -11  686.74   85.35
   0   2 -11  725.46   64.22
   0  -2  11  958.92   71.47
   0  -2  11  980.15   94.35
   0  -2 -11  917.54  101.77
   0  -2 -11  852.53   65.07
   0   2  12  235.97   53.11
   0   2  12  274.68   75.74
   0   2 -12  267.53   76.67
   0   2 -12  305.52   56.91
   0  -2  12  261.37  111.40
   0  -2  12  284.24   86.49
   0  -2 -12  252.68   82.26
   0  -2 -12  231.60   46.05
   0   2  13  526.82   74.99
   0   2  13  626.94   94.92
   0   2 -13  588.37   91.52
   0   2 -13  680.27   79.66
   0  -2  13  878.15  112.10
   0  -2  13  843.47  147.74
   0  -2 -13  827.09  126.71
   0  -2 -13  743.59   84.25
   0   2  14  917.60  105.96
   0   2  14 1086.36  128.50
   0   2 -14 1088.71  124.43
   0   2 -14 1172.90  162.18
   0  -2  14 1155.03  155.35
   0  -2  14 1124.18  161.77
   0  -2 -14 1071.53  135.67
   0  -2 -14 1012.95  100.38
   0   2  15  377.94   75.01
   0   2  15  487.98   84.07
   0   2 -15  447.44   91.07
   0   2 -15  502.83   73.86
   0  -2  15  436.63  117.43
   0  -2  15  418.75   79.18
   0  -2 -15  385.14   51.23
   0  -2 -15  471.79   88.52
   0   2 -16  428.69   84.85
   0   2  16  414.45   82.70
   0   2  16  375.78   79.03
   0   2 -16  500.12   71.58
   0  -2  16  435.44   96.16
   0  -2 -16  439.22   94.10
   0   2  17   39.68   61.45
   0   2 -17   61.57   82.85
   0  -2  17   85.17   62.79
   0  -2 -17   90.95   91.04
   0   2  18  102.15   69.47
   0   2  18   58.50   82.31
   0   2 -18   99.15   75.40
   0  -2  18  164.50   74.65
   0  -2 -18   99.29   93.90
   0   3   0   -0.95   15.20
   0   3   0   -2.53   24.12
   0  -3   0   -0.07   13.12
   0  -3   0   -2.53   18.64
   0  -3   0    1.64    9.38
   0  -3   0   -3.76   16.10
   0   3   1 7038.80  194.99
   0   3  -1 7245.09  200.72
   0  -3   1 6947.58  181.43
   0  -3  -1 7076.86  180.26
   0  -3   1 6206.00  161.09
   0  -3  -1 7425.90  196.76
   0   3  -2  687.59   48.59
   0   3   2  733.18   51.72
   0   3   2  738.76   56.71
   0   3  -2  723.90   47.75
   0  -3  -2  954.56   45.21
   0  -3  -2  963.26   37.36
   0  -3   2  951.41   56.61
   0  -3  -2  938.60   58.15
   0  -3   2  965.50   40.61
   0   3   3  429.38   46.61
   0   3  -3  451.33   43.60
   0   3   3  433.61   43.71
   0   3  -3  436.97   30.51
   0  -3   3  369.38   43.77
   0  -3   3  366.42   59.39
   0  -3  -3  331.24   42.85
   0  -3  -3  303.25   28.53
   0  -3  -3  349.13   21.26
   0  -3  -3  316.59   35.27
   0  -3   3  335.68   23.21
   0  -3   3  361.59   31.21
   0   3  -4 3617.87  115.93
   0   3   4 3416.58  118.28
   0   3   4 3473.58  129.04
   0   3  -4 3727.58  109.67
   0   3  -4 3651.83  131.18
   0  -3   4 2876.01   98.46
   0  -3  -4 3008.81   87.54
   0  -3  -4 2870.03  107.89
   0  -3   4 3071.96   92.06
   0  -3   4 3089.21  119.01
   0   3  -5  626.43   44.38
   0   3   5  562.22   47.56
   0   3   5  633.60   63.59
   0   3  -5  654.37   62.37
   0   3  -5  638.83   46.46
   0  -3  -5  755.78   46.46
   0  -3   5  848.65   67.07
   0  -3   5  874.59   46.40
   0  -3  -5  800.38   57.35
   0  -3   5  786.51   36.38
   0  -3  -5  809.27   32.53
   0   3   6 1456.62   97.07
   0   3   6 1505.51  101.07
   0   3  -6 1584.92  102.30
   0   3  -6 1585.23   89.30
   0  -3  -6 1517.85   71.89
   0  -3   6 1669.58  113.55
   0  -3   6 1589.19   80.28
   0  -3  -6 1628.86  102.12
   0  -3   6 1541.73   66.06
   0  -3  -6 1590.07   66.58
   0   3  -7 3176.23  157.10
   0   3   7 3152.43  161.53
   0   3   7 2770.29  130.86
   0   3   7 2966.98  115.35
   0   3  -7 3078.55  128.04
   0  -3   7 3170.58  173.85
   0  -3  -7 2954.21  127.86
   0  -3  -7 2918.40  160.51
   0  -3   7 2969.85  119.99
   0  -3   7 2626.91  120.00
   0   3  -8  486.99   68.21
   0   3   8  481.75   66.57
   0   3   8  416.61   72.18
   0   3   8  409.90   40.33
   0   3  -8  485.42   48.44
   0  -3   8  481.88   84.07
   0  -3  -8  427.37   30.60
   0  -3  -8  448.62   65.74
   0  -3   8  440.18   32.66
   0  -3   8  416.77  102.35
   0   3  -9 1800.37  130.15
   0   3   9 1773.19  128.62
   0   3   9 1395.42   97.43
   0   3   9 1482.91   78.52
   0   3  -9 1794.07  113.83
   0  -3   9 1890.38  206.21
   0  -3  -9 1584.53   97.47
   0  -3   9 1708.67   89.23
   0  -3  -9 1727.66  125.61
   0  -3   9 1834.01  115.08
   0   3  10  492.94   90.03
   0   3  10  658.93  107.13
   0   3 -10  654.92  105.67
   0   3 -10  673.51   87.04
   0  -3  10  912.03   84.05
   0  -3  10  924.98  158.30
   0  -3 -10  863.79  108.48
   0  -3 -10  821.71   69.42
   0   3  11   29.21   40.91
   0   3  11   36.71   57.59
   0   3 -11   63.40   69.95
   0   3 -11   50.23   54.44
   0  -3  11  104.42   79.75
   0  -3  11  113.21   94.58
   0  -3 -11   92.34   68.73
   0  -3 -11   97.39   24.46
   0   3 -12 1744.02  168.58
   0   3  12 1715.34  186.73
   0   3  12 1304.54  139.60
   0   3 -12 1763.19  191.81
   0  -3  12 1721.12  215.30
   0  -3 -12 1635.61  182.85
   0  -3  12 1784.15  175.98
   0   3 -13   60.22   43.11
   0   3  13   57.43   50.16
   0   3  13   38.12   37.95
   0   3 -13   47.95   61.99
   0  -3  13   73.84   64.98
   0  -3 -13   53.59   64.71
   0  -3  13   44.88   43.78
   0   3  14  332.33   88.59
   0   3  14  205.75   55.42
   0   3 -14  331.83   83.68
   0  -3  14  336.42   88.80
   0  -3 -14  284.45   89.59
   0   3  15   33.15   48.43
   0   3  16   -1.52   57.69
   0   3  16   -5.18   31.31
   0   3 -16    0.88   58.70
   0  -3  16   -2.23   44.76
   0  -3 -16   29.37   71.22
   0   3  17  251.44   88.16
   0   3 -17  264.06   93.29
   0  -3  17  226.63  170.18
   0  -3 -17  243.77  106.87
   0   4   0 4048.65  196.30
   0   4   0 3666.52  167.15
   0  -4   0 3582.93  175.18
   0  -4   0 3167.99  147.14
   0   4  -1   39.60   35.19
   0   4   1   57.90   44.36
   0   4  -1   50.45   30.46
   0  -4   1   65.97   61.49
   0  -4  -1   71.88   87.00
   0  -4  -1   53.66   15.23
   0  -4   1   56.76   60.56
   0  -4  -1   60.39   67.84
   0  -4   1   46.61   35.40
   0   4  -2   68.25   28.61
   0   4   2   54.02   31.63
   0   4   2   81.28   83.69
   0   4  -2   58.40   34.58
   0  -4  -2   26.57   30.01
   0  -4  -2   19.05   13.39
   0  -4   2   39.16   50.38
   0  -4   2   31.90   29.29
   0  -4  -2   28.00   31.23
   0  -4   2   25.03   18.30
   0   4   3 2682.92  141.88
   0   4   3 2582.05  139.70
   0   4  -3 2608.74  135.77
   0  -4   3 3172.18  172.97
   0  -4  -3 2973.38  130.55
   0  -4   3 3187.34  162.94
   0  -4   3 3164.75  153.19
   0  -4  -3 2888.46  155.96
   0  -4   3 2900.09  126.02
   0   4  -4  864.34   83.35
   0   4   4  834.45   81.46
   0   4   4  871.06   81.88
   0  -4   4  881.50  147.11
   0  -4  -4  699.00   43.69
   0  -4  -4  893.70   50.41
   0  -4   4  878.32   63.75
   0  -4   4  889.09   55.79
   0  -4  -4  837.77   76.40
   0  -4   4  959.11   53.33
   0   4  -5 1755.89  119.02
   0   4   5 1686.36  119.10
   0   4   5 1763.49  121.44
   0  -4   5 1963.27  165.69
   0  -4  -5 1497.66   80.01
   0  -4  -5 1819.51   89.68
   0  -4   5 1944.80  110.22
   0  -4  -5 1739.37  120.36
   0  -4   5 1835.11   90.98
   0   4   6  160.74   49.73
   0   4   6  148.18   53.69
   0   4  -6  180.25   47.71
   0   4  -6  157.86   30.41
   0  -4   6   61.95   54.16
   0  -4   6   72.22   67.29
   0  -4  -6   84.06   70.13
   0  -4  -6   66.08   22.94
   0   4  -7  222.41   35.78
   0   4   7  244.27   71.98
   0   4   7  244.70   59.21
   0   4  -7  271.83   72.43
   0  -4   7  150.14  181.37
   0  -4  -7  142.51   58.20
   0  -4   7  149.68   79.84
   0   4  -8 1405.19  110.66
   0   4   8 1361.27  135.03
   0   4   8 1402.24  130.72
   0   4  -8 1452.76  151.08
   0  -4   8 1717.46  267.54
   0  -4  -8 1513.68  140.37
   0  -4   8 1397.52  115.36
   0   4   9  517.44   75.13
   0   4   9  544.82   93.23
   0   4  -9  568.08   98.96
   0  -4   9  574.69   97.35
   0  -4   9  586.86   69.57
   0  -4  -9  573.60   92.12
   0   4  10  307.91   65.22
   0   4  10  335.65   76.11
   0   4 -10  320.71   73.13
   0  -4  10  406.33  148.75
   0  -4  10  367.12  118.98
   0  -4 -10  333.31   79.89
   0   4  11  366.31   81.07
   0   4  11  302.25   80.41
   0   4 -11  321.91   76.82
   0  -4  11  364.16  163.96
   0  -4 -11  347.77   92.92
   0   4  12   34.68   79.30
   0   4  12   11.51   35.48
   0   4 -12   40.27   64.23
   0  -4  12   49.26   64.24
   0  -4 -12   45.60   54.03
   0   4  13   38.08   44.29
   0   4  14   78.88   85.63
   0   4 -14   98.51   61.04
   0  -4  14  126.63   84.12
   0  -4 -14   97.24  106.44
   0   4  15   -1.24   57.66
   0   4 -15   19.63   45.77
   0  -4  15    1.90   37.74
   0  -4 -15   27.56   57.31
   0   5   0    0.93   31.51
   0  -5   0   -4.67   30.19
   0  -5   0    3.64   15.03
   0   5  -1  698.93   96.67
   0   5   1  708.79   98.54
   0   5  -1  645.37   83.10
   0  -5   1  896.41  121.01
   0  -5  -1  895.79   95.87
   0  -5  -1  884.78   95.71
   0  -5   1  814.86   77.46
   0  -5  -1  783.55   86.56
   0   5  -2 3601.54  289.28
   0   5   2 3949.38  442.20
   0  -5  -2 3065.03  315.62
   0  -5  -2 3066.94  239.61
   0  -5   2 3258.48  269.05
   0  -5   2 3115.69  247.75
   0  -5  -2 2886.50  247.60
   0   5   3  910.73  154.89
   0   5  -3  838.84   91.71
   0  -5   3  869.72  175.11
   0  -5  -3  826.79   93.72
   0  -5   3  843.42   89.94
   0  -5  -3  742.50  118.16
   0  -5   3  793.26   85.89
   0   5   4  474.52   70.65
   0   5   4  448.34   83.34
   0   5  -4  447.90   71.15
   0  -5   4  588.30  115.30
   0  -5   4  549.78   74.37
   0  -5  -4  495.84   74.63
   0   5   5  371.62   75.98
   0   5   5  340.32   80.61
   0   5  -5  323.87   74.75
   0  -5   5  396.77  141.03
   0  -5   5  370.45  107.62
   0  -5  -5  350.40   78.24
   0   5   6  387.71   70.76
   0   5   6  370.91   80.57
   0   5  -6  371.96   81.36
   0  -5   6  481.08  119.83
   0  -5   6  446.80   96.16
   0  -5  -6  460.69   76.29
   0   5   7  530.68   97.15
   0   5   7  494.46   87.80
   0   5  -7  524.50  100.79
   0  -5   7  538.14  105.50
   0  -5   7  476.16   92.25
   0  -5  -7  420.56   74.92
   0   5   8   41.58   53.87
   0   5   8   13.46   43.12
   0   5  -8   31.71   40.92
   0  -5   8   35.28   30.20
   0  -5   8   37.32   42.36
   0  -5  -8   26.57   33.52
   0   5   9  232.26   66.96
   0   5   9  196.64   64.25
   0   5  -9  201.33   62.28
   0  -5   9  244.23  116.41
   0  -5  -9  213.79   67.23
   0   5  10   88.87   54.44
   0   5 -10   93.47   68.59
   0  -5 -10   73.62   61.76
   0   5  11  140.34   77.33
   0  -5  11  154.49  111.45
   0   5  12   68.09   56.89
   0   5 -12   74.23   66.79
   0  -5  12  123.41  111.35
   0  -5 -12  134.54   79.59
   0   5  13   80.58   76.38
   0   5 -13   69.89   61.14
   0  -5  13   77.43   75.05
   0  -5 -13  107.75   90.04
   0   6   0 1531.64  211.30
   0  -6   0 1153.29  158.44
   0   6   1  156.10   54.31
   0  -6   1  161.27   62.09
   0  -6   1  179.21   59.32
   0  -6  -1  172.67  113.99
   0   6   2  423.20   85.96
   0   6  -2  378.23   77.07
   0  -6   2  404.43  126.58
   0  -6  -2  413.66   83.02
   0  -6   2  420.03   98.18
   0  -6  -2  371.83   68.91
   0   6   3  126.84   52.15
   0   6  -3  105.63   46.45
   0  -6   3  125.32  144.80
   0  -6  -3  117.63  134.66
   0  -6   3  117.29   98.34
   0  -6  -3  129.39   50.22
   0   6   4  476.83   83.68
   0   6  -4  450.81   71.99
   0  -6   4  483.01   85.51
   0  -6  -4  490.91   85.79
   0  -6   4  444.45   71.84
   0  -6  -4  463.16   73.53
   0   6  -5   89.90   56.04
   0   6   5   87.34   52.39
   0  -6   5   44.84   58.43
   0  -6  -5   22.98   39.11
   0  -6  -5   46.99   32.42
   0   6   6  504.05   83.11
   0   6  -6  484.66   76.58
   0  -6   6  597.03  107.93
   0  -6  -6  453.67   73.40
   0   6  -7   60.59   48.35
   0  -6  -7   84.71   57.75
   0   6   8    2.33   44.39
   0   6  -8    7.19   34.02
   0  -6   8    7.47   39.48
   0  -6  -8    1.76   32.69
   0   6   9   20.75   58.33
   0   6  -9   12.74   38.38
   0  -6   9    7.74   27.87
   0   6  10    4.49   42.84
   0   6 -10   -4.37   46.96
   0  -6  10   17.71   53.79
   0  -6 -10   10.49   34.07
   0  -7   0    9.61   23.61
   0  -7   0    8.82   22.84
   0  -7  -1   77.74   93.24
   0  -7   1   90.38  154.58
   0  -7  -3   40.66   80.51
   0  -7   3   35.31   46.37
  -1   0  19    7.38   38.05
   1   0 -19   12.35   42.31
  -1   0  18   67.01   69.28
  -1   0  18   40.52   56.48
   1   0 -18   67.22   62.80
   1   0 -18   54.58   56.45
  -1   0  17   33.86   50.26
  -1   0  17   13.82   40.71
   1   0 -17   21.02   54.72
   1   0 -17   30.96   57.68
  -1   0  16   82.59   47.97
  -1   0  16  109.29   78.01
   1   0 -16  107.52   51.03
   1   0 -16  118.34   88.26
  -1   0  15 1938.99  189.17
  -1   0  15 1936.24  210.33
   1   0 -15 1862.55  179.42
   1   0 -15 1959.46  194.85
  -1   0  14    3.72   40.79
  -1   0  14   -7.39   42.59
   1   0 -14    1.07   37.57
   1   0 -14    5.50   44.57
  -1   0  13 1990.71  133.35
  -1   0  13 1996.34  134.50
   1   0 -13 1916.01  133.48
   1   0 -13 1949.14  124.90
  -1   0  12  547.47   89.67
  -1   0  12  574.06   73.57
   1   0 -12  504.93   64.94
   1   0 -12  536.53   67.83
  -1   0  11 1162.74  105.39
  -1   0  11 1146.06  127.12
   1   0 -11 1128.96   88.35
   1   0 -11 1092.57   80.97
  -1   0  10 2184.22  116.01
  -1   0  10 2132.72  114.68
   1   0 -10 2032.26  111.41
   1   0 -10 1995.78  106.56
  -1   0   9 4714.20  160.78
  -1   0   9 4603.07  149.78
   1   0  -9 4434.70  151.03
   1   0  -9 4333.31  144.58
  -1   0   8 1140.36   93.83
  -1   0   8 1051.57   62.16
   1   0  -8 1049.83   88.07
   1   0  -8 1033.23   56.16
  -1   0   7 2814.51  114.80
   1   0  -7 2722.04  100.23
  -1   0   7 3051.22  117.49
   1   0  -7 2762.18  113.46
  -1   0   7 2842.49  108.92
   1   0  -7 2681.66  111.43
   1   0  -6  279.29   23.60
  -1   0   6  291.00   41.26
   1   0  -6  287.64   34.54
  -1   0   6  282.96   27.75
  -1   0   6  258.68   34.28
   1   0  -6  263.31   31.63
  -1   0   6  283.94   27.20
   1   0  -6  272.28   28.31
   1   0  -5 3450.15  120.66
  -1   0   5 3456.47  126.42
   1   0  -5 3206.93  110.47
  -1   0   5 3297.12  116.69
  -1   0   5 3291.69  117.08
   1   0  -5 3277.07  127.13
  -1   0   5 3538.81  125.14
   1   0  -5 3259.95  118.17
   1   0   4 5349.92  180.54
   1   0   4 5731.93  194.71
  -1   0  -5 2299.60   86.21
   1   0   5 2042.70   79.10
  -1   0  -5 2169.39   81.71
   1   0   5 2052.98   85.22
   1   0   5 2157.86   91.47
  -1   0  -5 2098.81   84.64
   1   0   5 2237.04   88.38
  -1   0  -5 2056.08   86.24
  -1   0  -6 3640.44  129.90
   1   0   6 3351.11  123.75
   1   0   6 3333.81  133.20
   1   0   6 3559.86  130.23
  -1   0  -6 3248.35  125.35
   1   0   6 3498.85  131.87
  -1   0  -6 3186.80  122.85
  -1   0  -7 3099.90   98.28
   1   0   7 2762.50   88.41
   1   0   7 2843.22   92.58
  -1   0  -7 2757.71   90.43
  -1   0  -7 2725.46   95.77
   1   0   8  792.44   46.81
   1   0   8  866.36   83.74
  -1   0  -8  809.99   58.83
  -1   0  -8  841.96   56.64
   1   0   9 3943.68  135.28
   1   0   9 4083.08  172.28
  -1   0  -9 3783.89  133.01
  -1   0  -9 3734.14  137.76
   1   0  10   80.97   63.72
   1   0  10  114.55   51.91
  -1   0 -10  107.34   52.62
  -1   0 -10  105.78   38.39
   1   0  11 2063.43  116.90
   1   0  11 2107.20  128.56
  -1   0 -11 1897.99  116.29
  -1   0 -11 1869.68  137.68
   1   0  12  648.23   67.96
   1   0  12  693.30   85.07
  -1   0 -12  620.59   69.21
  -1   0 -12  636.59   69.59
   1   0  13   25.26   39.05
   1   0  13   27.10   58.13
  -1   0 -13   31.54   37.13
  -1   0 -13   31.15   39.40
   1   0  14  791.14   98.67
   1   0  14  917.41  129.62
  -1   0 -14  837.98  106.05
  -1   0 -14  798.72  110.60
   1   0  15   27.06   57.10
   1   0  15   12.54   34.31
  -1   0 -15    7.07   47.03
  -1   0 -15   -2.72   41.68
   1   0  16   83.20   46.93
   1   0  16   78.88   51.75
  -1   0 -16   65.56   38.39
  -1   0 -16   79.03   46.54
   1   0  17  313.03   64.67
   1   0  17  353.37   84.57
  -1   0 -17  316.32   66.27
  -1   0 -17  314.85   59.86
   1   0  18   -0.87   35.02
   1   0  18    9.07   36.31
  -1   0 -18    3.74   35.83
  -1   1  19  169.21   73.80
  -1   1  19  228.98   78.54
   1   1 -19  214.93   73.24
   1   1 -19  228.50   65.16
  -1  -1  19  308.22   78.45
  -1  -1  19  227.35  185.43
   1  -1 -19  271.79  140.16
   1  -1 -19  250.91   67.02
   1   1 -18   77.42   69.35
  -1   1  18   45.00   63.24
   1   1 -18   68.30   57.29
   1  -1 -18   68.81   53.15
  -1  -1  18   44.66   56.82
  -1   1  17  449.44   89.24
  -1   1  17  534.69  100.74
   1   1 -17  528.50   90.09
   1   1 -17  569.51   84.79
  -1  -1  17  583.87   79.99
  -1  -1  17  561.36   79.60
   1  -1 -17  534.03  201.85
   1  -1 -17  513.99   68.76
  -1   1  16  590.59  110.94
  -1   1  16  596.15  119.65
   1   1 -16  586.10  112.00
   1   1 -16  640.82  105.05
  -1  -1  16  512.78  205.52
  -1  -1  16  575.00  103.49
   1  -1 -16  511.53  184.06
   1  -1 -16  482.77   81.79
  -1   1  15  468.99   85.49
  -1   1  15  538.01   99.45
   1   1 -15  518.88   86.48
   1   1 -15  534.66   89.04
  -1  -1  15  442.00   88.47
  -1  -1  15  450.60   86.21
   1  -1 -15  476.91   82.48
   1  -1 -15  457.95   75.35
  -1   1  14  732.31  101.56
  -1   1  14  782.32  111.43
   1   1 -14  717.28  101.89
   1   1 -14  718.18   88.75
  -1  -1  14  704.71  103.73
  -1  -1  14  751.12  161.00
   1  -1 -14  700.62   91.56
   1  -1 -14  710.83  111.75
  -1   1  13 1715.16  144.22
  -1   1  13 1834.87  167.15
   1   1 -13 1702.67  158.73
   1   1 -13 1815.51  164.25
  -1  -1  13 1950.91  171.89
  -1  -1  13 1919.85  195.96
   1  -1 -13 1783.40  171.92
   1  -1 -13 1785.67  152.94
  -1   1  12  341.72   52.97
  -1   1  12  336.31   65.37
   1   1 -12  305.98   57.55
   1   1 -12  338.12   53.48
  -1  -1  12  512.38  119.69
  -1  -1  12  418.72   69.96
   1  -1 -12  472.75   82.92
   1  -1 -12  445.04   99.82
  -1   1  11 4567.19  210.40
  -1   1  11 4740.87  231.90
   1   1 -11 4616.31  225.21
   1   1 -11 5068.39  236.69
  -1  -1  11 4743.96  222.85
  -1  -1  11 4929.87  236.60
   1  -1 -11 4685.55  229.11
   1  -1 -11 4697.66  223.73
  -1   1  10  187.38   39.44
  -1   1  10  196.98   61.55
   1   1 -10  183.52   52.10
   1   1 -10  228.55   85.64
  -1  -1  10  167.48  105.39
  -1  -1  10  158.96   56.11
   1  -1 -10  157.69   53.77
   1  -1 -10  144.09   43.00
  -1   1   9 2126.67   79.17
  -1   1   9 2191.63  112.41
   1   1  -9 2143.51   97.30
   1   1  -9 2285.61  101.14
  -1  -1   9 2460.43  105.69
  -1  -1   9 2500.97  109.76
   1  -1  -9 2455.72  109.92
   1  -1  -9 2445.16   96.78
   1   1  -8 3275.66  117.74
  -1   1   8 3331.43  118.48
   1   1  -8 3538.86  109.96
  -1   1   8 3266.71   98.69
  -1  -1   8 3476.59  118.81
   1  -1  -8 3295.55  120.78
  -1  -1   8 3533.21  115.55
  -1  -1   8 3379.14   99.05
   1  -1  -8 3321.73  131.25
   1  -1  -8 3444.06   96.96
   1   1  -7 1383.85   54.71
   1   1  -7 1438.36   68.79
  -1   1   7 1414.63  112.14
   1   1  -7 1594.78   70.03
  -1   1   7 1457.82   58.09
  -1  -1   7 1266.07   87.78
   1  -1  -7 1221.67   53.49
  -1  -1   7 1296.18   60.27
  -1  -1   7 1232.30   55.16
   1  -1  -7 1220.56   70.68
   1  -1  -7 1280.64   46.56
  -1   1   6 5775.04  204.88
   1   1  -6 5597.50  200.77
  -1   1   6 6219.56  211.61
   1  -1  -6 5975.49  214.41
   1  -1  -6 6429.50  212.87
  -1  -1   6 6139.43  206.19
   1  -1  -6 6041.52  249.41
   1   1  -5 3821.54  136.53
  -1   1   5 4415.64  153.53
  -1   1   5 4668.56  167.36
  -1   1   5 4334.36  163.12
   1   1  -5 4227.97  152.78
   1  -1  -5 4081.66  144.21
  -1  -1   5 3988.72  142.68
  -1  -1   5 3417.56  124.36
   1  -1  -5 3807.89  133.28
  -1  -1   5 3968.97  141.67
  -1  -1   5 3799.41  140.75
   1  -1  -5 3975.38  133.21
  -1  -1   5 3893.46  132.65
   1  -1  -5 3967.81  146.80
  -1   1   4 5717.63  199.49
  -1   1   4 5032.41  170.22
  -1  -1   4 5680.48  192.90
  -1  -1   4 5464.49  186.02
   1  -1  -4 5564.32  200.13
  -1   1  -4 1071.01   43.89
   1   1   4 1249.87   57.87
   1   1   4 1266.93   49.61
   1   1   4 1242.39   62.53
  -1   1  -4 1232.49   52.72
  -1   1  -4 1213.86   61.84
   1   1   4 1246.03   56.75
  -1   1  -4 1263.47   52.34
   1  -1   4 1196.98   45.75
  -1  -1  -4 1225.07   57.34
  -1  -1  -4 1124.77   44.63
   1  -1   4 1135.80   53.13
  -1  -1  -4 1239.59   51.63
  -1  -1  -4 1115.95  125.39
   1  -1   4 1120.29   46.27
   1  -1   4 1150.64   51.86
  -1   1  -6   66.83   13.13
   1   1   6   77.16   33.41
   1   1   6  103.83   29.24
   1   1   6   78.74   33.19
  -1   1  -6   73.83   53.16
  -1   1  -6   79.50   21.07
   1  -1   6   70.82   47.81
  -1  -1  -6   66.69   19.45
   1  -1   6   67.26   39.07
  -1  -1  -6   28.23   48.76
  -1  -1  -6   60.57   37.84
   1  -1   6   58.30   28.08
  -1   1  -7 5868.80  152.23
   1   1   7 5936.02  174.30
   1   1   7 5985.52  164.80
   1   1   7 6429.43  170.67
  -1   1  -7 6056.31  177.47
  -1   1  -7 6312.60  173.37
  -1   1  -8  208.34   33.29
  -1   1  -8  188.70   40.18
   1   1   8  188.78   52.15
  -1   1  -8  207.74   33.37
   1   1   8  203.64   36.15
   1   1   8  218.67   39.52
  -1  -1  -8  125.95   28.77
   1  -1   8  127.94   73.67
  -1  -1  -8  129.28   42.35
   1  -1   8  126.18   97.88
   1   1   9  163.17   38.35
   1   1   9  102.04   47.03
  -1   1  -9  167.24   47.75
  -1   1  -9  173.27   32.34
   1  -1   9  123.55  116.06
   1  -1   9   99.96   73.95
  -1  -1  -9   82.00   28.85
  -1  -1  -9   86.86   44.93
   1   1  10 2721.81  172.02
   1   1  10 2667.51  135.46
  -1   1 -10 2603.04  139.19
  -1   1 -10 2717.23  132.08
   1  -1  10 2927.74  165.34
   1  -1  10 2897.28  164.77
  -1  -1 -10 2765.63  134.11
  -1  -1 -10 2756.71  142.01
   1   1  11  403.60   57.37
   1   1  11  354.02   61.98
  -1   1 -11  399.36   68.26
  -1   1 -11  395.69   51.86
   1  -1  11  367.81   48.16
   1  -1  11  379.63   82.64
  -1  -1 -11  384.24   61.42
  -1  -1 -11  357.94   50.73
   1   1  12  358.65   96.79
   1   1  12  344.18   55.78
  -1   1 -12  376.05   70.95
  -1   1 -12  381.12   55.23
   1  -1  12  218.68   40.75
   1  -1  12  264.70   67.43
  -1  -1 -12  249.92   72.55
  -1  -1 -12  226.69   45.05
   1   1  13  142.81   68.19
   1   1  13  134.10   54.81
  -1   1 -13  137.22   58.11
  -1   1 -13  141.64   38.74
   1  -1  13  160.08   43.25
   1  -1  13  152.93   64.24
  -1  -1 -13  174.76  158.33
  -1  -1 -13  154.16   44.07
   1   1  14  118.79   68.44
   1   1  14  109.91   47.53
  -1   1 -14  115.63   58.16
  -1   1 -14  121.37   52.39
   1  -1  14  110.28   45.28
   1  -1  14  112.71   81.64
  -1  -1 -14  144.59  131.75
  -1  -1 -14  126.29   44.50
   1   1  15  248.80   87.94
   1   1  15  267.01   63.06
  -1   1 -15  292.94   83.80
  -1   1 -15  267.00   69.33
   1  -1  15  273.92   64.85
   1  -1  15  247.52  124.24
  -1  -1 -15  262.03   75.74
  -1  -1 -15  255.15   64.02
   1   1  16  105.49   86.88
   1   1  16  108.99   50.35
  -1   1 -16  130.28   59.25
  -1   1 -16  140.46  102.91
   1  -1  16   92.13   79.96
   1  -1  16   67.25   45.53
  -1  -1 -16   54.62   42.43
  -1  -1 -16   62.68   73.30
   1   1  17  109.93   60.19
   1   1  17  104.18   67.17
  -1   1 -17  102.14   75.58
  -1   1 -17  104.94   60.41
   1  -1  17  110.86   54.04
  -1  -1 -17   72.10   39.31
  -1   1 -18   11.47   27.71
  -1   1 -18    0.34   47.70
  -1  -1 -18   17.47   42.96
   1  -1  18   -0.62   41.61
  -1   2  18  339.56   90.05
  -1   2  18  248.93   82.30
   1   2 -18  337.63   97.63
  -1  -2  18  289.62   98.25
   1  -2 -18  284.48  151.20
  -1   2  17  109.65   61.19
  -1   2  17  141.93   85.21
   1   2 -17  134.60   90.65
  -1  -2  17  194.56   80.36
  -1  -2  17  169.71  123.72
   1  -2 -17  204.24   67.88
  -1   2  16   33.89   48.85
  -1   2  16   52.32   79.61
   1   2 -16   69.94   72.74
   1   2 -16   67.35   41.07
  -1  -2  16   51.87   41.95
  -1  -2  16   31.38   55.70
   1  -2 -16   55.33   64.63
   1  -2 -16   48.67   42.21
  -1   2  15  578.30   93.91
  -1   2  15  766.19  111.28
   1   2 -15  754.07  105.29
   1   2 -15  747.97  122.93
  -1  -2  15  791.63  148.84
  -1  -2  15  778.24  170.57
   1  -2 -15  690.41   97.64
   1  -2 -15  658.75   77.33
  -1   2  14  527.30   80.15
  -1   2  14  652.68   97.51
   1   2 -14  620.06   90.89
   1   2 -14  698.93  119.62
  -1  -2  14  607.06  121.85
  -1  -2  14  598.92   92.96
   1  -2 -14  589.04   96.44
   1  -2 -14  520.53   67.40
  -1   2  13  403.85   63.98
  -1   2  13  486.90   82.58
   1   2 -13  442.17   78.64
   1   2 -13  523.81   61.46
  -1  -2  13  412.16  127.23
  -1  -2  13  410.36   82.74
   1  -2 -13  430.28   83.74
   1  -2 -13  383.80   59.30
  -1   2  12  793.48   85.98
  -1   2  12  913.96  103.35
   1   2 -12  938.46  121.48
   1   2 -12  983.19   83.49
  -1  -2  12  869.64   91.95
  -1  -2  12  918.59  127.76
   1  -2 -12  844.78  111.00
   1  -2 -12  768.41   80.41
  -1   2  11  498.04   60.81
  -1   2  11  570.97   76.53
   1   2 -11  582.00   80.51
   1   2 -11  653.56   51.93
  -1  -2  11  550.44  141.75
  -1  -2  11  583.22  109.37
   1  -2 -11  562.03   82.60
   1  -2 -11  574.09   62.63
  -1   2  10  654.61  106.18
  -1   2  10  799.87   75.18
   1   2 -10  753.88   74.04
   1   2 -10  810.97   71.12
  -1  -2  10  653.86  103.65
  -1  -2  10  664.56  158.51
   1  -2 -10  581.94   67.00
   1  -2 -10  575.08   49.47
  -1   2   9 1493.85   79.92
  -1   2   9 1627.44   97.78
   1   2  -9 1758.47   79.03
   1   2  -9 1662.55  101.30
  -1  -2   9 1855.20   97.95
   1  -2  -9 1813.79  105.77
  -1  -2   9 1809.99   82.03
   1  -2  -9 1820.99  115.67
  -1  -2   9 1913.62  158.54
  -1   2   8  132.83   29.29
  -1   2   8  167.27   63.22
   1   2  -8  172.89   19.51
   1   2  -8  156.94  114.94
  -1  -2   8  191.92   37.32
   1  -2  -8  204.77   52.87
   1  -2  -8  221.20   55.53
  -1  -2   8  190.54   29.11
  -1  -2   8  224.96   61.87
   1   2  -7 4287.49  142.31
  -1   2   7 4373.22  147.23
  -1   2   7 3907.55  113.10
  -1  -2   7 4118.85  143.21
   1  -2  -7 4500.37  120.77
   1  -2  -7 3999.95  114.50
  -1  -2   7 3835.01  118.92
  -1  -2   7 4124.93  108.75
   1  -2  -7 4017.85  184.52
   1   2  -6    6.17   17.85
  -1   2   6    2.91   30.44
  -1   2   6   -0.39   11.10
  -1   2   6   -3.07   14.16
   1   2  -6   -6.17   29.33
   1   2  -6    1.60    6.82
  -1  -2   6   10.32   17.00
   1  -2  -6    1.85    9.02
  -1  -2   6    5.43   20.61
   1  -2  -6    2.09    5.93
   1  -2  -6    4.13   18.07
  -1  -2   6    0.15    3.41
  -1   2   5 3038.74   84.27
  -1  -2   5 2348.94   89.67
   1  -2  -5 2441.14   67.67
   1  -2  -5 2289.12   89.62
   1   2  -4 2138.49   89.87
  -1   2   4 1981.90   76.71
  -1   2   4 2068.44   90.43
  -1   2   4 1881.30   69.18
   1   2  -4 2225.25  100.50
   1   2  -4 2008.34   89.13
  -1  -2   4 2081.10   83.08
   1  -2  -4 2214.86   78.42
   1  -2  -4 2060.75   79.50
   1  -2  -4 2199.84   97.10
   1   2  -3  519.82   38.92
  -1   2   3  486.30   28.64
  -1   2   3  489.80   32.55
  -1   2   3  528.42   47.08
   1   2  -3  504.06   39.52
   1   2  -3  516.16   42.83
   1  -2  -3  561.98   38.22
  -1  -2   3  517.11   39.64
   1  -2  -3  447.43   24.63
  -1  -2   3  524.07   35.03
   1  -2  -3  517.87   25.50
   1  -2  -3  493.92   39.48
  -1  -2   3  577.03   21.96
   1  -2  -3  593.32   40.40
  -1  -2   2 7389.17  253.77
  -1  -2   2 7772.75  259.38
  -1  -2   1 5003.94  174.35
   1  -2  -1 5220.12  178.40
  -1  -2   1 5409.81  186.98
  -1  -2   1 4524.83  160.35
  -1  -2   1 4913.19  167.60
   1  -2  -1 5146.53  180.68
  -1   2   0 4037.85  148.37
  -1   2   0 3786.20  132.49
   1   2   0 3722.57  137.11
  -1  -2   0 3865.44  138.85
  -1  -2   0 3688.99  134.25
   1  -2   0 3631.20  127.90
   1  -2   0 3779.64  132.59
   1  -2   0 3862.05  133.60
   1  -2   0 3640.05  128.94
  -1  -2   0 3461.42  125.85
  -1  -2  -1 4545.81  161.37
  -1  -2  -1 4464.38  155.07
   1  -2   1 4468.46  154.93
   1  -2   1 4677.01  162.81
   1   2   2 1347.92   64.59
  -1   2  -2 1249.02   60.92
  -1   2  -2 1233.96   60.80
   1   2   2 1311.58   66.84
   1   2   2 1371.60   65.77
  -1  -2  -2 1464.43   66.71
   1  -2   2 1274.05   57.45
   1  -2   2 1328.39   59.26
  -1  -2  -2 1480.03   49.62
   1  -2   2 1379.21   61.76
   1  -2   2 1316.18   58.02
  -1  -2  -2 1384.77   61.67
  -1  -2  -2 1383.93   66.72
   1  -2   2 1339.85   54.65
   1  -2   2 1386.58   54.16
   1   2   3 5575.61  201.80
  -1   2  -3 5672.55  202.50
   1   2   3 5736.96  202.84
   1  -2   3 5649.48  196.52
   1  -2   3 5400.02  187.48
  -1  -2  -3 5471.69  186.30
  -1  -2  -3 5473.51  194.28
   1   2   4 4702.61  178.57
  -1   2  -4 4832.07  181.90
   1   2   4 4836.89  173.93
  -1  -2  -4 5246.14  179.84
   1  -2   4 5084.63  182.79
  -1  -2  -4 4992.75  184.56
   1  -2   4 5154.83  177.75
  -1   2  -5 3954.42  109.76
   1   2   5 4140.22  122.94
   1   2   5 4024.56  134.32
  -1   2  -5 4262.57  137.54
   1  -2   5 3997.16  105.40
  -1  -2  -5 4427.06  107.22
   1  -2   5 4496.78  157.13
  -1  -2  -5 4624.00  148.43
   1  -2   5 4478.17  118.10
  -1   2  -6 1264.41   47.42
   1   2   6 1206.30   68.53
   1   2   6 1228.40   63.13
  -1   2  -6 1293.18   74.90
  -1   2  -6 1389.69   56.90
  -1   2  -7 5315.73  180.51
   1   2   7 5465.06  184.39
   1   2   7 5312.42  162.77
   1   2   7 4975.77  139.28
   1  -2   7 5981.66  192.14
  -1  -2  -7 5381.67  148.98
   1  -2   7 6050.12  171.79
  -1  -2  -7 5765.68  195.46
   1  -2   7 5622.64  181.15
  -1   2  -8 2922.02  126.46
  -1   2  -8 2819.49  143.60
   1   2   8 2827.72  142.01
  -1   2  -8 3068.61  141.81
   1   2   8 2828.92  134.13
   1   2   8 2949.70  122.26
  -1  -2  -8 2273.24  102.77
   1  -2   8 2522.27  109.53
  -1  -2  -8 2511.04  131.45
   1  -2   8 2550.43  131.37
  -1   2  -9 2183.01  103.78
  -1   2  -9 2277.26  129.68
   1   2   9 2166.01  123.52
  -1   2  -9 2372.76  115.14
   1   2   9 2176.59  122.63
   1   2   9 2421.77  113.10
  -1  -2  -9 2670.59  123.14
   1  -2   9 2953.08  135.37
  -1  -2  -9 2962.05  160.24
   1  -2   9 2957.85  154.09
  -1   2 -10  277.63   59.17
   1   2  10  268.06   57.47
  -1   2 -10  282.84   47.29
   1   2  10  262.14   53.87
   1   2  10  267.88   55.17
  -1  -2 -10  244.09   32.68
   1  -2  10  267.84   73.50
  -1  -2 -10  255.24   65.22
   1  -2  10  283.51   62.43
   1   2  11  116.24   49.06
   1   2  11  129.93   59.84
  -1   2 -11  131.76   56.48
  -1   2 -11  158.83   41.13
   1  -2  11  407.05   61.37
   1  -2  11  399.78   81.90
  -1  -2 -11  374.44  194.71
  -1  -2 -11  335.01   40.88
   1   2  12 1540.09  135.73
   1   2  12 1674.87  155.82
  -1   2 -12 1783.30  168.92
  -1   2 -12 1868.36  168.28
   1  -2  12 1778.58  139.71
   1  -2  12 1815.63  177.92
  -1  -2 -12 1732.51  164.85
  -1  -2 -12 1651.46  130.41
   1   2  13  194.34  184.89
   1   2  13  205.47   57.99
  -1   2 -13  219.97   59.10
  -1   2 -13  267.81   96.78
   1  -2  13  257.00  116.03
   1  -2  13  279.98   74.23
  -1  -2 -13  273.05   75.70
  -1  -2 -13  231.58   46.16
   1   2  14   73.22   85.89
   1   2  14  132.73   65.11
  -1   2 -14  107.28   66.89
  -1   2 -14  126.99  100.74
   1  -2  14   85.43   37.80
   1  -2  14  107.25   67.45
  -1  -2 -14  102.51   83.41
  -1  -2 -14   81.07   36.36
   1   2  15   16.05   59.51
   1   2  15   15.34   35.65
  -1   2 -15    1.79   51.29
  -1   2 -15   26.17   36.79
   1  -2  15   31.25   54.99
  -1  -2 -15   37.83   38.23
   1   2  16   13.84   65.30
   1   2  16    3.49   26.85
  -1   2 -16   18.41   34.84
   1   2  17  115.88   74.37
   1   2  17   95.81   70.61
  -1   2 -17  100.35   72.80
  -1   2 -17  127.93   86.64
   1  -2  17  189.01   80.10
  -1  -2 -17  146.16   63.98
   1   2  18  139.38   67.97
  -1   2 -18  144.00   89.93
   1  -2  18  115.35   74.28
  -1  -2 -18   78.37   91.22
  -1   3  17  122.26   69.02
   1   3 -17  114.91   78.18
  -1  -3  17   92.76   82.53
   1  -3 -17  103.52   69.34
  -1   3  16  495.06  117.11
   1   3 -16  507.68  127.93
  -1  -3  16  508.80  110.15
   1  -3 -16  465.68  120.70
  -1   3  15   39.20   33.00
  -1  -3  15   69.13   61.71
  -1   3  14  339.79   74.38
  -1   3  14  548.94  106.12
   1   3 -14  538.90  108.03
  -1  -3  14  677.95  134.64
  -1  -3  14  582.84  119.41
   1  -3 -14  579.18  114.02
  -1   3  13  106.76   43.79
  -1   3  13  200.10   77.10
   1   3 -13  178.99   70.28
  -1  -3  13  208.41  192.34
  -1  -3  13  216.00  117.13
   1  -3 -13  196.98   77.01
  -1   3  12   41.20   27.00
  -1   3  12   46.02   57.18
   1   3 -12   82.12   69.02
   1   3 -12   66.63   22.31
  -1  -3  12  107.22   38.42
  -1  -3  12  108.47  104.14
   1  -3 -12  106.46   67.41
   1  -3 -12   83.10   34.67
  -1   3  11  622.60  101.98
  -1   3  11  839.94   95.97
   1   3 -11  833.75  106.99
   1   3 -11  849.06  101.72
  -1  -3  11 1148.13  111.34
  -1  -3  11 1167.38  190.58
   1  -3 -11 1072.52  125.53
   1  -3 -11 1015.01   94.19
  -1   3  10  419.65   53.73
  -1   3  10  558.38   80.04
   1   3 -10  567.97   84.96
   1   3 -10  524.90   53.05
  -1  -3  10  519.19   98.88
  -1  -3  10  509.95   93.54
   1  -3 -10  472.16   84.61
   1  -3 -10  491.85   42.75
   1   3  -9  865.09   83.20
  -1   3   9  892.29   88.27
  -1   3   9  717.25   88.45
  -1   3   9  759.83   53.59
   1   3  -9  853.92   49.83
  -1  -3   9  924.68  167.42
   1  -3  -9  838.18   58.49
  -1  -3   9  849.19   48.36
   1  -3  -9  837.44  106.07
  -1  -3   9  879.23   67.22
   1   3  -8  359.18   53.45
  -1   3   8  345.70   54.72
  -1   3   8  294.06   48.18
  -1   3   8  319.63   49.12
   1   3  -8  364.01   32.07
  -1  -3   8  568.27   97.73
   1  -3  -8  542.85   51.86
   1  -3  -8  542.01   61.92
  -1  -3   8  566.01   30.77
  -1  -3   8  496.45   54.55
  -1   3   7  100.40   47.82
  -1   3   7   85.95   31.49
  -1   3   7   86.30   63.89
   1   3  -7   98.54   52.41
   1   3  -7   83.46   16.18
  -1  -3   7  108.63   32.59
   1  -3  -7  114.37   19.00
  -1  -3   7  111.53   58.34
   1  -3  -7  112.93   48.00
   1  -3  -7  111.53  116.59
  -1  -3   7  103.79   16.90
  -1   3   6 2073.61  115.01
  -1   3   6 1939.52   84.13
  -1   3   6 1976.65   95.26
   1   3  -6 2098.79  118.98
  -1  -3   6 2322.90  111.07
   1  -3  -6 2425.54  101.53
  -1  -3   6 2336.98  149.61
   1  -3  -6 2162.97  106.64
   1  -3  -6 2191.58  119.06
   1   3  -5 1424.57   77.72
  -1   3   5 1406.24   90.98
  -1   3   5 1394.08   66.56
  -1  -3   5 1612.71   88.72
   1  -3  -5 1683.55   59.87
   1  -3  -5 1472.70   57.97
  -1  -3   5 1689.23   67.77
   1  -3  -5 1556.45   56.47
   1  -3  -5 1565.04   92.32
  -1  -3   5 1658.97   45.67
   1   3  -4 1193.19   63.34
  -1   3   4 1200.28   69.95
  -1   3   4 1224.08   62.01
   1   3  -4 1226.30   72.58
   1  -3  -4 1135.64   44.66
   1  -3  -4 1029.48   44.94
  -1  -3   4 1161.00   58.70
   1  -3  -4 1175.21   48.40
  -1  -3   4 1176.35   37.30
   1  -3  -4 1120.59   75.42
  -1   3   3 4817.27  145.84
  -1   3   3 4601.98  143.27
   1   3  -3 4681.97  141.37
   1   3  -3 4748.90  155.67
  -1  -3   3 4283.66  138.09
   1  -3  -3 4452.18  121.22
   1  -3  -3 4348.17  118.25
   1  -3  -3 4180.98  140.70
  -1  -3   3 4399.23  113.55
  -1  -3   3 4592.85  113.64
   1   3  -2  350.40   55.09
  -1   3   2  336.72   37.37
  -1   3   2  356.90   35.77
   1   3  -2  355.32   38.59
   1  -3  -2  335.36   41.84
  -1  -3   2  308.66   36.88
   1  -3  -2  311.98   46.26
  -1  -3   2  325.72   26.17
   1  -3  -2  315.15   25.61
   1  -3  -2  308.93   33.35
  -1  -3   2  315.61   29.85
  -1  -3   2  296.76   26.57
   1   3  -1 1684.88   79.68
  -1   3   1 1642.29   70.63
  -1   3   1 1812.60   71.17
   1   3  -1 1647.66   61.55
   1  -3  -1 1401.96   55.28
  -1  -3   1 1607.59  105.94
   1  -3  -1 1473.35   62.80
  -1  -3   1 1432.77   56.25
   1  -3  -1 1489.34   54.95
   1  -3  -1 1406.47   85.11
  -1  -3   1 1440.34   56.55
  -1  -3   1 1370.23   49.71
   1   3   0 2867.73   85.37
  -1   3   0 2973.69   96.83
   1   3   0 2994.91  106.76
  -1   3   0 3147.58  102.08
  -1   3   0 2875.74   93.23
  -1   3   0 3018.32  111.05
  -1  -3   0 3167.01  128.55
  -1  -3   0 2984.00   89.41
  -1  -3   0 2917.53   91.49
   1  -3   0 2721.50   85.38
  -1  -3   0 3118.64   93.15
   1  -3   0 3039.21   92.81
   1   3   1  165.71   20.49
  -1   3  -1  179.03   29.72
  -1   3  -1  165.96   30.28
   1   3   1  183.63   38.89
  -1  -3  -1  268.03   98.96
   1  -3   1  270.99   28.27
   1  -3   1  243.94   26.57
  -1  -3  -1  279.15   34.29
   1  -3   1  266.95   25.93
  -1  -3  -1  301.78   34.21
  -1  -3  -1  281.84   19.65
  -1   3  -2 2916.23   98.09
   1   3   2 3063.53  111.31
   1   3   2 2851.96  105.85
  -1   3  -2 3104.10  132.07
   1  -3   2 3238.79  117.77
   1  -3   2 3251.02  116.02
  -1  -3  -2 3037.53   79.26
  -1  -3  -2 3015.17   79.65
  -1  -3  -2 3009.54   99.94
   1  -3   2 2999.68   92.26
   1  -3   2 3145.99   93.46
  -1   3  -3 1062.04   58.46
   1   3   3 1006.64   66.21
   1   3   3 1077.99   64.50
  -1   3  -3 1098.56   81.47
   1  -3   3 1016.45   46.18
  -1  -3  -3 1007.42   30.77
   1  -3   3  995.35   46.14
  -1  -3  -3  989.08   66.70
   1  -3   3 1000.11   40.15
   1  -3   3 1000.32   79.80
   1   3   4 1044.20   74.23
  -1   3  -4 1035.30   69.86
   1   3   4  951.97   66.23
  -1   3  -4 1023.89   67.47
   1  -3   4 1283.23   49.79
   1  -3   4 1300.48   69.80
  -1  -3  -4 1274.75   69.96
   1  -3   4 1349.76   56.67
   1  -3   4 1351.80   53.70
   1   3   5 5021.96  183.01
  -1   3  -5 4875.26  152.21
   1   3   5 5017.67  166.72
  -1   3  -5 5062.63  179.37
   1  -3   5 4277.66  124.99
   1  -3   5 4633.60  168.07
  -1  -3  -5 4410.81  156.38
   1  -3   5 4322.30  135.82
   1  -3   5 4539.02  133.55
  -1   3  -6   21.40   22.37
   1   3   6   28.19   24.03
   1   3   6    9.33   38.60
  -1   3  -6    8.95   37.12
  -1   3  -6   20.60   20.02
   1  -3   6   26.07   37.04
   1  -3   6   26.62   22.24
  -1  -3  -6   34.75   45.99
   1  -3   6   24.33   12.38
  -1   3  -7  495.81   36.62
   1   3   7  439.53   68.06
   1   3   7  478.19   60.00
  -1   3  -7  463.33   57.36
  -1   3  -7  456.46   54.45
   1  -3   7  554.12   80.72
   1  -3   7  508.80   45.88
  -1  -3  -7  529.46   73.36
   1  -3   7  479.79   36.02
  -1   3  -8  583.40   56.47
   1   3   8  479.01   68.67
   1   3   8  558.60   73.47
  -1   3  -8  526.42   67.22
  -1   3  -8  592.76   66.29
   1  -3   8  831.53  141.31
   1  -3   8  876.99   57.92
  -1  -3  -8  781.28   41.16
  -1  -3  -8  812.05   83.73
   1   3   9 1673.20  109.40
   1   3   9 1894.80  137.46
  -1   3  -9 1830.12  126.92
  -1   3  -9 2045.69  137.45
   1  -3   9 2508.92  178.69
   1  -3   9 2433.94  121.24
  -1  -3  -9 2265.82  106.05
  -1  -3  -9 2356.73  149.47
  -1   3 -10 2490.99  188.62
   1   3  10 2409.10  208.51
   1   3  10 1954.40  156.53
  -1   3 -10 2301.80  198.45
   1  -3  10 2023.84  259.94
  -1  -3 -10 1942.61  172.27
   1  -3  10 1986.52  148.34
  -1   3 -11   61.32   57.74
   1   3  11   66.48   65.69
   1   3  11   58.83   41.99
  -1   3 -11   65.60   65.94
   1  -3  11   48.76   56.16
  -1  -3 -11   50.05   60.33
   1  -3  11   46.15   39.12
  -1   3 -12  386.70   51.31
   1   3  12  378.69   72.32
   1   3  12  272.39   52.63
  -1   3 -12  386.59   80.34
   1  -3  12  352.80   78.93
  -1  -3 -12  296.44   83.81
   1  -3  12  280.57  117.99
   1   3  13   92.95   70.39
   1   3  13   79.26   48.76
  -1   3 -13  103.68   61.94
  -1   3 -13  102.28   93.41
   1  -3  13  236.73   73.24
  -1  -3 -13  172.81   66.70
   1   3  14  289.34   90.27
   1   3  14  227.97   61.64
  -1   3 -14  284.28   81.64
  -1   3 -14  279.77   69.38
   1  -3  14  318.18   87.96
  -1  -3 -14  341.70  124.58
   1   3  15   90.97   52.24
  -1   3 -15  140.96   75.17
   1  -3  15  136.08  108.58
  -1  -3 -15  122.39   62.41
   1   3  16   30.67   79.88
   1   3  16   13.24   51.87
  -1   3 -16   16.71   77.26
   1  -3  16   20.34   42.89
  -1  -3 -16    8.43   23.99
   1   3  17   18.37   54.91
   1   3  17   13.08   45.51
  -1   3 -17    2.87   51.90
   1  -3  17   -4.51   43.22
  -1  -3 -17    8.21   24.87
  -1   4  16    8.45   59.84
   1   4 -16   -8.01   45.95
  -1  -4  16   11.91   43.15
   1  -4 -16    7.71   43.03
  -1   4  15  189.61  108.43
   1   4 -15  177.66   74.74
  -1  -4  15  148.37   72.13
   1  -4 -15  134.86   94.06
  -1   4  14  129.50   83.33
   1   4 -14  155.27   86.77
  -1  -4  14  107.25   80.97
   1  -4 -14  125.26   95.56
   1   4 -12  612.93  108.38
  -1   4  12  608.27  109.90
  -1  -4  12  598.97  228.57
  -1  -4  12  577.84  105.28
   1  -4 -12  586.97  111.38
  -1   4  11   20.33   23.87
  -1   4  11   45.35   55.18
   1   4 -11   52.53   53.52
  -1  -4  11   47.95   48.55
  -1  -4  11   45.38   46.85
   1  -4 -11   34.30   49.59
  -1   4  10  613.66   75.17
  -1   4  10  668.43  100.85
   1   4 -10  610.25   95.75
  -1  -4  10  853.87  165.81
  -1  -4  10  806.59  102.07
   1  -4 -10  741.85  108.91
  -1   4   9   87.24   29.33
  -1   4   9   96.34   66.15
   1   4  -9   85.46   58.44
  -1  -4   9  110.05   70.89
  -1  -4   9   89.29   77.05
   1  -4  -9   90.44  118.19
  -1   4   8  277.46   50.10
  -1   4   8  272.80   73.78
   1   4  -8  296.25   75.89
  -1  -4   8  252.39   86.20
   1  -4  -8  227.74   36.55
  -1  -4   8  251.67   88.82
   1  -4  -8  252.93   66.12
  -1   4   7 1155.26   83.50
  -1   4   7 1077.87  100.45
   1   4  -7 1115.64   97.43
  -1  -4   7 1313.38   81.48
   1  -4  -7 1138.39   72.32
  -1  -4   7 1282.66  210.27
   1  -4  -7 1171.36  100.63
  -1   4   6  640.85   62.31
  -1   4   6  578.79   90.22
   1   4  -6  585.12   68.30
  -1  -4   6  658.39   54.34
   1  -4  -6  545.21   51.94
  -1  -4   6  621.77  100.08
   1  -4  -6  590.16   66.30
  -1   4   5 1524.79  100.77
  -1   4   5 1391.46  101.34
   1   4  -5 1428.41  100.05
  -1  -4   5 1375.10  127.64
  -1  -4   5 1395.47   96.43
   1  -4  -5 1325.77   74.11
   1  -4  -5 1248.18   93.19
  -1  -4   5 1401.59   67.28
  -1  -4   5 1179.02   55.72
   1   4  -4 1598.84  116.99
  -1   4   4 1498.40  101.57
  -1   4   4 1639.81  106.95
   1   4  -4 1477.19   97.86
  -1  -4   4 1546.01   94.81
   1  -4  -4 1184.88   72.07
   1  -4  -4 1395.34   77.12
   1  -4  -4 1264.86  100.08
  -1  -4   4 1412.75   78.92
  -1  -4   4 1427.61   70.99
   1   4  -3  256.93   43.96
  -1   4   3  260.31   50.00
  -1   4   3  282.17   44.47
   1   4  -3  278.74   54.04
   1  -4  -3  178.41   51.12
   1  -4  -3  203.77   24.07
  -1  -4   3  207.43   37.82
   1  -4  -3  190.74   35.86
  -1  -4   3  195.32   28.37
  -1  -4   3  195.62   19.63
   1   4  -2 1540.77  100.75
  -1   4   2 1470.72   93.84
  -1   4   2 1635.74   96.64
   1   4  -2 1468.45   86.95
  -1  -4   2 1698.02  107.55
   1  -4  -2 1624.95   92.18
   1  -4  -2 1457.89   89.87
  -1  -4   2 1528.77   83.17
  -1  -4   2 1327.93   70.98
  -1   4   1  224.01   44.32
  -1   4   1  194.57   52.68
   1   4  -1  195.72   45.72
   1   4  -1  202.74   39.19
  -1  -4   1  273.00   90.30
   1  -4  -1  266.70   75.00
   1  -4  -1  255.66   44.93
  -1  -4   1  272.26   32.05
  -1  -4   1  223.97   26.53
  -1   4   0  269.75   44.69
   1   4   0  258.63   49.25
  -1   4   0  294.75   48.94
   1   4   0  246.65   30.82
  -1  -4   0  335.26   54.97
  -1  -4   0  284.80   27.57
   1  -4   0  359.75   51.28
   1  -4   0  314.66   56.84
  -1  -4   0  315.05   32.88
  -1   4  -1 2495.46  126.08
   1   4   1 2424.02  110.31
   1   4   1 2597.03  146.32
   1  -4   1 2497.41  176.27
  -1  -4  -1 2430.31  111.33
   1  -4   1 2750.54  167.14
  -1  -4  -1 2647.52  197.19
   1  -4   1 2402.02  120.01
  -1  -4  -1 2440.14  122.60
  -1   4  -2   19.06   38.55
  -1   4  -2   26.87   31.81
   1   4   2   15.75   51.63
   1  -4   2   36.61   31.36
  -1  -4  -2   35.33   27.19
  -1  -4  -2   34.77   10.96
  -1  -4  -2   44.55   42.99
  -1  -4  -2   33.42   28.65
   1  -4   2   45.32   46.68
   1   4   3 2024.35  128.85
   1   4   3 2025.83  119.85
  -1   4  -3 2136.39  128.32
  -1   4  -3 2139.95  113.58
   1  -4   3 1611.73   89.85
   1  -4   3 1671.84  149.10
  -1  -4  -3 1492.79   92.99
  -1  -4  -3 1463.47   68.42
   1   4   4   43.53   45.26
   1   4   4   37.23   36.78
  -1   4  -4   38.28   39.84
  -1   4  -4   45.85   47.89
   1  -4   4   97.97   40.60
   1  -4   4  106.88   21.09
  -1  -4  -4  111.25   35.63
   1  -4   4  105.93   17.10
   1   4   5  418.54   57.70
   1   4   5  445.32   65.30
  -1   4  -5  446.44   60.60
  -1   4  -5  453.23   43.51
   1  -4   5  487.12   85.67
   1  -4   5  455.93   63.69
  -1  -4  -5  484.40   65.15
   1  -4   5  449.04   46.33
  -1   4  -6  922.24   78.17
   1   4   6  888.22   94.53
   1   4   6  850.83   85.03
  -1   4  -6  903.36   88.16
   1  -4   6 1235.59  166.76
  -1  -4  -6 1069.71   87.60
   1  -4   6 1124.47   69.67
  -1   4  -7 1531.10  139.73
   1   4   7 1392.05  134.58
   1   4   7 1317.99  118.02
  -1   4  -7 1492.10  147.07
   1  -4   7 1312.60  236.05
  -1  -4  -7 1257.30  121.70
   1  -4   7 1165.91   95.53
  -1   4  -8  487.11   71.63
   1   4   8  497.59   84.46
   1   4   8  397.21   67.07
  -1   4  -8  505.58   91.27
   1  -4   8  398.30   82.62
  -1  -4  -8  363.71   72.76
   1  -4   8  331.97   78.60
   1   4   9   11.36   62.08
   1   4   9   11.48   33.98
  -1   4  -9   30.44   62.03
  -1   4  -9   20.46   27.63
   1  -4   9   -1.28   35.93
  -1  -4  -9    9.38   33.86
   1   4  10   63.89   68.06
   1   4  10   23.33   36.32
  -1   4 -10   46.79   56.08
   1  -4  10   15.19   24.22
  -1  -4 -10   27.06   57.82
   1   4  11  357.46   85.02
   1   4  11  198.55   73.51
  -1   4 -11  343.96   81.92
   1  -4  11  569.06  110.50
  -1  -4 -11  536.94   99.67
   1   4  12  336.01   96.35
   1   4  12  215.19   59.40
  -1   4 -12  313.79   85.97
   1  -4  12  223.00   72.91
  -1  -4 -12  248.65   79.64
   1   4  13   -4.29   29.24
   1   4  14  174.02   86.15
   1   4  14  101.14   58.55
  -1   4 -14  161.25   78.81
   1  -4  14  181.07  146.78
  -1  -4 -14  165.00   78.84
   1   4  15   22.08   73.70
  -1   4 -15   10.39   44.51
   1  -4  15    9.35   23.66
  -1  -4 -15    8.93   55.14
  -1   5  13  100.47   77.62
   1   5 -13   98.26   53.41
  -1  -5  13   45.76   59.49
   1  -5 -13   72.06   77.73
  -1   5  12   39.29   54.51
   1   5 -12   46.00   48.92
  -1  -5  12   45.12   70.28
   1  -5 -12   59.99   88.12
  -1   5  11  117.19   75.28
  -1  -5  11   75.09   59.66
  -1   5  10  147.24   66.91
   1   5 -10  119.61   50.74
   1  -5 -10  134.60   51.32
   1   5  -9   64.43   49.69
  -1   5   9   68.31   48.96
  -1  -5   9  132.49  113.31
  -1  -5   9  111.04   42.33
   1  -5  -9  121.40   67.59
  -1   5   8  680.15   82.22
  -1   5   8  611.59   92.50
   1   5  -8  646.05   89.42
  -1  -5   8  699.72  128.27
  -1  -5   8  724.14   74.44
   1  -5  -8  611.20   82.92
  -1   5   7   13.49   27.70
  -1   5   7    2.93   45.30
   1   5  -7   13.70   42.61
  -1  -5   7   -4.19   35.19
  -1  -5   7    3.47   11.33
   1  -5  -7    4.15   28.56
  -1   5   6  279.77   64.63
  -1   5   6  273.46   69.76
   1   5  -6  260.86   63.44
  -1  -5   6  270.25   87.20
  -1  -5   6  311.91   49.64
   1  -5  -6  217.21   78.26
  -1   5   5   98.75   40.56
  -1   5   5   71.59   47.33
   1   5  -5   73.08   39.98
  -1  -5   5   80.24   78.15
  -1  -5   5   83.43   66.98
   1  -5  -5   61.23   81.36
  -1   5   4    7.99   23.39
  -1   5   4    2.79   44.85
   1   5  -4   12.20   39.71
  -1  -5   4    6.14   21.48
   1  -5  -4    1.70    6.43
  -1  -5   4    6.20   23.92
   1  -5  -4   -1.93   27.12
   1   5  -3  308.36   70.87
  -1   5   3  289.42   74.88
  -1   5   3  321.60   57.75
   1   5  -3  275.85   49.07
  -1  -5   3  461.27   82.46
   1  -5  -3  398.74   86.67
   1  -5  -3  416.11   67.47
   1   5  -2  151.22   64.75
  -1   5   2  138.33   57.86
   1   5  -2  133.05   41.35
  -1  -5   2  144.72  106.92
   1  -5  -2  146.65  138.97
   1  -5  -2  128.32   59.20
   1  -5  -2  124.96   91.79
  -1  -5   2  140.56   28.59
  -1   5   1  894.80   94.19
   1   5  -1  856.06  111.83
   1   5  -1  815.42   83.48
  -1  -5   1  766.61  114.95
   1  -5  -1  779.30   90.17
   1  -5  -1  818.86   81.81
   1  -5  -1  711.78   77.13
  -1  -5   1  744.70   77.18
   1   5   0  618.09   66.44
   1   5   0  633.06  104.67
  -1  -5   0  699.42  100.43
   1  -5   0  630.44   73.41
   1  -5   0  668.06  107.51
   1  -5   0  597.40   69.57
  -1  -5   0  619.12   67.14
   1   5   1 1218.62  130.02
  -1   5  -1 1178.04  118.45
  -1  -5  -1 1033.21  176.95
   1  -5   1 1048.08  132.72
  -1  -5  -1 1041.81   91.68
   1  -5   1 1129.29  112.77
   1  -5   1 1051.82  109.84
  -1  -5  -1 1031.28   97.85
   1   5   2   35.48   45.20
  -1   5  -2   22.33   26.09
   1  -5   2   90.71   93.70
  -1  -5  -2  104.79   96.39
   1  -5   2   67.03   67.68
   1  -5   2   81.21   56.76
  -1  -5  -2   98.39   50.75
   1   5   3 1172.13  132.16
  -1   5  -3 1102.18  113.71
   1  -5   3 1219.29  160.47
  -1  -5  -3 1165.70  157.68
   1  -5   3 1104.99  139.08
   1  -5   3 1111.21  129.60
  -1  -5  -3 1082.74  103.23
   1   5   4  108.12   58.99
  -1   5  -4   63.60   43.66
   1  -5   4  116.11   49.04
  -1  -5  -4   97.85  119.02
   1  -5   4  109.55   46.57
  -1  -5  -4   90.29   36.50
   1   5   5  635.26  100.84
   1   5   5  604.02   94.50
  -1   5  -5  633.98  110.28
   1  -5   5  522.98  113.91
   1  -5   5  465.06   55.56
  -1  -5  -5  454.88   86.81
   1   5   6   12.96   58.12
   1   5   6   13.88   59.95
  -1   5  -6   24.97   60.99
   1  -5   6    5.22   21.49
   1  -5   6    6.53   18.16
  -1  -5  -6    5.51   30.79
   1   5   7   36.42   62.37
   1   5   7    0.58   41.63
  -1   5  -7   10.27   36.75
   1  -5   7   41.65   35.41
  -1  -5  -7   40.47   38.25
   1   5   8  169.82   70.27
   1   5   8  129.31   56.35
  -1   5  -8  183.97   62.44
   1  -5   8  197.54   78.90
  -1  -5  -8  185.95   58.12
   1   5   9   21.74   52.68
   1   5   9   37.91   56.19
  -1   5  -9   41.51   62.26
   1  -5   9   21.51   41.33
  -1  -5  -9   16.80   38.32
   1   5  10   86.23   50.63
  -1   5 -10  120.24   59.17
  -1  -5 -10   83.00   65.29
   1   5  11  113.45   77.12
   1   5  11   85.92   59.90
  -1   5 -11   80.06   63.43
   1  -5  11   81.85   79.39
   1   5  12  170.85   72.60
  -1   5 -12  176.32   75.35
   1  -5  12  184.54  119.38
  -1  -5 -12  168.37   93.55
   1   5  13   29.97   69.87
  -1   5 -13   28.16   60.69
   1  -5  13   -0.21   42.74
  -1  -5 -13   11.40   49.00
  -1   6  10  100.89   60.94
   1   6 -10   55.53   63.11
  -1  -6  10   79.54   87.04
   1  -6 -10   83.21   49.91
  -1   6   9  112.62   68.14
  -1  -6   9   91.87   95.02
   1  -6  -9   92.40   66.75
  -1   6   8   38.88   62.12
   1   6  -8   37.11   47.16
  -1  -6   8   25.46   53.70
   1  -6  -8   43.58   48.59
   1   6  -7   30.10   57.51
   1  -6  -7   19.81   44.63
   1   6  -6   20.75   49.30
  -1   6   6   43.06   58.33
  -1  -6   6   12.83   37.59
  -1  -6   6   14.94   20.68
   1  -6  -6   10.65   31.39
   1   6  -5  133.22   56.12
  -1   6   5  108.04   56.25
  -1  -6   5  189.76   89.89
  -1  -6   5  167.76  112.59
   1  -6  -5  167.70   51.77
   1   6  -4   72.98   44.62
  -1   6   4   76.26   42.47
  -1  -6   4   93.86  132.88
  -1  -6   4   91.25   85.20
   1  -6  -4   68.24   91.02
  -1   6   3  204.29   63.60
   1   6  -3  182.35   57.50
  -1  -6   3  155.95  157.29
   1  -6  -3  160.10   81.57
  -1  -6   3  200.12   82.93
   1  -6  -3  155.42   86.87
   1   6  -2  167.56   49.27
   1   6  -2  207.67   68.81
  -1  -6   2  197.19   69.23
   1  -6  -2  182.09  149.44
   1  -6  -2  142.16   67.99
   1   6  -1  351.91   86.46
  -1  -6   1  400.97   80.46
   1  -6  -1  354.97  145.80
   1  -6  -1  349.98  119.06
   1  -6  -1  324.21   95.93
   1   6   0   11.09   57.34
  -1  -6   0   15.15   28.63
   1  -6   0   14.43   25.11
   1  -6   0   19.47   30.69
   1   6   1  114.94   63.51
   1  -6   1   77.81   83.36
   1  -6   1   84.36  124.04
  -1  -6  -1   83.00   83.74
   1  -6   1   75.95   86.33
   1   6   2   20.02   57.81
   1  -6   2   22.79   33.94
   1  -6   2   16.91   42.16
  -1  -6  -2   15.57   31.20
  -1  -6  -2   13.66   26.25
   1   6   3  193.54   60.21
  -1   6  -3  185.46   53.02
   1  -6   3  107.44  133.99
  -1  -6  -3  118.41  129.09
   1  -6   3  115.13   51.59
  -1  -6  -3  128.31   52.25
  -1   6  -4   20.80   43.78
   1   6   4   10.33   17.87
   1  -6   4   36.24   35.19
  -1  -6  -4   11.50   37.03
  -1  -6  -4   38.19   42.61
  -1   6  -5  310.15   62.04
   1   6   5  338.72  145.07
   1  -6   5  317.48  147.83
  -1  -6  -5  272.15   73.14
  -1  -6  -5  272.74   52.39
   1   6   6   86.30   47.67
  -1   6  -6   80.88   51.60
   1  -6   6   65.39   76.84
  -1  -6  -6   45.58   43.41
   1   6   7   72.50   57.29
  -1   6  -7   62.70   50.17
  -1  -6  -7   86.61   71.90
  -1  -6  -7   61.68   49.60
   1   6   8   37.75   58.94
   1  -6   8   41.68   53.86
  -1  -6  -8   30.83   46.04
   1   6   9   80.39   59.81
  -1   6  -9  102.14   78.45
   1  -6   9   79.88   95.38
  -1  -6  -9   69.97  101.53
   1  -6  10   28.28   64.87
  -1  -6 -10   31.40   36.90
  -1  -7   3   37.94   48.19
   1  -7  -2    5.39   22.85
  -1  -7   2    7.59   29.41
  -1  -7   2   10.84   26.58
  -1  -7   1    5.53   18.17
   1   7   1   17.10   49.31
   1   7   2  124.40   54.84
  -1  -7  -2   98.97  100.48
   1  -7   2   78.71  109.52
  -2   0  19  105.78   63.16
   2   0 -19  134.34   79.34
   2   0 -19  117.40   56.13
  -2   0  18  260.07   99.43
  -2   0  18  245.12  147.94
   2   0 -18  264.47   87.94
   2   0 -18  268.23  216.92
  -2   0  17 1174.73  135.96
  -2   0  17 1043.16  128.08
   2   0 -17 1092.35  126.14
   2   0 -17 1092.70  122.87
  -2   0  16  728.45  121.90
  -2   0  16  696.41  175.05
   2   0 -16  711.54   97.18
   2   0 -16  765.94  219.14
  -2   0  15  190.25  175.84
  -2   0  15  160.26  100.38
   2   0 -15  180.67   65.86
   2   0 -15  167.90   67.03
  -2   0  14  939.82  143.53
  -2   0  14  922.71  108.24
   2   0 -14  899.04  110.95
   2   0 -14  915.48  106.44
  -2   0  13  -12.35   38.58
  -2   0  13   -4.68   28.53
   2   0 -13   -4.61   38.52
   2   0 -13    4.28   32.53
  -2   0  12 2069.59  152.02
  -2   0  12 2069.85  137.19
   2   0 -12 1979.66  129.33
   2   0 -12 2042.98  134.02
  -2   0  11  205.24   57.51
  -2   0  11  173.25   51.77
   2   0 -11  185.57   60.65
   2   0 -11  177.33   48.46
  -2   0  10 1735.19  161.64
  -2   0  10 1684.76   94.70
   2   0 -10 1708.06  101.07
   2   0 -10 1659.02  100.80
  -2   0   9  523.20  103.43
  -2   0   9  532.82   52.10
   2   0  -9  497.85   50.91
   2   0  -9  497.68   56.05
  -2   0   8 1196.88   68.93
  -2   0   8 1220.49   89.63
   2   0  -8 1172.07   66.97
   2   0  -8 1111.15   58.48
  -2   0   7 4314.90  181.18
   2   0  -7 4018.63  144.03
  -2   0   7 4265.54  155.03
   2   0  -7 3965.70  157.28
   2   0  -7 4118.15  164.64
  -2   0   6 4180.02  155.53
  -2   0   6 4073.47  143.68
  -2   0   6 4340.30  150.46
  -2   0   6 4135.88  147.92
   2   0  -6 4028.91  151.57
   2   0  -6 4179.85  153.38
   2   0  -6 4705.94  165.46
   2   0  -5  802.88   41.26
  -2   0   5  803.15   46.30
  -2   0   5  793.81   41.63
  -2   0   5  821.32   45.39
  -2   0   5  826.53   47.30
   2   0  -5  809.60   53.15
   2   0  -5  799.91   43.55
   2   0  -5  889.28   52.77
   2   0  -4 1105.67   48.60
  -2   0   4 1095.78   69.94
  -2   0   4 1119.54   56.17
  -2   0   4 1072.48   43.37
  -2   0   4 1154.79   51.95
   2   0  -4 1084.70   52.35
   2   0  -4 1077.53   49.55
   2   0  -4 1184.86   50.09
  -2   0  -5  589.03   35.03
   2   0   5  533.36   35.46
  -2   0  -5  581.30   37.89
   2   0   5  567.18   43.47
   2   0   5  537.54   33.56
  -2   0  -5  557.07   43.27
   2   0   5  550.16   37.22
  -2   0  -5  544.46   39.05
  -2   0  -6 3540.81  127.93
   2   0   6 3207.17  120.86
   2   0   6 3233.24  127.62
   2   0   6 3193.06  118.55
  -2   0  -6 3266.18  127.29
  -2   0  -6 3180.96  126.41
  -2   0  -7  854.05   43.47
   2   0   7  726.05   44.31
   2   0   7  713.35   45.76
  -2   0  -7  740.86   50.60
  -2   0  -7  764.61   53.07
   2   0   8    4.86   45.31
   2   0   8    7.57   26.55
  -2   0  -8   -0.42   83.29
  -2   0  -8    1.64   34.23
   2   0   9 4090.37  176.81
   2   0   9 4339.61  192.15
  -2   0  -9 4151.90  188.06
  -2   0  -9 4172.21  188.57
   2   0  10  605.41   54.45
   2   0  10  633.73   60.36
  -2   0 -10  556.47   66.96
  -2   0 -10  585.60   58.84
   2   0  11 1672.54  108.14
   2   0  11 1829.85  117.97
  -2   0 -11 1706.36  106.65
  -2   0 -11 1757.21  116.22
   2   0  12 2151.73  131.47
   2   0  12 2236.47  151.16
  -2   0 -12 2049.43  127.86
  -2   0 -12 2068.19  129.82
   2   0  13  983.85  100.18
   2   0  13  951.59  119.83
  -2   0 -13  912.84   98.40
  -2   0 -13  913.66  103.83
   2   0  14  -10.12   25.81
   2   0  14   -2.30   42.37
  -2   0 -14   -2.66   37.17
  -2   0 -14   -0.94   37.95
   2   0  15 1215.85  123.68
   2   0  15 1332.32  145.20
  -2   0 -15 1261.92  135.33
  -2   0 -15 1198.15  117.81
   2   0  16    7.12   24.37
   2   0  16   13.36   40.04
  -2   0 -16   11.14   34.20
  -2   0 -16   -3.00   33.18
   2   0  17  155.99   52.65
  -2   0 -17  134.46   59.69
  -2   0 -17  145.11   62.07
   2   0  18   12.89   41.49
  -2   0 -18   50.25   62.56
  -2   0 -18   34.23   53.24
  -2   1  19  281.33   86.89
   2   1 -19  259.78   85.79
  -2   1  19  210.57   80.24
   2  -1 -19  183.48   62.62
  -2  -1  19  189.70  121.20
   2  -1 -19  224.64   80.44
  -2   1  18  527.68  116.91
  -2   1  18  455.27  112.19
   2   1 -18  496.30  114.34
   2   1 -18  502.38  103.54
  -2  -1  18  458.27  211.45
   2  -1 -18  491.46  110.41
  -2   1  17   10.91   33.79
  -2   1  17   30.21   85.81
   2   1 -17   40.36   84.32
   2   1 -17   33.69   50.12
  -2  -1  17   17.36   33.46
  -2  -1  17   18.76   49.65
   2  -1 -17   20.66   49.93
   2  -1 -17   24.22   44.85
  -2   1  16  262.33   70.53
  -2   1  16  319.95   88.83
   2   1 -16  303.63   76.83
   2   1 -16  304.81   66.16
  -2  -1  16  240.70   99.73
  -2  -1  16  276.15   77.96
   2  -1 -16  273.15   65.77
   2  -1 -16  245.17   59.35
  -2   1  15  369.95   83.61
  -2   1  15  417.01   78.80
   2   1 -15  372.19   80.39
   2   1 -15  382.69   74.60
  -2  -1  15  348.53   78.58
  -2  -1  15  334.02   75.83
   2  -1 -15  350.73   77.90
   2  -1 -15  307.62   66.50
  -2   1  14  153.64   58.09
  -2   1  14  166.27   68.83
   2   1 -14  159.62   71.55
   2   1 -14  189.40  132.25
  -2  -1  14  189.30   66.95
  -2  -1  14  207.77  148.56
   2  -1 -14  184.06   69.21
   2  -1 -14  168.66   53.59
  -2   1  13 1263.74  114.11
  -2   1  13 1338.32  141.66
   2   1 -13 1277.43  133.20
   2   1 -13 1334.89  131.35
  -2  -1  13 1429.18  154.55
  -2  -1  13 1421.09  134.56
   2  -1 -13 1310.42  133.38
   2  -1 -13 1323.80  120.07
  -2   1  12  620.54   70.03
  -2   1  12  623.16   82.38
   2   1 -12  640.91   76.95
   2   1 -12  655.96   63.97
  -2  -1  12  766.42  121.84
  -2  -1  12  765.47   78.42
   2  -1 -12  775.78   92.81
   2  -1 -12  757.25   72.70
  -2   1  11  168.44   45.55
  -2   1  11  170.39   51.84
   2   1 -11  183.83  132.69
   2   1 -11  157.90   39.58
  -2  -1  11  251.81   52.24
  -2  -1  11  278.99   61.40
   2  -1 -11  281.13   60.47
   2  -1 -11  248.05   43.84
  -2   1  10 4175.07  195.69
  -2   1  10 4325.78  206.23
   2   1 -10 4010.20  245.82
   2   1 -10 4374.79  189.34
  -2  -1  10 4253.02  192.87
  -2  -1  10 4459.08  213.41
   2  -1 -10 4274.83  201.48
   2  -1 -10 4243.46  189.51
   2   1  -9  210.20   51.57
  -2   1   9  204.37   93.30
   2   1  -9  213.27   31.07
  -2   1   9  183.53   32.93
   2  -1  -9  148.29   35.69
   2  -1  -9  157.16   35.98
  -2  -1   9  138.76   45.17
  -2  -1   9  125.35   46.96
   2  -1  -9  140.86   54.49
  -2  -1   9  168.05   52.41
   2   1  -8 3904.03  175.03
  -2   1   8 4099.29  141.24
   2   1  -8 3985.93  118.03
  -2   1   8 3999.50  119.71
   2  -1  -8 3990.40  116.77
   2  -1  -8 3781.48  121.20
  -2  -1   8 3728.15  133.44
  -2  -1   8 3918.74  113.88
   2  -1  -8 3915.92  140.21
  -2  -1   8 3950.05  138.89
   2   1  -7  111.07   35.66
  -2   1   7  120.31   85.22
   2   1  -7  117.12   27.35
  -2   1   7  107.24   19.26
   2  -1  -7  174.51   22.67
   2  -1  -7  178.99   38.95
  -2  -1   7  163.54   34.51
   2  -1  -7  174.98   74.04
  -2  -1   7  167.01   38.68
  -2   1   6  720.74   43.12
  -2   1   6  777.64  105.27
  -2   1   6  728.12   34.92
   2   1  -6  719.70   47.07
   2   1  -6  738.67   54.36
   2   1  -6  823.17   38.31
  -2  -1   6 1165.10   87.50
   2  -1  -6 1173.07  100.11
   2  -1  -6 1174.90   83.30
   2   1  -5 3756.45  142.05
   2   1  -5 4133.26  138.83
  -2   1   5 4032.90  151.90
   2   1  -5 3805.54  141.50
   2   1  -5 3866.25  132.21
  -2   1   5 3378.07  121.92
   2  -1  -5 3972.12  140.06
   2  -1  -5 3784.30  127.06
   2  -1  -5 3672.69  134.37
  -2  -1   5 3857.49  138.35
  -2  -1   5 3781.03  150.00
   2  -1  -5 3721.39  165.13
  -2  -1   5 3743.35  134.58
  -2  -1   5 3496.66  131.99
   2  -1  -5 4402.36  166.69
   2   1  -4 1360.97   58.16
   2   1  -4 1405.61   65.76
  -2   1   4 1382.74   47.66
  -2   1   4 1363.85  124.91
   2   1  -4 1407.33   69.09
   2   1  -4 1380.35   51.08
   2   1  -4 1450.13   53.22
  -2  -1   4 1456.82   63.96
   2  -1  -4 1573.39   61.47
  -2  -1   4 1532.01   72.39
   2  -1  -4 1513.65   51.14
   2  -1  -4 1510.26   65.40
  -2  -1   4 1520.38   64.08
   2  -1  -4 1727.51   72.00
   2   1  -3 5432.97  188.04
  -2  -1   3 6349.00  214.56
  -2  -1   3 6427.91  214.46
   2  -1  -3 6946.65  234.75
   2   1  -1 3832.93  132.87
   2   1  -1 3744.71  132.25
  -2   1   1 3848.52  136.97
  -2  -1   1 3183.09  113.32
  -2  -1   1 3663.21  124.70
   2  -1  -1 3312.56  117.61
  -2   1  -1 2573.45   96.91
  -2   1  -1 2516.25   87.89
   2   1   1 2675.44  106.04
   2   1   1 2679.83   96.48
  -2   1  -1 2548.95   92.39
  -2  -1  -1 3171.84  114.68
   2   1   2 4190.95  146.03
   2   1   2 3959.59  140.84
  -2   1  -2 4066.07  140.63
  -2   1  -2 3995.89  141.93
  -2  -1  -2 4123.73  140.95
   2  -1   2 4073.95  143.16
  -2  -1  -2 4044.50  142.46
   2  -1   2 4079.51  139.46
  -2  -1  -3 6019.62  206.44
  -2  -1  -3 5868.12  196.88
   2  -1   3 5684.01  196.09
  -2  -1  -3 5711.38  197.22
   2  -1   3 5644.41  191.83
  -2   1  -4  910.64   34.73
   2   1   4 1052.69   53.31
   2   1   4  987.81   40.49
   2   1   4  959.21   51.53
  -2   1  -4  963.91   62.29
   2   1   4 1042.45   52.85
  -2   1  -4 1012.87   55.56
  -2   1  -4 1038.52   48.63
   2  -1   4  952.38   67.73
  -2  -1  -4 1024.12   52.16
   2  -1   4  990.41   37.56
  -2  -1  -4  993.16   42.69
  -2  -1  -4  999.33   48.94
  -2  -1  -4  981.48  121.34
   2  -1   4  923.67   43.97
   2  -1   4  957.77   49.66
   2   1   6 6520.02  179.38
   2   1   6 6020.88  172.63
  -2   1  -6 6105.13  178.91
   2   1   6 6430.90  170.61
   2  -1   6 6105.95  155.20
   2  -1   6 5783.18  163.04
  -2  -1  -6 6144.37  160.79
  -2  -1  -6 6063.71  172.62
  -2   1  -7 4333.34  120.09
  -2   1  -7 4317.79  140.59
   2   1   7 4331.52  146.81
  -2   1  -7 4463.50  157.54
   2   1   7 4356.95  133.96
   2   1   7 4583.63  125.89
  -2  -1  -7 4407.34  126.67
   2  -1   7 4411.57  118.84
  -2  -1  -7 4317.16  172.61
   2  -1   7 4316.24  132.92
  -2   1  -8 6076.83  174.85
  -2   1  -8 5941.79  194.39
   2   1   8 5833.06  185.45
  -2   1  -8 6164.03  218.68
   2   1   8 5829.39  183.54
   2   1   8 6265.06  188.59
  -2  -1  -8 6160.20  182.67
   2  -1   8 6399.03  183.74
  -2  -1  -8 6274.34  214.03
   2  -1   8 6478.98  204.16
  -2   1  -9  140.12   35.66
   2   1   9  128.36   50.77
   2   1   9  136.60   48.40
  -2   1  -9  123.40   53.61
  -2   1  -9  147.00   48.68
   2  -1   9  156.22   29.79
   2  -1   9  144.56   56.10
  -2  -1  -9  143.88   45.21
  -2  -1  -9  128.51   34.03
   2   1  10  903.86   79.84
   2   1  10  817.65   68.00
  -2   1 -10  839.74   76.00
  -2   1 -10  880.03   66.95
   2  -1  10  800.74   59.06
   2  -1  10  819.79   76.76
  -2  -1 -10  723.94   72.04
  -2  -1 -10  734.61   57.88
   2   1  11 1694.44  129.01
   2   1  11 1643.39  111.40
  -2   1 -11 1626.71  114.80
  -2   1 -11 1714.19  150.50
   2  -1  11 1690.17  105.29
   2  -1  11 1736.80  130.19
  -2  -1 -11 1532.41  111.89
  -2  -1 -11 1573.91   99.44
   2   1  12  234.40   63.47
   2   1  12  214.00   52.21
  -2   1 -12  197.87   53.98
  -2   1 -12  240.10   52.72
   2  -1  12  218.64   68.81
   2  -1  12  194.63   46.68
  -2  -1 -12  203.08   43.31
  -2  -1 -12  211.43   61.32
   2   1  13 2560.95  228.01
   2   1  13 2505.55  216.78
  -2   1 -13 2559.95  230.58
  -2   1 -13 2601.10  285.97
   2  -1  13 2784.44  267.65
   2  -1  13 2644.17  220.90
  -2  -1 -13 2497.65  212.48
  -2  -1 -13 2495.39  224.78
   2   1  14  704.90  105.00
   2   1  14  669.37   90.94
  -2   1 -14  698.44   93.82
  -2   1 -14  724.57   95.97
   2  -1  14  549.15   72.91
   2  -1  14  524.79   83.09
  -2  -1 -14  517.17   84.20
  -2  -1 -14  501.95   67.82
   2   1  15   91.91   59.31
   2   1  15   85.90   47.20
  -2   1 -15   89.35   59.61
  -2   1 -15   99.40   61.62
   2  -1  15  100.89   62.18
   2  -1  15   97.60   38.37
  -2  -1 -15   98.53   44.46
  -2  -1 -15   95.79   55.64
   2   1  16  134.32   59.93
   2   1  16  150.57   74.91
  -2   1 -16  118.82   70.35
  -2   1 -16  129.71   55.55
   2  -1  16  240.09   77.76
  -2  -1 -16  212.66   54.99
  -2  -1 -16  218.31   59.76
   2   1  17  210.95   77.33
  -2   1 -17  234.64  165.24
  -2   1 -17  200.78   78.77
  -2  -1 -17  254.25   81.78
   2  -1  17  267.41   86.73
   2   1  18  187.22   78.02
  -2   1 -18  156.77   70.61
   2  -1  18  206.73   76.81
  -2  -1 -18  201.25   71.40
   2   2 -18   -0.23   53.67
  -2   2  18   15.34   62.69
  -2  -2  18    4.09   40.80
  -2  -2  18    5.16   29.18
   2  -2 -18    1.45   44.45
   2   2 -17  163.68   85.50
  -2   2  17  225.13  107.23
   2  -2 -17  170.89   51.90
  -2  -2  17  175.38   74.96
  -2   2  16   44.70   62.68
  -2   2  16   24.87   81.37
   2   2 -16   64.94   67.69
  -2  -2  16   85.76   77.37
   2  -2 -16   78.99   43.88
  -2  -2  16   95.34   61.38
   2  -2 -16   87.94   54.38
  -2   2  15  362.69   68.45
  -2   2  15  568.10   94.47
   2   2 -15  576.66   93.88
   2   2 -15  562.70   68.58
  -2  -2  15  590.70  114.21
  -2  -2  15  615.67  101.19
   2  -2 -15  622.64   85.43
   2  -2 -15  540.72  176.81
  -2   2  14  228.52   53.19
  -2   2  14  330.88   72.45
   2   2 -14  335.44   78.15
   2   2 -14  340.40   53.80
  -2  -2  14  457.40  202.05
  -2  -2  14  474.52   88.60
   2  -2 -14  474.61   84.43
   2  -2 -14  424.94   65.35
  -2   2  13    3.76   20.75
  -2   2  13   -4.72   51.11
   2   2 -13   -6.34   48.78
   2   2 -13    4.84   22.95
  -2  -2  13   -0.42   20.42
  -2  -2  13   13.44   59.09
   2  -2 -13   20.43   44.84
   2  -2 -13    4.90   24.45
  -2   2  12 2122.72  159.83
  -2   2  12 2763.19  232.78
   2   2 -12 2603.35  216.68
   2   2 -12 2827.21  204.90
  -2  -2  12 2705.92  212.32
  -2  -2  12 2867.95  273.05
   2  -2 -12 2661.87  221.35
   2  -2 -12 2554.67  198.50
  -2   2  11 1271.48   83.38
  -2   2  11 1653.82  127.09
   2   2 -11 1596.69  119.07
   2   2 -11 1667.06   93.14
  -2  -2  11 1431.74  119.10
  -2  -2  11 1442.40  217.92
   2  -2 -11 1370.79  137.76
   2  -2 -11 1350.87   90.54
  -2   2  10  461.66   57.20
  -2   2  10  568.75   69.67
   2   2 -10  535.83   70.57
   2   2 -10  576.45   39.40
  -2  -2  10  599.73   59.25
  -2  -2  10  649.30   80.57
   2  -2 -10  666.22  209.61
   2  -2 -10  650.78   80.84
  -2   2   9  805.88   48.87
  -2   2   9  969.10   76.05
   2   2  -9  938.53   73.84
   2   2  -9  990.26   49.70
  -2  -2   9 1310.14   80.74
  -2  -2   9 1277.92  132.37
   2  -2  -9 1255.83  102.79
   2  -2  -9 1194.80   89.08
  -2   2   8  275.89   33.37
  -2   2   8  317.58   56.78
   2   2  -8  337.12   33.58
   2   2  -8  319.17   23.32
   2   2  -8  313.88   55.13
  -2  -2   8  226.40   57.76
   2  -2  -8  235.80  100.98
   2  -2  -8  224.20   53.36
  -2  -2   8  230.22   57.31
  -2   2   7  443.75   30.02
  -2   2   7  498.19   57.33
   2   2  -7  531.65   23.88
   2   2  -7  483.18   23.08
   2   2  -7  459.23   54.14
  -2  -2   7  522.00   62.38
   2  -2  -7  587.73   56.48
   2  -2  -7  570.02   59.15
  -2  -2   7  610.14  103.43
   2   2  -6 3428.91  151.61
  -2   2   6 3336.91  114.70
  -2   2   6 3030.88   82.37
  -2   2   6 3087.13   90.64
  -2  -2   6 3560.75  121.62
   2  -2  -6 3320.72  116.94
  -2  -2   6 3369.47  105.89
   2  -2  -6 3536.18  126.48
   2   2  -5 3169.81  162.60
  -2   2   5 3116.41  106.78
  -2   2   5 3089.82   88.08
   2   2  -5 3193.86  111.98
  -2   2   5 2934.46   86.13
   2  -2  -5 3027.13   94.45
  -2  -2   5 3047.63  102.13
   2  -2  -5 3032.29  106.53
   2   2  -4 4067.34  153.29
  -2   2   4 4050.37  152.70
  -2   2   4 4242.73  143.06
   2   2  -4 4178.49  162.18
  -2   2   4 3955.98  140.11
   2  -2  -4 4168.90  148.64
  -2  -2   4 4496.20  159.42
   2  -2  -4 4708.51  179.28
   2   2  -3   25.54   31.28
  -2   2   3   29.42   21.75
   2   2  -3   42.45   39.72
  -2   2   3   46.56   21.97
   2   2  -3   35.55   27.41
  -2   2   3   48.87   29.70
  -2   2   3   42.64   14.40
  -2  -2   3   23.02   18.75
   2  -2  -3   25.74   29.53
  -2  -2   3   15.62   15.84
   2  -2  -3   26.15   13.09
   2  -2  -3   27.42   28.67
   2   2  -2  930.82   63.31
   2   2  -2  965.48   45.64
  -2   2   2 1000.55   54.66
   2   2  -2  936.71   62.72
  -2   2   2 1043.07   66.84
  -2  -2   2  988.02   50.11
   2  -2  -2  955.46   40.26
  -2  -2   2  960.83   45.16
   2  -2  -2 1035.63   53.66
   2  -2  -2  947.09   44.85
  -2  -2   2  942.32   34.36
   2  -2  -2 1017.83   62.93
   2  -2  -2  944.35   47.84
   2   2   0  100.41   17.62
   2   2   0  104.03   14.74
  -2   2   0  100.91   23.00
  -2   2   0  113.24   52.33
   2   2   0   92.35   28.95
   2  -2   0   60.79   12.77
  -2  -2   0   61.75   25.11
   2  -2   0   58.08   14.13
   2  -2   0   62.88   51.01
  -2  -2   0   61.91   12.70
   2  -2   0   55.91   20.68
   2  -2   0   58.66   15.79
  -2  -2   0   60.82   59.29
  -2  -2   0   66.98   29.24
   2  -2   0   63.74   18.17
  -2  -2   0   66.99   22.37
  -2   2  -1 3867.14  143.15
  -2   2  -1 3855.31  142.57
  -2  -2  -1 3037.33  117.52
   2  -2   1 2938.84  108.94
  -2  -2  -1 3126.20  116.93
  -2  -2  -1 3026.87  101.82
   2  -2   1 3148.72  119.38
   2  -2   1 3335.84  114.08
  -2  -2  -1 3223.57  117.05
   2  -2   1 3185.43  120.18
   2  -2   1 3078.31  110.84
  -2   2  -2  777.06   56.09
   2   2   2  791.17   58.13
   2   2   2  750.33   54.74
  -2   2  -2  796.19   49.27
  -2   2  -2  751.83   45.19
   2   2   2  810.84   58.39
   2  -2   2  834.93   37.31
   2  -2   2  867.58   35.71
  -2  -2  -2  869.56   56.32
   2  -2   2  860.99   42.19
   2  -2   2  858.05   61.32
   2   2   3  668.18   40.33
   2   2   3  657.63   51.28
   2   2   3  664.80   52.80
  -2   2  -3  676.84   59.90
  -2   2  -3  671.01   52.33
   2  -2   3  533.12   25.78
   2  -2   3  502.84   22.11
  -2  -2  -3  472.78   44.96
   2  -2   3  516.60   30.83
   2  -2   3  513.49   45.68
   2   2   4 4008.35  129.73
  -2   2  -4 4147.87  135.81
   2   2   4 3945.16  122.18
   2  -2   4 3507.87  111.53
   2  -2   4 3573.53   88.91
  -2  -2  -4 3403.37  109.18
   2  -2   4 3584.12  103.74
  -2   2  -5 1134.07   37.43
   2   2   5 1176.79   65.16
   2   2   5 1212.10   62.75
  -2   2  -5 1184.01   67.98
   2  -2   5  832.10   84.47
  -2  -2  -5  823.32   58.15
  -2   2  -6 4417.98  112.07
   2   2   6 4507.62  140.46
   2   2   6 4395.52  143.68
  -2   2  -6 4663.35  139.13
   2   2   6 4395.80  110.36
  -2   2  -6 4486.21  152.74
   2  -2   6 4008.09  103.31
  -2  -2  -6 4064.61  102.01
  -2  -2  -6 3792.37  130.96
   2  -2   6 4006.79  126.80
   2   2   7 7042.67  215.95
   2   2   7 6999.57  224.73
  -2   2  -7 7052.78  229.55
   2  -2   7 6294.46  173.27
  -2  -2  -7 6385.30  174.47
   2  -2   7 6398.58  205.16
  -2  -2  -7 6187.73  212.52
  -2   2  -8 1378.96   65.20
   2   2   8 1298.82   85.79
   2   2   8 1308.64   95.03
  -2   2  -8 1374.07   72.44
   2   2   8 1480.64   69.55
  -2   2  -8 1367.56  107.37
   2  -2   8 1363.45   65.59
  -2  -2  -8 1376.46   66.49
  -2  -2  -8 1326.49   94.23
   2  -2   8 1375.56  134.60
  -2   2  -9 1273.60   75.28
   2   2   9 1301.70   88.79
   2   2   9 1264.56   92.15
  -2   2  -9 1324.46  114.22
   2   2   9 1397.21   74.75
  -2   2  -9 1218.39   94.27
   2  -2   9 1619.40   93.23
  -2  -2  -9 1511.21   80.07
  -2  -2  -9 1519.36  103.86
   2  -2   9 1518.82  121.75
  -2   2 -10 1182.12   68.99
  -2   2 -10 1226.86  104.27
   2   2  10 1266.75  107.98
  -2   2 -10 1372.54   95.01
   2   2  10 1230.67  127.16
   2   2  10 1357.93  101.11
  -2  -2 -10 1186.38   71.53
   2  -2  10 1248.24   88.37
  -2  -2 -10 1248.02  180.29
   2  -2  10 1204.05   97.52
   2   2  11  143.64  127.45
   2   2  11  170.61   66.61
  -2   2 -11  159.01   55.88
  -2   2 -11  173.06   46.43
   2  -2  11  134.59   50.72
   2  -2  11  144.17   34.41
  -2  -2 -11  132.24   35.40
  -2  -2 -11  120.53  133.63
   2   2  12  211.12   82.26
   2   2  12  200.28   59.70
  -2   2 -12  186.14   63.15
  -2   2 -12  219.02   44.67
   2  -2  12  124.96   35.24
   2  -2  12  126.44   55.02
  -2  -2 -12  136.30  103.59
  -2  -2 -12  133.77   35.47
   2   2  13   31.85   58.78
   2   2  13   32.90   51.04
  -2   2 -13   35.13   66.71
  -2   2 -13   51.26   40.51
   2  -2  13   61.80   32.19
   2  -2  13   92.15   68.31
  -2  -2 -13   75.43   56.13
  -2  -2 -13   78.22   34.64
   2   2  14  237.72   64.53
   2   2  14  264.62   84.16
  -2   2 -14  242.33   77.48
  -2   2 -14  298.43  140.67
   2  -2  14  301.07   71.31
  -2  -2 -14  265.25   69.18
   2   2  15  481.77   84.30
   2   2  15  496.10  107.52
  -2   2 -15  510.83  101.16
  -2   2 -15  554.53   75.68
   2  -2  15  545.58  100.52
  -2  -2 -15  472.84  173.25
   2   2  16  158.72   75.65
  -2   2 -16  150.12  100.41
   2   2  16  110.18   47.41
  -2  -2 -16  137.03   74.50
   2  -2  16  154.98   73.95
   2   2  17   97.28   84.07
  -2   2 -17  118.17   67.24
  -2   2 -17  121.24   90.79
  -2  -2 -17   58.27   63.16
   2  -2  17   80.85   74.12
  -2   3  17   46.28   81.31
   2   3 -17   66.55   82.63
  -2  -3  17   71.48   72.66
   2  -3 -17   72.96   78.87
   2   3 -16   86.39   70.45
  -2   3  16   78.83   84.63
  -2  -3  16  154.91   83.60
  -2  -3  16  126.52   51.65
   2  -3 -16  125.16   73.41
  -2  -3  15  289.06  138.04
   2   3 -14  781.82  105.51
  -2   3  14  768.63  116.63
  -2  -3  14  707.51  162.70
  -2  -3  14  657.36  177.98
   2  -3 -14  726.88  113.96
  -2   3  13  472.60  101.04
  -2   3  13  694.07  111.86
   2   3 -13  645.40  110.68
  -2  -3  13  540.81  107.68
   2  -3 -13  507.78   81.34
  -2  -3  13  574.45  115.39
   2  -3 -13  584.46  102.21
  -2   3  12   40.90   32.02
  -2   3  12   62.98   66.05
   2   3 -12   50.51   69.01
  -2  -3  12   80.77   61.80
   2  -3 -12   94.28   31.66
  -2  -3  12   93.68   86.94
   2  -3 -12  120.37   61.24
  -2   3  11  427.89   51.36
  -2   3  11  546.89   87.12
   2   3 -11  502.95   92.25
  -2  -3  11  502.88  104.25
   2  -3 -11  409.82  101.03
  -2  -3  11  512.27   94.99
   2  -3 -11  482.83   84.53
  -2   3  10  762.81   87.06
  -2   3  10  867.05   98.56
   2   3 -10  843.06   93.95
   2   3 -10  841.24   42.64
  -2  -3  10  772.92   74.85
  -2  -3  10  748.75  144.38
   2  -3 -10  677.12  190.30
   2  -3 -10  680.43   72.53
  -2   3   9   21.01   19.27
  -2   3   9    3.94   50.20
   2   3  -9   13.34   42.52
  -2  -3   9   42.57   28.97
   2  -3  -9   19.96   28.60
  -2  -3   9   25.62   46.42
   2  -3  -9   13.34   33.45
   2   3  -8 1896.26  117.77
  -2   3   8 1943.06  121.38
  -2   3   8 1923.75  104.15
  -2  -3   8 1915.10  116.83
   2  -3  -8 2136.89   98.35
   2  -3  -8 1763.91  107.81
  -2  -3   8 1656.17   94.15
   2  -3  -8 1854.31  180.52
  -2   3   7  429.65   49.68
  -2   3   7  393.75   54.84
  -2   3   7  462.29   39.47
   2   3  -7  419.72   55.90
  -2  -3   7  652.28   52.46
   2  -3  -7  704.22   44.39
  -2  -3   7  614.39  110.26
   2  -3  -7  612.66   67.60
   2  -3  -7  599.81   64.03
  -2   3   6  249.60   53.64
  -2   3   6  230.54   45.30
  -2   3   6  267.90   35.53
   2   3  -6  255.58   46.21
  -2  -3   6  397.42   44.92
   2  -3  -6  384.33   36.13
  -2  -3   6  356.26   93.80
   2  -3  -6  346.42   69.88
   2  -3  -6  356.28   52.39
   2   3  -5  942.04   60.09
  -2   3   5  977.91   70.16
  -2   3   5 1061.76   49.73
   2   3  -5  990.78   76.22
   2  -3  -5 1371.30   48.54
   2  -3  -5 1152.02   64.26
  -2  -3   5 1438.25   68.64
   2  -3  -5 1284.81   95.22
   2   3  -4   73.58   29.80
  -2   3   4   71.23   29.27
  -2   3   4   79.05   28.57
   2   3  -4   68.29   39.50
   2  -3  -4   78.96   16.88
   2  -3  -4   74.73   28.92
  -2  -3   4   94.24   70.95
   2  -3  -4   79.95   17.55
   2  -3  -4   77.88   79.42
   2   3  -3 6733.81  218.03
  -2   3   3 6684.43  204.33
   2  -3  -3 6112.29  169.16
  -2  -3   3 5877.57  179.09
   2  -3  -3 5555.13  162.31
   2  -3  -3 5971.31  172.17
   2  -3  -3 5823.52  186.42
   2   3  -2  600.96   68.85
  -2   3   2  635.25   49.19
   2  -3  -2 1069.35   48.75
  -2  -3   2 1037.97   54.33
  -2  -3   2  965.27   35.10
   2  -3  -2 1068.95   55.91
  -2   3   1 1854.43   71.23
   2   3  -1 1819.92  113.97
   2   3  -1 1846.26   66.72
  -2   3   1 1991.90   82.94
  -2  -3   1 1921.76   80.94
   2  -3  -1 1872.89   79.77
   2  -3  -1 1755.07   68.20
   2  -3  -1 1872.03   75.22
  -2  -3   1 1876.66   62.11
  -2  -3   1 1844.35   59.48
  -2  -3   1 1909.94   61.98
   2   3   0 1204.54   47.62
  -2   3   0 1163.22   51.88
   2   3   0 1142.30   78.79
   2   3   0 1290.34   51.69
  -2   3   0 1182.30   72.96
  -2  -3   0 1349.13   67.92
   2  -3   0 1387.83   77.18
  -2  -3   0 1277.28   46.60
   2  -3   0 1144.89   51.80
  -2  -3   0 1316.07   57.71
   2  -3   0 1376.75   55.11
   2   3   1 2776.91   75.84
  -2   3  -1 2851.95   98.28
   2   3   1 3020.13  121.39
   2   3   1 2788.28  123.07
  -2   3  -1 2986.96  143.29
   2  -3   1 2434.63  110.53
  -2  -3  -1 2626.35   71.53
   2  -3   1 2492.38   79.86
   2  -3   1 2563.19   78.74
  -2  -3  -1 2491.42   82.39
  -2  -3  -1 2525.31   97.04
  -2   3  -2 2287.14   92.37
   2   3   2 2292.23  101.93
  -2   3  -2 2232.15  108.99
   2  -3   2 2308.49   92.49
   2  -3   2 2333.34   87.92
  -2  -3  -2 2166.30   60.85
  -2  -3  -2 2273.45   95.71
  -2  -3  -2 2174.99   79.57
   2  -3   2 2317.36   75.97
   2   3   3 5124.22  172.24
   2   3   3 4956.99  172.06
  -2   3  -3 5042.37  169.81
   2  -3   3 5927.66  178.46
   2  -3   3 5845.14  184.80
   2  -3   3 5780.06  161.80
  -2  -3  -3 5736.23  180.67
  -2   3  -4   -1.06   20.44
   2   3   4   -7.80   36.77
   2   3   4    3.65   21.07
  -2   3  -4    0.79   33.38
   2  -3   4    5.01    6.63
   2  -3   4    7.65   15.66
  -2  -3  -4   -5.45   33.61
   2  -3   4    5.01   10.46
  -2   3  -5 1220.41   96.32
   2   3   5 1221.29   86.47
   2   3   5 1239.46  108.31
  -2   3  -5 1277.53   89.29
   2  -3   5 1159.34   54.13
   2  -3   5 1261.77  107.79
  -2  -3  -5 1217.46   88.12
   2  -3   5 1208.61   54.94
   2   3   6 1364.05   98.10
  -2   3  -6 1343.67   91.54
   2   3   6 1285.88   92.23
  -2   3  -6 1330.65   83.75
   2  -3   6 1085.98   52.05
   2  -3   6 1155.48  110.16
   2  -3   6 1057.08   49.74
  -2  -3  -6 1059.01   90.83
  -2   3  -7  180.49   28.11
  -2   3  -7  192.00   44.43
   2   3   7  184.51   58.60
   2   3   7  155.49   87.63
  -2   3  -7  181.24   55.35
   2  -3   7  192.94   69.21
  -2  -3  -7  187.55   48.97
   2  -3   7  187.00   35.45
  -2   3  -8 1728.95  101.18
  -2   3  -8 1886.29  163.56
   2   3   8 1653.01  120.53
   2   3   8 1504.49  156.18
  -2   3  -8 1747.46  130.49
   2  -3   8 1648.85  112.67
  -2  -3  -8 1541.60  108.89
   2  -3   8 1595.08   83.00
  -2   3  -9  442.04   63.62
   2   3   9  432.69   73.20
   2   3   9  326.10  122.32
  -2   3  -9  400.91   81.95
   2  -3   9  350.15   61.03
  -2  -3  -9  326.76   76.26
   2  -3   9  330.44   55.88
  -2   3 -10 1211.61  128.57
   2   3  10 1191.81  121.32
   2   3  10 1065.67  117.58
  -2   3 -10 1159.40  118.00
   2  -3  10 1618.34  220.93
  -2  -3 -10 1530.68  148.80
   2  -3  10 1335.28  101.06
   2   3  11  357.91   75.38
   2   3  11  314.44   71.24
  -2   3 -11  376.43   82.67
  -2   3 -11  407.93   65.30
   2  -3  11  590.59  118.42
  -2  -3 -11  573.66   95.64
   2   3  12  301.37   82.95
   2   3  12  257.94   76.64
  -2   3 -12  324.78   86.85
  -2   3 -12  318.48  112.92
   2  -3  12  386.03   84.96
  -2  -3 -12  356.47   80.35
   2   3  13  189.23   72.07
   2   3  13  146.90   65.91
  -2   3 -13  221.60   86.12
  -2   3 -13  176.21   48.35
   2  -3  13  174.54   78.37
  -2  -3 -13  128.89  177.58
   2   3  14  108.45   72.50
   2   3  14   71.57   53.54
  -2   3 -14   87.61   91.22
   2   3  15   99.29   69.03
   2   3  15   98.77   68.38
  -2   3 -15   93.01   80.28
   2  -3  15   76.42   59.80
  -2  -3 -15   72.75   88.26
   2   3  16   58.63   66.22
   2   3  16   31.08   63.05
  -2   3 -16   87.68   72.28
   2  -3  16   94.62   68.70
  -2  -3 -16  113.58   78.08
  -2   4  16   41.85   76.05
   2   4 -16   44.71   69.54
  -2  -4  16   22.67   53.09
   2  -4 -16   45.96   61.02
  -2   4  15   79.07   76.39
   2   4 -15   55.20   77.01
  -2  -4  15   53.98   63.82
   2  -4 -15   58.98   69.49
  -2   4  14  104.75   77.54
   2   4 -14  108.77   62.66
  -2  -4  14  132.78   94.78
   2  -4 -14  116.80   89.70
   2   4 -13   15.11   61.56
  -2  -4  13   14.12   28.36
   2   4 -12  267.91   75.48
  -2   4  12  251.28   83.54
  -2  -4  12  153.39  129.02
  -2  -4  12  137.32   69.33
   2  -4 -12  170.11   84.20
   2   4 -11  167.20   72.73
  -2   4  11  180.16   76.60
  -2  -4  11  179.79  148.11
  -2  -4  11  169.94  131.88
   2  -4 -11  171.81  138.34
  -2   4  10   96.81   27.92
  -2   4  10   79.60   51.65
   2   4 -10   81.97   55.72
  -2  -4  10  104.89   64.81
  -2  -4  10   94.46   42.94
   2  -4 -10   90.90   91.94
  -2   4   9  558.37   65.83
  -2   4   9  524.27   95.39
   2   4  -9  505.67   89.48
  -2  -4   9  499.70   83.86
   2  -4  -9  466.85   81.12
  -2  -4   9  536.19  130.47
   2  -4  -9  511.24   91.31
  -2   4   8  507.24   68.61
  -2   4   8  457.21   95.87
   2   4  -8  476.18   85.91
  -2  -4   8  417.14   98.39
   2  -4  -8  339.33   70.80
  -2  -4   8  391.63   88.64
   2  -4  -8  346.91  129.61
  -2   4   7  670.94   86.42
  -2   4   7  631.85  114.04
   2   4  -7  623.74   97.20
  -2  -4   7  778.76   79.33
   2  -4  -7  649.78   81.62
  -2  -4   7  646.52  127.82
   2  -4  -7  662.10  102.32
  -2   4   6  339.85   47.04
  -2   4   6  317.11   63.03
   2   4  -6  319.63   51.17
  -2  -4   6  181.74   68.31
   2  -4  -6  150.23   43.83
  -2  -4   6  187.53   74.05
   2  -4  -6  169.06   77.66
   2   4  -5   74.98   37.96
  -2   4   5  102.88   52.69
  -2   4   5   96.47   29.94
   2   4  -5   68.63   46.51
   2  -4  -5   83.42   25.43
   2  -4  -5   73.73   40.50
  -2  -4   5   86.48   64.16
   2  -4  -5   79.49   80.86
   2   4  -4  372.58   50.09
  -2   4   4  374.24   56.78
  -2   4   4  414.38   42.22
   2   4  -4  373.42   62.40
   2  -4  -4  526.07   38.94
   2  -4  -4  520.39   50.89
  -2  -4   4  585.03   56.32
   2  -4  -4  507.68   78.63
  -2   4   3  692.60   65.92
  -2   4   3  618.91   62.13
   2   4  -3  653.40   79.95
   2   4  -3  620.93   55.85
  -2  -4   3  667.83  110.84
   2  -4  -3  654.60   54.08
   2  -4  -3  589.45   73.74
  -2  -4   3  629.36   44.34
  -2  -4   3  572.53   36.77
  -2   4   2  415.25   47.58
  -2   4   2  382.54   52.72
   2   4  -2  361.54   61.12
   2   4  -2  347.72   43.91
  -2  -4   2  415.19   56.04
   2  -4  -2  413.62   81.46
   2  -4  -2  357.20   52.30
  -2  -4   2  394.80   30.55
  -2  -4   2  321.35   34.76
   2   4  -1 1145.43   90.97
  -2   4   1 1126.87   80.21
   2   4  -1 1129.99   68.98
  -2  -4   1  955.04   91.62
   2  -4  -1  975.30   83.64
   2  -4  -1 1023.84   79.82
   2  -4  -1  854.75   67.78
  -2  -4   1  932.66   66.76
  -2  -4   1  770.68   61.44
   2   4   0  208.60   28.34
  -2   4   0  211.05   47.76
   2   4   0  225.13   55.10
  -2  -4   0  210.40   60.59
   2  -4   0  188.47   39.75
  -2  -4   0  171.30   34.06
   2  -4   0  203.63   36.28
  -2  -4   0  202.82   32.01
   2  -4   0  203.50   37.89
  -2   4  -1 3309.69  165.89
  -2   4  -1 3337.45  174.27
   2   4   1 3191.40  189.37
   2   4   1 3330.35  144.57
  -2  -4  -1 3688.11  195.35
  -2  -4  -1 3314.00  143.05
   2  -4   1 3620.39  168.90
  -2  -4  -1 3361.27  156.32
   2  -4   1 3765.38  179.74
   2   4   2  452.62   72.80
  -2   4  -2  475.19   64.12
  -2   4  -2  449.90   59.54
  -2  -4  -2  381.22   87.98
  -2  -4  -2  329.01   26.69
   2  -4   2  425.68   56.20
  -2  -4  -2  365.84   44.41
   2  -4   2  399.20   46.20
  -2   4  -3  765.20   76.83
  -2   4  -3  772.42   75.05
   2   4   3  677.74   80.46
   2  -4   3  797.11  104.08
   2  -4   3  755.33   64.33
  -2  -4  -3  752.85   68.00
  -2  -4  -3  783.72   87.12
  -2   4  -4 2763.12  165.92
   2   4   4 2621.89  164.90
   2   4   4 2483.35  159.83
  -2   4  -4 2787.77  165.30
   2  -4   4 2411.08  121.73
   2  -4   4 2607.42  176.35
  -2  -4  -4 2353.40  141.30
   2  -4   4 2477.28  125.04
  -2   4  -5 1381.63  107.16
   2   4   5 1344.77  105.55
   2   4   5 1261.17  104.30
  -2   4  -5 1401.75  103.70
   2  -4   5 1649.14  151.73
  -2  -4  -5 1478.40  100.14
   2  -4   5 1607.63   90.56
  -2   4  -6  536.91   86.74
   2   4   6  534.42   96.84
   2   4   6  503.98   88.63
  -2   4  -6  546.08   93.68
   2  -4   6  528.49  101.00
  -2  -4  -6  502.85   81.88
   2  -4   6  468.05   55.86
  -2   4  -7  307.01   56.71
   2   4   7  374.10   78.31
   2   4   7  284.21   61.83
  -2   4  -7  367.13   88.51
   2  -4   7  462.12  100.79
  -2  -4  -7  381.66   84.36
   2  -4   7  362.68   59.28
   2   4   8  293.35   69.39
   2   4   8  273.42   61.96
  -2   4  -8  331.71   75.85
  -2   4  -8  291.81   48.37
   2  -4   8  305.11   96.71
  -2  -4  -8  291.96   72.01
   2   4   9  366.70   80.53
   2   4   9  292.41   67.92
  -2   4  -9  386.30   75.48
  -2   4  -9  319.46   48.49
   2  -4   9  367.77   84.70
  -2  -4  -9  313.02   98.83
   2   4  10  560.41  103.95
   2   4  10  426.68   93.70
  -2   4 -10  589.98  104.93
  -2   4 -10  478.25   92.10
   2  -4  10  590.50  102.06
  -2  -4 -10  545.07   86.33
   2   4  11  166.71   77.57
   2   4  11  121.78   55.94
  -2   4 -11  150.97   66.10
   2  -4  11  122.67   64.55
  -2  -4 -11   89.80  124.08
   2   4  12  376.57   73.67
   2  -4  12  679.00  105.20
  -2  -4 -12  569.00   89.78
   2   4  13   14.86   53.22
   2   4  13   13.83   45.13
  -2   4 -13   25.77   69.17
   2  -4  13    4.46   18.50
  -2  -4 -13    7.86   35.48
   2   4  14   44.88   65.00
   2   4  14   24.78   53.92
  -2   4 -14   70.48   69.08
   2  -4  14   97.98   69.85
  -2  -4 -14  112.40   82.25
   2   4  15   88.09   79.86
   2   4  15   44.97   61.72
  -2   4 -15  117.27   73.13
   2  -4  15   62.65   72.29
  -2  -4 -15   48.56   71.29
  -2   5  13  184.04   86.40
   2   5 -13  172.76   69.66
  -2  -5  13  168.10  104.43
   2  -5 -13  148.93   65.90
  -2   5  12   76.45   60.46
   2   5 -12  113.39   82.77
  -2  -5  12   41.15   76.27
   2  -5 -12   63.96   48.75
   2   5 -11  131.05   56.65
  -2   5  11  115.04   57.85
  -2  -5  11  151.45  101.06
  -2  -5  11  122.85  116.16
  -2   5  10  210.83   66.36
   2   5 -10  216.25   62.76
  -2  -5  10   91.90   89.78
   2  -5 -10  113.65  112.11
   2   5  -9   36.07   57.46
  -2   5   9   27.73   67.83
  -2  -5   9   27.13   30.33
  -2  -5   9   23.87   37.40
   2  -5  -9   18.10   31.71
   2   5  -8   57.88   53.18
  -2   5   8   74.52   60.92
  -2  -5   8   19.45   48.63
  -2  -5   8   16.68   26.14
   2  -5  -8   30.70   43.79
   2   5  -7  120.49   70.27
  -2   5   7   88.08   62.19
  -2  -5   7  126.77  103.81
  -2  -5   7  131.93  114.45
   2  -5  -7  110.46  133.17
  -2   5   6   80.19   30.21
  -2   5   6   72.41   49.65
   2   5  -6   56.89   40.14
  -2  -5   6   91.31  123.09
  -2  -5   6  100.99   97.84
   2  -5  -6  108.93  112.85
   2   5  -5  399.98   91.12
  -2   5   5  378.43  103.95
  -2   5   5  449.08   64.53
   2   5  -5  335.60   59.03
  -2  -5   5  448.93   72.96
   2  -5  -5  304.04   80.13
   2  -5  -5  359.10  134.10
  -2   5   4  100.02   28.98
  -2   5   4   69.00   46.86
   2   5  -4  102.07   70.59
   2   5  -4   66.19   34.11
  -2  -5   4   64.88   73.93
   2  -5  -4   53.70   32.50
   2  -5  -4   60.23   77.23
  -2   5   3  171.18   56.16
   2   5  -3  177.22   74.38
   2   5  -3  163.48   42.32
  -2  -5   3  261.01  130.47
   2  -5  -3  209.96   68.95
   2  -5  -3  196.45   94.08
   2   5  -2   65.80   49.61
  -2   5   2   63.47   37.84
   2   5  -2   57.01   31.48
  -2  -5   2   -0.66   32.77
   2  -5  -2   12.10   23.39
   2  -5  -2   12.20   19.23
   2  -5  -2   11.69   24.86
   2   5  -1   97.56   50.02
   2   5  -1   97.23   24.96
  -2  -5   1  119.30  136.65
   2  -5  -1  116.65   74.70
   2  -5  -1  129.07   89.64
   2  -5  -1  133.23   47.15
   2  -5  -1  114.29   83.54
  -2  -5   1  111.21   29.87
   2   5   0  249.87  108.28
   2   5   0  196.97   34.40
  -2  -5   0  259.05  108.31
   2  -5   0  248.45   89.67
   2  -5   0  231.81   58.51
   2  -5   0  293.53   57.51
   2  -5   0  230.11   60.65
  -2  -5   0  240.61   51.05
   2   5   1  126.47  152.54
   2  -5   1  195.47   73.34
   2  -5   1  208.83   58.82
  -2  -5  -1  198.70  183.92
   2  -5   1  204.28   61.19
   2  -5   1  186.45   49.51
  -2  -5  -1  195.29   37.51
   2   5   2  614.84  112.17
  -2   5  -2  613.65   82.64
   2  -5   2  672.63  109.50
  -2  -5  -2  640.40  102.54
   2  -5   2  563.97   77.32
  -2  -5  -2  579.40   78.89
  -2   5  -3  457.11   93.90
  -2   5  -3  473.39   75.49
   2   5   3  475.94   97.08
   2  -5   3  630.84  114.79
   2  -5   3  575.38   67.68
  -2  -5  -3  516.59   72.88
  -2  -5  -3  597.13   89.50
  -2   5  -4   43.55   54.51
  -2   5  -4   39.35   36.72
   2   5   4   50.77   57.78
   2  -5   4   51.05   45.90
   2  -5   4   34.87   35.16
  -2  -5  -4   33.36   35.76
  -2  -5  -4   29.67   39.33
  -2   5  -5  180.27   70.64
   2   5   5  133.81   59.20
  -2   5  -5  164.60   37.14
   2  -5   5  199.30   74.91
  -2  -5  -5  193.71  171.73
  -2  -5  -5  163.09   52.52
   2   5   6  298.46   76.34
   2   5   6  260.46   78.32
  -2   5  -6  326.84   80.54
  -2   5  -6  323.00   63.34
   2  -5   6  308.82   71.48
  -2  -5  -6  243.63   70.72
   2   5   7    0.43   49.10
   2   5   7    9.51   37.90
  -2   5  -7   -7.83   37.17
   2  -5   7   16.45   28.77
  -2  -5  -7   15.43   38.34
   2   5   8  344.70   87.75
   2   5   8  261.52   60.15
  -2   5  -8  346.36   85.73
   2  -5   8  363.66   85.69
  -2  -5  -8  278.47  124.22
   2   5   9   10.63   34.45
  -2   5  -9   27.16   64.15
   2  -5   9   33.87   37.92
  -2  -5  -9   37.93   51.40
   2   5  10   60.66   54.25
   2   5  10   51.77   54.84
  -2  -5 -10   73.45   58.87
   2   5  11  131.69   77.89
   2   5  11  102.43   58.65
  -2   5 -11  115.18   70.70
   2  -5  11   96.88   79.88
  -2  -5 -11   62.20   75.82
   2   5  12   36.76   74.97
   2   5  12   21.55   37.12
  -2   5 -12   62.14   66.21
   2  -5  12   77.96   80.56
  -2  -5 -12   46.39   63.89
  -2   6  10   60.81   65.83
   2   6 -10   42.40   58.34
  -2  -6  10    7.72   27.05
   2  -6 -10   35.88   36.38
  -2   6   9  180.54   88.53
  -2  -6   9  159.02  173.90
   2  -6  -9  154.69  155.08
  -2   6   8   18.68   47.43
   2   6  -8   13.27   38.36
  -2  -6   8   -0.72   45.78
   2   6  -7   18.45   54.61
  -2   6   7   34.93   50.54
  -2  -6   7   26.66   69.40
  -2  -6   7   58.11   68.91
   2  -6  -7   54.89   72.85
  -2   6   6  120.20   60.16
   2   6  -6  118.02   54.98
  -2  -6   6   79.24   89.72
   2  -6  -6   79.00  103.59
   2   6  -5   31.30   44.35
  -2   6   5   23.00   66.19
  -2  -6   5   17.71   40.53
  -2  -6   5   28.78   29.75
   2  -6  -5   16.17   39.24
  -2   6   4   22.61   63.89
   2   6  -4   35.58   41.23
  -2  -6   4   37.07   38.38
   2  -6  -4   25.86   19.77
   2   6  -3    7.60   26.15
   2   6  -3    9.47   37.17
  -2  -6   3   35.72   36.33
   2  -6  -3   30.21   31.11
   2  -6  -3   18.61   23.82
   2   6  -2   20.81   36.76
   2  -6  -2   34.97   57.34
  -2  -6   2   45.96   47.09
   2  -6  -2   43.24   58.26
   2   6  -1  175.74   70.98
  -2  -6   1  266.93  137.99
   2  -6  -1  333.13   73.59
   2  -6  -1  247.55   83.13
   2  -6  -1  253.87   55.27
   2   6   0   33.63   50.50
  -2  -6   0   41.67   39.09
   2  -6   0   38.78   49.46
   2  -6   0   27.62   42.42
   2  -6   0   41.41   47.43
   2  -6   0   34.77   40.36
   2   6   1   88.74   73.47
   2  -6   1   75.61  101.08
   2  -6   1   95.32   92.34
  -2  -6  -1   85.98   77.97
   2  -6   1   29.39   68.52
   2   6   2   97.35   77.83
  -2  -6  -2  120.14  101.24
   2  -6   2  112.50  113.14
   2  -6   2   75.86   80.55
   2   6   3   45.20   63.81
  -2  -6  -3   24.73   44.83
   2  -6   3   18.64   34.05
  -2  -6  -3   14.34   29.41
  -2   6  -4  132.79   57.30
   2   6   4  138.37   71.11
   2  -6   4  163.84   92.65
  -2  -6  -4  143.55  149.20
  -2  -6  -4   88.53  125.43
   2   6   5    3.09   44.24
  -2   6  -5   22.55   53.21
   2  -6   5    1.92   22.19
  -2  -6  -5   17.99   31.64
  -2   6  -6  143.38   62.30
   2   6   6  132.26   66.28
   2  -6   6  106.92  121.12
  -2  -6  -6  132.20  118.60
  -2  -6  -6  111.28   52.00
   2   6   7   31.40   31.79
  -2  -6  -7   32.48   59.10
   2  -6   7   26.09   33.82
  -2  -6  -7   38.01   47.43
  -2   6  -8   55.11   58.05
   2   6   8   34.16   61.88
   2  -6   8   20.46   42.38
  -2  -6  -8   23.72   26.33
  -2  -6  -8   14.04   45.99
  -2   6  -9  134.67   77.15
   2  -6   9  112.68   97.24
  -2  -6  -9  125.23   56.06
   2   7  -2   63.94   66.74
   2   7  -1   11.65   40.35
  -2  -7   1   17.30   35.29
   2   7   0   15.63   38.88
  -2  -7   0    9.06   22.68
  -2  -7  -1   36.42   45.33
  -3   0  19    9.38   49.77
  -3   0  19    7.88   36.61
   3   0 -19    2.58   42.53
   3   0 -19   21.79   41.91
  -3   0  18    9.04   47.77
   3   0 -18    5.40   48.72
   3   0 -18  -17.15   44.68
  -3   0  17 1510.85  189.91
  -3   0  17 1391.86  138.94
   3   0 -17 1464.28  144.36
   3   0 -17 1511.69  138.63
  -3   0  16  413.43  106.12
  -3   0  16  435.65   95.74
   3   0 -16  359.42   76.15
   3   0 -16  413.03   86.55
  -3   0  15    1.95   25.44
  -3   0  15    5.57   34.73
   3   0 -15   13.04   40.67
   3   0 -15    6.17   59.39
  -3   0  14 1387.82  181.04
  -3   0  14 1294.60  128.94
   3   0 -14 1337.67  142.59
   3   0 -14 1364.88  138.46
  -3   0  13 3290.84  266.03
  -3   0  13 3335.46  249.55
   3   0 -13 3205.17  264.74
   3   0 -13 3303.11  252.77
  -3   0  12 1905.99  140.66
  -3   0  12 1941.01  122.55
   3   0 -12 1936.03  127.09
   3   0 -12 1955.03  124.73
  -3   0  11 5694.91  312.90
  -3   0  11 5853.98  305.34
   3   0 -11 5630.23  266.98
   3   0 -11 5678.23  305.61
  -3   0  10   65.05   56.69
  -3   0  10   44.52   32.41
   3   0 -10   39.81   46.50
   3   0 -10   58.43   70.40
  -3   0   9 5436.49  187.61
  -3   0   9 5684.96  173.42
   3   0  -9 5544.11  191.88
   3   0  -9 5624.00  192.84
  -3   0   8 7708.40  220.21
  -3   0   8 8270.75  216.36
  -3   0   8 8382.38  214.32
   3   0  -8 8070.18  248.27
   3   0  -8 7914.71  224.44
  -3   0   7   15.00   22.47
  -3   0   7   18.26   29.59
  -3   0   7    3.62   13.12
   3   0  -7    8.31   32.37
   3   0  -7    5.98   20.59
   3   0  -7    8.76   18.39
  -3   0   6 8484.57  314.74
  -3   0   6 8386.83  277.81
   3   0  -6 8791.13  236.52
   3   0  -6 9121.56  233.55
   3   0  -5 9003.54  227.11
   3   0  -2 1072.84   45.57
  -3   0   2 1040.07   48.31
  -3   0   2 1115.86   48.92
   3   0  -2 1134.92   47.47
  -3   0   2 1044.55   47.00
   3   0  -2 1171.49   57.96
   3   0  -2 1106.98   47.12
  -3   0   2 1066.53   48.64
   3   0   1  469.84   25.96
  -3   0  -1  481.15   25.20
  -3   0  -1  530.24   29.73
   3   0   1  544.99   40.67
  -3   0  -1  464.84   26.18
   3   0   1  499.84   31.11
   3   0   1  506.41   30.33
  -3   0  -1  524.78   31.41
  -3   0  -3 3140.21  111.84
  -3   0  -3 3431.16  120.16
  -3   0  -3 3718.78  132.41
   3   0   3 3562.20  128.10
   3   0   3 3433.96  122.91
  -3   0  -3 3531.48  128.86
   3   0   3 3232.21  116.90
  -3   0  -3 3408.51  128.02
  -3   0  -4 4603.24  158.08
   3   0   4 4251.61  146.90
   3   0   4 4601.44  163.87
   3   0   4 4357.74  153.57
  -3   0  -4 4816.85  172.31
  -3   0  -4 4511.12  168.14
   3   0   5 8627.19  290.03
  -3   0  -5 9267.28  238.84
  -3   0  -6 2341.15   75.31
   3   0   6 2028.88   73.05
   3   0   6 2152.42   86.56
  -3   0  -6 2120.48   81.75
  -3   0  -6 2176.06   86.05
  -3   0  -711483.69  286.18
   3   0   710197.92  260.47
  -3   0  -710857.48  283.97
  -3   0  -710574.63  278.66
   3   0   8 1518.54   69.28
   3   0   8 1522.71   80.54
  -3   0  -8 1531.53   81.78
  -3   0  -8 1471.66   76.08
   3   0   9   14.67   31.82
   3   0   9   35.85   42.82
  -3   0  -9   27.64   32.02
  -3   0  -9   13.85   47.86
   3   0  10   51.37   35.73
   3   0  10   34.13   34.67
  -3   0 -10   12.48   31.95
  -3   0 -10   52.01   37.00
   3   0  11 1667.46  101.62
   3   0  11 1790.80  129.06
  -3   0 -11 1685.28  114.87
  -3   0 -11 1685.85  118.37
   3   0  12  729.31   93.36
   3   0  12  800.30  106.10
  -3   0 -12  703.56   92.39
  -3   0 -12  742.50  111.78
   3   0  13  104.77   40.55
   3   0  13  118.47   67.40
  -3   0 -13   87.92   47.47
  -3   0 -13   95.61   63.05
   3   0  14  242.68   61.99
   3   0  14  254.29   76.77
  -3   0 -14  244.89   65.55
  -3   0 -14  260.55   73.18
   3   0  15  107.35   51.83
   3   0  15  131.09   62.05
  -3   0 -15  117.07   56.01
  -3   0 -15  126.24   94.49
   3   0  16  500.33   65.50
  -3   0 -16  508.34   72.14
  -3   0 -16  496.87   69.06
   3   0  17    5.23   39.34
  -3   0 -17   14.37   35.57
  -3   0 -17    1.45   34.55
   3   0  18   87.62   59.88
  -3   0 -18   89.56   90.56
   3   1 -19  151.13   87.23
  -3   1  19  134.90   92.45
  -3  -1  19  112.21  110.67
  -3  -1  19  111.68   75.18
   3  -1 -19  168.41   84.07
   3   1 -18  273.10  116.48
  -3   1  18  297.68  107.51
  -3   1  18  177.03  150.38
   3   1 -18  237.03   82.69
  -3  -1  18  320.81   86.01
   3  -1 -18  343.31   83.63
  -3  -1  18  370.41   98.77
  -3   1  17   69.07   49.13
  -3   1  17  112.41   90.20
   3   1 -17   78.45   72.48
   3   1 -17   80.39   60.02
  -3  -1  17  143.67  134.32
  -3  -1  17  167.00   63.80
   3  -1 -17  157.33   67.68
   3  -1 -17  177.48   61.89
  -3   1  16  330.30   80.60
  -3   1  16  387.95  104.63
   3   1 -16  417.56  101.00
   3   1 -16  419.38   89.34
  -3  -1  16  430.81  218.19
  -3  -1  16  420.53  102.20
   3  -1 -16  451.58   91.17
   3  -1 -16  433.70   85.42
  -3   1  15 2137.29  227.66
  -3   1  15 2484.19  232.22
   3   1 -15 2372.69  260.77
   3   1 -15 2571.27  212.10
  -3  -1  15 2383.60  227.49
  -3  -1  15 2337.62  250.91
   3  -1 -15 2215.92  233.68
   3  -1 -15 2477.96  214.64
  -3   1  14   10.53   37.72
  -3   1  14    2.56   53.72
   3   1 -14   22.59   63.05
   3   1 -14   17.32   34.99
  -3  -1  14   10.94   29.34
  -3  -1  14    5.27   44.53
   3  -1 -14   28.05   66.62
   3  -1 -14   20.35   46.88
  -3   1  13 1003.51  102.33
  -3   1  13 1160.88  126.39
   3   1 -13 1068.47  116.61
   3   1 -13 1179.25  106.54
  -3  -1  13 1157.24  123.30
  -3  -1  13 1253.83  180.32
   3  -1 -13 1272.71  135.56
   3  -1 -13 1274.06  119.99
  -3   1  12  702.15   69.20
  -3   1  12  769.44  111.15
   3   1 -12  745.00   86.93
   3   1 -12  752.41   68.65
  -3  -1  12  764.83  169.95
  -3  -1  12  781.09  132.76
   3  -1 -12  756.91  141.16
   3  -1 -12  706.60  166.75
  -3   1  11  264.88   45.66
  -3   1  11  305.61   67.41
   3   1 -11  304.68   86.90
   3   1 -11  284.37   49.11
  -3  -1  11  238.16   64.62
  -3  -1  11  280.30  131.37
   3  -1 -11  267.37   98.10
   3  -1 -11  287.09   58.53
   3   1 -10 5058.55  231.90
  -3   1  10 5233.81  240.97
   3   1 -10 5070.54  211.62
  -3   1  10 4960.05  208.01
  -3  -1  10 4801.77  220.49
   3  -1 -10 4815.69  259.38
  -3  -1  10 4681.52  211.21
   3  -1 -10 4821.68  234.52
   3  -1 -10 4704.06  189.34
   3   1  -9 2883.31  129.93
  -3   1   9 2918.44  143.39
   3   1  -9 2805.48  102.00
   3   1  -9 3047.03  101.45
  -3   1   9 2750.03   95.62
   3  -1  -9 3264.09  122.01
  -3  -1   9 3147.90  127.38
   3  -1  -9 3303.72  157.36
   3  -1  -9 3393.72  108.18
  -3  -1   9 3309.24  123.94
  -3   1   8 1467.25   68.64
  -3   1   8 1556.18  132.98
   3   1  -8 1587.18   65.84
   3   1  -8 1469.97   62.63
   3   1  -8 1528.32   78.53
  -3  -1   8 1710.29  108.85
   3  -1  -8 1620.75   82.40
   3  -1  -8 1696.00  100.10
  -3  -1   8 1633.32   81.66
   3   1  -710135.18  249.87
  -3  -1   7 9356.25  247.40
   3  -1  -7 9232.91  246.95
   3  -1  -7 9096.62  249.63
  -3  -1   7 9319.40  256.53
   3   1  -6  659.44   83.69
  -3   1   6  635.79   64.33
  -3   1   6  657.30   40.85
  -3   1   6  666.45   31.02
   3   1  -6  662.18   50.48
   3   1  -6  646.03   38.65
   3   1  -6  664.47   48.28
   3  -1  -6  679.83   65.06
   3  -1  -6  680.62   78.63
  -3  -1   6  672.84   55.87
   3   1  -5 6273.01  219.89
  -3   1   5 5913.24  205.90
  -3   1   5 6340.80  229.51
  -3  -1   5 5434.67  193.05
   3  -1  -5 5651.16  201.12
   3   1  -4 3713.66  132.81
  -3   1   4 3693.61  139.68
   3   1  -4 3611.89  135.90
  -3   1   4 3760.58  138.36
   3   1  -4 3510.18  119.70
  -3   1   4 3453.86  127.18
   3   1  -4 3781.67  143.08
   3  -1  -4 4135.32  143.78
   3  -1  -4 3930.14  143.63
  -3  -1   4 4138.22  147.75
  -3  -1   4 3809.72  137.87
   3  -1  -4 4251.87  154.21
  -3  -1   4 3585.07  123.45
  -3  -1   4 4105.05  146.84
   3   1  -3  185.08   19.85
  -3   1   3  226.73   36.90
  -3   1   3  167.32   27.33
  -3   1   3  206.49   24.27
   3   1  -3  196.82   30.41
   3   1  -3  175.09   27.75
   3   1  -3  190.13   16.74
   3  -1  -3  139.12    7.59
  -3  -1   3  175.37   39.80
  -3  -1   3  162.85   19.87
  -3  -1   3  164.71   24.66
   3  -1  -3  143.10   41.54
   3  -1  -3  172.97   23.24
  -3  -1   3  157.63   17.57
   3  -1  -3  172.31   22.13
   3  -1  -1 6659.06  225.68
   3   1   0 5089.93  175.62
  -3   1   0 5698.38  199.06
  -3  -1   0 5566.62  189.33
   3  -1   0 5361.01  184.39
  -3  -1   0 5424.65  185.90
  -3   1  -2 6027.14  208.25
   3   1   2 5813.43  201.61
  -3   1  -2 5879.68  197.24
   3   1   2 6075.55  200.55
  -3  -1  -2 6578.05  221.40
   3  -1   2 6322.73  216.68
  -3  -1  -2 5963.60  208.12
  -3  -1  -2 6467.75  221.74
  -3  -1  -2 6176.67  210.74
   3  -1   2 6116.28  209.17
   3   1   3 6905.41  227.99
   3   1   3 6330.53  217.86
  -3   1  -3 6912.14  235.68
  -3   1  -3 6803.96  235.35
   3   1   3 6937.28  238.19
  -3  -1  -3 8143.75  276.15
  -3  -1  -3 7905.69  268.55
   3  -1   3 8201.28  276.80
  -3   1  -5  169.31   22.14
   3   1   5  167.61   37.55
   3   1   5  172.07   35.94
  -3   1  -5  175.32   33.97
   3   1   5  158.53   20.47
  -3   1  -5  178.81   41.98
   3  -1   5   92.28   12.72
  -3  -1  -5  101.08   20.81
  -3  -1  -5   91.60   44.04
   3  -1   5   96.81  105.33
  -3  -1  -6 5443.73  148.08
  -3   1  -7 1256.44   44.29
   3   1   7 1257.50   76.20
   3   1   7 1182.73   67.19
  -3   1  -7 1264.84   69.62
   3   1   7 1181.51   50.95
  -3   1  -7 1219.29   75.25
   3  -1   7 1390.27   53.54
  -3  -1  -7 1425.16   62.64
  -3  -1  -7 1374.99   80.70
   3  -1   7 1394.11  114.74
  -3   1  -8  522.10   33.61
   3   1   8  476.77   64.33
   3   1   8  473.96   67.43
  -3   1  -8  496.56   67.54
  -3   1  -8  500.45   50.58
   3  -1   8  551.61   37.84
   3  -1   8  544.67   65.40
  -3  -1  -8  508.99   67.82
  -3  -1  -8  560.06   46.45
  -3   1  -9 5834.09  273.05
   3   1   9 5669.88  255.24
   3   1   9 5616.24  255.12
  -3   1  -9 5766.79  294.89
  -3   1  -9 5967.40  330.31
   3  -1   9 5713.57  266.46
   3  -1   9 5484.16  234.01
  -3  -1  -9 5737.90  281.02
  -3  -1  -9 5492.04  261.33
   3   1  10  211.00   56.13
   3   1  10  200.78   52.71
  -3   1 -10  200.17   49.26
  -3   1 -10  234.39   45.56
   3  -1  10  232.39  129.89
   3  -1  10  179.94   34.48
  -3  -1 -10  176.83   43.16
  -3  -1 -10  199.94   56.25
   3   1  11  906.43   98.46
   3   1  11  831.55   72.44
  -3   1 -11  905.90   83.08
  -3   1 -11  990.68   86.68
   3  -1  11 1171.77  103.23
   3  -1  11 1114.42   74.26
  -3  -1 -11 1112.92   80.44
  -3  -1 -11 1098.70   99.00
   3   1  12  613.52   95.26
   3   1  12  597.01   76.05
  -3   1 -12  606.65   93.66
  -3   1 -12  663.80   84.44
   3  -1  12  773.34  108.81
   3  -1  12  735.67   74.32
  -3  -1 -12  717.36   86.27
  -3  -1 -12  713.02   97.39
   3   1  13   67.41   64.88
   3   1  13   77.43   56.42
  -3   1 -13   55.27   65.88
  -3   1 -13   78.90   53.71
   3  -1  13   90.96   35.87
   3  -1  13   73.21   51.91
  -3  -1 -13   77.32   50.18
  -3  -1 -13   73.43   46.87
   3   1  14  766.61  117.21
   3   1  14  773.97  109.31
  -3   1 -14  751.68  112.24
  -3   1 -14  824.73  116.50
   3  -1  14  671.05   85.08
   3  -1  14  729.63  111.96
  -3  -1 -14  656.59   93.86
  -3  -1 -14  682.95   90.55
   3   1  15   54.64   44.80
  -3   1 -15   81.14   61.51
   3   1  15   76.26   52.02
  -3   1 -15   87.87   66.46
   3  -1  15  115.20   61.58
  -3  -1 -15  104.29   51.01
  -3  -1 -15   86.04   50.15
   3   1  16  218.32   57.35
   3   1  16  240.68   79.90
  -3   1 -16  212.63   75.01
  -3   1 -16  209.48  146.82
   3  -1  16  283.96   71.70
  -3  -1 -16  241.86   52.85
   3   1  17  113.59   67.95
  -3   1 -17  125.80   69.54
   3   1  17  125.29   77.57
  -3  -1 -17   92.61   58.29
   3  -1  17  101.42   64.91
  -3   2  18   18.31   61.71
   3   2 -18   19.12   47.58
  -3  -2  18   29.90   35.70
  -3  -2  18   28.97   58.97
   3  -2 -18   52.30   51.60
   3  -2 -18   15.36   47.77
   3   2 -17  373.86   99.82
  -3   2  17  350.03  108.31
   3  -2 -17  286.51  118.26
  -3  -2  17  282.72  206.20
  -3  -2  16  606.77  166.66
  -3  -2  16  668.77  140.63
   3  -2 -16  635.67   76.85
   3  -2 -16  670.75  101.25
  -3   2  15    1.51   24.09
  -3   2  15    5.07   45.55
   3   2 -15   10.49   69.64
   3   2 -15    3.69   22.55
  -3  -2  15   18.36   25.36
  -3  -2  15   -4.84   33.57
   3  -2 -15   34.78   76.05
   3  -2 -15    1.30   24.16
  -3   2  14  691.37   74.95
  -3   2  14 1094.41  133.94
   3   2 -14 1054.37  129.52
   3   2 -14 1141.33  107.49
  -3  -2  14 1147.99  126.82
  -3  -2  14 1309.60  172.56
   3  -2 -14 1236.95  141.57
   3  -2 -14 1159.80  159.09
  -3   2  13  380.59   56.51
  -3   2  13  618.05  105.37
   3   2 -13  641.04  105.42
   3   2 -13  613.09   84.85
  -3  -2  13  704.14  156.87
  -3  -2  13  736.38  118.35
   3  -2 -13  691.62   99.48
   3  -2 -13  672.10  179.41
  -3   2  12  133.06   34.39
  -3   2  12  211.32   84.65
   3   2 -12  214.32   62.23
   3   2 -12  201.34   37.95
  -3  -2  12  217.20  102.28
  -3  -2  12  191.87  170.06
   3  -2 -12  231.06   94.46
   3  -2 -12  219.77   55.91
   3   2 -11 3529.49  189.15
  -3   2  11 3387.48  197.78
   3   2 -11 3316.89  190.68
   3   2 -11 3565.88  168.03
  -3  -2  11 4091.59  243.57
   3  -2 -11 3743.83  210.80
   3  -2 -11 3792.08  296.70
  -3  -2  11 4058.80  210.41
   3   2 -10  399.55   69.10
  -3   2  10  407.97   72.54
   3   2 -10  424.27   42.00
   3   2 -10  412.16   45.46
  -3   2  10  298.73   53.31
   3  -2 -10  468.40   64.50
  -3  -2  10  500.83  108.59
   3  -2 -10  472.73   70.05
  -3  -2  10  473.29   84.31
   3  -2 -10  491.93   41.11
  -3   2   9 3210.36  165.53
   3   2  -9 3438.57  137.74
   3   2  -9 3456.16  155.43
   3   2  -9 3263.40  184.87
  -3  -2   9 3085.11  155.07
  -3  -2   9 3023.29  185.44
   3  -2  -9 3047.14  165.70
   3  -2  -9 2966.84  165.48
   3  -2  -9 3149.41  132.93
  -3   2   8 4652.96  205.90
   3   2  -8 5072.49  194.52
   3   2  -8 5292.97  203.97
   3   2  -8 4724.96  214.04
  -3  -2   8 4659.48  198.59
   3  -2  -8 4897.83  187.41
   3  -2  -8 4747.59  233.36
   3  -2  -8 4555.46  198.04
  -3  -2   8 4700.06  234.10
  -3   2   7  183.06   19.38
  -3   2   7  198.97   57.88
   3   2  -7  212.36   26.53
   3   2  -7  222.71   16.34
   3   2  -7  202.20   42.62
  -3  -2   7  148.53   70.39
   3  -2  -7  187.29   74.60
   3  -2  -7  186.83   57.01
  -3  -2   7  156.71   97.05
  -3   2   6 4482.01  155.24
   3   2  -6 4706.56  153.76
   3   2  -6 4586.46  147.46
  -3  -2   6 5116.05  157.64
   3  -2  -6 5132.17  150.25
   3  -2  -6 5108.62  210.77
  -3   2   5 4820.45  145.27
   3   2  -5 4801.02  154.74
   3   2  -5 4993.50  151.82
  -3  -2   5 4729.03  137.97
   3  -2  -5 4603.11  134.35
  -3   2   4  195.69   43.96
  -3   2   4  165.24   31.88
   3   2  -4  205.08   63.52
  -3   2   4  165.54   32.93
   3   2  -4  171.88   33.32
   3  -2  -4  293.87   30.09
  -3  -2   4  316.53   57.44
   3   2  -3 7461.92  267.02
  -3  -2   3 7953.28  267.59
  -3   2   2 1457.47   87.23
   3   2  -2 1538.38   84.57
  -3   2   2 1537.87   71.80
   3   2  -2 1557.74   70.12
   3   2  -2 1621.28   60.69
  -3   2   2 1353.34   59.99
   3  -2  -2 1537.96   57.10
   3  -2  -2 1582.57   62.73
  -3  -2   2 1693.30   72.96
   3  -2  -2 1606.00   56.37
   3  -2  -2 1571.54   72.70
  -3  -2   2 1658.39   60.31
  -3  -2   2 1510.03   70.60
   3   2  -1 3486.38  122.23
  -3   2   1 3292.37  119.18
   3  -2  -1 4514.33  160.37
   3  -2  -1 3974.43  134.66
   3  -2  -1 4439.60  161.04
  -3  -2   1 4509.48  159.16
  -3  -2   1 4327.88  162.18
  -3  -2   1 4247.02  143.63
  -3   2   0 4499.79  157.16
   3   2   0 4690.41  179.24
  -3   2   0 4424.77  191.85
  -3  -2   0 5770.39  211.74
   3  -2   0 5688.57  200.22
  -3  -2   0 5317.96  179.32
  -3   2  -1 1620.22   82.03
   3   2   1 1810.27   68.46
  -3   2  -1 1655.81   62.22
  -3   2  -1 1568.39   79.83
   3   2   1 1789.23   94.60
   3   2   1 1718.26   72.53
  -3  -2  -1 1665.55   80.56
  -3  -2  -1 1652.21   62.09
   3  -2   1 1830.15   68.74
  -3  -2  -1 1856.92   77.56
   3  -2   1 1726.44   83.87
  -3   2  -3 1418.23   79.68
  -3   2  -3 1355.22   70.65
   3   2   3 1422.68   77.27
   3   2   3 1438.83   40.61
   3  -2   3 1205.11   59.32
  -3  -2  -3 1132.04   74.25
  -3  -2  -3 1178.24   65.64
   3   2   4  571.40   51.34
  -3   2  -4  587.01   53.80
   3   2   4  583.04   53.28
   3   2   4  579.53   20.98
  -3   2  -4  594.19   43.03
   3  -2   4  332.00   53.17
  -3  -2  -4  319.40   56.24
   3   2   5 3750.06  133.78
  -3   2  -5 3807.76  140.80
   3   2   5 3913.46  141.01
   3   2   5 3918.92  106.14
  -3   2  -5 3954.12  138.88
   3  -2   5 4564.95  162.16
  -3  -2  -5 4421.16  152.42
   3   2   6  197.11   46.47
  -3   2  -6  219.97   44.17
   3   2   6  209.08   54.24
   3   2   6  176.39   26.34
   3   2   6  215.27   16.18
  -3   2  -6  204.39   50.65
  -3  -2  -6  127.90   43.50
   3  -2   6  135.16   41.77
  -3   2  -7 1733.60   70.34
   3   2   7 1740.95  110.99
  -3   2  -7 1894.33  101.87
   3   2   7 1787.80  108.17
   3   2   7 1767.55   76.77
   3   2   7 1837.27   77.39
  -3   2  -7 1845.10  117.55
  -3  -2  -7 1830.93  105.99
   3  -2   7 1979.20  130.33
  -3   2  -8 1007.25   51.99
   3   2   8 1046.17   86.73
   3   2   8 1022.75   88.27
  -3   2  -8 1053.69   99.18
   3   2   8 1062.48   60.46
  -3   2  -8 1070.07   75.04
   3  -2   8  719.59   38.95
   3  -2   8  729.79   65.30
  -3  -2  -8  681.04   62.20
  -3   2  -9  576.14   40.75
   3   2   9  552.54   71.69
   3   2   9  536.31   62.11
  -3   2  -9  617.74  128.79
   3   2   9  579.09   47.61
  -3   2  -9  532.28   69.79
   3  -2   9  499.83   36.01
  -3  -2  -9  550.95   43.98
  -3  -2  -9  474.67   61.44
   3  -2   9  494.09   68.89
   3   2  10 6198.55  630.33
   3   2  10 5858.32  291.19
  -3   2 -10 6312.64  646.07
  -3   2 -10 6617.67  665.10
   3  -2  10 5841.30  307.74
   3  -2  10 5630.60  255.38
  -3  -2 -10 5998.00  598.95
  -3  -2 -10 5416.35  290.71
   3   2  11 1044.51  119.29
   3   2  11 1002.74  105.05
  -3   2 -11 1010.97  114.75
  -3   2 -11 1133.90  112.52
   3  -2  11  976.89  112.64
   3  -2  11  975.60   79.30
  -3  -2 -11 1002.02   86.43
  -3  -2 -11  894.87   97.49
   3   2  12  143.24   59.18
   3   2  12  122.97   55.70
  -3   2 -12  162.08   72.37
  -3   2 -12  166.24  104.61
   3  -2  12  182.93   70.19
  -3  -2 -12  174.14   39.74
  -3  -2 -12  164.63   52.86
   3   2  13  563.23   88.62
   3   2  13  568.88  100.97
  -3   2 -13  600.73   98.93
  -3   2 -13  676.09  105.14
   3  -2  13  710.01  104.58
  -3  -2 -13  626.92   95.89
   3   2  14  250.81   61.75
   3   2  14  262.05  138.98
  -3   2 -14  255.63   76.25
  -3   2 -14  307.94   79.63
   3  -2  14  257.99  131.62
  -3  -2 -14  273.07  189.43
   3   2  15  110.52   57.23
  -3   2 -15  112.19   50.38
   3   2  15   93.16   84.87
  -3   2 -15  110.10   73.28
   3  -2  15  106.45   86.29
   3   2  16  100.65   64.52
  -3   2 -16  129.79   62.48
  -3   2 -16  125.27   75.53
  -3  -2 -16   81.20   62.58
   3  -2  16   94.19   81.63
   3   2  17   21.47   55.07
   3   2  17    5.55   40.52
  -3   2 -17   15.23   48.25
  -3   2 -17    3.25   50.33
   3  -2  17   20.82   42.90
  -3  -2 -17    7.77   45.55
   3   3 -17  100.55   66.80
  -3   3  17  103.44  102.90
  -3  -3  17   75.49   59.61
  -3  -3  17   79.89   81.34
   3  -3 -17  106.76   71.44
   3   3 -16   20.33   50.94
  -3   3  16   56.67   92.90
  -3  -3  16   23.44   44.12
  -3  -3  16   42.90   63.19
   3  -3 -16   20.95   49.44
  -3  -3  15  185.63  154.60
  -3   3  14  100.96   75.15
   3   3 -14  107.27   71.03
  -3  -3  14   72.22   50.79
  -3  -3  14   83.90   45.62
   3  -3 -14   74.76   39.90
   3  -3 -14   72.94   65.16
  -3   3  13  635.85  103.60
   3   3 -13  617.04   95.37
  -3  -3  13  671.47  137.39
  -3  -3  13  665.75  122.27
   3  -3 -13  621.47   80.23
   3  -3 -13  653.57  163.49
  -3   3  12 1310.14  154.91
   3   3 -12 1306.41  153.73
  -3  -3  12 1458.53  159.11
  -3  -3  12 1414.26  206.64
   3  -3 -12 1249.03  131.84
   3  -3 -12 1327.99  187.23
  -3   3  11   33.62   21.53
  -3   3  11   30.32   76.57
   3   3 -11   53.37   51.39
  -3  -3  11   61.59   60.26
   3  -3 -11   50.46   45.49
  -3  -3  11   61.69   50.23
   3  -3 -11   57.86   67.45
  -3   3  10 1531.78  122.34
  -3   3  10 1438.81  142.05
   3   3 -10 1380.96  129.04
  -3  -3  10 1526.29  129.91
   3  -3 -10 1327.78  136.26
  -3  -3  10 1433.99  245.28
   3  -3 -10 1426.64  236.84
  -3   3   9  858.21   53.70
  -3   3   9  847.79   89.06
   3   3  -9  826.38   78.88
  -3  -3   9  696.58   66.41
   3  -3  -9  667.19   71.09
  -3  -3   9  741.79  127.15
   3  -3  -9  690.47   85.83
  -3   3   8  226.87   34.57
  -3   3   8  200.09   57.99
   3   3  -8  211.39   52.55
  -3  -3   8  167.04   86.42
   3  -3  -8  171.33   37.74
  -3  -3   8  199.57  153.69
   3  -3  -8  195.85  147.52
   3   3  -7 2549.15  138.35
  -3   3   7 2548.33  141.37
  -3   3   7 2880.23  123.65
   3   3  -7 2745.99  155.31
   3  -3  -7 2740.86  114.02
   3  -3  -7 2297.80  129.74
  -3  -3   7 2370.00  122.44
   3  -3  -7 2285.59  166.25
   3   3  -6  557.09   57.03
  -3   3   6  537.11   68.50
  -3   3   6  657.01   34.99
   3   3  -6  562.82   70.71
   3  -3  -6  544.00   30.04
   3  -3  -6  452.79   60.82
  -3  -3   6  490.04   69.54
   3  -3  -6  493.30   59.05
   3   3  -5 2549.55  138.68
  -3   3   5 2441.71  124.31
   3   3  -5 2452.57  120.31
  -3  -3   5 2648.34  127.44
   3  -3  -5 2290.44  113.00
   3  -3  -5 2641.81  105.00
   3  -3  -5 2440.48  136.30
   3   3  -4  984.40   81.70
  -3   3   4 1000.89   70.08
   3   3  -4  992.89   57.24
  -3  -3   4 1300.89   82.29
   3  -3  -4 1138.20   57.27
   3  -3  -4 1210.57   40.23
   3   3  -3  782.52   45.52
  -3   3   3  786.96   54.26
  -3   3   3  775.02   70.60
   3   3  -3  782.43  150.00
   3  -3  -3  814.80   43.10
   3  -3  -3  791.55   53.59
  -3  -3   3  833.32  102.48
  -3  -3   3  917.81   28.99
  -3  -3   3  731.77   26.17
   3  -3  -3  919.65   38.12
  -3   3   2 3214.50  139.01
  -3   3   2 3173.06  109.17
   3   3  -2 3189.41  144.96
   3   3  -2 3180.52  106.27
   3  -3  -2 3574.87  109.85
  -3  -3   2 3807.33  134.94
   3  -3  -2 3780.92  130.93
  -3  -3   2 3650.60  115.47
  -3  -3   2 3475.11   98.71
   3  -3  -2 3410.65  102.64
   3   3  -1 2849.35   95.54
   3   3  -1 2568.44  114.27
  -3   3   1 2607.78   93.01
  -3   3   1 2616.05  122.41
   3   3  -1 2630.74   91.72
  -3  -3   1 2810.46  124.61
   3  -3  -1 2903.26   97.17
   3  -3  -1 2901.03  106.91
  -3  -3   1 2869.26  102.11
   3  -3  -1 2779.41  100.01
  -3  -3   1 2822.28   88.39
   3  -3  -1 2551.22   85.77
   3   3   0 6515.32  213.23
  -3   3   0 6419.05  185.26
  -3   3   0 6385.24  221.21
  -3  -3   0 6040.24  195.21
   3  -3   0 5650.34  175.26
   3  -3   0 6023.56  172.18
  -3  -3   0 5971.53  168.73
  -3  -3   0 5852.39  174.12
   3  -3   0 6019.73  186.02
  -3   3  -1 1110.02   49.62
   3   3   1 1116.85   87.89
   3   3   1 1090.32   41.14
   3   3   1 1151.30   54.13
  -3   3  -1 1022.21   66.04
  -3  -3  -1 1628.34  108.62
  -3  -3  -1 1401.54   54.72
  -3  -3  -1 1524.91   75.50
  -3   3  -2   77.09   46.59
   3   3   2   78.51   51.56
  -3   3  -2   99.27   65.92
   3   3   2   71.95    8.48
   3  -3   2   53.67   59.38
   3  -3   2   40.35   24.81
  -3  -3  -2   34.74   40.32
  -3  -3  -2   45.00   39.86
   3  -3   2   40.62   32.67
  -3   3  -3 1085.20   95.60
  -3   3  -3 1081.96   85.01
   3   3   3 1091.12   88.93
  -3  -3  -3  960.06  102.62
   3  -3   3  949.63  112.09
   3  -3   3  980.43   44.94
  -3  -3  -3  944.91   89.06
   3  -3   3  861.37   42.67
  -3   3  -4 1572.91   89.05
   3   3   4 1597.28   98.50
   3   3   4 1656.20  107.91
  -3   3  -4 1701.16  106.43
   3  -3   4 1411.52   58.93
   3  -3   4 1506.23   82.15
  -3  -3  -4 1505.43   86.13
   3  -3   4 1471.61   60.26
  -3   3  -5  683.42   93.51
   3   3   5  602.42   69.45
   3   3   5  562.81   99.34
  -3   3  -5  611.48   63.65
   3  -3   5  572.42   24.56
   3  -3   5  540.16   56.56
  -3  -3  -5  503.47   55.44
   3  -3   5  476.11   21.39
   3   3   6 4796.81  234.40
   3   3   6 4793.65  224.71
  -3   3  -6 4946.34  239.72
  -3   3  -6 4950.00  237.31
   3  -3   6 5324.99  240.74
  -3  -3  -6 5168.10  251.22
   3   3   7  323.32   51.68
   3   3   7  320.29  121.50
  -3   3  -7  360.10   75.33
  -3   3  -7  369.12   63.12
   3  -3   7  495.17   77.91
  -3  -3  -7  452.66   66.43
   3   3   8 3136.58  184.39
   3   3   8 2993.50  169.14
  -3   3  -8 3397.05  203.85
  -3   3  -8 3619.89  194.10
   3  -3   8 2962.82  192.51
  -3  -3  -8 2823.45  174.16
   3   3   9 1025.76  111.51
   3   3   9  958.69  159.92
  -3   3  -9 1110.87  128.04
  -3   3  -9 1101.17  110.43
   3  -3   9  991.30  125.47
  -3  -3  -9 1010.79  122.73
   3   3  10   56.96   61.40
   3   3  10   44.81   61.88
  -3   3 -10   53.80   66.54
  -3   3 -10   58.89   47.71
   3  -3  10   74.80   50.78
  -3  -3 -10   95.79   75.61
   3   3  11  553.16   88.43
   3   3  11  426.72   85.47
  -3   3 -11  531.67   91.72
  -3   3 -11  512.14   90.00
   3  -3  11  512.52  127.58
  -3  -3 -11  437.84   69.44
   3   3  12 1224.63  126.44
   3   3  12 1029.91  118.08
  -3   3 -12 1274.22  138.06
  -3   3 -12 1241.77  136.66
   3  -3  12 1242.46  129.88
  -3  -3 -12 1105.62  121.51
   3   3  13  160.64   61.99
   3   3  13  136.26   62.38
  -3   3 -13  172.81   83.98
  -3   3 -13  165.06  140.28
   3  -3  13  188.73   74.79
  -3  -3 -13  169.61  162.74
   3   3  14  233.47   72.06
   3   3  14  184.85   58.13
  -3   3 -14  239.07   91.72
  -3   3 -14  220.22  113.67
   3  -3  14  288.78   95.29
  -3  -3 -14  259.85   89.43
   3   3  15   55.03   60.72
   3   3  15   61.73   68.40
  -3   3 -15   66.49   72.54
  -3   3 -15   75.11   40.77
   3  -3  15  120.25   74.24
  -3  -3 -15  133.89   66.74
   3   3  16   28.82   56.79
   3   3  16    5.39   35.98
  -3   3 -16    1.66   50.67
   3  -3  16    1.88   36.98
  -3  -3 -16   -0.47   41.67
  -3  -4  16   30.62   54.09
   3   4 -15   30.21   72.67
  -3   4  15   45.71   72.56
  -3  -4  15   35.56   50.63
  -3  -4  15   40.68   54.22
   3  -4 -15   37.34   65.08
   3   4 -14  118.66   72.86
  -3   4  14  133.53   86.70
  -3  -4  14  133.12  110.83
  -3  -4  14  127.61  119.96
   3  -4 -14  129.74   79.38
  -3  -4  13   53.37   55.52
   3   4 -12  174.96   70.58
  -3   4  12  182.86   61.82
  -3  -4  12  194.36  157.67
  -3  -4  12  179.82   95.10
   3  -4 -12  176.93  154.70
   3   4 -11  296.68   88.58
  -3   4  11  268.51   81.21
  -3  -4  11  138.93  159.06
  -3  -4  11  145.66  113.38
   3  -4 -11  166.62  159.05
  -3   4  10  107.62   54.66
   3   4 -10  110.23   67.09
  -3  -4  10   99.24   85.15
  -3  -4  10  116.11   96.06
   3  -4 -10  114.00   31.11
   3  -4 -10  118.93  100.10
  -3   4   9  416.86   94.20
   3   4  -9  418.61   87.03
  -3  -4   9  466.53   74.75
  -3  -4   9  454.03  104.88
   3  -4  -9  436.35   88.10
   3  -4  -9  442.58  160.67
  -3   4   8  732.06   66.65
  -3   4   8  622.04  103.07
   3   4  -8  648.43   90.17
  -3  -4   8  692.71   79.46
   3  -4  -8  603.86   96.49
  -3  -4   8  620.18  126.85
   3  -4  -8  580.66  182.87
  -3   4   7  181.44   64.91
  -3   4   7  189.07   37.92
   3   4  -7  171.70   60.89
  -3  -4   7  196.39   40.61
   3  -4  -7  167.16   86.03
   3  -4  -7  185.24   87.15
  -3   4   6  920.97   56.52
  -3   4   6  803.90   78.68
   3   4  -6  808.65   97.38
   3   4  -6  798.79   86.17
  -3  -4   6 1002.85   82.58
   3  -4  -6  863.15   91.78
  -3   4   5  447.15   63.64
   3   4  -5  459.26   77.54
   3   4  -5  482.65   51.69
  -3  -4   5  479.79   69.68
   3  -4  -5  415.64   47.36
   3  -4  -5  419.09   64.96
   3   4  -4  516.68   62.46
  -3   4   4  509.13   68.46
   3   4  -4  486.06   75.54
   3  -4  -4  598.05   43.85
   3  -4  -4  526.99   51.02
   3  -4  -4  544.98   50.16
  -3  -4   4  588.34   62.11
   3  -4  -4  515.20   70.79
   3   4  -3 1019.37   80.57
  -3   4   3 1038.29   84.69
   3   4  -3 1002.21   93.73
   3  -4  -3 1139.05   71.42
   3  -4  -3 1047.37   65.63
   3  -4  -3 1040.26   74.66
  -3  -4   3 1114.10   80.50
   3  -4  -3  944.27   79.32
  -3  -4   3  984.66   49.42
  -3  -4   3  928.84   47.89
   3   4  -2  178.11   59.49
  -3   4   2  195.39   41.17
  -3   4   2  189.67   53.52
   3   4  -2  197.07   36.07
  -3  -4   2  238.50   88.77
   3  -4  -2  217.97  105.74
  -3  -4   2  218.38   22.59
  -3  -4   2  183.21   28.51
   3  -4  -2  243.28   35.27
   3   4  -1  934.97   94.44
  -3   4   1  956.89   74.64
  -3   4   1  994.82  124.03
   3   4  -1  922.78   60.85
  -3  -4   1 1214.18  124.92
   3  -4  -1 1301.48   88.24
  -3  -4   1 1161.01   67.95
  -3  -4   1 1086.12   69.68
   3  -4  -1 1206.93  111.89
   3   4   0  772.68   51.06
  -3   4   0  788.39   65.76
  -3   4   0  814.17   98.08
   3   4   0  733.07   81.00
   3  -4   0  771.70   72.17
  -3  -4   0  654.78   59.46
  -3  -4   0  822.17   87.00
  -3  -4   0  661.19   46.74
   3  -4   0  787.01   87.32
   3   4   1  158.56   22.47
  -3   4  -1  163.45   48.79
   3   4   1  178.85   62.57
  -3  -4  -1  184.38   65.21
   3  -4   1  187.64  106.07
  -3  -4  -1  177.00   24.65
   3  -4   1  193.82   35.31
  -3  -4  -1  216.86   34.41
   3  -4   1  209.59   34.78
  -3   4  -2  597.43   72.53
  -3   4  -2  646.09   68.53
   3   4   2  612.55   75.86
   3  -4   2  695.01   62.84
   3  -4   2  733.28   98.83
   3  -4   2  680.08   49.52
  -3  -4  -2  634.51   53.08
  -3  -4  -2  718.69  107.45
  -3   4  -3  211.91   71.70
  -3   4  -3  210.51   46.99
   3   4   3  215.63   62.56
  -3  -4  -3  405.69  124.88
   3  -4   3  376.19  118.33
   3  -4   3  362.76   35.12
  -3  -4  -3  364.79   51.95
   3  -4   3  345.23   43.37
  -3   4  -4 3109.08  183.26
  -3   4  -4 3241.06  182.08
   3   4   4 3048.31  180.17
   3  -4   4 3557.63  217.33
   3  -4   4 3113.18  149.85
  -3  -4  -4 3329.15  181.15
  -3  -4  -4 3316.23  190.88
  -3   4  -5  513.35  135.67
  -3   4  -5  574.64   95.84
   3   4   5  527.34   92.10
   3  -4   5  576.99  109.75
   3  -4   5  523.29   57.20
  -3  -4  -5  519.48   74.30
  -3  -4  -5  534.08   85.53
   3   4   6  118.13   63.14
   3   4   6  107.27   66.92
  -3   4  -6  113.15   69.40
  -3   4  -6   85.86   35.01
   3  -4   6  159.49   73.87
  -3  -4  -6  167.29   57.68
   3   4   7  812.47  102.52
   3   4   7  690.83  134.96
  -3   4  -7  837.51  108.73
  -3   4  -7  724.06   89.12
   3  -4   7  704.39   99.40
  -3  -4  -7  652.38   94.99
   3   4   8 1562.29  175.91
   3   4   8 1463.88  171.79
  -3   4  -8 1608.46  174.04
  -3   4  -8 1463.23  171.99
   3  -4   8 1912.37  220.99
  -3  -4  -8 1717.74  184.24
   3   4   9  103.62   65.21
   3   4   9   74.00   66.48
  -3   4  -9  104.43   70.70
  -3   4  -9   89.07   61.04
   3  -4   9  123.72  106.24
  -3  -4  -9  116.09  110.62
   3   4  10  196.36   70.75
   3   4  10  193.29   75.72
  -3   4 -10  257.05   80.49
  -3   4 -10  249.25   54.77
   3  -4  10  196.97  164.01
  -3  -4 -10  169.47   55.51
   3   4  11  406.64   92.52
   3   4  11  305.62   80.48
  -3   4 -11  410.44   93.90
  -3   4 -11  381.75   85.92
   3  -4  11  352.08   94.63
  -3  -4 -11  353.68  133.92
   3   4  12  192.00   75.94
  -3   4 -12  247.03   80.35
   3   4  13  280.60   88.56
   3   4  13  200.25  127.47
  -3   4 -13  258.35   80.40
   3  -4  13  337.31   93.42
  -3  -4 -13  315.51   86.31
   3   4  14   50.86   67.42
   3   4  14   17.99   39.18
  -3   4 -14   36.93   68.51
   3  -4  14   38.52   60.14
  -3  -4 -14   37.26   69.38
  -3   5  13   22.42   48.65
   3   5 -13   50.74   71.05
  -3  -5  13   29.68   58.03
   3  -5 -13   25.92   47.91
   3   5 -12  161.62   87.73
  -3   5  12  121.47   55.12
  -3  -5  12  127.53  160.81
  -3  -5  12  142.35   71.99
   3  -5 -12  134.18  145.49
   3   5 -11    8.00   40.83
  -3  -5  11    8.93   25.77
  -3  -5  11    7.67   29.99
   3  -5 -11    3.57   25.65
  -3   5  10  434.55  101.82
   3   5 -10  385.26   64.38
  -3  -5  10  316.99  114.71
   3  -5 -10  314.16  134.38
   3   5  -9   39.22   34.77
  -3   5   9   52.35   50.98
  -3  -5   9   22.27   35.33
  -3  -5   9   28.38   34.26
   3  -5  -9   21.13   26.29
   3   5  -8  255.17   73.66
  -3   5   8  236.11   66.74
  -3  -5   8  213.06  113.54
  -3  -5   8  262.67   73.01
   3  -5  -8  220.94   94.32
   3   5  -7  664.24  100.65
  -3   5   7  660.07  102.53
  -3  -5   7  563.20  106.78
  -3  -5   7  667.85   91.88
   3  -5  -7  572.65   94.18
   3   5  -6   32.75   41.50
  -3   5   6   20.64   48.46
   3   5  -6   33.20   53.75
  -3  -5   6   35.86   48.33
   3  -5  -6   20.18   51.80
  -3   5   5  302.46   77.04
   3   5  -5  327.48   75.44
   3   5  -5  300.94   58.36
  -3  -5   5  341.06  116.88
   3  -5  -5  285.32   74.38
   3  -5  -5  329.38   58.96
  -3   5   4 1003.24  118.26
   3   5  -4 1008.14  127.84
   3   5  -4 1016.88  111.57
  -3  -5   4 1214.46  136.44
   3  -5  -4 1073.77  113.06
   3  -5  -4  983.02  172.97
   3   5  -3   60.72   75.32
  -3   5   3   44.04   32.76
   3   5  -3   53.25   38.23
  -3  -5   3   53.28   53.74
   3  -5  -3   41.89   50.79
   3  -5  -3   23.92   45.22
   3  -5  -3   48.53   68.67
   3   5  -2  661.32  106.36
  -3   5   2  628.49   86.02
   3   5  -2  650.99   74.38
  -3  -5   2  749.71  136.08
   3  -5  -2  710.22  134.11
   3  -5  -2  765.61   82.88
   3  -5  -2  642.52   87.48
   3   5  -1   77.99   76.37
   3   5  -1   76.62   25.71
  -3  -5   1   75.56   80.11
   3  -5  -1   56.11   71.57
   3  -5  -1   53.16   49.98
   3  -5  -1   38.11   40.30
   3  -5  -1   47.78   52.49
  -3  -5   1   52.67   23.40
   3   5   0   88.40   96.78
   3   5   0   81.15   25.99
  -3  -5   0  121.47  125.18
   3  -5   0  120.12   88.56
   3  -5   0  119.91  122.57
   3  -5   0  140.02   45.74
  -3  -5   0  121.20   37.05
  -3   5  -1  732.39  108.71
   3   5   1  694.62  115.16
  -3  -5  -1  770.47   95.49
   3  -5   1  823.74  127.06
   3  -5   1  737.42   94.28
  -3  -5  -1  712.50   78.10
   3  -5   1  787.96   85.16
  -3   5  -2   62.18   48.30
   3   5   2   68.18   61.97
   3  -5   2   37.69   37.43
   3  -5   2   35.45   43.81
   3  -5   2   35.96   32.93
  -3  -5  -2   41.92   52.23
  -3  -5  -2   30.32   34.69
  -3   5  -3  418.74   86.46
   3   5   3  430.88  103.23
  -3   5  -3  414.48  125.20
   3  -5   3  572.86  100.44
  -3  -5  -3  489.96  158.93
  -3  -5  -3  455.20   66.36
  -3   5  -4  241.46   70.58
   3   5   4  209.52   77.34
  -3   5  -4  239.98   60.50
   3  -5   4  286.58  111.36
  -3  -5  -4  276.09  134.17
  -3  -5  -4  248.75   52.90
  -3   5  -5   57.71   55.09
   3   5   5   37.64   42.29
  -3   5  -5   58.72   74.30
   3  -5   5   42.11   40.23
  -3  -5  -5   53.47   44.28
  -3  -5  -5   45.10   36.79
  -3   5  -6  648.17   94.91
   3   5   6  505.45   96.36
  -3   5  -6  571.30   93.92
   3  -5   6  644.07  189.63
  -3  -5  -6  648.93   99.18
  -3  -5  -6  648.45   88.81
  -3   5  -7   33.67   35.39
   3   5   7   29.97   61.27
  -3   5  -7   39.04   66.18
   3  -5   7   49.01   54.08
  -3  -5  -7   47.10   53.50
  -3  -5  -7   29.09   30.78
   3   5   8  278.38   78.26
  -3   5  -8  351.87   79.46
   3  -5   8  503.90   91.64
  -3  -5  -8  425.85   74.43
   3   5   9  226.65   76.33
   3  -5   9  287.10   78.42
  -3  -5  -9  228.12   77.84
   3   5  10    4.64   53.69
   3   5  10   29.93   60.08
  -3   5 -10   29.17   43.96
  -3  -5 -10   20.11   50.28
   3   5  11  133.59   88.70
   3   5  11   99.63   60.06
  -3   5 -11  122.89   58.82
   3  -5  11  114.74   99.10
  -3  -5 -11   94.74  104.53
   3   5  12   74.55   79.60
   3   5  12   30.35   52.14
  -3   5 -12   51.48   69.78
   3  -5  12   80.96   94.91
  -3  -5 -12   79.57   76.43
  -3   6  10   11.59   57.84
   3   6 -10   15.06   60.61
  -3  -6  10   18.91   44.50
   3  -6 -10   -0.14   36.48
   3   6  -9   12.68   53.39
  -3   6   9   15.69   48.47
  -3  -6   9   10.04   39.54
  -3  -6   9   10.72   21.85
   3  -6  -9    6.41   25.28
   3   6  -8   53.51   55.53
  -3  -6   8   44.69   54.28
  -3  -6   8   20.96   48.72
   3   6  -7   17.75   51.40
  -3   6   7   42.86   76.32
  -3  -6   7   10.95   49.87
  -3  -6   7    9.94   20.62
   3  -6  -7   -7.01   39.19
   3   6  -6  193.08   55.21
  -3   6   6  196.72   69.53
  -3  -6   6  185.84   74.29
  -3  -6   6  220.68  119.04
   3  -6  -6  183.40  156.50
  -3   6   5  111.65   59.23
   3   6  -5  115.41   47.04
  -3  -6   5   75.37   80.87
   3  -6  -5   60.20   94.48
   3   6  -4    2.11   25.42
  -3   6   4    5.19   42.63
   3   6  -4   12.97   44.93
  -3  -6   4   15.35   20.17
   3  -6  -4   19.43   45.66
   3   6  -3  144.89   70.83
  -3  -6   3  103.30   89.44
   3  -6  -3   97.78  122.45
   3   6  -2  119.29   66.02
  -3  -6   2  120.51  123.90
   3  -6  -2   88.08   98.30
   3   6  -1   91.07   61.07
   3  -6  -1   80.01  114.78
  -3  -6   1   86.81  103.21
   3  -6  -1   83.00   98.79
   3  -6  -1   72.17  102.98
   3   6   0  117.52   59.02
  -3  -6   0  158.55  149.19
   3  -6   0  152.44  109.07
   3  -6   0  136.05   81.56
   3   6   1   66.05   74.43
  -3  -6  -1   53.58   52.55
   3  -6   1   31.75   38.12
   3  -6   1   35.80   40.23
   3  -6   1   34.22   57.04
   3   6   2   64.37   73.36
  -3  -6  -2   21.99   39.39
   3  -6   2   36.89   37.78
   3  -6   2   16.20   28.38
   3   6   3   79.28   67.12
  -3  -6  -3   71.21   83.66
   3  -6   3   72.20   79.97
   3  -6   3   54.18   64.56
   3   6   4   63.15   67.99
   3  -6   4   36.02   58.47
  -3  -6  -4   31.93   45.17
  -3   6  -5  273.64   72.69
   3   6   5  264.00   94.67
   3  -6   5  335.83  179.23
  -3  -6  -5  314.43  141.18
  -3  -6  -5  289.03   63.28
   3   6   6  146.66   79.36
  -3  -6  -6  148.12  130.84
   3  -6   6  167.55   89.54
  -3  -6  -6  151.34   62.39
   3   6   7   57.39   61.11
  -3   6  -7   89.49   61.94
  -3  -6  -7   44.82   44.05
  -3  -6  -7   58.46   55.67
  -3   6  -8    3.49   45.27
   3   6   8   15.37   59.94
   3  -6   8   15.15   37.14
  -3  -6  -8   23.47   37.41
  -4   0  19   23.50   56.77
  -4   0  19   24.12   37.49
   4   0 -19   25.43   59.19
   4   0 -19   31.39   45.18
  -4   0  18  177.27   99.04
  -4   0  18  108.24   68.02
   4   0 -18  112.48  114.85
  -4   0  17    9.20   46.77
  -4   0  17   12.98   45.90
   4   0 -17   13.79   45.60
   4   0 -17    5.90   41.97
  -4   0  16  701.06  216.00
  -4   0  16  689.07  119.62
   4   0 -16  749.05  124.27
   4   0 -16  796.64  133.21
  -4   0  15   24.92   50.50
  -4   0  15   44.67   46.28
   4   0 -15   26.22   38.01
   4   0 -15   54.96   69.91
  -4   0  14  577.27  133.66
  -4   0  14  543.28   78.17
   4   0 -14  622.91   93.42
   4   0 -14  619.78   87.53
  -4   0  13 2647.40  250.58
  -4   0  13 2705.55  246.43
   4   0 -13 2774.79  227.78
   4   0 -13 2776.46  239.90
  -4   0  12 2442.92  162.14
  -4   0  12 2604.47  153.84
   4   0 -12 2489.42  157.77
   4   0 -12 2507.21  168.29
  -4   0  11  694.71  134.35
  -4   0  11  730.08  104.77
   4   0 -11  730.37   76.58
   4   0 -11  694.80   69.84
  -4   0  10 3867.71  187.95
  -4   0  10 4269.27  195.31
   4   0 -10 4046.22  212.79
   4   0 -10 4279.63  199.89
  -4   0   9    9.86   63.77
  -4   0   9   36.26   31.46
   4   0  -9   57.03   44.82
   4   0  -9   41.95   34.10
  -4   0   8 7674.95  239.31
  -4   0   8 8041.24  228.09
  -4   0   8 8621.58  239.38
   4   0  -8 7999.03  280.03
   4   0  -8 8081.87  251.69
  -4   0   7 2766.96  107.24
  -4   0   7 2798.95   89.89
  -4   0   7 2833.66   89.34
   4   0  -7 2783.69  141.71
   4   0  -7 2751.37  129.07
  -4   0   6  175.46   33.67
  -4   0   6  201.68   22.46
   4   0  -6  189.34   27.40
   4   0  -6  214.40   83.90
   4   0  -6  212.25   50.63
  -4   0   6  194.64   30.14
   4   0  -3  812.64   43.11
  -4   0   3  831.12   75.72
  -4   0   3  823.32   45.03
   4   0  -3  802.86   43.27
  -4   0   3  781.93   61.19
   4   0  -3  860.25   53.89
   4   0  -3  839.20   55.30
  -4   0   3  837.52   48.53
   4   0  -2 3897.23  137.66
  -4   0   2 4065.63  145.30
  -4   0   2 4274.87  147.41
   4   0  -2 4270.87  148.04
  -4   0   2 4280.26  152.01
   4   0  -2 4188.66  151.21
   4   0  -2 3974.53  139.29
  -4   0   2 4134.81  157.13
   4   0  -1 2316.76   84.75
  -4   0   1 2570.25   94.05
  -4   0   1 2701.60   98.82
   4   0  -1 2563.81   94.45
  -4   0   1 2494.54   95.99
   4   0  -1 2578.17   98.58
   4   0  -1 2403.22   89.49
  -4   0   1 2489.20   95.66
   4   0   0 3198.92  113.08
  -4   0   0 3576.48  123.54
  -4   0   0 3803.56  133.01
   4   0   0 3717.39  131.61
  -4   0   0 3367.45  121.17
   4   0   0 3667.56  134.87
   4   0   0 3301.87  119.76
  -4   0   0 3563.65  130.97
   4   0   1 6472.48  216.39
  -4   0  -1 6133.51  208.52
   4   0   1 6289.92  213.69
  -4   0  -2  674.32   39.91
  -4   0  -2  694.80   38.17
  -4   0  -2  685.29   39.96
   4   0   2  693.44   41.77
   4   0   2  658.49   52.38
   4   0   2  627.45   36.52
  -4   0  -2  680.01   43.36
  -4   0  -3 4441.60  154.62
  -4   0  -3 4384.30  152.61
   4   0   3 4600.69  168.05
   4   0   3 4255.81  167.34
   4   0   3 4333.34  155.33
  -4   0  -3 4452.92  161.97
  -4   0  -4  965.11   50.48
  -4   0  -4  995.66   44.04
   4   0   4  959.29   55.62
   4   0   4  887.85   47.49
   4   0   4  915.28   44.81
  -4   0  -4  964.21   57.74
  -4   0  -5 3277.75   98.92
  -4   0  -5 3807.05  109.04
   4   0   5 3778.06  121.07
  -4   0  -5 3803.01  120.62
  -4   0  -5 3789.16  152.24
  -4   0  -6 2708.86   91.08
   4   0   6 2403.26   83.81
   4   0   6 2499.47   98.35
  -4   0  -6 2580.30  102.80
  -4   0  -6 2524.05  105.51
  -4   0  -7  297.05   29.33
   4   0   7  245.46   30.12
   4   0   7  275.29   56.70
  -4   0  -7  298.38   49.80
  -4   0  -7  288.27   56.99
   4   0   8 1466.29   78.80
   4   0   8 1577.86  114.64
  -4   0  -8 1575.00   93.19
  -4   0  -8 1519.67   90.75
   4   0   9 1585.61   90.00
   4   0   9 1602.47  103.82
  -4   0  -9 1622.83  103.04
  -4   0  -9 1534.84   95.56
   4   0  10 1568.08   95.05
   4   0  10 1698.76  123.83
  -4   0 -10 1652.25  109.00
  -4   0 -10 1577.44  105.16
   4   0  11  302.32   50.62
   4   0  11  304.40   79.58
  -4   0 -11  305.81   58.91
  -4   0 -11  304.25   63.66
   4   0  12    8.47   24.50
   4   0  12   -4.33   36.51
  -4   0 -12    1.78   33.61
  -4   0 -12    3.95   19.55
   4   0  13  403.53   58.19
   4   0  13  432.97   76.71
  -4   0 -13  405.66   75.39
  -4   0 -13  420.12   74.33
   4   0  14  559.40   65.04
   4   0  14  680.47  100.00
  -4   0 -14  568.96   78.78
  -4   0 -14  569.83   80.71
   4   0  15   -0.72   27.07
  -4   0 -15   11.01   42.81
  -4   0 -15   11.98   38.90
   4   0  16   17.89   45.74
  -4   0 -16   11.19   48.42
   4   0  17   30.42   48.16
  -4   0 -17   32.72   47.85
  -4   0 -17   23.49   49.96
  -4   1  19  156.75   99.55
   4   1 -19  115.69   91.17
  -4  -1  19  150.20   74.86
  -4  -1  19  135.17   61.73
   4  -1 -19  103.80   63.17
   4  -1 -19  135.08   96.08
  -4   1  18   11.51   65.67
   4   1 -18   19.21   58.98
  -4  -1  18   16.22   51.34
   4  -1 -18    2.13   37.47
  -4   1  17  218.81   65.77
   4   1 -17  309.01   69.08
  -4  -1  17  265.97   91.55
  -4  -1  17  267.47   78.26
   4  -1 -17  271.19   69.83
   4  -1 -17  326.37   85.31
  -4   1  16  115.38   64.42
  -4   1  16  137.52  104.75
   4   1 -16  154.32   77.31
   4   1 -16  161.51   66.83
  -4  -1  16  163.92  150.39
  -4  -1  16  191.92   71.99
   4  -1 -16  191.06  118.36
   4  -1 -16  167.28  150.89
  -4   1  15  795.48  109.08
  -4   1  15  938.18  131.16
   4   1 -15  942.40  130.87
   4   1 -15  973.11  122.94
  -4  -1  15  774.10  117.18
  -4  -1  15  851.73  127.04
   4  -1 -15  859.87  119.27
   4  -1 -15  846.70  109.22
  -4   1  14 1461.94  146.44
  -4   1  14 1629.25  178.92
   4   1 -14 1619.91  179.89
   4   1 -14 1758.59  179.27
  -4  -1  14 1300.31  150.44
  -4  -1  14 1387.97  169.09
   4  -1 -14 1389.11  171.75
   4  -1 -14 1357.22  153.78
  -4   1  13  153.04   53.30
  -4   1  13  195.27   72.19
   4   1 -13  208.71  162.97
   4   1 -13  179.08   47.50
  -4  -1  13  177.16  154.04
  -4  -1  13  173.11  146.42
   4  -1 -13  198.00  160.86
   4  -1 -13  163.23   68.66
  -4   1  12 4152.69  216.34
  -4   1  12 4571.40  360.71
   4   1 -12 4600.68  258.43
   4   1 -12 4757.57  239.50
  -4  -1  12 4601.66  248.63
  -4  -1  12 4728.45  271.72
   4  -1 -12 4670.01  272.49
   4  -1 -12 4475.28  325.10
  -4   1  11 2359.02  134.33
  -4   1  11 2535.94  194.98
   4   1 -11 2529.69  164.42
   4   1 -11 2549.35  155.64
  -4  -1  11 2176.67  146.82
  -4  -1  11 2122.68  159.46
   4  -1 -11 2146.46  144.18
   4  -1 -11 1949.87  174.21
   4   1 -10  601.22   66.04
  -4   1  10  581.85   70.57
   4   1 -10  592.36   54.97
  -4   1  10  575.89   49.61
  -4   1  10  637.07   44.67
   4  -1 -10  720.94   84.72
  -4  -1  10  752.45  122.51
   4  -1 -10  748.53   95.66
  -4  -1  10  731.56   92.67
   4   1  -9 3245.27  176.55
  -4   1   9 3187.73  172.65
   4   1  -9 3255.74  154.46
  -4   1   9 3250.17  145.55
  -4   1   9 3480.35  144.37
   4   1  -9 3422.10  146.18
   4  -1  -9 3493.08  173.10
   4  -1  -9 3586.98  177.19
  -4  -1   9 3375.64  216.06
  -4  -1   9 3682.13  170.73
   4   1  -8 2748.99  121.84
  -4   1   8 2756.10  122.57
   4   1  -8 2836.50  113.21
  -4   1   8 2736.57   91.67
  -4   1   8 3051.54   93.00
   4   1  -8 3045.87  101.29
   4  -1  -8 3063.11  128.68
   4  -1  -8 3067.39  136.12
  -4  -1   8 3036.00  115.38
  -4  -1   8 3328.33  127.86
   4   1  -7 5601.42  181.00
  -4   1   7 5328.57  200.82
  -4   1   7 5671.03  144.72
  -4   1   7 5849.27  146.68
   4   1  -7 5614.68  165.53
   4   1  -7 5272.12  148.86
   4   1  -7 6011.65  160.62
   4  -1  -7 5516.14  206.99
   4  -1  -7 5856.51  178.53
  -4  -1   7 5546.89  166.89
   4   1  -5 1050.73   60.40
  -4   1   5 1059.86  115.62
  -4   1   5 1056.63   36.61
  -4   1   5  957.33   30.90
   4   1  -5 1058.39   79.80
  -4   1   5  974.25   62.22
   4   1  -5 1046.53   51.04
  -4  -1   5 1005.48   56.61
   4  -1  -5 1135.26   73.14
  -4  -1   5 1013.63   48.70
   4   1  -4 4870.21  165.60
  -4   1   4 4785.41  179.60
   4   1  -4 5015.95  182.83
   4   1  -4 4784.74  193.63
  -4   1   4 4717.62  179.42
   4  -1  -4 4688.51  153.54
   4  -1  -4 5113.36  187.15
  -4  -1   4 5027.17  178.87
  -4  -1   4 5196.82  179.48
  -4   1   3 5930.19  210.64
   4   1  -3 6014.46  212.33
  -4   1   3 6025.40  217.94
   4   1  -3 5767.84  219.53
  -4  -1   3 5785.68  202.94
  -4  -1   3 6066.43  217.23
   4  -1  -3 5803.21  203.81
   4   1  -2 2109.80   79.33
  -4   1   2 2095.33   93.53
  -4   1   2 2056.27   83.88
   4   1  -2 2113.28   89.36
   4   1  -2 2046.04   91.63
  -4  -1   2 2780.16  106.83
   4  -1  -2 2590.70   96.34
   4  -1  -2 2855.11  111.36
  -4  -1   2 2811.28  107.57
   4  -1  -2 2787.21   95.23
  -4  -1   2 2693.35  104.17
  -4   1   1 6702.13  232.65
   4   1  -1 7337.88  253.60
  -4  -1   1 7445.45  250.53
  -4  -1   1 7259.27  246.00
   4   1   0 1055.97   52.26
  -4   1   0 1129.63   51.73
  -4   1   0 1104.87   57.86
  -4   1   0 1064.60   45.03
   4   1   0 1142.08   71.22
   4   1   0 1116.02   49.73
  -4  -1   0 1034.59   51.64
   4  -1   0 1059.75   49.08
   4  -1   0 1087.65   70.69
  -4  -1   0 1061.94   58.22
  -4  -1   0 1101.08   51.43
   4  -1   0 1095.31   48.86
   4   1   1  535.26   41.25
  -4   1  -1  589.68   38.51
  -4   1  -1  498.64   32.75
   4   1   1  516.96   32.30
   4   1   1  634.11   52.13
   4   1   1  646.57   42.29
  -4   1  -1  618.03   50.54
   4  -1   1  576.12   25.78
   4  -1   1  649.87   41.04
  -4  -1  -1  607.38   43.24
   4  -1   1  615.15   45.93
  -4  -1  -1  600.15   35.06
  -4  -1  -1  640.52   43.07
  -4   1  -2 2300.35   90.78
  -4   1  -2 2319.90   97.97
   4   1   2 2444.41   93.13
   4   1   2 2424.49  102.29
   4  -1   2 1927.86   70.39
  -4  -1  -2 2062.12   94.08
   4  -1   2 2039.06  116.00
  -4  -1  -2 1923.77   74.57
  -4  -1  -2 2194.08   91.69
  -4  -1  -2 2034.84   91.36
   4  -1   2 2078.05   83.87
   4   1   3  753.44   36.30
  -4   1  -3  786.62   27.56
  -4   1  -3  750.61   25.44
  -4   1  -3  796.97   52.58
   4   1   3  792.97   51.60
   4   1   3  757.52   45.82
  -4   1  -3  797.27   54.35
  -4  -1  -3  643.18   45.62
  -4  -1  -3  644.17   43.71
   4  -1   3  667.12   48.32
  -4   1  -4 2405.90   93.93
  -4   1  -4 2485.27   62.89
  -4   1  -4 2501.46   65.44
   4   1   4 2395.87   90.42
   4   1   4 2348.70   76.75
   4   1   4 2300.73   72.82
  -4   1  -4 2388.42   83.68
  -4  -1  -4 2936.95  124.04
  -4   1  -5  746.64   32.06
  -4   1  -5  737.80   28.33
   4   1   5  652.41   46.27
  -4   1  -5  691.90   61.78
   4   1   5  719.21   61.66
   4   1   5  644.52   39.19
   4   1   5  621.47   34.85
  -4   1  -5  670.89   51.41
  -4  -1  -5  758.98   73.66
   4  -1   5  743.05   52.49
  -4   1  -6  991.52   44.44
  -4   1  -6 1177.37   42.21
   4   1   6 1025.97   63.63
  -4   1  -6 1130.37   80.85
   4   1   6 1177.67   79.18
   4   1   6 1039.05   51.27
   4   1   6 1014.73   46.40
  -4   1  -6 1090.70   70.23
  -4  -1  -6 1397.70   84.05
   4  -1   6 1424.60   75.59
  -4   1  -7 3546.28  139.61
   4   1   7 3404.53  156.18
  -4   1  -7 3641.36  167.19
   4   1   7 3641.06  172.66
  -4   1  -7 3508.90  165.92
   4  -1   7 3194.46  152.36
  -4  -1  -7 3402.59  147.56
  -4  -1  -7 3088.29  151.12
   4  -1   7 3140.48  126.81
  -4   1  -8   73.93   30.70
   4   1   8   81.91   35.70
   4   1   8   74.64   47.40
  -4   1  -8   88.55   50.60
  -4   1  -8   88.88   38.97
   4  -1   8  127.85   51.97
  -4  -1  -8  117.14   31.03
  -4  -1  -8  111.52   38.96
  -4   1  -9  245.65   40.52
   4   1   9  236.03   58.13
   4   1   9  205.84   45.01
  -4   1  -9  212.94   51.12
  -4   1  -9  263.89  113.67
   4  -1   9  164.29   28.89
   4  -1   9  172.70   57.36
  -4  -1  -9  142.64   49.98
  -4  -1  -9  152.47   33.96
   4   1  10  147.67   48.75
  -4   1 -10  177.42   43.17
   4   1  10  177.78   55.17
  -4   1 -10  175.95   49.81
   4  -1  10  333.62   68.06
  -4  -1 -10  315.78   45.81
  -4  -1 -10  279.02   61.14
   4  -1  10  308.17   33.28
   4   1  11  126.83   48.34
  -4   1 -11  138.55   63.49
  -4   1 -11  115.84   57.84
   4   1  11  111.28   56.16
  -4  -1 -11   79.84   41.32
   4  -1  11   97.16   62.72
  -4  -1 -11   73.06   67.33
   4  -1  11   83.30   29.14
   4   1  12  961.67  123.06
   4   1  12  917.16  107.53
  -4   1 -12  956.08  122.52
  -4   1 -12 1031.84  126.49
   4  -1  12  812.09  113.63
   4  -1  12  805.21   88.67
  -4  -1 -12  822.38   99.60
  -4  -1 -12  746.50  101.55
   4   1  13  155.75   58.23
   4   1  13  165.94   68.05
  -4   1 -13  170.35   60.48
  -4   1 -13  189.78  139.40
   4  -1  13  189.93   74.71
  -4  -1 -13  193.97   49.50
  -4  -1 -13  189.74   67.55
   4   1  14   20.85   46.31
   4   1  14   19.89   41.56
  -4   1 -14   14.31   37.29
  -4   1 -14   38.02   51.44
   4  -1  14   29.78   70.47
  -4  -1 -14   20.34   46.58
  -4  -1 -14   24.45   35.65
   4   1  15  242.77   47.94
   4   1  15  245.82   77.56
  -4   1 -15  245.04   78.64
  -4   1 -15  261.13  163.37
  -4  -1 -15  155.12   49.27
   4   1  16    8.78   30.87
   4   1  16    3.78   42.20
  -4   1 -16    6.52   42.38
  -4   1 -16   -3.06   35.39
   4  -1  16    8.71   42.06
  -4  -1 -16   15.70   25.66
   4   1  17   58.49   67.93
  -4   1 -17   38.35   57.65
  -4   1 -17   54.79   63.10
   4  -1  17   30.40   57.84
  -4  -1 -17   11.98   34.90
  -4   2  18  467.13  112.84
   4   2 -18  489.28  107.14
  -4  -2  18  418.18  145.27
   4  -2 -18  384.08   70.51
   4  -2 -18  446.24   99.94
   4   2 -17   -2.30   55.09
  -4   2  17   18.53   64.63
   4  -2 -17   10.27   31.06
  -4  -2  17    3.94   38.71
   4  -2 -17   -6.67   45.80
  -4  -2  16   35.58   40.27
  -4  -2  16   13.70   41.93
   4  -2 -16    8.43   28.74
   4  -2 -16   36.13   67.52
  -4   2  15  507.08  122.43
   4   2 -15  473.57  109.53
  -4  -2  15  429.13  149.83
  -4  -2  15  415.66  224.38
   4  -2 -15  440.69   88.80
   4  -2 -15  460.85  136.27
  -4   2  14  254.22   47.68
  -4   2  14  414.71  102.43
   4   2 -14  409.07   91.10
   4   2 -14  426.15   64.39
  -4  -2  14  328.21   91.46
  -4  -2  14  313.03  139.53
   4  -2 -14  403.20  174.44
   4  -2 -14  354.39   83.56
  -4   2  13 1039.15  101.44
  -4   2  13 1731.70  190.78
   4   2 -13 1662.98  198.75
   4   2 -13 1885.03  177.14
  -4  -2  13 1464.16  168.06
  -4  -2  13 1292.71  194.71
   4  -2 -13 1285.09  169.34
   4  -2 -13 1256.58  181.08
  -4   2  12    1.61   14.28
  -4   2  12   -1.55   51.27
   4   2 -12   14.68   47.57
   4   2 -12   -2.08   16.19
  -4  -2  12   20.25   43.27
  -4  -2  12   -2.22   41.07
   4  -2 -12    6.75   35.53
   4  -2 -12    3.47   22.12
  -4   2  11  439.66   40.77
  -4   2  11  633.40   95.59
   4   2 -11  636.92   95.47
   4   2 -11  683.85   59.27
  -4  -2  11  728.15   73.55
  -4  -2  11  657.31  101.72
   4  -2 -11  692.33   94.35
   4  -2 -11  680.12   69.95
  -4   2  10 4997.53  232.28
  -4   2  10 4490.79  252.22
   4   2 -10 4842.53  230.28
   4   2 -10 4702.36  233.88
   4   2 -10 4332.26  310.94
  -4  -2  10 4685.19  257.44
   4  -2 -10 4449.62  269.06
   4  -2 -10 4242.59  239.59
  -4  -2  10 4362.07  270.90
   4   2  -9  269.56   62.75
  -4   2   9  239.10   58.19
   4   2  -9  265.96   29.31
  -4   2   9  178.42   19.97
  -4   2   9  259.17   20.42
   4   2  -9  251.18   32.82
   4  -2  -9  231.89   58.91
   4  -2  -9  238.18  196.04
  -4  -2   9  224.82   53.75
  -4  -2   9  234.57   85.10
   4   2  -8 2254.99  100.26
  -4   2   8 2273.93  122.10
   4   2  -8 2297.95  129.87
   4   2  -8 2366.58   96.67
  -4  -2   8 2203.80  119.88
   4  -2  -8 2350.28  133.83
   4  -2  -8 2283.92  131.24
  -4  -2   8 2079.58  121.07
   4   2  -7 1718.76   73.12
  -4   2   7 1770.83  107.69
   4   2  -7 1791.53  141.22
   4   2  -7 1783.21  107.36
   4   2  -7 1796.53   73.61
   4  -2  -7 2000.91  116.88
   4  -2  -7 2015.58  119.13
  -4  -2   7 1856.64  101.51
   4   2  -6  195.99   16.83
  -4   2   6  158.24   40.55
   4   2  -6  188.69   47.84
   4   2  -6  183.41   40.60
   4   2  -6  168.28   14.78
  -4   2   6  190.97   48.33
   4  -2  -6   88.79   77.81
  -4  -2   6   64.74   52.90
  -4   2   5 4737.83  151.42
   4   2  -5 4672.49  152.00
   4   2  -5 4586.84  158.96
  -4   2   5 4455.54  167.17
  -4  -2   5 4776.22  142.60
   4  -2  -5 4133.32  126.37
  -4  -2   5 4109.05  104.40
  -4   2   4  510.41   45.37
   4   2  -4  540.86   79.52
   4   2  -4  539.40   59.38
   4   2  -4  494.49   21.67
  -4   2   4  489.23   56.82
  -4  -2   4  545.77   49.04
   4  -2  -4  508.50   48.20
  -4  -2   4  528.38   27.59
   4   2  -3 2692.30   93.67
  -4   2   3 2578.26  118.61
  -4   2   3 2457.14  108.94
   4   2  -3 2590.51  105.52
   4   2  -3 2520.61   70.76
   4  -2  -3 2223.72   53.61
   4  -2  -3 2225.34  106.24
  -4  -2   3 2260.48   79.78
  -4  -2   3 2355.96   66.95
   4  -2  -3 2490.55   60.97
   4   2  -2 6878.10  198.84
  -4   2   2 6883.73  227.07
  -4  -2   2 6920.99  187.48
   4  -2  -2 6978.31  191.36
  -4  -2   2 7064.07  189.01
   4   2  -1  157.00   32.14
  -4   2   1  159.76   47.33
   4   2  -1  139.43   38.09
   4   2  -1  160.12   18.28
  -4   2   1  152.69   33.92
  -4  -2   1  184.52   28.18
   4  -2  -1  187.57   20.04
  -4  -2   1  205.90   27.85
   4  -2  -1  169.17   55.51
  -4  -2   1  190.15   21.71
   4  -2  -1  177.56   16.98
  -4   2   0 2603.52   80.80
  -4   2   0 2752.40   79.43
   4   2   0 2727.33   84.50
   4   2   0 2585.65   98.33
   4   2   0 2654.61   82.75
  -4   2   0 2569.95   97.77
   4  -2   0 3245.98   87.13
   4  -2   0 3133.46   87.48
  -4  -2   0 3009.40  117.65
  -4  -2   0 2969.43   85.75
   4  -2   0 3103.38  107.09
  -4  -2   0 2926.37   88.21
  -4   2  -1 1413.98   44.39
  -4   2  -1 1441.12   58.93
   4   2   1 1496.38   84.23
   4   2   1 1484.29   70.93
   4   2   1 1357.23   58.23
  -4   2  -1 1403.06   70.24
  -4  -2  -1 1737.01   75.97
   4  -2   1 1737.39   63.88
  -4  -2  -1 1635.95   52.21
   4  -2   1 1681.77   77.98
  -4  -2  -1 1665.90   61.75
  -4   2  -2 1384.33  112.37
   4   2   2 1342.78   74.99
   4  -2   2 1815.44   69.23
  -4  -2  -2 1750.72   53.14
   4  -2   2 1748.97   97.76
  -4  -2  -2 1796.62   70.67
  -4  -2  -2 1643.48   73.98
   4   2   3 3282.84  120.91
   4   2   3 3144.41   83.74
  -4   2  -3 3200.21  117.34
  -4   2  -3 3229.26  114.24
   4   2   4  388.30   28.11
  -4   2  -4  443.68   45.63
   4   2   4  419.59   53.66
   4   2   4  391.72   21.49
  -4   2  -4  429.94   53.71
  -4  -2  -4  477.62   98.35
  -4  -2  -4  439.16   43.17
   4  -2   4  462.88   40.88
   4   2   5 2944.81  118.30
  -4   2  -5 3064.73  150.61
   4   2   5 3162.21  125.83
   4   2   5 3180.40   96.65
   4   2   5 2961.80   86.85
  -4   2  -5 3063.02  130.00
  -4  -2  -5 2633.11  112.98
   4  -2   5 2628.25  119.72
   4   2   6 2138.57  116.29
  -4   2  -6 2187.73  150.46
   4   2   6 2236.12  120.93
   4   2   6 2259.23   98.11
   4   2   6 2081.45   86.24
  -4   2  -6 2229.31  131.03
  -4  -2  -6 2570.59  131.24
   4  -2   6 2656.94  143.69
   4   2   7   92.47   42.87
  -4   2  -7   95.05   30.60
   4   2   7  101.66   49.45
   4   2   7   93.50   41.47
   4   2   7   97.17   21.93
  -4   2  -7   87.57   43.48
  -4  -2  -7   54.91   40.83
   4  -2   7   64.59   41.28
   4   2   8  691.99   75.09
  -4   2  -8  738.79   81.56
   4   2   8  712.83   75.62
   4   2   8  714.46   48.48
  -4   2  -8  728.70   70.33
   4  -2   8 1185.17   87.90
  -4  -2  -8 1112.03   88.75
   4   2   9  250.29   53.08
   4   2   9  243.23   53.61
  -4   2  -9  296.63   52.82
   4   2   9  272.56   63.31
   4   2   9  252.36   40.24
  -4   2  -9  241.37   54.48
   4  -2   9  315.77   20.63
  -4  -2  -9  315.14   60.64
   4  -2   9  351.90   67.79
   4   2  10  148.28   64.64
   4   2  10  137.83   78.75
  -4   2 -10  121.31   66.03
  -4   2 -10  156.01   56.32
   4  -2  10  120.99   56.14
  -4  -2 -10  108.89   30.34
  -4  -2 -10   82.58   53.19
   4   2  11 1297.11  146.37
   4   2  11 1315.34  200.10
  -4   2 -11 1271.46  153.74
  -4   2 -11 1369.05  145.31
   4  -2  11 1442.31  159.31
  -4  -2 -11 1349.59  153.87
   4   2  12   -7.81   35.58
   4   2  12   11.43   37.05
  -4   2 -12   10.90   43.08
  -4   2 -12   15.11   33.62
   4  -2  12    6.68   22.15
  -4  -2 -12   12.86   38.18
   4   2  13  240.43   61.44
   4   2  13  270.03   77.18
  -4   2 -13  216.55   68.91
  -4   2 -13  302.85  170.47
   4  -2  13  202.58   80.53
  -4  -2 -13  167.85   62.90
   4   2  14  296.17   64.42
   4   2  14  259.29   70.48
  -4   2 -14  295.65   90.90
  -4   2 -14  343.66   80.99
   4   2  15    0.01   34.83
  -4   2 -15   22.21   53.40
   4  -2  15   23.38   37.61
  -4  -2 -15   32.95   62.23
   4   2  16   64.10   55.30
  -4   2 -16   72.92   73.46
  -4   2 -16   73.11   47.66
   4  -2  16   97.92   65.74
  -4  -2 -16   86.88   55.97
  -4   3  17  390.44  103.99
   4   3 -17  364.86   88.26
  -4  -3  17  339.81  271.92
   4  -3 -17  423.46   88.57
   4   3 -16   95.03   80.04
  -4   3  16  109.42   92.57
  -4  -3  16   69.34   81.34
  -4  -3  16   67.99   92.00
   4  -3 -16   87.42   74.80
   4   3 -15  224.92   78.62
  -4   3  15  197.20   75.66
   4  -3 -15  239.80   59.29
  -4  -3  15  229.78  107.88
  -4   3  14  479.80  114.29
   4   3 -14  414.70   97.31
  -4  -3  14  685.13  137.50
  -4  -3  14  609.39  181.30
   4  -3 -14  606.66  103.75
   4  -3 -14  577.94  112.70
  -4   3  13  360.14   96.24
   4   3 -13  387.03   85.83
  -4  -3  13  344.69  127.69
  -4  -3  13  299.59  167.68
   4  -3 -13  277.84   74.76
   4  -3 -13  319.41  137.09
  -4   3  12  601.39   99.09
   4   3 -12  583.02   97.18
  -4  -3  12  492.82  147.51
  -4  -3  12  456.20  135.73
   4  -3 -12  437.60   65.77
   4  -3 -12  474.94  115.62
  -4   3  11  883.14  121.34
   4   3 -11  858.95  122.56
  -4  -3  11  924.44  109.50
  -4  -3  11  825.09  169.83
   4  -3 -11  789.68  101.25
   4  -3 -11  823.84  109.29
  -4   3  10  163.31   69.00
   4   3 -10  179.98   61.62
  -4  -3  10  167.69   50.76
  -4  -3  10  181.13  138.44
   4  -3 -10  174.96   78.60
   4  -3 -10  188.40  175.39
  -4   3   9 1498.41  125.48
   4   3  -9 1456.71  120.78
  -4  -3   9 1635.09  134.50
  -4  -3   9 1724.09  124.04
   4  -3  -9 1794.34  132.68
   4  -3  -9 1822.10  136.22
  -4   3   8  818.85   97.76
   4   3  -8  826.66   89.59
   4   3  -8  829.12   91.18
  -4  -3   8  707.03   70.83
   4  -3  -8  691.85  119.32
   4  -3  -8  649.50   91.62
  -4   3   7  780.46   88.23
   4   3  -7  795.01  107.10
   4   3  -7  793.95   75.31
  -4  -3   7  824.64   70.33
   4  -3  -7  788.50   77.88
   4  -3  -7  772.24  112.15
  -4   3   6 1983.76  117.02
   4   3  -6 2066.71  132.34
   4   3  -6 1928.62  112.69
  -4  -3   6 2313.86  124.77
   4  -3  -6 2040.34  113.01
   4  -3  -6 2018.25  127.39
  -4   3   5  387.82   53.41
   4   3  -5  416.57   64.82
   4   3  -5  401.51   59.41
  -4   3   5  395.53  130.06
  -4  -3   5  403.64  118.52
   4  -3  -5  368.26  101.40
  -4   3   4 1502.53   98.19
  -4   3   4 1550.66   98.76
   4   3  -4 1541.78   91.43
   4   3  -4 1559.34  106.89
   4  -3  -4 1725.24   95.96
   4  -3  -4 1952.69   74.46
  -4  -3   4 1780.13   97.77
   4   3  -3 2569.99  118.69
  -4   3   3 2356.39  117.03
  -4   3   3 2351.45  132.08
   4   3  -3 2479.56  139.07
   4   3  -3 2558.16  101.73
   4  -3  -3 2323.72   93.22
   4  -3  -3 2324.89  126.85
  -4  -3   3 2305.01  157.72
  -4  -3   3 2372.96   94.43
   4  -3  -3 2287.59   92.15
   4   3  -2   74.91   22.09
  -4   3   2   68.87   21.96
  -4   3   2   88.92   84.40
   4   3  -2   83.14   62.40
   4   3  -2   79.57   26.57
   4  -3  -2  165.15   21.33
   4  -3  -2  144.88   68.68
  -4  -3   2  130.75   64.61
  -4  -3   2  153.89   16.96
   4  -3  -2  144.52   20.70
   4   3  -1 1915.69  100.83
  -4   3   1 1902.87   91.15
   4   3  -1 1902.41  119.84
   4   3  -1 1928.31   93.09
  -4   3   1 1753.60  128.50
  -4  -3   1 1470.68   89.26
   4  -3  -1 1510.14   69.25
  -4  -3   1 1363.15   68.08
   4  -3  -1 1504.32   90.05
  -4  -3   1 1395.23   65.85
   4  -3  -1 1503.82   89.18
   4   3   0 1133.99   59.41
  -4   3   0 1059.22   56.78
   4   3   0 1046.94   87.00
   4   3   0 1112.32   88.43
  -4   3   0 1016.38   84.75
  -4  -3   0  993.49  108.60
   4  -3   0 1027.02   80.62
   4  -3   0 1030.05   71.50
   4  -3   0  906.47   48.57
  -4  -3   0  991.80   70.51
   4  -3   0 1073.79   52.48
  -4   3  -1 1664.91  111.45
   4   3   1 1776.97   86.89
  -4   3  -1 1710.01   75.30
   4   3   1 1795.02  110.88
  -4  -3  -1 1734.43  162.71
   4  -3   1 1756.57  123.86
  -4  -3  -1 1571.41   67.72
   4  -3   1 1745.31   76.59
  -4  -3  -1 1620.95   82.50
   4  -3   1 1742.28   82.86
   4   3   2 1931.68   79.25
  -4   3  -2 1891.38  127.39
   4   3   2 1962.77  120.08
   4  -3   2 2139.83   87.05
   4  -3   2 1989.71  109.49
  -4  -3  -2 2035.22   83.53
  -4  -3  -2 2113.01  116.89
  -4  -3  -2 2031.94  100.33
   4  -3   2 2083.73   99.92
  -4   3  -3   53.78   44.64
  -4   3  -3   56.69   37.83
   4   3   3   71.10   64.28
   4  -3   3   58.83   59.50
   4  -3   3   54.10   10.95
  -4  -3  -3   56.91   27.98
  -4  -3  -3   59.17   53.12
  -4   3  -4  725.76   71.40
   4   3   4  752.30   79.27
  -4   3  -4  752.73   90.91
   4  -3   4  689.94   86.58
  -4  -3  -4  730.83  100.97
  -4  -3  -4  640.23   75.52
  -4   3  -5  705.86   80.17
   4   3   5  696.07   80.47
  -4   3  -5  774.39  162.39
   4  -3   5  587.67   85.65
  -4  -3  -5  584.08  102.00
  -4  -3  -5  577.09   71.67
   4   3   6  111.50   54.65
   4   3   6   81.12   48.51
  -4   3  -6   91.78   58.68
  -4   3  -6  112.67   85.24
   4  -3   6  215.52   48.10
  -4  -3  -6  189.63   39.69
   4   3   7  727.49   88.93
   4   3   7  742.74   98.28
  -4   3  -7  746.46   90.51
  -4   3  -7  763.24  142.17
   4  -3   7  649.75   71.93
  -4  -3  -7  611.67   75.83
   4   3   8  107.07   59.80
   4   3   8  103.97   60.17
  -4   3  -8  103.70   66.08
  -4   3  -8  122.35   32.96
   4  -3   8   99.44   54.23
  -4  -3  -8  100.30   63.43
   4   3   9 1068.84  120.11
   4   3   9 1012.15  163.31
  -4   3  -9 1128.08  126.79
  -4   3  -9 1123.24  112.31
   4  -3   9 1072.84  131.14
  -4  -3  -9  940.82  109.78
   4   3  10   48.66   54.71
   4   3  10   51.63   40.87
  -4   3 -10   27.29   47.85
  -4   3 -10   61.55   62.00
   4  -3  10  155.11   68.18
  -4  -3 -10  123.56   60.56
   4   3  11  129.68   63.33
   4   3  11  140.48   84.35
  -4   3 -11  160.68   66.84
  -4   3 -11  140.53   52.10
   4  -3  11  115.66   59.20
  -4  -3 -11   80.80   72.50
   4   3  12  497.72   97.41
   4   3  12  440.01   91.89
  -4   3 -12  489.25  107.53
  -4   3 -12  477.18   88.63
   4  -3  12  383.62   89.72
  -4  -3 -12  355.79   82.28
   4   3  13  327.98   76.11
   4   3  13  299.10   70.79
  -4   3 -13  331.55   61.11
   4   3  14   67.35   52.35
  -4   3 -14   89.05   79.71
  -4   3 -14  100.63   56.62
   4  -3  14   56.25   59.91
  -4  -3 -14  105.21   92.60
   4   3  15  112.81   72.68
   4   3  15  114.08   65.29
  -4   3 -15   99.56   65.78
  -4   3 -15   96.47   60.65
   4  -3  15  105.32  102.38
  -4  -3 -15  102.38   67.46
   4   4 -15  354.86   94.69
  -4   4  15  341.66   94.62
  -4  -4  15  293.53  202.34
  -4  -4  15  333.22   83.42
   4  -4 -15  310.57  208.52
   4   4 -14   87.12   53.89
  -4   4  14   67.55   66.05
  -4  -4  14   72.57   74.42
  -4  -4  14   73.26   96.63
   4  -4 -14   84.69   71.51
  -4  -4  13  802.03  147.06
   4  -4 -13  649.93  236.07
   4   4 -12  256.52   65.93
  -4   4  12  219.40   59.63
  -4  -4  12  236.03  148.17
  -4  -4  12  270.57  105.04
   4  -4 -12  244.03  230.40
  -4   4  11  114.10   60.92
   4   4 -11  125.47   58.12
  -4  -4  11  183.09   48.79
  -4  -4  11  153.33  156.40
   4  -4 -11  155.74   39.24
   4  -4 -11  173.64  132.47
  -4   4  10  381.09   85.94
   4   4 -10  405.44   84.43
  -4  -4  10  250.41  119.59
  -4  -4  10  241.73   99.19
   4  -4 -10  260.04   61.50
   4  -4 -10  264.20  124.27
  -4   4   9  492.82   93.55
   4   4  -9  502.35   83.70
  -4  -4   9  483.45   71.58
  -4  -4   9  426.36   99.75
   4  -4  -9  494.94   74.33
   4  -4  -9  470.57   75.59
   4   4  -8  660.45  104.03
  -4   4   8  633.34  101.41
   4  -4  -8  574.70  137.70
  -4  -4   8  633.68   97.65
   4  -4  -8  547.92  185.32
  -4   4   7  843.30  108.67
   4   4  -7  893.77  109.61
   4   4  -7  861.73  104.88
  -4  -4   7 1155.18  172.00
   4  -4  -7  953.61  127.51
   4  -4  -7 1020.95  125.15
  -4   4   6  198.28   64.85
   4   4  -6  203.17   69.59
   4   4  -6  194.48   51.12
  -4  -4   6  244.80  107.06
   4  -4  -6  201.56   49.72
   4  -4  -6  225.89  117.23
  -4   4   5 1527.53  115.53
   4   4  -5 1457.60  124.15
   4   4  -5 1466.17   95.56
  -4  -4   5 1356.82  111.00
   4  -4  -5 1205.16   85.28
   4  -4  -5 1192.21  150.29
  -4   4   4  362.99   50.71
   4   4  -4  414.04   87.96
   4   4  -4  378.21   48.68
  -4  -4   4  373.36  102.12
   4  -4  -4  339.93   91.24
  -4   4   3  508.10   82.21
  -4   4   3  528.57   66.45
   4   4  -3  498.20   85.37
   4   4  -3  510.08   62.46
   4  -4  -3  384.91  112.51
  -4  -4   3  408.42   25.00
  -4  -4   3  424.78   70.20
   4   4  -2  586.72   54.58
  -4   4   2  581.48   66.65
  -4   4   2  582.74   75.16
   4   4  -2  585.74   89.89
   4  -4  -2  669.51   45.38
   4  -4  -2  754.95  114.11
  -4  -4   2  740.25   87.86
  -4  -4   2  681.94   40.76
   4  -4  -2  758.36   60.26
   4   4  -1   22.35   17.53
  -4   4   1   20.73   37.66
   4   4  -1   27.22   58.03
   4   4  -1    2.22    9.67
  -4   4   1   24.26   36.83
   4  -4  -1   37.69   29.34
  -4  -4   1   18.15   25.44
   4  -4  -1   32.73   49.00
  -4  -4   1   32.27   28.29
  -4  -4   1   33.08   33.40
   4   4   0  301.41   67.71
  -4   4   0  308.34   40.05
   4   4   0  313.98   33.02
  -4   4   0  337.15  155.30
  -4  -4   0  435.74  123.33
   4  -4   0  413.70   56.48
  -4  -4   0  398.44   41.03
   4  -4   0  390.28  107.45
   4   4   1  385.00   91.86
  -4   4  -1  374.23   81.06
   4   4   1  362.71   31.33
   4  -4   1  371.36   32.05
   4  -4   1  347.84  103.52
   4  -4   1  389.78   58.37
  -4  -4  -1  373.60   42.96
  -4  -4  -1  441.92  156.40
  -4   4  -2   30.46   20.92
   4   4   2   25.13   62.30
   4  -4   2    5.31   10.33
   4  -4   2    1.53   19.54
   4  -4   2    9.28   30.35
  -4  -4  -2    2.35   17.44
  -4  -4  -2    6.29   33.58
   4   4   3  435.94   90.39
  -4   4  -3  368.79   67.86
   4  -4   3  274.48   22.94
  -4  -4  -3  318.12  123.68
  -4  -4  -3  275.78   49.83
   4  -4   3  300.26   50.75
  -4   4  -4  109.76   71.18
   4   4   4  112.67   72.02
  -4   4  -4   97.96   82.73
   4  -4   4  143.70   45.52
  -4  -4  -4  166.81  128.03
  -4  -4  -4  126.28   39.27
  -4   4  -5  226.94   78.13
   4   4   5  215.06   72.89
  -4   4  -5  195.40   72.80
   4  -4   5  271.00   86.90
  -4  -4  -5  289.93   89.91
  -4  -4  -5  270.56   53.36
  -4   4  -6   86.28   55.42
   4   4   6   71.01   56.24
  -4   4  -6   71.31   50.28
   4  -4   6    3.37   29.83
  -4  -4  -6   14.00   32.34
  -4  -4  -6    9.57   13.56
  -4   4  -7  366.46   77.18
   4   4   7  318.32   88.37
  -4   4  -7  351.91   82.58
   4  -4   7  333.24  109.81
  -4  -4  -7  350.24  133.62
  -4  -4  -7  314.07   63.43
   4   4   8  196.46   66.35
   4   4   8  152.72   58.74
  -4   4  -8  190.69   72.46
  -4   4  -8  178.03   60.57
   4  -4   8  257.47   90.46
  -4  -4  -8  210.95  169.16
   4   4   9   62.69   59.95
   4   4   9   50.00   68.26
  -4   4  -9   43.12   68.21
  -4   4  -9   50.92   47.59
   4  -4   9   52.42   46.82
  -4  -4  -9   39.78   49.48
   4   4  10   39.97   62.76
   4   4  10   57.37   52.19
  -4   4 -10   41.17   65.21
  -4   4 -10   51.75   71.03
   4  -4  10   33.82   34.03
  -4  -4 -10   21.51   35.16
  -4   4 -11   40.34   45.09
   4   4  11   46.91   57.75
  -4  -4 -11    6.96   45.83
   4  -4  11   14.13   53.49
   4   4  12  -12.11   55.86
   4   4  12   -6.59   33.26
  -4   4 -12   29.44   66.34
  -4   4 -12    9.63   29.66
   4  -4  12   18.14   61.58
  -4  -4 -12   -5.12   51.54
   4   4  13  154.96   85.00
  -4   4 -13  175.64   84.17
   4  -4  13  169.77   88.63
  -4  -4 -13  119.98  132.28
   4  -4  14  102.40   73.16
   4   5 -13   56.19   46.15
  -4   5  13   81.99   71.97
  -4  -5  13   52.19   58.45
  -4  -5  13   43.30   63.36
   4  -5 -13   58.19   65.08
   4   5 -12  142.55   75.24
  -4   5  12  140.51   77.60
  -4  -5  12   77.43   58.63
  -4  -5  12   58.56   71.52
   4  -5 -12   77.47   93.17
  -4   5  11  143.84   80.34
  -4  -5  11  164.21   86.64
  -4  -5  11  174.61  172.66
   4  -5 -11  174.13  178.26
   4   5 -10   23.39   54.18
  -4   5  10   20.35   50.04
  -4  -5  10   10.24   36.52
  -4  -5  10   -0.60   15.32
  -4   5   9  364.76   75.32
   4   5  -9  349.86   79.66
  -4  -5   9  411.13  109.87
   4  -5  -9  400.14   84.34
   4   5  -8  164.32   61.07
  -4   5   8  172.47   67.63
  -4  -5   8  136.41  133.92
  -4  -5   8  172.47   86.23
   4  -5  -8  126.58  141.36
  -4   5   7  113.60   58.87
   4   5  -7  135.81   81.74
   4   5  -7  127.11   62.82
  -4  -5   7   41.46   42.04
   4  -5  -7   34.47   38.56
   4  -5  -7   47.61   38.00
  -4   5   6  455.47   97.53
   4   5  -6  425.58   94.79
   4   5  -6  426.71   86.80
  -4  -5   6  386.90  107.09
   4  -5  -6  314.55  101.94
   4  -5  -6  299.25  153.74
  -4   5   5   58.12   42.99
   4   5  -5   57.96   54.19
   4   5  -5   50.29   51.44
  -4  -5   5   56.33   48.52
   4  -5  -5   55.63   59.94
   4  -5  -5   55.10   61.12
  -4   5   4  174.74   55.41
   4   5  -4  166.10   55.64
   4   5  -4  164.67   58.29
  -4  -5   4  194.01   72.75
   4  -5  -4   98.96   96.71
   4  -5  -4  145.47  159.92
  -4   5   3  450.86   79.00
   4   5  -3  488.42   94.43
   4   5  -3  420.67   58.53
  -4  -5   3  444.93   86.49
   4  -5  -3  390.58   98.78
   4  -5  -3  414.89   65.54
   4   5  -2   57.92   56.16
  -4   5   2   69.67   49.40
   4   5  -2   81.90   30.17
  -4  -5   2  112.28   77.69
   4  -5  -2  112.35   99.90
   4  -5  -2  116.13   31.94
  -4   5   1  828.59  105.64
  -4   5   1  841.29   88.45
   4   5  -1  848.67   79.77
   4   5  -1  872.59  176.66
   4  -5  -1  970.86  112.63
   4  -5  -1  943.03  132.13
  -4  -5   1  960.30  116.22
   4   5   0  125.86   77.13
  -4   5   0  113.65   56.42
  -4  -5   0  138.32  121.11
   4  -5   0  154.58   59.29
   4  -5   0  133.98  144.14
  -4  -5   0  135.80   36.01
   4   5   1    3.53   47.39
  -4   5  -1   19.60   51.46
  -4  -5  -1   53.40   40.22
   4  -5   1   44.92   46.44
   4  -5   1   49.84   51.66
  -4  -5  -1   43.34   27.58
   4   5   2  168.38   53.83
  -4   5  -2  182.36   50.86
  -4  -5  -2  223.51   74.15
   4  -5   2  213.33   78.59
   4  -5   2  178.16  100.43
  -4  -5  -2  173.03   44.37
   4   5   3   74.48   67.35
  -4   5  -3   55.32   50.46
  -4  -5  -3   98.92   79.66
   4  -5   3  103.23  100.99
   4  -5   3   74.45   70.33
  -4  -5  -3  104.93   48.54
  -4   5  -4   56.49   62.93
   4   5   4   52.67   49.36
  -4  -5  -4   85.94   79.85
  -4  -5  -4   38.07   31.86
   4  -5   4   97.71   48.72
  -4   5  -5   60.53   43.22
   4   5   5   58.57   57.95
  -4   5  -5   42.02   58.74
   4  -5   5   74.99   77.13
  -4  -5  -5   81.93   63.43
  -4  -5  -5   52.36   69.40
  -4   5  -6   95.80   63.90
   4   5   6   74.94   50.02
  -4   5  -6   79.22   81.35
   4  -5   6   86.39   53.00
  -4  -5  -6   90.02   76.66
  -4  -5  -6   55.20   63.49
   4   5   7  197.39   67.19
  -4   5  -7  267.72   73.62
  -4   5  -7  181.18  107.01
   4  -5   7  187.96   82.27
  -4  -5  -7  119.43  133.71
   4   5   8   24.05   53.28
   4  -5   8    5.94   22.04
  -4  -5  -8   10.20   37.25
  -4   5  -9   67.04   52.06
   4   5   9   21.82   36.87
   4  -5   9   74.71   81.14
  -4  -5  -9  113.55   89.58
  -4  -5  -9   65.40   76.84
  -4   5 -10  175.09   69.73
   4   5  10  143.93   70.33
   4  -5  10  227.32   83.25
  -4  -5 -10  170.19  119.00
  -4  -5 -10  172.54   69.25
  -4   5 -11  169.41   86.99
   4  -5  11  152.20  137.93
  -4  -5 -11  162.77   70.93
   4   6  -9   19.83   39.99
  -4   6   9   30.20   71.39
  -4  -6   9   19.04   51.04
  -4  -6   9   15.57   26.50
   4  -6  -9   25.52   52.99
   4   6  -8  107.12   64.08
  -4  -6   8   64.30   89.05
  -4  -6   8   51.98   92.30
   4  -6  -8   86.24  125.94
   4   6  -7   60.95   51.67
  -4   6   7   79.60   60.59
  -4  -6   7   54.02   70.36
  -4  -6   7   79.66   64.01
   4   6  -6   17.89   31.58
  -4   6   6    0.98   48.79
   4   6  -6    4.70   38.62
  -4  -6   6   15.72   31.52
   4  -6  -6    6.71   31.11
  -4   6   5   91.22   61.36
   4   6  -5  101.34   65.63
  -4  -6   5   80.93   82.83
   4  -6  -5   76.71   92.13
  -4   6   4   97.16   53.01
  -4  -6   4   91.84   80.19
   4  -6  -4   73.00   82.95
  -4   6   3   68.05   38.12
  -4  -6   3   76.23   47.67
   4  -6  -3   60.47   84.92
   4   6  -2   79.07   62.92
  -4  -6   2   70.43   80.86
   4  -6  -2   53.46   69.73
   4  -6  -2   43.41   60.49
   4   6  -1   60.54   59.10
  -4  -6   1   67.30   73.63
   4  -6  -1   76.82   87.21
   4  -6  -1   55.92   88.13
   4   6   0   93.78   69.24
  -4  -6   0  101.76   98.20
   4  -6   0  102.13  116.67
   4  -6   0  104.60   56.92
   4   6   1  126.92  123.12
   4  -6   1  122.50  125.95
   4  -6   1  116.27   73.43
   4   6   2   67.18   55.96
   4  -6   2   56.52   74.61
  -4   6  -3   74.40   44.85
   4   6   3   58.99   61.00
  -4  -6  -3  129.61  135.17
   4  -6   3   83.81   69.94
   4  -6   3  112.08   53.45
   4   6   4   38.13   66.63
  -4  -6  -4   27.27   67.77
   4  -6   4   14.21   25.57
   4  -6   4   13.81   27.58
   4   6   5   66.18   55.08
  -4  -6  -5   68.29   66.83
   4  -6   5   75.30   90.34
  -4  -6  -6   89.83   88.94
   4  -6   6   76.65   54.41
  -4  -6  -6   68.29   43.29
  -4   6  -7   28.92   65.55
  -4  -6  -7   39.97   50.44
  -4  -6  -7   33.69   39.38
  -5   0  19   21.40   66.29
   5   0 -19   32.30   64.20
   5   0 -19   59.77   64.33
  -5   0  18  257.13  103.27
  -5   0  18  304.26   86.54
   5   0 -18  277.36   87.98
   5   0 -18  330.08   95.56
  -5   0  17  517.39   79.73
   5   0 -17  548.04   91.76
  -5   0  16   67.14   68.58
  -5   0  16   60.74   53.88
   5   0 -16   90.84   71.62
   5   0 -16   83.85   61.48
  -5   0  15  446.51  142.97
  -5   0  15  451.06   84.56
   5   0 -15  477.04   90.91
   5   0 -15  517.70   92.20
  -5   0  14   17.62   43.68
  -5   0  14    2.21   29.94
   5   0 -14   28.61   63.74
   5   0 -14  -13.62   35.13
  -5   0  13  575.55   89.39
  -5   0  13  609.25   74.90
   5   0 -13  635.52   98.33
   5   0 -13  684.33   86.87
  -5   0  12  139.71  119.51
  -5   0  12  155.53   91.37
   5   0 -12  162.39   69.45
   5   0 -12  150.28   80.99
  -5   0  11    9.88   33.52
  -5   0  11   -6.00   26.43
   5   0 -11    1.47   25.40
   5   0 -11   12.23   21.70
  -5   0  10 2765.57  182.25
  -5   0  10 2749.55  141.09
   5   0 -10 2879.21  166.12
   5   0 -10 2917.39  188.48
  -5   0   9 2225.48  157.34
  -5   0   9 2105.21  107.86
   5   0  -9 2145.48  132.56
   5   0  -9 2168.28  199.50
  -5   0   8   28.67   30.92
  -5   0   8    7.19   15.53
   5   0  -8   10.91   25.15
   5   0  -8    1.58   22.09
  -5   0   7 2204.46  105.75
  -5   0   7 2190.29   78.22
   5   0  -7 2089.94   80.23
   5   0  -7 2152.83  121.91
  -5   0   7 1911.49   86.59
  -5   0   6 1761.00  118.18
  -5   0   6 1742.47   62.08
   5   0  -6 1722.47   66.57
   5   0  -6 1809.94  126.75
  -5   0   6 1609.12   72.69
  -5   0   5 8497.97  230.98
  -5   0   5 8293.58  210.60
   5   0  -5 8383.77  216.85
  -5   0   5 8067.72  217.13
  -5   0   4  876.86   54.19
  -5   0   4  807.93   48.52
   5   0  -4  838.00   47.75
   5   0  -4  870.39   89.05
  -5   0   4  822.48   65.69
  -5   0   3  408.84   67.69
  -5   0   3  380.30   29.10
   5   0  -3  414.44   36.76
   5   0  -3  401.55   87.85
  -5   0   3  419.74   40.63
   5   0  -1 5697.59  193.36
  -5   0   1 6626.68  224.82
   5   0  -1 6530.91  223.96
   5   0  -1 6402.86  224.54
  -5   0   1 6529.36  233.23
   5   0   0 4439.06  155.58
  -5   0   0 5133.75  178.96
  -5   0   0 5018.39  176.50
   5   0   0 4977.84  175.47
   5   0   0 4929.27  178.22
  -5   0   0 5018.59  183.95
   5   0   1  226.85   29.10
  -5   0  -1  239.65   23.86
   5   0   1  240.82   34.06
   5   0   1  220.93   40.33
  -5   0  -1  245.69   35.86
   5   0   2 1694.26   61.99
  -5   0  -2 1906.36   64.23
   5   0   2 1987.47   77.79
   5   0   2 1867.82   82.60
  -5   0  -2 1956.61   84.29
  -5   0  -3  830.45   42.03
  -5   0  -3  842.62   41.95
   5   0   3  839.38   78.40
   5   0   3  819.87   61.25
  -5   0  -3  833.03   52.97
  -5   0  -4 2033.41   74.53
  -5   0  -4 1964.57   69.43
   5   0   4 1945.16   81.03
   5   0   4 1912.67   78.79
  -5   0  -4 1879.16   78.32
  -5   0  -5 1831.75   93.39
  -5   0  -5 1892.41   71.56
   5   0   5 1923.92   92.88
   5   0   5 1826.30  100.15
  -5   0  -5 1868.95   88.31
  -5   0  -6 1552.88   85.28
  -5   0  -6 1552.47   77.99
   5   0   6 1501.29   94.15
  -5   0  -6 1528.29   95.36
  -5   0  -7   49.12   44.66
   5   0   7   58.00   42.40
  -5   0  -7   56.69   31.38
  -5   0  -7   78.47   72.36
   5   0   8  895.22   64.18
   5   0   8  868.58   81.88
  -5   0  -8  916.92   77.69
  -5   0  -8  941.55   85.18
   5   0   9 4628.48  223.47
   5   0   9 4837.32  243.55
  -5   0  -9 5094.52  255.00
  -5   0  -9 4989.16  303.44
   5   0  10  612.05   78.42
   5   0  10  627.98  100.82
  -5   0 -10  681.62  102.52
  -5   0 -10  656.92  180.61
   5   0  11  637.90   69.44
   5   0  11  681.93   95.57
  -5   0 -11  669.57   84.75
  -5   0 -11  692.32   89.60
   5   0  12  270.91   44.56
   5   0  12  311.18   78.76
  -5   0 -12  308.65   67.63
  -5   0 -12  327.26  177.69
   5   0  13    8.05   27.31
   5   0  13   -3.92   37.37
  -5   0 -13   -0.82   31.97
  -5   0 -13    3.64   36.91
  -5   0 -14  402.02   68.41
  -5   0 -14  356.85  180.42
   5   0  15   20.78   53.79
  -5   0 -15    7.17   31.17
   5   0  16   77.45   76.89
  -5   0 -16   51.89   50.43
  -5   0 -16   98.80   59.72
   5   1 -18  113.57   93.06
  -5   1  18  106.13  107.35
  -5  -1  18   92.95   55.14
  -5  -1  18   94.21   64.79
  -5   1  17   97.37  107.82
   5   1 -17   60.88   76.57
   5   1 -17   86.33   86.77
  -5  -1  17  125.28   68.86
   5  -1 -17  139.28   63.77
   5  -1 -17  111.90   76.62
   5   1 -16  634.14   90.23
  -5   1  16  566.49  108.70
   5   1 -16  602.13  102.34
  -5  -1  16  622.61  156.25
   5  -1 -16  662.65   96.10
   5  -1 -16  697.61  102.39
  -5  -1  16  653.59  101.07
  -5   1  15  226.66   61.91
  -5   1  15  227.32   84.36
   5   1 -15  243.64  172.61
   5   1 -15  252.56   67.46
  -5  -1  15  221.86  165.76
  -5  -1  15  234.34  119.40
   5  -1 -15  231.06  150.01
   5  -1 -15  193.91  172.94
  -5   1  14  128.46   74.48
  -5   1  14  160.80  178.99
   5   1 -14  166.32   65.44
   5   1 -14  174.08   49.58
  -5  -1  14  164.72  147.98
  -5  -1  14  175.45  141.32
   5  -1 -14  159.61  101.53
   5  -1 -14  181.21  177.61
  -5   1  13  633.06   75.36
  -5   1  13  670.75  180.96
   5   1 -13  694.93  105.46
   5   1 -13  749.81   91.67
  -5  -1  13  854.05  115.47
  -5  -1  13  809.03  116.16
   5  -1 -13  881.35  229.57
   5  -1 -13  811.08  143.78
  -5   1  12  938.18   85.40
  -5   1  12  925.72  114.41
   5   1 -12  997.61  125.22
   5   1 -12 1040.36  111.70
  -5  -1  12  885.28  180.55
  -5  -1  12  759.82   94.92
   5  -1 -12  845.45   97.93
   5  -1 -12  797.15   94.76
  -5   1  11 1784.20  100.04
  -5   1  11 1837.32  139.46
   5   1 -11 1951.75  142.94
   5   1 -11 1962.24  117.34
  -5  -1  11 2190.91  144.60
  -5  -1  11 1905.82  126.94
   5  -1 -11 2042.97  156.75
   5  -1 -11 1928.77  136.38
   5   1 -10  757.44   81.59
  -5   1  10  685.78   81.52
  -5   1  10  742.14   69.20
  -5   1  10  793.36   67.29
   5   1 -10  771.86  111.55
  -5  -1  10  475.29  113.21
   5  -1 -10  492.59   64.83
  -5  -1  10  511.17  127.92
   5  -1 -10  492.75   65.79
   5   1  -9 2556.04  189.14
  -5   1   9 2411.13  161.75
   5   1  -9 2545.36  154.24
  -5   1   9 2476.91  118.92
  -5   1   9 2716.68  122.25
   5  -1  -9 3021.85  240.23
  -5  -1   9 3068.01  165.81
   5  -1  -9 2867.77  180.69
  -5  -1   9 2800.56  146.28
   5   1  -8 3998.12  211.96
  -5   1   8 3712.03  193.43
  -5   1   8 3950.76  160.82
  -5   1   8 4174.25  163.87
   5   1  -8 4245.12  188.40
   5   1  -8 4351.36  179.71
   5   1  -8 3973.17  172.26
   5  -1  -8 3226.84  184.31
   5  -1  -8 3071.07  158.49
  -5  -1   8 3231.82  158.07
   5   1  -7  358.44   61.73
  -5   1   7  353.32   76.94
  -5   1   7  373.55   31.87
  -5   1   7  383.16   36.27
   5   1  -7  396.40   50.63
  -5   1   7  390.71   54.87
   5   1  -7  417.18   35.55
   5  -1  -7  424.98   55.95
  -5  -1   7  357.71   37.17
  -5  -1   7  402.63   90.19
   5   1  -6 4030.73  133.04
  -5   1   6 3473.51  141.42
  -5   1   6 3823.62  109.03
  -5   1   6 3576.40  100.44
   5   1  -6 4017.05  141.95
   5   1  -6 3783.88  142.80
  -5   1   6 3701.81  136.05
  -5  -1   6 4692.55  154.88
   5   1  -5 5224.83  143.22
  -5   1   5 5119.28  168.57
   5   1  -5 5660.41  167.36
   5   1  -5 5358.88  197.23
  -5   1   5 5401.39  175.12
   5  -1  -5 5992.51  147.78
   5  -1  -5 6281.85  183.32
  -5  -1   5 6045.99  200.98
  -5  -1   5 6411.57  181.79
   5   1  -4 4450.74  122.26
  -5   1   4 3982.16  128.43
  -5   1   4 4444.24  143.89
   5   1  -4 4649.30  143.65
   5   1  -4 4473.33  154.20
   5  -1  -4 4104.42  139.03
  -5  -1   4 4394.70  130.50
  -5  -1   4 4458.97  127.98
   5  -1  -4 4612.78  118.00
  -5   1   2   10.56   10.27
   5   1  -2    7.50   21.10
  -5   1   2    9.83   22.75
  -5   1   2    8.63   30.55
   5   1  -2   28.63   38.69
   5   1  -2    6.78   16.65
  -5  -1   2  110.96   59.00
   5  -1  -2  103.86   80.26
   5  -1  -2   94.98   15.24
  -5  -1   2  104.23   64.68
   5  -1  -2   91.03   28.62
   5   1  -1 1976.34   85.80
  -5   1   1 1996.21  100.24
  -5   1   1 1971.53   62.95
   5   1  -1 2053.04   81.84
   5   1  -1 2076.22   82.56
   5  -1  -1 2553.14  100.86
  -5  -1   1 2569.15   95.81
   5  -1  -1 2512.68   78.94
   5   1   0 8043.30  213.96
  -5   1   0 7788.10  210.11
  -5  -1   0 7549.73  214.50
   5  -1   0 8037.24  215.14
  -5  -1   0 7613.51  196.40
  -5   1  -1   35.49   37.17
  -5   1  -1   67.40   58.76
  -5   1  -1   56.16   20.89
   5   1   1   73.65   51.47
   5   1   1   64.05   27.90
  -5  -1  -1   82.48   68.97
   5  -1   1   63.29   28.79
   5  -1   1   73.13   71.71
  -5  -1  -1   65.57   42.71
  -5  -1  -1   85.82   63.64
   5  -1   1   64.39   21.09
   5   1   2 9175.70  245.04
   5  -1   2 8794.72  213.55
  -5  -1  -2 8944.22  234.94
  -5  -1  -2 8546.65  214.70
  -5  -1  -2 9280.71  257.74
   5   1   3  188.92   53.15
  -5   1  -3  183.25   18.92
  -5   1  -3  179.95   15.60
  -5   1  -3  212.59   51.14
   5   1   3  193.49   38.62
   5   1   3  181.88   23.29
   5  -1   3  116.03   97.55
  -5  -1  -3  126.60   37.57
  -5  -1  -3  118.76   79.65
   5  -1   3  106.01   33.12
   5   1   4  942.77   55.78
  -5   1  -4  937.57   38.12
  -5   1  -4  899.54   34.33
  -5   1  -4  901.75   55.81
   5   1   4  924.79   65.66
   5   1   4  866.13   43.37
   5  -1   4  947.82   79.71
  -5  -1  -4  952.89   66.81
  -5  -1  -4 1014.60   62.99
   5  -1   4 1005.85   64.82
  -5   1  -5 1914.91   99.53
  -5   1  -5 1907.05   61.60
  -5   1  -5 1916.42   60.51
   5   1   5 1894.79   98.56
   5   1   5 1775.84   85.66
  -5   1  -5 1803.39   84.44
   5  -1   5 2235.69   96.58
  -5  -1  -5 2276.73   99.02
  -5  -1  -5 2262.01  106.29
  -5   1  -6  175.02   49.02
  -5   1  -6  199.69   45.11
  -5   1  -6  188.86   34.05
   5   1   6  168.88   53.39
   5   1   6  166.69   53.73
  -5   1  -6  179.99   55.28
   5  -1   6  249.46   57.06
  -5  -1  -6  284.21   79.35
  -5  -1  -6  283.96  105.76
  -5   1  -7 4105.48  173.72
  -5   1  -7 4096.18  172.02
  -5   1  -7 3876.86  193.07
   5   1   7 3837.70  204.02
   5   1   7 3654.28  199.02
  -5   1  -7 3949.07  192.54
   5  -1   7 3788.43  181.15
  -5  -1  -7 3686.92  186.70
  -5   1  -8 1324.38   73.24
  -5   1  -8 1340.52   71.86
   5   1   8 1207.68   85.23
  -5   1  -8 1283.19   96.02
   5   1   8 1275.27  110.88
   5   1   8 1237.52  122.86
  -5   1  -8 1352.04  119.05
   5  -1   8  993.89   83.08
  -5  -1  -8  924.14   78.91
  -5   1  -9  818.22   49.36
   5   1   9  720.94   70.55
   5   1   9  740.77   98.77
  -5   1  -9  799.37   85.34
  -5   1  -9  796.95   87.51
   5  -1   9  696.79   80.39
  -5  -1  -9  768.12   64.79
  -5  -1  -9  673.15   75.18
   5   1  10 1120.84  100.80
  -5   1 -10 1374.69  138.57
   5   1  10 1207.51  124.94
  -5   1 -10 1272.39  130.29
   5  -1  10 1136.11  121.47
  -5  -1 -10 1228.05  111.98
  -5  -1 -10 1042.16  105.43
   5  -1  10 1096.38   87.46
   5   1  11  456.89   61.66
   5   1  11  513.52   90.89
  -5   1 -11  474.64   87.24
  -5   1 -11  547.81   92.58
   5  -1  11  377.88   86.30
  -5  -1 -11  394.18   71.76
  -5  -1 -11  366.55   82.91
   5   1  12  496.37   73.27
   5   1  12  497.27   85.76
  -5   1 -12  505.72   83.00
  -5   1 -12  557.35   89.44
   5  -1  12  618.28   98.01
  -5  -1 -12  592.17   84.45
  -5  -1 -12  542.24   87.85
   5   1  13  399.02   62.78
   5   1  13  433.91   80.03
  -5   1 -13  417.16   72.97
  -5   1 -13  484.15   79.18
   5  -1  13  592.29  102.24
  -5  -1 -13  608.20   73.55
  -5  -1 -13  589.89   96.87
   5   1  14    8.17   31.63
   5   1  14   -1.62   33.93
  -5   1 -14   15.56   55.44
  -5   1 -14   21.93   49.60
  -5  -1 -14    9.90   24.75
   5   1  15  420.95   82.18
   5   1  15  434.15  103.76
  -5   1 -15  379.22   88.85
   5  -1  15  425.00  103.92
  -5  -1 -15  404.26   96.46
  -5   1 -16  385.45   83.72
   5   1  16  305.41   85.45
  -5  -1 -16  287.50   59.04
   5  -1  16  260.56   79.14
   5   2 -18  140.84   93.50
  -5   2  18  147.40  103.29
  -5  -2  18  132.41   78.79
  -5  -2  18  122.35   59.42
   5  -2 -18  145.45   85.69
  -5   2  17  297.96  112.73
   5   2 -17  288.80   91.82
   5  -2 -17  211.03   75.88
   5  -2 -17  251.32   87.05
  -5   2  16  332.32  109.37
   5   2 -16  367.67  105.32
  -5  -2  16  304.40  160.07
  -5  -2  16  305.45  143.17
   5  -2 -16  280.04   99.41
  -5   2  15  564.65  118.89
   5   2 -15  559.05  226.33
  -5  -2  15  536.54  229.69
  -5  -2  15  552.65  119.30
   5  -2 -15  462.24  176.93
   5  -2 -15  510.10   99.43
  -5   2  14  222.09   95.97
   5   2 -14  209.98   64.40
  -5  -2  14  200.67   96.33
  -5  -2  14  206.32  138.12
   5  -2 -14  165.65  105.12
   5  -2 -14  208.04  138.12
   5   2 -13  116.94   66.19
  -5   2  13  167.93   86.59
   5   2 -13  123.18   65.59
  -5  -2  13  254.34  154.82
   5  -2 -13  240.09   63.47
   5  -2 -13  258.55   95.52
  -5  -2  13  255.45  150.73
   5   2 -12 1232.36  108.10
  -5   2  12 1185.12  209.52
   5   2 -12 1130.77  151.36
  -5  -2  12  986.90  189.81
   5  -2 -12  948.24  107.56
   5  -2 -12  963.75  116.89
  -5  -2  12 1003.50  109.96
  -5   2  11  175.66   38.36
  -5   2  11  242.37  204.08
   5   2 -11  288.59   82.80
   5   2 -11  284.86   50.44
  -5  -2  11  297.07  137.50
  -5  -2  11  235.15  163.04
   5  -2 -11  268.27  140.94
   5  -2 -11  270.19   58.41
   5   2 -10 2907.92  185.46
  -5   2  10 2770.54  177.80
   5   2 -10 2877.93  144.08
  -5   2  10 2448.00  108.64
  -5   2  10 2696.89  119.38
   5   2 -10 2993.56  141.91
   5  -2 -10 2241.51  175.91
   5  -2 -10 2240.38  171.20
  -5  -2  10 2154.52  158.46
  -5  -2  10 2305.75  148.73
   5   2  -9  612.76   50.46
  -5   2   9  623.51   98.09
   5   2  -9  620.37   79.50
   5   2  -9  625.43   53.96
  -5  -2   9  627.97  110.47
   5  -2  -9  622.63  100.96
   5  -2  -9  669.45  162.51
  -5  -2   9  663.98   72.59
   5   2  -8 1367.15   70.81
  -5   2   8 1363.62  108.31
   5   2  -8 1435.35  102.43
   5   2  -8 1401.70  100.68
   5   2  -8 1363.95   69.45
   5  -2  -8 1561.55  104.98
   5  -2  -8 1472.53  176.20
  -5  -2   8 1354.67   89.38
   5   2  -7 4927.41  194.50
  -5   2   7 4831.67  280.55
   5   2  -7 5263.95  237.70
   5   2  -7 4899.31  223.56
   5   2  -7 4643.68  193.45
  -5   2   7 4712.19  229.87
   5  -2  -7 5201.96  225.82
  -5  -2   7 4610.23  224.35
  -5   2   6 2175.64  125.58
  -5   2   6 2167.46  122.32
   5   2  -6 2353.73  131.92
   5   2  -6 2226.35  126.21
   5   2  -6 2362.48   99.54
   5  -2  -6 1839.70  124.33
  -5  -2   6 1837.90  106.53
  -5  -2   6 1675.20   77.23
  -5   2   5 1350.11  111.04
   5   2  -5 1501.61  172.86
   5   2  -5 1403.20   79.37
   5   2  -5 1419.90   60.44
  -5   2   5 1389.84   88.93
  -5  -2   5 1309.67   73.18
   5  -2  -5 1226.30   75.52
  -5  -2   5 1283.74   50.19
  -5   2   4 5499.53  211.09
   5   2  -4 5536.47  184.42
   5   2  -4 5445.98  188.26
   5   2  -4 5372.30  157.44
  -5   2   4 5339.68  192.95
  -5  -2   4 5560.93  177.83
   5  -2  -4 5332.68  172.99
  -5  -2   4 5210.15  148.72
   5   2  -3   90.87   14.22
  -5   2   3  100.36   99.74
  -5   2   3  135.82  114.69
   5   2  -3  106.37   38.60
   5   2  -3  122.69   57.78
   5  -2  -3  101.54   94.35
  -5  -2   3   84.53   69.74
  -5  -2   3   89.10   26.62
   5  -2  -3   75.54   16.23
  -5   2   2 1566.38   47.56
   5   2  -2 1605.53  116.08
  -5   2   2 1675.46   70.26
  -5   2   2 1673.93  100.31
   5   2  -2 1639.10   84.35
   5   2  -2 1630.73   60.04
  -5  -2   2 1527.96   76.64
   5  -2  -2 1459.85   70.18
   5  -2  -2 1511.63   57.62
  -5  -2   2 1573.83   58.55
   5  -2  -2 1524.32   48.67
  -5   2   1 2762.32   87.39
  -5   2   1 2927.60   94.45
   5   2  -1 2679.26   82.95
   5   2  -1 2892.77  114.01
   5   2  -1 2652.19  113.73
  -5   2   1 2815.20  111.47
   5  -2  -1 2668.39   80.60
   5  -2  -1 2732.93   78.82
  -5  -2   1 2635.48  132.87
  -5  -2   1 2559.80   81.44
   5  -2  -1 2711.92  102.25
  -5  -2   1 2665.07   92.09
  -5   2   0  639.57   35.05
  -5   2   0  697.39   65.04
  -5   2   0  723.12   39.84
   5   2   0  679.83   62.45
   5   2   0  581.07   48.53
  -5  -2   0  502.80   71.38
   5  -2   0  508.52   32.61
   5  -2   0  525.65   92.33
  -5  -2   0  514.94   46.92
  -5  -2   0  525.62   39.48
   5  -2   0  539.48   37.06
  -5   2  -1 1882.85   70.47
  -5   2  -1 1999.55   63.18
  -5   2  -1 1922.15   95.07
   5   2   1 2030.45  137.65
   5  -2   1 1944.33   61.07
   5  -2   1 2055.77   77.79
  -5  -2  -1 1975.83   86.98
   5  -2   1 2030.08   96.82
  -5  -2  -1 2041.01   90.98
  -5  -2  -1 1997.55   69.07
   5   2   2   87.27   41.28
  -5   2  -2   85.13    9.59
  -5   2  -2   99.04   47.05
   5   2   2   96.49   49.78
  -5  -2  -2   92.88   36.77
   5  -2   2   94.98   84.26
  -5  -2  -2  106.37  100.45
  -5  -2  -2   90.50   26.77
   5  -2   2   99.76   26.52
  -5   2  -3  515.83   58.94
   5   2   3  524.70   87.60
   5   2   3  454.01   58.99
   5   2   3  521.26   30.95
  -5  -2  -3  605.35  138.96
   5  -2   3  571.18   57.59
  -5  -2  -3  544.37   42.19
   5  -2   3  583.30   54.99
  -5   2  -4 3384.37  219.55
   5   2   4 3184.05  129.54
   5   2   4 3203.38  158.58
   5   2   4 3051.40  134.52
   5  -2   4 2989.67  138.42
  -5  -2  -4 2967.79  142.91
  -5  -2  -4 2976.38  162.43
   5   2   5  200.97   40.96
  -5   2  -5  219.21   45.11
   5   2   5  192.83  100.20
   5   2   5  173.42   20.42
  -5   2  -5  206.41   51.99
  -5  -2  -5  209.18   91.86
  -5  -2  -5  200.47  130.52
   5  -2   5  176.75   42.84
   5   2   6  976.56   59.47
  -5   2  -6 1018.39   80.87
   5   2   6  971.52   86.16
   5   2   6  890.49   49.94
  -5   2  -6  981.69   88.11
  -5  -2  -6  769.13   77.37
  -5  -2  -6  732.55   76.11
   5  -2   6  779.81   64.97
   5   2   7  468.92   56.42
  -5   2  -7  474.42   52.84
   5   2   7  506.51   79.80
   5   2   7  436.93   34.60
  -5   2  -7  459.60   68.08
  -5  -2  -7  499.02  147.65
  -5  -2  -7  470.08   61.11
   5  -2   7  458.52   63.15
   5   2   8  194.72   48.17
  -5   2  -8  187.96   44.36
   5   2   8  194.08   56.29
   5   2   8  181.79   59.47
   5   2   8  182.34   32.41
  -5   2  -8  202.19   64.92
  -5  -2  -8  121.64   45.79
   5  -2   8  156.00   60.64
   5   2   9  137.11   51.55
  -5   2  -9  120.88   75.07
   5   2   9  119.44   69.57
   5   2   9  107.64   81.50
  -5   2  -9  153.73  105.03
   5  -2   9  168.37   67.74
  -5  -2  -9  164.77   64.01
   5   2  10  115.51   51.53
  -5   2 -10  132.69   67.51
   5   2  10  156.14   69.71
   5   2  10  115.41   48.69
  -5   2 -10  139.37   53.94
   5  -2  10   93.83   66.29
  -5  -2 -10   94.21   69.51
   5   2  11  301.05   65.21
  -5   2 -11  304.26   76.45
   5   2  11  282.71   77.84
   5   2  11  259.29   55.13
  -5   2 -11  315.36   79.11
   5  -2  11  389.49   73.80
  -5  -2 -11  367.91   68.83
   5   2  12  268.86   52.06
   5   2  12  306.90   89.12
  -5   2 -12  284.29   74.87
  -5   2 -12  325.24   78.63
   5  -2  12  370.15   80.03
  -5  -2 -12  338.35   82.38
   5   2  13  350.54   67.32
   5   2  13  331.07   81.78
  -5   2 -13  362.16   84.96
  -5   2 -13  409.50   85.39
   5   2  14  467.71   67.91
  -5   2 -14  554.05   82.12
   5  -2  14  526.87  119.96
  -5  -2 -14  438.87   69.11
   5   2  15   16.27   34.44
   5   2  15   38.30   58.08
  -5   2 -15   43.70   66.72
  -5   2 -15   50.42   57.51
   5  -2  15   56.71   56.57
  -5  -2 -15   64.74   65.19
   5   3 -17   72.36   63.59
  -5   3  17  111.94   88.60
  -5  -3  17   51.46   77.02
  -5  -3  17   55.80   61.33
   5  -3 -17   83.10   59.47
  -5   3  16   85.20   86.18
   5   3 -16   95.54   72.64
  -5  -3  16   71.10   78.32
   5  -3 -16   49.13   58.73
   5  -3 -16   78.77   70.52
   5   3 -15    1.26   57.16
  -5   3  15   -3.83   62.53
   5  -3 -15    3.11   25.16
  -5  -3  15    9.26   31.85
   5  -3 -15   -4.14   47.24
  -5  -3  14  890.42  100.00
  -5  -3  14  844.75  149.53
   5  -3 -14  732.52  123.48
  -5   3  13   95.11   64.02
   5   3 -13  103.14   60.04
  -5  -3  13  217.39   73.01
  -5  -3  13  207.75  125.40
   5  -3 -13  211.42   57.55
   5  -3 -13  195.96  143.94
  -5   3  12  454.94   88.31
   5   3 -12  464.96   85.08
  -5  -3  12  444.12   75.98
  -5  -3  12  416.26  119.42
   5  -3 -12  419.61  155.23
   5  -3 -12  419.58  162.35
  -5   3  11  508.46   95.68
   5   3 -11  541.93   98.17
  -5  -3  11  601.25   86.03
  -5  -3  11  609.87  129.55
   5  -3 -11  577.87   79.37
   5  -3 -11  630.92   97.49
  -5   3  10  561.64   99.46
   5   3 -10  575.89  103.42
  -5  -3  10  625.82   81.50
  -5  -3  10  608.24  141.63
   5  -3 -10  662.25   90.83
   5  -3 -10  683.15   91.74
  -5   3   9 1072.03  131.84
   5   3  -9 1075.36  124.65
   5   3  -9 1081.51  131.74
  -5  -3   9  770.04  100.15
   5  -3  -9  899.15   98.13
   5  -3  -9  818.87  104.92
  -5   3   8 2757.99  163.91
   5   3  -8 2915.05  204.51
   5   3  -8 2718.88  193.64
  -5  -3   8 2606.25  154.19
   5  -3  -8 2488.73  144.01
   5  -3  -8 2505.27  165.51
  -5   3   7  209.58   57.23
   5   3  -7  217.01   56.87
   5   3  -7  197.40   46.67
  -5  -3   7  183.02   99.53
   5  -3  -7  199.65   75.07
   5  -3  -7  184.09   77.05
  -5   3   6 2193.41  136.11
   5   3  -6 2278.11  150.38
   5   3  -6 2224.67  159.97
  -5   3   6 2101.38  185.55
  -5  -3   6 2174.05  131.84
   5  -3  -6 1905.08  117.57
  -5   3   5  497.36   83.62
  -5   3   5  565.63   68.55
   5   3  -5  552.40   72.30
   5   3  -5  550.97   63.72
   5  -3  -5  442.88   63.56
  -5  -3   5  407.33   20.52
  -5  -3   5  560.94   56.12
  -5   3   4   90.94   47.84
   5   3  -4   94.33   62.89
   5   3  -4   88.69   39.58
   5   3  -4   87.24   24.92
  -5   3   4   86.12   41.80
  -5  -3   4  150.58   79.63
   5  -3  -4  115.89   39.43
  -5  -3   4  119.13   24.96
   5   3  -3 1696.57   98.22
  -5   3   3 1711.13  100.88
  -5   3   3 1566.58  115.75
   5   3  -3 1703.51  114.11
   5   3  -3 1816.94   86.25
   5  -3  -3 1891.95   82.61
   5  -3  -3 1945.56  118.78
  -5  -3   3 1992.93  109.69
   5  -3  -3 1911.84   83.05
   5   3  -2  678.57   47.30
  -5   3   2  598.09   48.66
   5   3  -2  637.49   70.25
   5   3  -2  685.80   62.18
  -5   3   2  575.98   64.81
   5  -3  -2  528.90   34.91
   5  -3  -2  625.40   60.31
  -5  -3   2  637.79   62.75
  -5  -3   2  623.14   38.68
   5   3  -1 1555.86  121.84
  -5   3   1 1498.25   75.37
   5   3  -1 1544.94  155.30
   5   3  -1 1611.23   82.74
  -5   3   1 1489.63  112.07
  -5  -3   1 1818.77  156.12
   5  -3  -1 1810.16   95.37
   5  -3  -1 1814.94  107.97
   5  -3  -1 1483.49   69.25
  -5  -3   1 1744.68   80.96
   5  -3  -1 1776.34   75.90
   5   3   0 1517.63  107.72
  -5   3   0 1508.99   72.15
  -5   3   0 1474.31  108.52
   5   3   0 1563.55   76.01
  -5  -3   0 1677.20   96.63
   5  -3   0 1678.31   95.24
   5  -3   0 1669.38  102.97
   5  -3   0 1665.03   77.98
   5  -3   0 1419.98   68.74
  -5  -3   0 1591.57   78.43
  -5  -3   0 1428.54   68.11
  -5   3  -1  686.64   68.82
   5   3   1  776.51   46.56
  -5   3  -1  666.91   40.52
   5   3   1  733.38   82.32
  -5  -3  -1  736.28   96.95
   5  -3   1  782.17  108.03
  -5  -3  -1  691.68   43.17
   5  -3   1  766.96   41.55
  -5  -3  -1  771.76   57.68
   5  -3   1  787.86   56.34
   5   3   2 1194.36   96.27
  -5   3  -2 1222.69   92.54
   5   3   2 1236.61   62.72
  -5  -3  -2 1040.10  141.51
   5  -3   2 1035.57  118.42
   5  -3   2 1058.26   74.98
  -5  -3  -2 1021.97   72.96
   5  -3   2 1072.13   47.05
  -5   3  -3  470.79   82.20
   5   3   3  460.66   70.92
   5   3   3  470.90   36.26
   5   3   3  439.63   27.80
  -5  -3  -3  558.03   90.05
   5  -3   3  527.20  101.67
  -5  -3  -3  522.16   52.03
   5  -3   3  573.29   56.27
  -5   3  -4  467.00   77.28
   5   3   4  488.01   75.04
  -5  -3  -4  511.07  105.89
  -5  -3  -4  467.38   60.75
   5  -3   4  507.68   53.56
  -5   3  -5  408.77   83.31
   5   3   5  411.32   71.13
  -5   3  -5  443.21  104.21
   5  -3   5  553.92   62.74
  -5  -3  -5  595.92  135.29
  -5  -3  -5  468.52   62.92
  -5   3  -6  590.38  100.17
   5   3   6  555.52  102.70
  -5   3  -6  547.78   83.10
   5  -3   6  492.10   90.94
  -5  -3  -6  491.76  145.59
  -5  -3  -6  431.78   72.98
  -5   3  -7  238.25   70.08
   5   3   7  246.62   72.70
  -5   3  -7  245.88   62.23
   5  -3   7  342.43   68.65
  -5  -3  -7  385.40  151.47
  -5  -3  -7  308.84   71.32
  -5   3  -8  182.25   64.80
   5   3   8  167.94  195.55
  -5   3  -8  188.54   61.03
   5  -3   8  201.12   55.97
  -5  -3  -8  221.33   76.46
  -5  -3  -8  206.07   65.06
   5   3   9  425.24   74.76
   5   3   9  391.10   78.70
  -5   3  -9  454.85   92.20
  -5   3  -9  411.39   68.13
   5  -3   9  492.71   74.99
  -5  -3  -9  478.26   84.44
   5   3  10  478.65   79.71
   5   3  10  412.40  173.93
  -5   3 -10  438.07   82.71
  -5   3 -10  470.66  128.28
   5  -3  10  503.01   89.91
  -5  -3 -10  449.34   78.24
   5   3  11    5.27   37.68
   5   3  11    5.34   26.82
  -5   3 -11    4.91   48.80
  -5   3 -11    4.34   17.93
   5  -3  11   33.89   44.25
  -5  -3 -11   21.57   53.42
   5   3  12  168.33   68.12
   5   3  12  137.26  100.56
  -5   3 -12  162.43  119.59
   5   3  13   11.18   45.24
  -5   3 -13   -0.90   34.01
  -5   3 -13   24.29   71.29
  -5  -3 -13   51.30   67.40
   5  -3  13   41.95   54.07
   5   3  14   50.90   63.25
   5   3  14   18.38   55.88
  -5   3 -14   69.97   72.47
  -5   3 -14   53.86   56.14
   5  -3  14   14.90   39.73
  -5  -3 -14   26.64   68.58
  -5   4  15   -1.02   58.19
   5   4 -15   10.89   44.99
  -5  -4  15   28.48   53.50
   5  -4 -15   38.13   58.91
   5   4 -14   23.58   60.00
  -5   4  14   24.73   89.30
  -5  -4  14   33.61   38.94
  -5  -4  14   29.90   47.33
   5  -4 -14   44.44   56.70
  -5   4  13  149.35   65.77
  -5  -4  13  154.68  126.98
  -5  -4  13  133.74   94.32
   5  -4 -13  142.90  152.87
   5   4 -12  896.56  110.58
  -5   4  12  897.27  116.00
   5  -4 -12  856.23  100.57
  -5  -4  12  997.67  150.75
  -5   4  11  133.77   74.30
   5   4 -11  140.84   57.14
  -5  -4  11  137.56  131.17
  -5  -4  11  150.92   94.63
   5  -4 -11  138.36  127.54
   5  -4 -11  147.01  107.82
  -5   4  10  993.94  119.89
   5   4 -10 1011.57  116.84
  -5  -4  10  960.22  138.29
  -5  -4  10  874.26  165.32
   5  -4 -10  987.32  115.71
   5  -4 -10 1031.68  126.82
  -5   4   9  387.82   85.97
   5   4  -9  411.53   92.30
  -5  -4   9  249.38   90.33
  -5  -4   9  222.16  174.79
   5  -4  -9  228.12   90.30
   5  -4  -9  231.57  136.04
  -5   4   8    5.58   50.29
   5   4  -8   16.92   45.84
   5   4  -8    4.31   52.66
  -5  -4   8    2.38   24.20
   5  -4  -8   16.08   31.12
   5  -4  -8    3.88   33.26
  -5   4   7  578.97   99.43
   5   4  -7  570.28   95.93
   5   4  -7  566.39   93.39
  -5  -4   7  471.28  105.00
   5  -4  -7  391.41  118.03
   5  -4  -7  396.12   73.99
  -5   4   6  440.18   75.73
   5   4  -6  472.32   85.45
   5   4  -6  476.17   67.16
  -5  -4   6  537.41  104.51
   5  -4  -6  429.61   64.46
   5  -4  -6  444.16   83.02
  -5   4   5  693.91   94.62
   5   4  -5  689.45  103.32
   5   4  -5  696.86   91.41
  -5   4   5  659.59  106.73
  -5  -4   5  779.12   87.61
   5  -4  -5  733.82   97.10
  -5   4   4  759.30   87.60
   5   4  -4  699.48  108.80
   5   4  -4  716.46   96.78
  -5   4   4  687.93  110.81
  -5  -4   4  720.72  158.47
   5  -4  -4  713.90   93.57
   5   4  -3  128.98   66.38
  -5   4   3  144.18   50.10
   5   4  -3  153.02   45.92
  -5   4   3   95.80   56.19
  -5  -4   3  124.37   82.12
   5  -4  -3  124.06   21.53
  -5  -4   3  126.58   30.28
   5  -4  -3  113.76  102.06
   5   4  -2 1453.36  163.73
  -5   4   2 1477.46  124.41
   5   4  -2 1485.38  120.19
  -5   4   2 1285.80  151.32
  -5  -4   2 1342.37  123.69
   5  -4  -2 1331.94  108.75
  -5  -4   2 1274.33   95.56
   5  -4  -2 1284.93  119.88
   5   4  -1  657.96  123.33
  -5   4   1  637.80   77.78
   5   4  -1  660.88   81.33
  -5   4   1  553.78  112.62
  -5  -4   1  542.76  111.15
   5  -4  -1  507.20   85.40
  -5  -4   1  485.68   69.92
   5  -4  -1  488.51  131.42
   5   4   0  329.03   81.80
  -5   4   0  341.23   48.62
   5   4   0  331.83   47.87
  -5   4   0  343.19  160.14
  -5  -4   0  336.46  109.25
   5  -4   0  299.67   45.37
  -5  -4   0  293.62   42.84
   5  -4   0  274.89   82.03
  -5   4  -1  614.06  104.63
   5   4   1  680.82   76.48
   5   4   1  715.37  131.52
   5  -4   1  802.37  109.42
   5  -4   1  824.15   78.40
  -5  -4  -1  787.46   73.78
  -5  -4  -1  883.26  117.45
   5   4   2  421.71   95.63
  -5   4  -2  389.97   86.60
  -5  -4  -2  398.61  141.60
   5  -4   2  341.22   57.64
   5  -4   2  342.54  142.18
  -5  -4  -2  363.43   55.51
   5   4   3  596.28  107.79
  -5   4  -3  556.82  113.54
  -5  -4  -3  765.64  147.75
   5  -4   3  721.12  125.13
   5  -4   3  655.73  141.47
  -5  -4  -3  683.87   90.94
   5   4   4  478.98  103.60
  -5   4  -4  509.72   90.29
  -5  -4  -4  439.62   93.50
   5  -4   4  420.57   61.47
   5  -4   4  357.20  154.53
  -5  -4  -4  380.16   60.28
  -5   4  -5   28.82   55.74
   5   4   5   38.54   52.96
  -5   4  -5   43.76   40.44
   5  -4   5   22.34   30.03
  -5  -4  -5   26.65   21.09
  -5  -4  -5   26.48   41.56
  -5   4  -6  602.59   89.57
   5   4   6  581.70   94.87
  -5   4  -6  629.09  128.78
   5  -4   6  677.60   92.60
  -5  -4  -6  701.25  104.98
  -5  -4  -6  663.99   86.55
  -5   4  -7   28.17   44.27
   5   4   7   31.94   42.53
  -5   4  -7   25.36   45.93
   5  -4   7   51.37   38.32
  -5  -4  -7   36.84   36.52
  -5  -4  -7   37.24   41.98
  -5   4  -8  335.28   84.59
   5   4   8  281.02   74.99
  -5   4  -8  309.38   76.83
   5  -4   8  278.60   84.02
  -5  -4  -8  315.18  111.08
  -5  -4  -8  257.28   59.40
  -5   4  -9  284.35   87.86
   5   4   9  208.05   86.43
  -5   4  -9  216.87  102.13
   5  -4   9  208.76   59.37
  -5  -4  -9  201.09  153.92
  -5  -4  -9  194.41   52.80
  -5   4 -10   37.22   42.37
   5   4  10   14.51   47.24
  -5  -4 -10   21.24   54.21
   5  -4  10   27.32   61.64
   5   4  11   96.59   52.91
  -5   4 -11  122.83   76.25
  -5   4 -11  114.12   61.71
  -5  -4 -11  134.40   93.65
  -5  -4 -11  141.35   83.25
   5   4  12   25.30   46.20
  -5   4 -12   24.09   49.08
  -5   4 -12   21.25   34.03
   5  -4  12   20.05   38.57
  -5  -4 -12    3.07   44.49
   5   4  13    9.14   50.11
   5   4  13    4.61   39.26
  -5   4 -13   -1.49   51.71
   5  -4  13    0.27   42.65
  -5  -4 -13   25.44   61.56
  -5   5  12   56.38   59.46
   5   5 -12   28.13   67.35
  -5  -5  12   29.01   51.95
   5  -5 -12   38.59   57.89
  -5   5  11  105.01   70.51
  -5  -5  11   53.08   58.18
  -5  -5  11   44.28   57.58
   5  -5 -11   52.67   66.23
   5   5 -10   38.16   56.33
  -5   5  10   22.86   47.73
  -5  -5  10   20.00   43.37
  -5  -5  10   14.45   23.11
   5  -5 -10   26.11   46.14
   5   5  -9   13.25   45.71
  -5   5   9    3.42   44.40
  -5  -5   9   12.70   32.49
  -5  -5   9   20.79   37.83
   5   5  -8  103.12   68.57
  -5   5   8  124.81   65.51
   5  -5  -8  122.84  135.55
  -5  -5   8  152.30  152.68
   5  -5  -8  149.87  144.42
  -5   5   7   36.03   36.30
   5   5  -7   22.44   44.72
   5   5  -7   45.00   53.55
  -5  -5   7   52.26   50.81
   5  -5  -7   38.79   44.76
   5  -5  -7   43.87   51.08
  -5   5   6  176.11   71.75
   5   5  -6  170.15   79.21
   5   5  -6  171.22   58.72
  -5  -5   6  255.51  193.53
   5  -5  -6  200.40   90.41
   5  -5  -6  235.61  155.90
  -5   5   5  321.03   66.62
   5   5  -5  353.27   87.88
   5   5  -5  333.63   62.69
  -5  -5   5  273.40  191.92
   5  -5  -5  235.45  134.81
   5  -5  -5  241.64  129.28
  -5   5   4  106.47   56.10
   5   5  -4  123.37   79.33
   5   5  -4  103.40   53.33
  -5  -5   4   67.96   57.67
   5  -5  -4   58.52   55.14
   5  -5  -4   60.83   70.35
  -5   5   3  283.49   71.24
   5   5  -3  298.70  110.23
   5   5  -3  242.10   50.33
  -5   5   3  249.82  207.60
  -5  -5   3  169.02   58.87
   5  -5  -3  158.87   98.27
  -5   5   2   50.13   42.44
   5   5  -2   53.74   38.83
   5   5  -2   40.02   24.60
  -5   5   2   47.58   65.71
  -5  -5   2   70.84   68.67
   5  -5  -2   65.65   68.18
  -5   5   1  108.66   33.52
   5   5  -1  128.58   60.02
  -5   5   1  109.72   95.04
  -5  -5   1  215.96  109.18
   5  -5  -1  204.92  134.30
  -5   5   0  397.46  164.80
   5   5   0  441.49  101.67
  -5  -5   0  314.53  215.21
   5  -5   0  304.43  132.22
   5  -5   0  326.68   63.42
   5   5   1  223.17   85.07
  -5   5  -1  216.72   84.24
  -5  -5  -1  210.16  137.05
   5  -5   1  203.37   76.56
   5  -5   1  193.26  122.58
  -5  -5  -1  197.60   87.44
   5   5   2  211.84   88.07
  -5   5  -2  173.51  153.97
  -5  -5  -2  183.88  161.04
   5  -5   2  159.72   61.45
   5  -5   2  170.77  151.74
  -5  -5  -2  162.22   41.98
   5   5   3   29.08   68.47
  -5   5  -3   13.31   36.97
  -5  -5  -3   59.60   56.21
   5  -5   3   49.75   48.42
   5  -5   3   37.26   45.64
  -5  -5  -3   42.39   27.81
   5   5   4  150.41   71.23
  -5   5  -4  114.50   75.12
  -5  -5  -4  166.40  162.07
   5  -5   4  152.32   65.23
   5  -5   4  133.12   98.26
  -5  -5  -4  157.54   50.82
   5   5   5  226.05   68.77
  -5   5  -5  187.72  159.64
  -5  -5  -5  296.07  262.95
   5  -5   5  322.36   73.04
   5  -5   5  251.49  129.81
  -5  -5  -5  307.79   65.46
  -5   5  -6   83.67   64.24
   5   5   6   68.34   45.23
  -5  -5  -6   85.90   52.21
   5  -5   6   77.73   72.30
  -5   5  -7   67.90   86.93
   5   5   7  118.78   59.79
  -5  -5  -7   71.30   64.49
  -5  -5  -7   46.71   43.95
   5  -5   7   59.05   60.82
  -5   5  -8   76.04   93.42
  -5   5  -8  104.80   62.71
  -5  -5  -8   98.65   65.59
  -5  -5  -8   98.30   59.47
   5  -5   8  103.34   55.80
  -5   5  -9    4.89   43.10
  -5  -5  -9   15.19   27.92
  -5   5 -10    9.18   46.34
   5   5  10    2.61   38.41
   5  -5  10    6.84   33.24
  -5  -5 -10   15.84   23.85
  -5  -5 -10    7.59   36.30
   5   6  -8   46.63   60.77
  -5  -6   8   48.28   62.38
  -5  -6   8   30.79   53.41
   5  -6  -8   45.18   55.57
  -5   6   7  191.50   55.04
   5   6  -7  228.29   86.28
   5   6  -7  175.36   63.74
   5  -6  -7  100.58  157.96
  -5   6   6    0.26   49.88
   5   6  -6    9.49   45.04
  -5   6   5   75.65   53.98
   5   6  -5   85.52   70.32
   5  -6  -5   41.58   68.66
  -5   6   4  210.45   68.77
   5   6  -4  201.47   70.93
   5  -6  -4  227.91  119.57
   5   6  -3   38.71   43.86
   5  -6  -3   54.33   62.66
   5  -6  -3   56.55   61.46
   5   6  -2   44.39   69.02
   5  -6  -2   34.93   38.79
   5  -6  -2   33.48   30.39
   5   6  -1  114.23  102.30
  -5  -6   1   46.05   63.82
   5  -6  -1   54.72   59.75
   5  -6  -1   37.48   59.77
  -5  -6   0   -4.59   49.13
   5  -6   0    7.59   20.54
  -5   6  -1  127.23   74.58
  -5  -6  -1  173.79  164.12
   5  -6   1  148.01  170.36
  -5   6  -2   38.37   36.34
  -5  -6  -2   31.72   62.16
   5  -6   2   23.89   38.04
  -5   6  -3  112.27  155.42
   5   6   3  159.24   69.46
   5  -6   3  140.30  158.39
  -5  -6  -3  156.91  165.04
   5   6   4   54.57   64.95
  -5  -6  -4   63.28   67.72
   5  -6   4   59.64   75.52
   5   6   5   39.51   59.13
  -5  -6  -5   23.34   43.69
   5  -6   5   17.92   39.09
   5  -6   5   13.28   40.46
   5   6   6   47.47   82.15
  -5  -6  -6   37.83   48.13
   5  -6   6   59.73   56.94
   5  -6   6   23.38   59.25
  -6   0  18   -2.43   38.97
   6   0 -18    2.62   24.83
   6   0 -18   -4.31   43.13
  -6   0  17  399.00  270.50
   6   0 -17  401.55   97.54
   6   0 -17  439.86   99.88
  -6   0  16  691.43   89.40
   6   0 -16  657.64  108.24
   6   0 -16  688.67   94.16
  -6   0  15 1382.84  148.41
  -6   0  15 1474.77  222.07
   6   0 -15 1561.15  165.42
   6   0 -15 1514.56  164.68
  -6   0  14 1547.12  184.63
  -6   0  14 1619.06  177.75
   6   0 -14 1564.36  200.72
   6   0 -14 1629.89  202.56
  -6   0  13   11.34   50.44
  -6   0  13   -0.43   23.81
   6   0 -13   22.42   53.38
   6   0 -13    2.55   17.61
  -6   0  12 1122.52  232.92
  -6   0  12 1006.75  134.98
   6   0 -12 1016.91  130.63
   6   0 -12 1028.03  133.17
  -6   0  11 3236.51  213.88
  -6   0  11 3050.45  166.17
   6   0 -11 2968.14  238.69
   6   0 -11 3147.98  176.85
  -6   0  10  561.53  111.08
  -6   0  10  467.11   99.44
   6   0 -10  549.45  192.76
   6   0 -10  536.49   70.99
  -6   0   9 4948.56  257.39
  -6   0   9 4499.13  204.32
   6   0  -9 4637.02  243.62
   6   0  -9 4508.40  250.61
  -6   0   8  203.19  111.34
   6   0  -8  213.46  100.38
  -6   0   8  156.80   37.50
  -6   0   7 4728.19  228.09
   6   0  -7 4376.13  181.93
   6   0  -7 4670.69  212.55
  -6   0   7 4304.43  192.89
  -6   0   610148.31  408.65
  -6   0   6 8915.15  247.02
   6   0  -6 9296.30  261.46
   6   0  -6 9830.73  400.08
  -6   0   6 8927.58  273.93
  -6   0   5   44.73   40.26
  -6   0   5   26.16   19.33
   6   0  -5   15.00   20.80
   6   0  -5   35.57   46.54
  -6   0   5   44.54   34.66
  -6   0   412360.92  305.02
   6   0  -412636.22  344.69
  -6   0   412493.44  323.80
  -6   0   3 1670.17   69.14
  -6   0   3 1699.13   63.25
   6   0  -3 1809.45   78.82
   6   0  -3 1813.63   84.12
  -6   0   3 1728.16   85.76
  -6   0   2 2654.56   89.43
   6   0  -2 2882.31  101.93
   6   0  -2 2740.14   98.78
  -6   0   2 2871.95  116.97
  -6   0   1 6933.41  206.51
   6   0  -1 6926.01  184.63
   6   0  -1 7084.49  213.67
  -6   0   1 6714.37  188.18
  -6   0   0 2788.72  107.11
   6   0   0 2558.81   88.83
   6   0   0 2618.73   97.56
  -6   0   0 2507.04   89.55
  -6   0  -1 6751.22  175.78
   6   0   1 6815.53  187.21
   6   0   1 6746.99  187.15
  -6   0  -1 6785.03  218.70
  -6   0  -2 4901.44  147.08
   6   0   2 5127.41  162.29
   6   0   2 5123.36  160.50
  -6   0  -2 4992.48  165.09
  -6   0  -3   14.75   12.41
  -6   0  -3    9.72   21.14
   6   0   3   -4.24   29.85
   6   0   3    4.22   23.59
  -6   0  -3   13.60   35.81
  -6   0  -4 4755.84  208.35
  -6   0  -4 4498.47  184.33
   6   0   4 4507.16  194.85
   6   0   4 4433.68  197.68
  -6   0  -4 4552.39  240.80
  -6   0  -5 4399.78  180.62
   6   0   5 4316.71  190.07
   6   0   5 4248.18  201.10
  -6   0  -5 4258.42  193.65
  -6   0  -6  133.08   42.47
   6   0   6  119.18   48.63
   6   0   6  119.99   88.45
  -6   0  -6  125.84   39.83
  -6   0  -7  822.94   64.28
   6   0   7  744.80   76.90
   6   0   7  786.80  111.31
  -6   0  -7  790.06   81.44
  -6   0  -8    9.76   17.65
   6   0   8   11.71   54.24
   6   0   8   16.22   35.31
  -6   0  -8   23.41   47.61
  -6   0  -9    6.83   21.60
   6   0   9    5.02   39.09
  -6   0  -9    2.79   31.24
  -6   0  -9   20.48   43.43
   6   0  10   25.34   48.15
  -6   0 -10   47.87   58.03
  -6   0 -10   12.93   39.32
  -6   0 -11    9.29   16.77
   6   0  11   -4.68   31.90
  -6   0 -11   10.35   35.22
  -6   0 -11   -5.13   36.11
   6   0  12 1141.34  131.45
  -6   0 -12 1247.29  126.94
  -6   0 -12 1180.78  148.50
  -6   0 -13   89.57   50.50
  -6   0 -13   97.49   58.26
   6   0  14    4.87   40.83
  -6   0 -14    2.54   28.72
   6   0  15    4.27   40.96
  -6   0 -15   -4.11   32.88
  -6   0 -15    9.32   34.58
  -6   1  18  342.15  386.24
   6   1 -18  570.82  101.94
  -6  -1  18  450.74  195.85
  -6  -1  18  518.57  125.22
   6  -1 -18  419.45  248.17
   6  -1 -18  551.83   84.95
   6   1 -17    7.76   53.95
  -6   1  17   -7.70   63.13
  -6  -1  17   19.20   38.81
  -6  -1  17   29.48   53.85
   6  -1 -17   20.12   41.22
  -6   1  16  262.52  106.68
   6   1 -16  321.37   67.35
   6  -1 -16  280.04   82.24
   6  -1 -16  302.95   79.50
  -6  -1  16  281.66   83.32
   6   1 -15  268.32   73.25
  -6   1  15  265.00  209.15
   6   1 -15  296.91   97.08
  -6  -1  15  439.40  119.55
   6  -1 -15  398.49   90.26
   6  -1 -15  430.11  153.71
  -6  -1  15  374.08  249.68
  -6   1  14    3.76   13.21
  -6   1  14    8.58   20.26
   6   1 -14   -5.79   48.99
   6   1 -14    3.95   34.04
  -6  -1  14    5.57   46.55
  -6  -1  14   -1.02   19.43
   6  -1 -14    7.61   28.00
   6  -1 -14    4.87   44.61
  -6   1  13 2215.54  191.92
  -6   1  13 2219.66  232.19
   6   1 -13 2402.33  306.87
   6   1 -13 2450.43  233.69
  -6  -1  13 2553.53  235.88
  -6  -1  13 2461.49  241.16
   6  -1 -13 2335.88  242.27
   6  -1 -13 2324.33  226.24
  -6   1  12  490.17   56.47
  -6   1  12  492.00  109.07
   6   1 -12  548.86   86.09
   6   1 -12  587.04   91.69
  -6  -1  12  730.58  170.81
  -6  -1  12  692.92  104.29
   6  -1 -12  636.54   89.99
   6  -1 -12  628.38   97.05
  -6   1  11  960.20   90.38
  -6   1  11  923.01  123.26
   6   1 -11 1088.52  112.57
   6   1 -11 1129.76  100.77
  -6  -1  11 1050.18  167.91
  -6  -1  11  950.32  125.91
   6  -1 -11  971.52  145.36
   6  -1 -11  989.28  107.77
   6   1 -10 1169.81  112.25
  -6   1  10 1038.36  141.91
   6   1 -10 1226.66  126.86
  -6   1  10 1123.65   77.78
  -6   1  10 1283.43   72.04
   6  -1 -10 1456.66  134.62
  -6  -1  10 1553.21  121.50
   6  -1 -10 1414.76  172.99
  -6  -1  10 1514.74   98.80
   6   1  -9  212.33   96.05
  -6   1   9  192.74  135.32
  -6   1   9  214.68   42.27
  -6   1   9  209.38   47.68
   6   1  -9  228.94   67.53
   6  -1  -9  279.59   62.73
  -6  -1   9  319.63   83.55
   6  -1  -9  278.14  125.24
   6   1  -8 3294.21  177.13
  -6   1   8 2940.94  177.35
  -6   1   8 3196.42  139.99
  -6   1   8 3446.69  147.05
   6   1  -8 3575.10  174.70
  -6   1   8 3313.71  204.89
  -6  -1   8 3389.44  169.86
  -6  -1   8 2876.47  147.25
   6  -1  -8 3468.73  180.52
   6   1  -7 3167.76  160.11
  -6   1   7 2704.30  141.44
  -6   1   7 3190.69  133.47
  -6   1   7 3119.15  125.55
   6   1  -7 3442.68  160.14
  -6   1   7 3119.55  182.84
  -6  -1   7 3186.51  152.98
  -6  -1   7 2950.96  141.53
   6  -1  -7 3226.11  167.52
   6   1  -6 1246.23  144.48
  -6   1   6  938.76   71.78
  -6   1   6 1098.33   52.60
   6   1  -6 1272.73   97.10
  -6   1   6 1202.91   88.76
   6  -1  -6  925.85   45.87
  -6  -1   6  891.81   71.62
  -6  -1   6 1009.94   66.92
   6  -1  -6 1044.44   85.57
   6   1  -5 6659.01  219.92
  -6   1   5 5728.46  200.76
  -6   1   5 5654.77  154.69
   6   1  -5 6756.93  212.86
  -6   1   5 6647.73  220.28
   6  -1  -5 5818.22  162.13
  -6  -1   5 5232.85  191.61
  -6  -1   5 5654.32  172.02
   6  -1  -5 5494.20  186.81
   6   1  -4 1423.92   84.23
  -6   1   4 1323.28   87.43
  -6   1   4 1213.01   44.03
   6   1  -4 1365.74   72.99
  -6   1   4 1426.49  132.00
   6  -1  -4 1509.40   55.76
  -6  -1   4 1529.45  104.36
  -6  -1   4 1557.46   72.19
   6  -1  -4 1407.97   79.41
   6   1  -3 1586.82  106.22
  -6   1   3 1315.27   70.78
  -6   1   3 1284.77   47.84
   6   1  -3 1421.93   73.70
  -6   1   3 1455.68   78.39
   6  -1  -3 1250.79   52.34
  -6  -1   3 1215.33   63.45
  -6  -1   3 1299.00   84.81
   6  -1  -3 1202.62   68.76
   6   1  -2 7625.21  213.04
  -6   1   2 6922.00  189.95
  -6   1   2 6633.22  167.40
   6   1  -2 7054.39  200.41
  -6   1   2 7506.66  221.07
   6  -1  -2 6286.23  172.40
  -6  -1   2 6847.80  189.89
  -6  -1   2 6929.05  190.42
   6  -1  -2 6622.52  219.34
  -6   1   1   44.32   39.48
   6   1  -1   73.30   59.60
  -6   1   1   59.45   49.59
  -6   1   1   69.73   55.57
   6   1  -1   59.49   39.72
   6  -1  -1   57.00   19.61
  -6  -1   1   53.66   54.26
   6  -1  -1   50.01   31.49
  -6  -1   1   76.44   68.42
   6  -1  -1   45.41   38.46
   6   1   0 9754.93  379.66
   6   1   0 9458.38  273.54
  -6   1   0 9510.77  397.42
   6  -1   0 8932.73  241.79
  -6  -1   0 9914.18  403.25
   6  -1   010094.57  398.78
   6   1   1 5826.83  177.47
   6   1   1 5512.24  218.86
  -6   1  -1 5371.53  158.71
  -6   1  -1 5350.85  213.86
   6  -1   1 5266.20  161.70
  -6  -1  -1 5041.85  156.05
   6  -1   1 4749.12  141.83
  -6  -1  -1 5190.07  163.04
   6  -1   1 5305.46  207.67
   6   1   2  149.18   32.25
   6   1   2  165.38   40.65
  -6   1  -2  144.49   36.97
  -6   1  -2  176.61   62.52
   6  -1   2  306.23   46.74
  -6  -1  -2  298.22   93.28
   6  -1   2  264.62   30.33
  -6  -1  -2  291.66   39.79
   6  -1   2  283.42   63.25
   6   1   3 6802.52  217.21
  -6   1  -3 6527.17  180.00
   6   1   3 6806.06  200.96
  -6   1  -3 6620.35  213.19
  -6  -1  -3 5887.31  204.25
   6  -1   3 6064.96  187.09
  -6  -1  -3 6028.66  204.98
   6  -1   3 5954.62  214.65
   6   1   4 1960.88  103.56
  -6   1  -4 2038.09   92.83
  -6   1  -4 1897.96   81.46
   6   1   4 1907.57  107.94
  -6   1  -4 1915.90  107.55
   6  -1   4 2046.60  107.88
  -6  -1  -4 2143.24  117.10
  -6  -1  -4 2019.83  109.44
   6  -1   4 2032.34  131.90
   6   1   5  881.44   84.43
  -6   1  -5  936.14   55.55
  -6   1  -5  900.34   48.08
   6   1   5  916.39   89.02
  -6   1  -5  897.31   68.53
   6  -1   5  865.76   75.26
  -6  -1  -5  921.36   79.59
  -6  -1  -5  858.01  106.24
   6  -1   5  867.86  122.62
   6   1   6 1612.21  137.18
  -6   1  -6 1741.36   94.15
  -6   1  -6 1762.86   89.75
   6   1   6 1593.57  112.49
  -6   1  -6 1619.60  105.83
   6  -1   6 1473.37  111.92
  -6  -1  -6 1539.60  128.10
  -6  -1  -6 1551.02  134.09
   6  -1   6 1434.74  127.80
  -6   1  -7  482.61   65.24
  -6   1  -7  517.02   40.91
  -6   1  -7  514.60   36.45
   6   1   7  493.26   74.81
   6   1   7  448.70   54.61
  -6   1  -7  502.04   60.60
   6  -1   7  502.83   83.04
  -6  -1  -7  527.41   88.30
  -6  -1  -7  540.40   73.00
   6   1   8 1192.71  106.53
  -6   1  -8 1353.97   81.05
  -6   1  -8 1233.05  103.55
   6   1   8 1175.42  134.05
  -6   1  -8 1223.75  110.85
  -6  -1  -8 1603.59  117.59
   6  -1   8 1521.81  113.81
  -6  -1  -8 1452.83  110.26
   6   1   9  884.85  108.64
  -6   1  -9 1138.84   96.76
  -6   1  -9 1004.40  121.04
   6   1   9  891.54  116.42
  -6   1  -9  987.37  110.70
  -6  -1  -9 1065.57  192.33
   6  -1   9 1065.67  119.28
  -6  -1  -9 1019.71  110.54
   6   1  10  403.63   93.72
  -6   1 -10  459.11   66.15
  -6   1 -10  431.30   87.41
   6   1  10  358.89   83.33
  -6   1 -10  452.40   89.40
  -6  -1 -10  400.31   88.64
   6  -1  10  411.43   80.62
  -6  -1 -10  359.39   67.29
  -6   1 -11  482.60   78.92
   6   1  11  458.09   94.89
   6   1  11  473.78  108.58
  -6   1 -11  541.12  182.97
   6  -1  11  404.91   81.47
  -6  -1 -11  397.41   69.35
   6   1  12   42.98   53.09
  -6   1 -12   55.69   60.81
   6   1  12   31.82   55.87
   6   1  12    5.90   23.50
  -6   1 -12   48.30   45.18
   6  -1  12   32.56   39.68
  -6  -1 -12   39.56   55.21
   6   1  13   36.18   44.47
   6   1  13    9.99   19.45
  -6   1 -13   40.68   52.17
  -6   1 -13   38.71   63.71
   6   1  14  189.78   50.08
   6   1  14  207.15   78.70
  -6   1 -14  217.51   69.37
   6  -1  14  229.19   89.49
  -6  -1 -14  202.14   89.10
  -6   1 -15   46.98   50.70
   6   1  15   57.05   56.43
  -6  -1 -15   29.12   40.41
   6  -1  15   43.60   57.13
  -6   2  17  396.22  122.90
   6   2 -17  395.07  125.05
  -6  -2  17  546.59  144.98
   6  -2 -17  526.40  209.69
  -6   2  16  296.71  100.70
   6   2 -16  269.56   99.95
  -6  -2  16  268.83  219.21
   6  -2 -16  261.23  146.19
  -6  -2  15  380.25  170.52
  -6  -2  15  369.62  167.02
   6  -2 -15  294.74  174.79
   6  -2 -15  394.21  172.21
  -6   2  14 1207.03  199.04
   6   2 -14 1247.13  243.76
  -6  -2  14 1475.58  202.03
  -6  -2  14 1391.86  234.10
   6  -2 -14 1244.49  174.48
   6  -2 -14 1390.88  201.59
  -6   2  13  114.17  159.54
   6   2 -13  107.14   63.27
  -6  -2  13  153.65   59.97
  -6  -2  13  142.21   86.78
   6  -2 -13  118.47  116.80
   6  -2 -13  143.07  116.21
   6   2 -12  545.94   65.10
  -6   2  12  521.97  107.67
   6   2 -12  592.25  108.79
  -6  -2  12  649.79  123.36
   6  -2 -12  648.86   90.95
   6  -2 -12  647.28   96.73
  -6  -2  12  721.23   97.19
   6   2 -11 1087.73  109.21
  -6   2  11  998.33  122.38
   6   2 -11 1060.11  132.42
  -6  -2  11 1227.71  173.76
   6  -2 -11 1279.95  148.77
   6  -2 -11 1287.48  138.71
  -6  -2  11 1290.84  134.41
   6   2 -10   41.50   30.99
  -6   2  10   50.80   77.04
   6   2 -10   38.74   78.40
  -6  -2  10   27.77   40.35
   6  -2 -10   31.91   52.10
   6  -2 -10   33.13   47.89
  -6  -2  10   57.92   52.86
   6   2  -9 3267.92  161.98
  -6   2   9 3100.90  194.03
   6   2  -9 3663.14  203.22
   6   2  -9 3164.65  213.14
   6  -2  -9 3538.39  258.56
   6  -2  -9 3395.81  198.15
  -6  -2   9 3320.87  180.60
   6   2  -8  100.80   42.23
  -6   2   8  106.68   50.94
   6   2  -8  117.31   57.99
   6   2  -8  119.04   50.25
   6   2  -8   95.42   66.25
  -6   2   8   91.79   45.54
   6  -2  -8  243.41   69.49
  -6  -2   8  243.14  106.69
  -6   2   7 2999.57  167.10
  -6   2   7 2890.92  157.04
   6   2  -7 3304.01  174.69
   6   2  -7 2997.29  170.30
   6   2  -7 3134.33  149.37
   6  -2  -7 2779.82  148.81
  -6  -2   7 2647.82  142.11
  -6  -2   7 2486.60  117.14
  -6   2   6 3703.86  203.95
  -6   2   6 3461.18  244.87
   6   2  -6 3838.84  192.77
   6   2  -6 3506.79  179.28
   6   2  -6 3631.98  163.45
   6  -2  -6 3528.05  178.49
  -6  -2   6 3666.79  181.52
  -6  -2   6 3428.22  152.43
  -6   2   5  228.58   47.32
   6   2  -5  239.37   60.40
   6   2  -5  232.58   46.68
   6   2  -5  244.01   26.27
  -6   2   5  262.22  131.88
  -6  -2   5  245.07   80.03
   6  -2  -5  193.77   88.86
  -6  -2   5  227.18   38.16
   6   2  -4 2738.58  122.19
  -6   2   4 2707.03  130.89
   6   2  -4 2928.12  150.11
   6   2  -4 2617.78  158.27
  -6   2   4 2866.59  145.59
   6  -2  -4 3210.42  121.58
   6  -2  -4 3154.77  151.56
  -6  -2   4 3443.73  159.64
  -6  -2   4 3242.76  137.64
   6   2  -3 3016.36  127.52
  -6   2   3 3032.10  149.51
  -6   2   3 3046.39  151.68
   6   2  -3 3188.42  156.11
   6   2  -3 2856.14  165.64
   6  -2  -3 3019.25  145.69
  -6  -2   3 3141.29  162.29
  -6  -2   3 3231.34  137.71
   6  -2  -3 3030.01  122.42
   6   2  -2 1335.78   78.73
  -6   2   2 1483.10   77.33
  -6   2   2 1389.47   65.92
   6   2  -2 1506.96   97.93
  -6   2   2 1532.08  161.31
   6  -2  -2 1562.88   69.10
  -6  -2   2 1490.34   89.84
  -6  -2   2 1572.23   90.52
   6  -2  -2 1588.80   97.94
  -6   2   1 5018.52  197.02
   6   2  -1 4636.63  205.13
  -6   2   1 5372.28  214.13
  -6   2   1 5319.30  237.83
   6   2  -1 5464.41  237.20
   6  -2  -1 4995.12  195.90
  -6  -2   1 4746.15  202.95
   6  -2  -1 4935.29  192.85
  -6  -2   1 4827.16  209.31
   6  -2  -1 4997.51  217.64
  -6   2   0  985.72   84.59
   6   2   0 1067.78   80.98
  -6   2   0 1134.75   59.48
  -6   2   0 1051.85   78.07
   6   2   0 1136.95   89.07
   6  -2   0  901.17   57.96
  -6  -2   0  817.75   69.07
   6  -2   0  861.00   47.19
  -6  -2   0  859.54   83.02
   6  -2   0  905.14  112.72
   6   2   1 2125.80  104.92
   6   2   1 2410.73  138.99
  -6   2  -1 2339.07  105.50
  -6   2  -1 2323.63  141.44
   6  -2   1 2203.44  114.84
   6  -2   1 2035.69   82.32
  -6  -2  -1 2120.01  112.49
  -6  -2  -1 2149.13  105.30
   6  -2   1 2179.33  122.52
  -6   2  -2 7376.94  307.89
   6   2   2 6920.93  302.44
   6   2   2 6390.91  260.44
  -6  -2  -2 6579.35  274.71
  -6  -2  -2 6248.89  249.63
   6  -2   2 6799.43  284.63
  -6  -2  -2 6682.52  292.03
   6  -2   2 6969.69  278.15
  -6   2  -3  595.55  100.55
   6   2   3  566.73   41.39
   6   2   3  596.02   81.03
   6  -2   3  528.93   83.20
   6  -2   3  573.48   65.35
  -6  -2  -3  575.15   55.42
  -6  -2  -3  556.03  135.65
  -6   2  -4 1384.16   93.38
   6   2   4 1413.34  112.15
   6   2   4 1315.03   81.72
   6   2   4 1280.16   69.84
  -6  -2  -4 1906.50  169.96
   6  -2   4 1856.45  143.38
  -6  -2  -4 1845.82  108.56
   6  -2   4 1902.77  114.73
  -6   2  -5 1149.31   96.26
   6   2   5 1137.53  106.06
   6   2   5 1200.73   79.45
   6   2   5 1096.35   66.40
  -6  -2  -5 1018.83   80.93
   6  -2   5  930.88  143.24
  -6  -2  -5  980.61  104.18
   6  -2   5  993.34   84.21
  -6   2  -6  219.73   80.09
   6   2   6  183.86   26.28
   6   2   6  209.64  113.33
   6   2   6  223.71   66.38
   6  -2   6  247.34   43.51
  -6  -2  -6  289.20  102.75
  -6  -2  -6  299.43   67.67
  -6   2  -7 2908.84  232.38
  -6   2  -7 3052.72  244.69
   6   2   7 2960.01  240.36
   6   2   7 2904.39  213.40
   6  -2   7 2703.48  211.58
  -6  -2  -7 2597.66  211.19
  -6  -2  -7 2775.18  288.87
  -6   2  -8   54.36   47.10
  -6   2  -8   12.12   47.97
   6   2   8   40.59   60.36
   6   2   8   42.49   38.19
   6  -2   8   20.42   33.14
  -6  -2  -8   26.24   43.00
  -6  -2  -8   28.43   38.83
  -6   2  -9  420.55  135.40
  -6   2  -9  402.74   86.88
   6   2   9  413.25   87.37
   6   2   9  419.86   77.86
   6  -2   9  384.71   81.67
  -6  -2  -9  337.37  106.01
  -6  -2  -9  373.10  121.50
  -6   2 -10  493.32   86.67
  -6   2 -10  508.51   94.92
   6   2  10  458.11   85.09
   6   2  10  462.14   82.85
   6  -2  10  453.96   86.51
  -6  -2 -10  455.91   85.73
  -6  -2 -10  472.39  214.44
  -6   2 -11  197.78   66.78
   6   2  11  192.99   68.61
  -6   2 -11  214.37  129.57
   6  -2  11  205.51   66.45
  -6  -2 -11  205.65  152.35
  -6  -2 -11  214.58   63.15
  -6   2 -12  142.86   47.18
   6   2  12  136.53   56.08
  -6   2 -12  151.94   66.66
   6  -2  12  135.32   63.77
   6   2  13  143.85   57.24
  -6   2 -13  151.98   58.07
   6   2  13  116.67   68.23
  -6  -2 -13   80.88  101.85
   6  -2  13  109.12   68.23
   6   2  14  130.61   62.39
   6   2  14  132.25   71.71
  -6   2 -14  124.87   63.24
   6  -2  14  144.30   86.02
  -6  -2 -14  117.30  117.11
   6   2  15   81.34   65.40
  -6   2 -15   85.76   72.77
  -6   2 -15   96.49   71.82
   6  -2  15  148.37   87.25
  -6  -2 -15  106.31   49.93
  -6   3  16  328.03  104.21
   6   3 -16  349.01   88.22
  -6  -3  16  376.25  120.17
  -6  -3  16  301.74  216.33
   6  -3 -16  325.00   73.95
   6  -3 -16  257.14  239.66
  -6   3  15  253.67  109.89
   6   3 -15  288.94  103.41
   6  -3 -15  226.68  120.04
   6  -3 -15  226.05  204.43
  -6  -3  14    4.28   29.74
  -6  -3  14    8.85   35.08
   6  -3 -14    7.24   27.39
  -6   3  13  538.83  110.15
   6   3 -13  532.75  101.13
  -6  -3  13  509.10  153.21
  -6  -3  13  515.76  189.61
   6  -3 -13  490.91  104.01
   6  -3 -13  493.35  191.81
  -6   3  12  275.60   78.83
   6   3 -12  311.29  146.41
  -6  -3  12  246.40  127.25
  -6  -3  12  233.22  132.00
   6  -3 -12  220.67   84.28
   6  -3 -12  205.88  151.14
  -6   3  11  547.05  110.70
   6   3 -11  535.60  102.48
  -6  -3  11  599.09  121.93
  -6  -3  11  631.12  156.63
   6  -3 -11  560.95   94.65
   6  -3 -11  630.19  142.66
  -6   3  10  490.83  110.27
   6   3 -10  474.18   97.81
  -6  -3  10  678.11   92.17
  -6  -3  10  733.24  136.15
   6  -3 -10  752.74  118.23
   6  -3 -10  672.38  120.13
  -6   3   9  244.00   71.09
   6   3  -9  250.13   69.01
   6   3  -9  228.22   69.90
  -6  -3   9  247.05  171.28
   6  -3  -9  276.21  137.33
   6  -3  -9  267.76  120.09
  -6   3   8 1169.40  116.69
   6   3  -8 1348.38  189.31
   6   3  -8 1182.98  131.72
  -6  -3   8 1110.89  113.02
   6  -3  -8 1047.98  103.83
   6  -3  -8 1021.35  151.11
  -6   3   7 1374.92  135.99
   6   3  -7 1455.54  150.73
   6   3  -7 1342.14  127.96
  -6   3   7 1277.71  142.90
  -6  -3   7 1440.42  129.11
   6  -3  -7 1352.47  127.42
  -6   3   6  675.46   78.39
   6   3  -6  751.56  112.07
   6   3  -6  690.51   83.47
   6   3  -6  716.68   42.15
  -6   3   6  643.78   88.19
  -6  -3   6  733.12   84.39
   6  -3  -6  587.01  148.04
  -6  -3   6  563.25   33.44
  -6   3   5 4899.97  244.68
   6   3  -5 5148.24  272.93
   6   3  -5 4812.37  250.24
   6   3  -5 5028.03  225.52
  -6   3   5 4620.68  346.22
  -6  -3   5 4758.64  243.97
   6  -3  -5 4484.99  227.38
  -6  -3   5 4359.02  196.75
  -6   3   4  723.62   66.74
   6   3  -4  711.62   82.14
   6   3  -4  734.66   76.43
   6   3  -4  706.62   45.91
  -6   3   4  695.04   96.54
  -6  -3   4  603.84   69.93
   6  -3  -4  541.86   58.49
  -6  -3   4  639.07   45.42
   6   3  -3 1468.95  100.83
  -6   3   3 1544.22  103.29
   6   3  -3 1545.69  123.26
   6   3  -3 1552.94   88.27
  -6   3   3 1453.26  114.29
   6  -3  -3 1395.58   69.10
   6  -3  -3 1451.65  100.72
   6  -3  -3 1353.96   67.69
  -6  -3   3 1406.29   79.51
  -6  -3   3 1423.98  160.80
   6   3  -2 2283.44  136.46
  -6   3   2 2404.91  133.34
  -6   3   2 2250.52  154.37
   6   3  -2 2341.58  155.48
   6  -3  -2 2388.98  119.37
   6  -3  -2 2799.29  160.96
  -6  -3   2 2816.34  169.82
  -6  -3   2 2807.53  141.17
   6  -3  -2 2765.38  132.82
  -6   3   1   42.28   44.31
   6   3  -1   42.55   52.47
  -6   3   1   39.45   21.79
   6   3  -1   43.23   68.55
  -6  -3   1   55.94   51.13
   6  -3  -1   48.28   13.71
   6  -3  -1   51.42   47.22
   6  -3  -1   61.47   36.69
  -6  -3   1   60.13   29.31
   6  -3  -1   60.53   24.22
   6   3   0 1356.83   98.21
   6   3   0 1428.22  118.62
  -6   3   0 1382.47   78.09
  -6   3   0 1394.45  165.16
   6  -3   0 1411.39   86.90
   6  -3   0 1199.44   71.67
  -6  -3   0 1361.58  163.11
  -6  -3   0 1290.82   92.74
   6  -3   0 1355.66  142.46
  -6   3  -1  719.68   87.01
   6   3   1  669.91   64.22
  -6   3  -1  690.61   43.49
   6   3   1  731.34   80.93
  -6  -3  -1  729.18   75.57
  -6  -3  -1  636.37   44.66
   6  -3   1  666.02  124.89
   6  -3   1  714.54   46.77
  -6  -3  -1  680.65   71.34
   6  -3   1  729.43   62.71
  -6   3  -2  473.38   78.40
   6   3   2  437.27   85.13
   6   3   2  401.28   61.68
  -6  -3  -2  442.90  150.23
  -6  -3  -2  405.73   53.99
   6  -3   2  434.25  103.60
  -6  -3  -2  468.17   54.54
   6  -3   2  466.69   45.08
  -6   3  -3 2544.18  154.34
   6   3   3 2588.11  179.92
   6   3   3 2265.51  122.06
   6   3   3 2499.66  118.58
  -6  -3  -3 2655.12  237.77
   6  -3   3 2490.91  201.19
  -6  -3  -3 2514.70  139.25
   6  -3   3 2624.40  148.20
  -6   3  -4  572.56   65.68
   6   3   4  496.50   38.48
   6   3   4  592.82  102.61
   6  -3   4  567.54  188.16
   6  -3   4  622.05   65.74
  -6  -3  -4  615.37   62.90
  -6  -3  -4  637.86  185.07
  -6   3  -5 1517.89  172.28
   6   3   5 1258.71   96.65
   6   3   5 1412.69  150.38
   6  -3   5 1175.85  188.67
   6  -3   5 1268.51  118.89
  -6  -3  -5 1220.78  118.85
  -6  -3  -5 1273.80  163.36
  -6   3  -6  916.17  118.30
   6   3   6  929.10  118.10
  -6  -3  -6 1314.58  191.17
  -6  -3  -6 1176.97  175.04
   6  -3   6 1199.87  121.15
  -6   3  -7   36.68   64.37
   6   3   7   41.41   52.59
  -6   3  -7   20.56   42.98
   6  -3   7   38.23   41.88
  -6  -3  -7   59.24   60.31
  -6  -3  -7   34.09   31.23
  -6   3  -8  135.56   60.78
   6   3   8  157.10   65.60
  -6   3  -8  158.20   66.49
   6  -3   8  161.99   50.86
  -6  -3  -8  229.55  135.60
  -6  -3  -8  159.93   48.84
  -6   3  -9  639.23  115.47
   6   3   9  525.48   87.87
  -6   3  -9  578.00   99.46
   6  -3   9  560.15   80.66
  -6  -3  -9  553.60  195.97
  -6  -3  -9  481.27   79.16
  -6   3 -10   62.78   71.08
   6   3  10   55.95   63.80
  -6   3 -10   60.22   57.31
   6  -3  10   31.67   39.03
  -6  -3 -10   27.91   33.99
  -6  -3 -10   36.46   61.77
  -6   3 -11  230.71  193.02
   6   3  11  227.18  199.47
   6  -3  11  309.49   79.50
  -6  -3 -11  324.05   79.79
  -6   3 -12   12.95   49.37
   6   3  12   -0.74   40.59
  -6   3 -12    8.45   36.45
   6  -3  12   39.29   62.13
  -6  -3 -12   15.60   23.57
  -6  -3 -12    3.64   42.33
   6   3  13  135.43  144.29
  -6   3 -13  188.34   80.85
  -6   3 -13  159.26  161.65
   6  -3  13  175.52   75.24
  -6  -3 -13  176.10  196.43
   6   4 -14   46.28   54.63
  -6   4  14   40.21   71.30
  -6  -4  14   26.83   39.73
  -6  -4  14   18.00   29.45
   6  -4 -14   22.46   57.42
  -6   4  13   23.67   53.74
   6   4 -13   39.37   69.99
  -6  -4  13   -2.33   25.30
  -6  -4  13   27.10   39.14
   6  -4 -13   17.35   26.95
   6  -4 -13    9.56   39.34
   6   4 -12  194.35   79.71
  -6  -4  12  222.16  204.88
   6  -4 -12  238.77   68.18
   6  -4 -12  218.66  225.66
  -6   4  11   92.32   75.52
   6   4 -11  100.54   50.03
  -6  -4  11  123.12   98.05
  -6  -4  11  121.40   98.66
   6  -4 -11  121.99  111.26
  -6   4  10  267.45   80.33
   6   4 -10  276.66   76.65
  -6  -4  10  240.06  180.03
  -6  -4  10  258.40  187.64
   6  -4 -10  282.07   65.78
   6  -4 -10  296.62  213.66
  -6   4   9  966.35  120.12
   6   4  -9 1098.22  122.84
   6   4  -9  979.25  124.05
  -6  -4   9 1227.56  125.04
   6  -4  -9 1092.98  192.07
   6  -4  -9 1066.29  145.55
  -6   4   8  155.27   79.73
   6   4  -8  171.73  162.01
   6   4  -8  178.70   82.31
  -6  -4   8  229.68  164.32
   6  -4  -8  199.65  124.90
   6  -4  -8  215.01  137.62
  -6   4   7  302.70   79.07
   6   4  -7  349.10   83.65
   6   4  -7  328.55  145.29
  -6  -4   7  279.34  132.63
   6  -4  -7  245.58   63.80
   6  -4  -7  232.23   92.91
  -6   4   6  501.39   83.91
   6   4  -6  584.63  101.13
   6   4  -6  537.68   85.28
  -6   4   6  493.30  177.36
  -6  -4   6  547.11   95.94
   6  -4  -6  425.21  124.07
  -6   4   5   39.08   36.28
   6   4  -5   90.91   60.33
   6   4  -5   55.33   37.96
  -6   4   5   70.31   61.06
  -6  -4   5   37.36   34.05
   6  -4  -5   31.57   23.14
  -6   4   4 1586.73  146.77
   6   4  -4 1591.15  155.13
   6   4  -4 1629.20  148.71
  -6   4   4 1429.36  167.46
  -6  -4   4 1703.04  151.86
   6  -4  -4 1623.23  153.64
  -6   4   3  955.01  101.63
   6   4  -3  990.91  122.90
   6   4  -3  937.60   93.97
  -6   4   3  882.37  133.88
  -6  -4   3 1045.86  111.07
   6  -4  -3  925.50  158.25
  -6   4   2  229.88  110.81
  -6   4   2  224.49   41.63
   6   4  -2  186.16   66.29
   6   4  -2  206.45   37.56
   6  -4  -2  233.21   92.12
  -6  -4   2  275.57   32.94
  -6  -4   2  267.57  173.34
   6   4  -1 2007.49  199.01
  -6   4   1 1995.61  162.90
   6   4  -1 1955.02  168.41
  -6   4   1 1791.89  187.61
  -6  -4   1 2053.70  245.66
   6  -4  -1 2144.21  178.58
  -6  -4   1 2030.47  162.78
   6  -4  -1 2111.94  192.72
   6   4   0 1019.98  132.27
  -6   4   0  933.99   82.86
   6   4   0  975.81   86.92
  -6   4   0  939.81  179.04
  -6  -4   0 1177.85  125.74
   6  -4   0 1092.21  115.56
  -6  -4   0 1037.78   94.89
   6  -4   0 1104.78  118.00
  -6   4  -1  718.04  200.83
   6   4   1  748.30   67.48
   6   4   1  758.01  119.69
   6  -4   1  747.33  175.99
   6  -4   1  746.23   77.33
  -6  -4  -1  707.97   72.86
  -6  -4  -1  771.17  198.00
   6   4   2  306.96   77.78
  -6   4  -2  338.75  136.62
  -6  -4  -2  385.35  120.79
   6  -4   2  362.96   76.37
   6  -4   2  320.37  140.90
  -6  -4  -2  317.14   55.35
   6   4   3   48.97   52.03
  -6   4  -3   63.45   59.26
  -6  -4  -3   92.04   82.26
   6  -4   3   89.98   40.45
   6  -4   3   77.53   76.60
  -6  -4  -3   82.73   79.18
   6   4   4  329.88   81.23
  -6   4  -4  311.76   90.18
  -6  -4  -4  432.89  247.86
   6  -4   4  369.10   62.22
   6  -4   4  322.77  153.19
  -6  -4  -4  352.06   60.72
   6   4   5 1110.60  142.83
  -6   4  -5 1212.06  175.40
  -6  -4  -5 1243.82  191.48
   6  -4   5 1141.92  133.86
   6  -4   5 1101.47  152.48
  -6  -4  -5 1062.92  127.37
   6   4   6   62.01   63.14
  -6   4  -6   52.40   48.70
  -6  -4  -6   89.78   77.64
   6  -4   6   85.50   44.36
   6  -4   6   79.84   64.96
  -6  -4  -6   87.77   39.21
  -6   4  -7  484.72  101.46
   6   4   7  449.23  123.23
  -6  -4  -7  452.46  153.26
  -6  -4  -7  408.97   69.16
   6  -4   7  464.94   72.08
  -6   4  -8   95.75   74.10
   6   4   8  100.18   67.07
  -6   4  -8   83.62   51.75
   6  -4   8  160.40   72.82
  -6  -4  -8  185.68  135.72
  -6  -4  -8  137.84   52.50
   6   4   9  172.77  136.29
  -6   4  -9  233.26   78.89
  -6   4  -9  182.12  148.51
   6  -4   9  237.88   76.53
  -6  -4  -9  251.69   78.73
  -6   4 -10  154.59   70.15
  -6   4 -10  149.84  143.66
  -6  -4 -10  207.30  130.24
   6   4  11   30.83   41.16
  -6   4 -11   36.45   53.19
  -6   4 -11   36.62   43.52
   6  -4  11   53.78   50.75
  -6  -4 -11   29.74   39.65
   6   4  12  182.40   81.27
  -6   4 -12  249.33   92.11
  -6   4 -12  197.79  128.57
   6  -4  12  146.58   62.31
  -6  -4 -12  173.84   87.80
   6   5 -12    2.31   50.93
  -6   5  12   14.90   89.28
  -6  -5  12    8.04   36.52
  -6  -5  12    6.25   35.06
   6  -5 -12    2.24   25.43
   6   5 -11  224.29   85.49
  -6   5  11  196.25   78.35
  -6  -5  11  152.18  139.54
  -6  -5  11  119.50  147.53
   6  -5 -11  129.18  156.58
   6   5 -10  295.40   92.11
  -6  -5  10  292.82  105.52
   6  -5 -10  285.48  124.95
   6   5  -9   33.68   66.60
  -6   5   9   59.30   64.95
   6   5  -9   41.59   77.15
  -6  -5   9   27.24   42.85
   6  -5  -9   17.54   33.62
  -6   5   8  529.35  100.10
   6   5  -8  586.87   99.51
   6   5  -8  543.52   86.25
  -6  -5   8  622.55   84.17
   6  -5  -8  547.26  139.43
   6   5  -7  149.03   50.14
  -6   5   7  144.63   74.08
   6  -5  -7   75.93   40.81
  -6  -5   7  134.26  140.30
   6  -5  -7  103.90  108.95
   6   5  -6   68.25   52.26
  -6   5   6   65.10   56.70
   6  -5  -6   50.53   58.73
  -6  -5   6   55.40   49.08
   6  -5  -6   44.82   57.98
  -6   5   5  336.08   84.89
   6   5  -5  323.32   90.82
   6   5  -5  307.84   68.17
  -6  -5   5  484.95   90.14
   6  -5  -5  398.39  106.61
   6  -5  -5  400.89   97.05
  -6   5   4   85.95   53.32
   6   5  -4   62.59   66.03
   6   5  -4   82.43   48.36
  -6   5   4   72.88   70.74
  -6  -5   4  108.74  111.43
   6  -5  -4   67.17   72.74
  -6   5   3  697.63   88.73
   6   5  -3  750.92  153.41
   6   5  -3  696.84   86.04
  -6   5   3  630.52   91.92
  -6  -5   3  808.87  105.94
   6  -5  -3  698.35   86.38
  -6   5   2  978.64  100.56
   6   5  -2 1055.62  129.62
  -6   5   2  906.38  124.44
  -6  -5   2 1020.26  173.10
   6  -5  -2  922.06  115.49
  -6   5   1   20.27   34.07
   6   5  -1   21.64   54.45
   6  -5  -1   16.75   21.82
  -6  -5   1    7.22   25.76
  -6   5   0  129.08  107.25
   6   5   0  156.72  104.32
   6  -5   0  136.00  120.42
  -6  -5   0  200.25   99.84
  -6   5  -1  400.49  183.76
   6   5   1  501.74  111.06
   6  -5   1  465.32  154.58
  -6  -5  -1  527.23  258.13
   6   5   2   49.08   55.19
  -6   5  -2   54.43   63.86
  -6  -5  -2   80.78   93.88
   6  -5   2   93.82   35.27
   6  -5   2   90.18   81.50
  -6  -5  -2   66.91   43.14
   6   5   3  512.25  112.59
  -6   5  -3  399.88  169.27
  -6  -5  -3  486.90  202.91
   6  -5   3  454.56   80.54
   6  -5   3  418.88  117.26
  -6  -5  -3  411.80   68.92
   6   5   4    8.52   46.22
  -6   5  -4   13.09   46.04
   6  -5   4    5.40   22.11
   6  -5   4   18.03   30.22
  -6  -5  -4   11.41   31.20
  -6   5  -5   93.30  103.91
   6   5   5  134.49   71.79
  -6  -5  -5  169.47   44.13
   6  -5   5  188.09   51.89
  -6   5  -6   22.67   32.18
   6  -5   6   41.90   32.57
  -6  -5  -6   32.49   40.28
  -6  -5  -6   30.91   50.24
   6   5   7   91.78   62.92
  -6   5  -7   85.76  116.66
  -6  -5  -7  103.72   77.34
   6  -5   7   98.14   89.59
   6  -5   7   96.84   91.67
  -6  -5  -7  116.96   54.57
  -6   5  -8  143.84   64.64
   6   5   8  160.03   89.42
   6  -5   8  159.58   53.95
  -6  -5  -8  180.73  139.76
   6   5   9   40.05   62.61
  -6  -5  -9   57.88   54.36
   6  -5   9   61.80   54.69
  -6  -5  -9   54.19   50.77
  -6   6   7   56.35   67.13
   6   6  -7   24.11   66.58
  -6  -6   7   55.39   72.88
   6  -6  -7   51.44   59.95
  -6   6   6  194.54   67.41
   6   6  -6  186.79  180.81
  -6  -6   6  238.02  112.29
   6  -6  -6  138.18  218.69
   6   6  -5   14.49   48.51
  -6  -6   5   30.11   43.17
   6  -6  -5   11.71   32.45
   6   6  -4  132.12   81.92
  -6  -6   4   88.94   90.84
   6  -6  -4   58.12   72.86
   6   6  -3   74.40   74.38
  -6  -6   3   92.12  108.71
   6  -6  -3   76.86   78.08
   6   6  -2   19.08   42.46
  -6  -6   2   19.08   46.97
   6  -6  -2   24.90   46.96
   6  -6  -2   18.08   45.73
  -6   6   1   61.24   73.72
   6   6  -1   62.13   55.84
   6  -6  -1   74.91   97.81
  -6  -6   1  102.44   83.70
  -6   6   0   61.20   61.96
   6   6   0   55.45   67.69
   6  -6   0   28.52   50.18
  -6  -6   0   49.04   50.81
   6   6   1   11.61   69.28
  -6   6  -1   12.86   41.45
  -6  -6  -1   -0.08   43.52
   6   6   2  166.74   86.41
  -6   6  -2  140.85   76.37
  -6  -6  -2  117.41  137.43
  -6   6  -3   40.89   51.10
   6   6   3   51.30   86.22
   6  -6   3   44.10   54.36
  -6  -6  -3   50.31   71.35
  -6   6  -4   53.83   73.42
   6   6   4   86.12   94.99
   6  -6   4   68.38   98.01
  -6  -6  -4   96.03  121.90
  -7   0  18  369.38  251.66
   7   0 -18  410.42  212.62
   7   0 -18  481.63   94.76
  -7   0  17  270.43  234.38
   7   0 -17  323.06  121.27
   7   0 -17  317.69   83.99
  -7   0  16  963.61  115.87
   7   0 -16  944.09  105.78
  -7   0  15  417.23  105.40
  -7   0  15  426.73   85.40
   7   0 -15  387.05   94.68
   7   0 -15  394.46  149.85
  -7   0  14   76.97   97.99
  -7   0  14   62.78   62.99
   7   0 -14   88.77   84.18
   7   0 -14   66.87   41.72
  -7   0  13 3565.42  523.43
  -7   0  13 3406.35  464.43
   7   0 -13 3193.98  313.39
   7   0 -13 3345.69  297.83
  -7   0  12  618.55   96.64
  -7   0  12  550.71   97.68
   7   0 -12  604.88  178.87
   7   0 -12  604.84   91.21
  -7   0  11 2780.90  246.53
  -7   0  11 2490.31  224.45
   7   0 -11 2633.05  252.84
   7   0 -11 2587.83  223.17
  -7   0  10 1174.90  130.34
  -7   0  10 1097.98  122.47
   7   0 -10 1059.44  120.23
   7   0 -10 1114.61  128.74
  -7   0   9  438.57  117.12
  -7   0   9  359.80   80.24
   7   0  -9  430.44   77.60
  -7   0   9  380.46   60.61
  -7   0   810088.93  503.43
   7   0  -8 9458.29  426.70
   7   0  -8 9909.28  501.33
  -7   0   8 8920.80  425.25
  -7   0   7 2878.57  186.79
   7   0  -7 2687.83  132.73
   7   0  -7 2676.45  151.32
  -7   0   7 2501.14  142.45
  -7   0   6  715.17  112.20
   7   0  -6  687.61   61.45
   7   0  -6  715.20  116.96
  -7   0   6  633.61   61.07
  -7   0   5 8011.55  370.60
   7   0  -5 7770.57  330.85
   7   0  -5 7629.63  366.17
  -7   0   5 7570.11  312.12
  -7   0   4   70.65   42.55
   7   0  -4   71.04   33.82
   7   0  -4   77.84   70.39
  -7   0   4   75.74   46.81
  -7   0   3 3116.10  158.06
   7   0  -3 3209.02  141.29
   7   0  -3 3405.37  164.94
  -7   0   3 3217.57  150.50
  -7   0   2 1893.81  101.61
   7   0  -2 1986.53  111.70
   7   0  -2 1865.60  128.02
  -7   0   2 1956.80   93.53
  -7   0   1  321.79   47.73
   7   0  -1  336.70   48.76
   7   0  -1  371.45  135.41
  -7   0   1  340.17   59.57
  -7   0   0 7375.29  293.11
   7   0   0 6664.88  267.26
   7   0   0 6997.76  289.92
  -7   0   0 7060.08  292.23
  -7   0  -1  361.91   49.67
   7   0   1  343.64   44.16
   7   0   1  355.24   67.49
  -7   0  -1  373.79  110.16
  -7   0  -2 1903.11   88.00
   7   0   2 1883.93  102.64
   7   0   2 1917.02  131.63
  -7   0  -2 1903.02  105.95
  -7   0  -3 2265.26  108.47
   7   0   3 2231.34  124.08
   7   0   3 2241.75  182.35
  -7   0  -3 2236.66  123.65
  -7   0  -4    2.34   18.03
   7   0   4   -1.95   32.41
   7   0   4   12.55   33.17
  -7   0  -4    7.85   32.54
  -7   0  -5  291.90   39.20
   7   0   5  264.68   63.07
   7   0   5  289.66   78.33
  -7   0  -5  259.56   46.11
  -7   0  -6 1494.92  107.24
   7   0   6 1310.32  114.00
   7   0   6 1359.81  126.31
  -7   0  -6 1433.95  141.83
  -7   0  -7 1371.07  117.46
   7   0   7 1215.51  119.10
   7   0   7 1241.73  151.06
  -7   0  -7 1336.46  138.11
  -7   0  -8 1188.41  105.06
   7   0   8  948.79  109.86
   7   0   8 1020.44  150.62
  -7   0  -8 1030.91  121.12
  -7   0  -9  464.15   79.85
   7   0   9  412.81   96.73
   7   0   9  392.98  111.82
  -7   0  -9  447.36   90.38
  -7   0 -10   19.10   22.86
   7   0  10    5.75   38.34
   7   0  10   -3.40   33.37
  -7   0 -10   12.03   23.77
  -7   0 -11  132.11  115.45
   7   0  11  104.57   53.83
   7   0  11  103.22   78.38
  -7   0 -11  124.99   66.68
   7   0  12   18.16   53.60
   7   0  12   -2.69   27.50
  -7   0 -12   13.34   51.81
   7   0  13  213.17   73.56
   7   0  13  153.93  124.73
  -7   0 -13  207.59   68.94
   7   0  14   12.99   35.32
   7   0  14    0.70   14.46
  -7   0 -14   -0.85   35.85
   7   1 -17  559.74  123.11
  -7   1  17  485.30  126.86
  -7  -1  17  559.91  100.99
  -7  -1  17  506.36  278.00
   7  -1 -17  488.59   98.67
   7   1 -16    7.85   57.87
  -7   1  16   41.27   49.05
  -7  -1  16   21.09   31.52
  -7  -1  16   53.13   62.90
   7  -1 -16   53.69   55.32
   7   1 -15 1921.30  134.66
   7  -1 -15 1683.31  165.97
   7  -1 -15 1709.88  194.53
  -7  -1  15 1783.59  185.67
   7   1 -14  188.29  130.43
  -7   1  14  168.95   82.24
   7   1 -14  188.93   76.00
  -7  -1  14  191.09  121.13
   7  -1 -14  154.34  159.12
   7  -1 -14  212.28  143.80
  -7  -1  14  212.38  149.26
   7   1 -13  575.33  176.55
  -7   1  13  485.24  101.29
   7   1 -13  607.86  107.54
  -7  -1  13  758.66  132.05
   7  -1 -13  796.98  114.85
   7  -1 -13  753.05  119.16
  -7  -1  13  881.42  189.78
   7   1 -12 1093.36  121.39
  -7   1  12 1003.69  143.57
   7   1 -12 1115.60  219.07
  -7   1  12 1089.02  118.61
   7  -1 -12 1174.15  162.35
  -7  -1  12 1143.06  167.03
  -7  -1  12 1340.84  160.09
   7  -1 -12 1219.02  145.45
  -7   1  11  848.36  104.93
  -7   1  11  779.12  133.85
   7   1 -11  807.04  122.78
   7   1 -11  829.98  143.92
  -7  -1  11  882.06  102.26
  -7  -1  11  812.72  125.75
   7  -1 -11  830.22  139.64
   7  -1 -11  835.12  113.50
   7   1 -10 4167.96  331.44
  -7   1  10 3743.75  298.19
   7   1 -10 3957.11  338.66
  -7   1  10 4124.98  327.06
   7  -1 -10 3762.51  329.17
  -7  -1  10 3516.93  256.60
  -7  -1  10 3881.95  296.13
   7  -1 -10 3671.28  310.07
   7   1  -9 3137.44  174.31
  -7   1   9 2651.54  177.56
  -7   1   9 2784.87  146.89
  -7   1   9 2809.91  186.25
   7   1  -9 2794.92  197.85
  -7  -1   9 3541.63  198.91
  -7  -1   9 2877.16  163.16
   7  -1  -9 3339.66  207.07
   7   1  -8  830.24  113.52
  -7   1   8  753.38   78.24
  -7   1   8  758.33   53.89
  -7   1   8  807.03   51.50
   7   1  -8  886.31   78.93
  -7   1   8  753.44   74.61
  -7  -1   8  961.10  157.11
  -7  -1   8  883.04   68.33
   7  -1  -8  973.63   94.66
   7   1  -7 1616.02  135.68
  -7   1   7 1471.95  109.05
  -7   1   7 1505.36   80.46
   7   1  -7 1690.33  109.26
  -7   1   7 1572.70  108.66
   7  -1  -7 1779.50  124.03
  -7  -1   7 1710.31  138.99
   7  -1  -7 1607.62   83.14
  -7  -1   7 1640.75  102.48
   7   1  -6 2344.59  170.65
  -7   1   6 2188.57  158.77
  -7   1   6 1845.41   89.09
  -7   1   6 2136.42  178.71
   7   1  -6 2355.40  207.78
  -7  -1   6 1674.51  105.90
  -7  -1   6 1775.06  134.67
   7  -1  -6 1838.81  162.35
   7   1  -5 1568.73  101.01
  -7   1   5 1499.85  100.06
   7   1  -5 1581.38  119.43
  -7   1   5 1457.41  107.24
  -7  -1   5 1558.54   91.68
   7  -1  -5 1782.07   84.36
  -7  -1   5 1701.69   97.82
   7  -1  -5 1715.00  109.01
   7   1  -4 5036.60  224.73
  -7   1   4 4946.11  256.80
   7   1  -4 5361.26  241.76
  -7   1   4 4899.65  242.35
  -7  -1   4 5630.91  244.86
   7  -1  -4 5659.96  223.54
  -7  -1   4 5489.70  228.61
   7  -1  -4 5344.85  232.99
   7   1  -3  358.36   77.07
  -7   1   3  382.61   46.42
  -7   1   3  301.69   27.21
   7   1  -3  338.87   46.81
  -7   1   3  350.24   53.83
   7  -1  -3  466.90   59.35
  -7  -1   3  445.77   48.17
  -7  -1   3  448.44   83.19
   7  -1  -3  428.82  117.29
   7   1  -2 2105.83  131.44
  -7   1   2 2045.56  114.68
  -7   1   2 1725.27   79.56
   7   1  -2 1943.39  103.45
  -7   1   2 1908.04  110.66
   7  -1  -2 1695.15   82.77
  -7  -1   2 1711.07  135.30
  -7  -1   2 1693.96  119.39
   7  -1  -2 1557.11   94.29
   7   1  -1 2652.85  144.50
  -7   1   1 2737.73  141.21
   7   1  -1 2604.19  147.90
  -7   1   1 2553.29  172.01
  -7  -1   1 3255.58  149.11
   7  -1  -1 3135.76  136.35
  -7  -1   1 3044.06  138.32
   7  -1  -1 3166.01  155.70
   7   1   0   38.04   39.15
   7   1   0   21.05   42.25
  -7   1   0   32.34   26.81
  -7   1   0   35.60   45.19
   7  -1   0   85.12   38.96
  -7  -1   0   92.78   83.28
   7  -1   0   73.43   33.37
  -7  -1   0   94.14   84.97
   7  -1   0   89.14   94.67
   7   1   1 2579.93  166.66
   7   1   1 2462.13  129.62
  -7  -1  -1 1688.85   92.74
   7  -1   1 1711.66  103.12
   7  -1   1 1741.20   94.16
  -7  -1  -1 1629.83   91.92
   7   1   2  513.26   75.18
   7   1   2  505.50   63.08
  -7   1  -2  504.80   52.11
  -7   1  -2  561.59  118.33
   7  -1   2  407.28   66.87
  -7  -1  -2  406.89   47.43
   7  -1   2  360.97   31.66
  -7  -1  -2  412.62   53.31
   7  -1   2  416.30   97.49
   7   1   3  617.12  106.02
  -7   1  -3  580.90   41.46
  -7   1  -3  580.95   38.62
   7   1   3  606.35   67.24
  -7   1  -3  592.61   69.47
   7  -1   3  686.40   71.85
  -7  -1  -3  679.35   63.40
  -7  -1  -3  685.37  107.46
   7  -1   3  623.22   89.20
   7   1   4 2584.20  143.76
  -7   1  -4 2631.72  139.15
  -7   1  -4 2447.31  122.03
   7   1   4 2519.65  149.56
  -7   1  -4 2416.98  157.04
   7  -1   4 2737.07  155.51
  -7  -1  -4 2869.77  178.15
  -7  -1  -4 2690.60  191.43
   7  -1   4 2764.40  171.83
   7   1   5  235.54   69.96
  -7   1  -5  244.43   39.22
  -7   1  -5  231.42   24.93
   7   1   5  252.87   65.22
  -7   1  -5  227.05   57.93
   7  -1   5  205.62   48.66
  -7  -1  -5  221.50   78.42
  -7  -1  -5  242.16   75.48
   7  -1   5  207.13   65.06
   7   1   6  561.98  149.66
  -7   1  -6  566.27   42.38
  -7   1  -6  554.19   37.60
   7   1   6  506.92   94.31
  -7   1  -6  513.41  136.92
   7  -1   6  477.00   68.61
  -7  -1  -6  565.66  103.20
  -7  -1  -6  521.18   75.41
   7  -1   6  445.90   99.98
   7   1   7  127.22   70.80
  -7   1  -7  141.67   43.29
   7   1   7  120.04   97.83
  -7   1  -7  138.88  118.13
  -7  -1  -7  227.98   93.97
   7  -1   7  162.46   57.66
  -7  -1  -7  191.51  115.96
   7  -1   7  193.95   70.72
   7   1   8  357.80   80.17
  -7   1  -8  372.07   39.96
   7   1   8  323.30   80.03
  -7   1  -8  347.94   62.86
  -7  -1  -8  348.60   78.97
   7  -1   8  320.88   82.90
  -7  -1  -8  330.73   66.53
   7  -1   8  276.42  110.77
  -7   1  -9  380.32   67.70
   7   1   9  343.53   76.74
   7   1   9  378.90   81.52
   7  -1   9  245.90   80.87
   7  -1   9  238.81   64.72
  -7  -1  -9  264.68   63.46
  -7  -1  -9  284.45   91.56
  -7   1 -10  378.57   67.63
   7   1  10  348.01   97.18
   7   1  10  370.64   78.45
   7  -1  10  380.40  163.88
   7  -1  10  424.66   82.96
  -7  -1 -10  485.40  128.29
  -7  -1 -10  482.93   98.81
  -7   1 -11  181.26   71.06
  -7   1 -11  171.08   53.81
   7   1  11  174.38   66.45
   7   1  11  135.44  105.41
   7  -1  11  174.11   55.92
  -7  -1 -11  203.07  163.28
  -7  -1 -11  209.66  126.09
  -7   1 -12   71.23   48.29
   7   1  12   46.13   46.82
  -7   1 -12   58.27   52.35
  -7  -1 -12   19.44   23.88
  -7   1 -13   45.63   66.41
   7   1  13   31.18   42.21
  -7   1 -13   58.27   47.75
   7  -1  13   45.33   61.96
  -7  -1 -13   24.65   35.56
  -7  -1 -13   60.23   45.90
  -7   1 -14  195.07  142.85
   7   1  14  187.63   80.90
  -7  -1 -14  111.68  121.74
   7  -1  14  105.13   70.26
   7   2 -17   53.58   77.09
  -7   2  17   69.66   81.51
   7  -2 -17    4.20   23.78
  -7  -2  17   20.68   57.64
   7  -2 -17    9.19   42.91
   7   2 -16  337.69   96.87
  -7   2  16  288.24   84.94
  -7  -2  16  230.26  142.87
  -7  -2  16  273.42  180.08
   7  -2 -16  244.76  173.19
  -7   2  15   69.98   76.68
   7   2 -15   86.34   80.66
  -7  -2  15   60.71   67.43
   7  -2 -15   48.91   86.61
  -7  -2  14  412.30  157.93
  -7  -2  14  430.46  184.51
   7  -2 -14  416.79   80.90
   7  -2 -14  427.17  171.34
  -7   2  13  958.62  159.54
   7   2 -13 1124.51  139.28
  -7  -2  13 1135.37  125.93
  -7  -2  13 1100.92  161.49
   7  -2 -13 1084.74  120.80
   7  -2 -13 1106.42  227.44
  -7   2  12   51.13   55.16
   7   2 -12   78.69   74.28
  -7  -2  12   61.14   42.34
  -7  -2  12   41.76   43.43
   7  -2 -12   56.70   57.11
   7  -2 -12   41.68   77.58
   7   2 -11 1804.62  167.00
  -7   2  11 1454.63  178.00
   7   2 -11 1718.58  180.04
  -7  -2  11 2031.34  224.03
   7  -2 -11 2070.21  214.96
   7  -2 -11 2041.23  270.93
  -7  -2  11 2114.85  199.50
   7   2 -10  589.88   68.30
  -7   2  10  492.17  108.43
   7   2 -10  665.53   92.48
   7   2 -10  542.32   94.76
   7  -2 -10  526.89  107.22
   7  -2 -10  566.48  108.91
  -7  -2  10  566.48   89.73
  -7   2   9  406.98  135.57
  -7   2   9  375.99   98.89
   7   2  -9  452.15  114.39
   7   2  -9  383.96   86.98
   7   2  -9  412.78   67.70
   7  -2  -9  660.24  136.43
  -7  -2   9  628.20   97.45
  -7   2   8 1743.17  256.84
  -7   2   8 1557.08  161.47
   7   2  -8 2033.68  178.51
   7   2  -8 1672.14  180.65
   7  -2  -8 1616.26  146.85
  -7  -2   8 1445.20  125.71
  -7  -2   8 1495.75  139.97
  -7   2   7  454.94   75.53
  -7   2   7  399.93   66.11
   7   2  -7  480.03   64.36
   7   2  -7  390.00   62.63
   7  -2  -7  564.02  133.72
  -7  -2   7  516.82   52.22
  -7  -2   7  542.57  133.04
  -7   2   6 5226.92  280.82
  -7   2   6 4555.92  290.73
   7   2  -6 5653.49  282.99
   7   2  -6 4727.46  253.10
   7  -2  -6 5259.88  280.32
  -7  -2   6 5393.53  251.21
  -7  -2   6 5585.39  275.79
   7   2  -5  639.58   68.39
  -7   2   5  625.91   68.90
   7   2  -5  731.13   70.57
  -7   2   5  740.94   97.62
  -7  -2   5 1540.37  143.95
   7   2  -4   33.95   49.65
  -7   2   4   18.92   49.21
   7   2  -4    2.34   40.37
  -7   2   4   10.62   19.57
  -7  -2   4   11.08   21.66
   7  -2  -4    6.14   11.23
  -7  -2   4   18.63   27.97
   7  -2  -4    9.31   30.31
   7   2  -3 6606.15  330.55
  -7   2   3 5794.63  293.51
  -7   2   3 5458.42  226.12
  -7   2   3 6421.53  334.37
   7   2  -3 6015.46  300.97
  -7  -2   3 6696.61  331.86
  -7  -2   3 6777.69  323.30
   7  -2  -3 6542.57  322.06
   7   2  -2 3826.86  222.06
  -7   2   2 3636.77  165.21
  -7   2   2 3460.57  149.15
   7   2  -2 4209.19  207.04
  -7   2   2 4151.05  210.77
   7  -2  -2 4325.14  185.61
  -7  -2   2 4346.74  203.61
  -7  -2   2 4237.39  193.54
   7  -2  -2 4370.24  214.72
   7   2  -1 1036.35   75.10
  -7   2   1  962.21   71.22
  -7   2   1  887.92   53.64
   7   2  -1 1128.08   92.38
  -7   2   1 1110.24  157.12
   7  -2  -1 1070.14   64.98
  -7  -2   1  985.81  109.26
  -7  -2   1 1022.14   75.69
   7  -2  -1 1028.67  118.07
   7   2   0  644.98   95.37
   7   2   0  685.95   75.79
  -7   2   0  645.59   47.27
  -7   2   0  662.84   69.75
   7  -2   0 1096.00   67.86
  -7  -2   0 1061.97  127.33
   7  -2   0  997.37   58.55
  -7  -2   0 1018.79   65.49
   7  -2   0 1056.37  115.38
   7   2   1  198.37   90.61
   7   2   1  205.03   53.39
  -7   2  -1  178.45   24.31
  -7   2  -1  214.44   99.79
   7  -2   1  259.97   44.32
  -7  -2  -1  272.58  102.31
   7  -2   1  253.94   25.05
  -7  -2  -1  258.86   44.16
   7  -2   1  252.40  159.05
   7   2   2 1640.41  102.79
   7   2   2 1726.31  139.84
  -7   2  -2 1798.57   89.74
  -7   2  -2 1864.89  204.92
   7  -2   2 1832.22  112.67
  -7  -2  -2 1862.20  118.61
   7  -2   2 1662.00   81.72
  -7  -2  -2 1830.37  112.64
   7  -2   2 1879.75  130.87
  -7   2  -3 1250.61  122.67
   7   2   3 1250.50   88.98
   7   2   3 1295.19  109.83
   7  -2   3 1121.41  102.41
   7  -2   3 1164.59   89.56
  -7  -2  -3 1124.88   93.74
  -7  -2  -3 1160.85   87.84
  -7   2  -4  378.48  143.46
   7   2   4  361.90   72.84
   7   2   4  390.70   79.18
   7  -2   4  298.97  125.27
   7  -2   4  298.96   52.72
  -7  -2  -4  299.76   54.08
  -7  -2  -4  305.24   65.96
  -7   2  -5 2530.50  258.32
   7   2   5 2534.24  198.75
   7   2   5 2488.51  205.72
   7  -2   5 2573.51  243.04
   7  -2   5 2562.78  203.54
  -7  -2  -5 2544.85  201.03
  -7  -2  -5 2722.26  226.31
  -7   2  -6  566.36  147.29
   7   2   6  593.97   83.86
   7   2   6  602.86  125.48
   7  -2   6  666.98  234.67
   7  -2   6  649.00  101.90
  -7  -2  -6  701.70  151.12
  -7  -2  -6  761.63  194.36
  -7   2  -7  369.65   73.83
   7   2   7  347.67   81.80
   7   2   7  380.14   81.58
   7  -2   7  533.91  134.75
   7  -2   7  547.91   91.86
  -7  -2  -7  570.28   85.86
  -7  -2  -7  590.47  185.56
  -7   2  -8  683.20   93.69
   7   2   8  671.28  103.08
   7   2   8  691.61  105.30
   7  -2   8  665.87  209.43
   7  -2   8  727.46   88.16
  -7  -2  -8  717.60   93.34
  -7  -2  -8  785.67  207.48
   7   2   9  234.80   63.90
   7   2   9  292.15   91.46
  -7   2  -9  281.43  182.50
   7  -2   9  287.41   78.27
  -7  -2  -9  282.48  162.65
  -7  -2  -9  287.99   81.83
  -7   2 -10  180.07   73.42
   7   2  10  174.34   76.25
  -7   2 -10  185.10   69.52
   7  -2  10  152.08   63.13
  -7  -2 -10  172.48  103.97
  -7  -2 -10  171.01   56.95
  -7   2 -11    7.22   25.96
  -7   2 -11   -1.92   44.17
   7  -2  11    6.46   42.12
  -7  -2 -11   14.39   29.21
  -7   2 -12   34.48   38.23
   7   2  12   27.78   53.21
  -7  -2 -12   23.04   32.79
  -7  -2 -12   45.00   68.36
   7  -2  12   18.58   55.30
   7   2  13   79.83   70.38
  -7   2 -13   70.89   63.82
  -7   2 -13   65.93   68.22
   7  -2  13  100.85   70.70
  -7  -2 -13   97.13   68.42
   7   2  14   34.23   48.68
  -7   2 -14   35.73   60.09
  -7   2 -14   40.39   62.83
   7  -2  14    5.76   38.35
  -7  -2 -14   12.57   39.40
  -7  -3  16   28.02   41.44
  -7   3  15  210.91   95.19
   7   3 -15  157.77  133.84
  -7  -3  15  263.46  142.48
  -7  -3  15  265.79  173.37
   7  -3 -15  188.91  227.97
   7  -3 -15  253.92  202.94
  -7   3  14  257.88  100.93
   7   3 -14  277.72   92.18
   7  -3 -14  246.11  146.18
   7  -3 -14  261.72  195.60
  -7  -3  13    2.88   33.92
  -7  -3  13   11.83   25.08
   7  -3 -13   -6.98   31.88
  -7   3  12  709.55  144.24
   7   3 -12  769.69  136.94
  -7  -3  12  780.10  126.12
  -7  -3  12  766.25  137.90
   7  -3 -12  747.28  156.93
   7  -3 -12  780.62  139.73
  -7   3  11  306.08   92.87
   7   3 -11  366.24   93.60
  -7  -3  11  319.45  226.87
  -7  -3  11  249.18  178.56
   7  -3 -11  301.57   65.74
   7  -3 -11  306.78  130.12
  -7   3  10  515.47  100.55
   7   3 -10  597.80   90.84
   7   3 -10  548.69  102.75
  -7  -3  10  668.02  103.95
   7  -3 -10  688.01  135.82
   7  -3 -10  625.68  161.87
  -7   3   9  314.39   71.57
   7   3  -9  351.32  149.30
   7   3  -9  339.06  105.84
  -7  -3   9  341.17  173.78
   7  -3  -9  359.76   95.48
   7  -3  -9  364.06  172.06
  -7   3   8   47.19   57.49
   7   3  -8   80.36   61.22
   7   3  -8   49.69   55.12
  -7   3   8   70.22   56.19
  -7  -3   8   44.42   50.53
   7  -3  -8   29.90   35.94
  -7   3   7 1159.00  123.99
   7   3  -7 1408.17  150.12
   7   3  -7 1202.84  149.40
  -7   3   7 1250.19  136.42
  -7  -3   7 2123.30  201.92
   7  -3  -7 2040.46  190.04
  -7   3   6 1231.86  119.23
   7   3  -6 1354.20  136.73
   7   3  -6 1187.49  124.55
  -7   3   6 1248.29  145.23
  -7  -3   6 1552.17  145.40
   7  -3  -6 1319.75  134.11
  -7   3   5 1137.67  122.82
  -7   3   5 1192.46  120.50
   7   3  -5 1305.01  181.55
   7   3  -5 1155.07  113.86
   7  -3  -5  961.97  101.55
  -7  -3   5  913.19   84.17
  -7  -3   5  993.61  103.56
  -7   3   4 3520.99  292.18
  -7   3   4 3629.76  267.49
   7   3  -4 3742.97  290.57
   7   3  -4 3221.90  276.43
   7  -3  -4 3163.37  245.38
  -7  -3   4 3321.18  236.62
  -7  -3   4 3354.20  257.78
   7   3  -3  838.58   91.27
  -7   3   3  857.96   78.12
   7   3  -3  758.01   90.33
  -7   3   3  817.77  146.53
  -7  -3   3  807.74  112.47
   7  -3  -3  794.44   43.37
  -7  -3   3  834.27   72.18
   7  -3  -3  808.22   83.50
   7   3  -2  671.21  100.44
  -7   3   2  699.89   61.03
   7   3  -2  545.20   68.43
  -7   3   2  634.93   92.59
  -7  -3   2  800.37   81.04
   7  -3  -2  767.58   48.81
  -7  -3   2  781.92   58.62
   7  -3  -2  775.38  103.64
   7   3  -1 2775.52  177.75
  -7   3   1 2918.10  148.69
   7   3  -1 2401.63  146.79
  -7   3   1 2780.23  191.74
  -7  -3   1 2452.30  203.75
   7  -3  -1 2604.80  127.64
  -7  -3   1 2481.96  129.50
   7  -3  -1 2570.86  156.58
   7   3   0  115.93   59.66
  -7   3   0  107.39   30.15
   7   3   0  111.25   30.62
  -7   3   0  117.93   62.55
  -7  -3   0  126.38  113.73
   7  -3   0  123.59   30.56
  -7  -3   0  135.00   75.47
   7  -3   0  134.17  102.84
   7   3   1 3181.71  260.69
  -7   3  -1 3003.34  209.87
   7   3   1 2522.76  188.83
  -7   3  -1 3062.84  356.48
  -7  -3  -1 3171.73  260.63
   7  -3   1 3047.76  220.40
  -7  -3  -1 2938.43  215.15
   7  -3   1 3118.23  245.62
  -7   3  -2  214.58  102.90
   7   3   2  146.43   33.54
   7   3   2  174.29   65.30
   7  -3   2  312.78  163.19
   7  -3   2  325.44   67.53
  -7  -3  -2  294.93   64.30
  -7  -3  -2  340.35  106.57
  -7   3  -3  194.64   75.38
   7   3   3  130.25   29.27
   7   3   3  224.54   77.46
   7  -3   3  124.04   96.49
   7  -3   3  126.41   39.75
  -7  -3  -3  114.28  114.93
  -7  -3  -3  131.68  129.24
  -7   3  -4 1323.27  245.25
   7   3   4  951.28   88.67
   7   3   4 1400.19  149.64
   7  -3   4 1051.12  139.77
   7  -3   4 1077.45  112.76
  -7  -3  -4 1025.58  106.32
  -7  -3  -4 1047.72  119.27
   7   3   5  458.56   84.99
  -7   3  -5  455.82   76.13
  -7  -3  -5  522.23  181.17
   7  -3   5  530.37   85.66
   7  -3   5  471.97  180.00
  -7  -3  -5  524.12   79.65
   7   3   6  747.98  108.47
  -7   3  -6  745.63   93.81
  -7  -3  -6  712.01  157.80
   7  -3   6  626.61   83.69
   7  -3   6  590.25  179.81
  -7  -3  -6  617.66   82.25
   7   3   7  860.81  150.84
  -7   3  -7  861.99  137.13
  -7  -3  -7  916.94  234.49
   7  -3   7  824.13  100.71
   7  -3   7  750.25  215.09
  -7  -3  -7  809.93  151.10
   7   3   8  213.03   73.44
  -7   3  -8  192.43  148.86
  -7  -3  -8  181.25  120.54
   7  -3   8  165.76   60.32
   7  -3   8  148.86   95.27
  -7  -3  -8  166.22   81.74
  -7   3  -9   99.38   60.09
   7   3   9  115.52   69.61
  -7  -3  -9  192.28  108.56
  -7  -3  -9  125.08  139.73
   7  -3   9  159.11   60.37
  -7   3 -10  126.90  107.89
  -7  -3 -10  119.57   79.31
   7  -3  10  121.63   66.81
  -7   3 -11   -2.44   50.69
   7   3  11   -3.53   33.58
  -7   3 -11   14.42   51.93
   7  -3  11   19.03   47.54
  -7  -3 -11   13.64   36.46
  -7  -3 -11   23.11   46.73
  -7   3 -12  156.37   86.09
   7   3  12  132.36  100.54
   7  -3  12  161.27   80.73
  -7  -3 -12  161.16   89.28
  -7  -3 -12  130.06  132.55
   7   4 -14   65.19   71.95
  -7   4  14  104.78   87.19
  -7  -4  14   91.90   69.87
  -7  -4  14   70.31   85.41
   7  -4 -14   81.26   78.03
  -7   4  13  238.38  100.97
   7   4 -13  225.27   71.89
  -7  -4  13  224.13  182.80
  -7  -4  13  225.44  142.73
   7  -4 -13  226.43  140.49
   7  -4 -13  235.48  222.63
  -7  -4  12   23.90   39.60
   7  -4 -12   13.28   32.82
   7  -4 -12    6.91   35.57
  -7   4  11   79.93   67.61
   7   4 -11   53.16   48.56
   7  -4 -11   11.84   25.86
   7  -4 -11   14.51   49.16
   7   4 -10  319.28  127.02
  -7   4  10  312.40   86.58
   7  -4 -10  342.81  123.20
  -7  -4  10  328.63  223.29
  -7   4   9  255.62   90.30
   7   4  -9  251.14   69.26
   7   4  -9  245.69   80.73
  -7  -4   9  296.23   76.13
   7  -4  -9  250.02  106.70
   7  -4  -9  260.60  134.69
  -7   4   8 1052.15  150.20
   7   4  -8 1163.30  145.61
   7   4  -8 1008.98  171.15
  -7  -4   8 1158.63  121.95
   7  -4  -8 1048.65  110.86
   7  -4  -8 1084.48  133.22
  -7   4   7   37.89   47.76
   7   4  -7   17.33   41.59
   7   4  -7   33.47   34.04
  -7   4   7   31.37   60.96
  -7  -4   7   20.94   28.11
   7  -4  -7   33.59   43.25
  -7   4   6  131.19   58.65
   7   4  -6  136.84   67.42
   7   4  -6  136.06   56.61
  -7   4   6  131.61   93.55
  -7  -4   6   54.74   53.51
   7  -4  -6   49.17   44.40
  -7   4   5  461.01   82.87
   7   4  -5  509.93  118.22
   7   4  -5  478.94   71.91
  -7   4   5  446.36   82.01
  -7  -4   5  806.71   93.15
   7  -4  -5  744.13   97.89
  -7   4   4   14.57   33.80
   7   4  -4   11.48   33.24
   7   4  -4   14.67   40.19
  -7   4   4   37.84   60.81
  -7  -4   4   26.30   43.11
   7  -4  -4   13.07   30.66
  -7   4   3  338.17   54.08
   7   4  -3  322.75   85.61
   7   4  -3  304.47   51.86
  -7   4   3  285.97   77.49
  -7  -4   3  182.03  113.91
   7  -4  -3  147.97   72.63
  -7   4   2   80.31   32.57
   7   4  -2   76.38   63.96
   7   4  -2   71.03   59.12
  -7   4   2   73.98   83.93
  -7  -4   2   26.28   38.01
   7  -4  -2   21.13   28.46
  -7   4   1  987.33  162.98
  -7   4   1 1014.93  101.90
   7   4  -1 1014.53  129.81
   7   4  -1  948.79  106.19
   7  -4  -1  851.60  139.76
  -7  -4   1  825.11   78.13
  -7  -4   1  872.19  130.80
  -7   4   0  653.13  132.64
   7   4   0  667.52   66.62
   7   4   0  717.43  102.67
   7  -4   0  784.52  160.45
   7  -4   0  801.20   83.65
  -7  -4   0  774.17   76.89
  -7  -4   0  814.02  155.07
   7   4   1  357.69   93.41
  -7   4  -1  376.63  160.72
  -7  -4  -1  375.46  110.15
   7  -4   1  363.85   57.00
   7  -4   1  308.51  140.00
  -7  -4  -1  349.79   56.24
   7   4   2  184.54   77.43
  -7   4  -2  208.35   90.85
  -7  -4  -2  146.43   80.18
   7  -4   2  124.22   33.67
   7  -4   2  123.71   95.68
  -7  -4  -2  111.42   72.27
   7   4   3  868.71  127.45
  -7   4  -3  905.53  166.44
  -7  -4  -3  994.70  146.91
   7  -4   3  932.30  115.40
   7  -4   3  928.61  145.42
  -7  -4  -3  873.60  135.21
   7   4   4   75.73   54.39
  -7   4  -4  100.47   74.65
  -7  -4  -4   96.22   58.60
   7  -4   4   71.20   62.62
   7  -4   4   72.00   57.90
  -7  -4  -4   96.47   47.49
   7   4   5   40.80   36.61
  -7   4  -5   77.94   68.94
  -7  -4  -5  123.58   87.97
   7  -4   5   82.03   84.92
   7  -4   5   97.45   77.91
  -7  -4  -5   83.25  114.05
   7   4   6  355.52   77.38
  -7   4  -6  348.36   90.57
  -7  -4  -6  289.86  158.80
   7  -4   6  239.38  114.44
   7  -4   6  239.45  135.91
  -7  -4  -6  288.17  106.58
  -7   4  -7   16.29   41.63
   7  -4   7   62.45   70.04
  -7  -4  -7   63.50   38.98
  -7  -4  -7   70.06   55.74
  -7   4  -8  200.11   77.36
   7  -4   8  142.04  111.82
  -7  -4  -8  104.03  108.03
   7  -4   8  139.00  100.38
  -7   4  -9   32.86   48.59
   7   4   9   37.18   53.86
  -7  -4  -9   61.16   69.98
   7  -4   9   47.10   47.36
   7  -4   9   42.27   45.03
  -7   4 -10  133.02   61.29
   7   4  10   78.60  103.00
  -7  -4 -10  170.65   95.87
  -7  -4 -10  118.12  150.46
   7  -4  10  188.55   79.93
   7   5 -11  145.54   66.33
  -7   5  11  115.43   67.38
  -7  -5  11  110.99  107.88
  -7  -5  11   87.80   80.70
   7  -5 -11   83.02  121.22
  -7   5  10  149.19   69.31
  -7  -5  10   58.19   76.49
  -7  -5  10   69.59   64.44
   7  -5 -10   58.59   60.77
  -7   5   9   21.04   47.43
   7   5  -9   23.40   78.95
   7   5  -9    7.17   40.09
  -7  -5   9   19.46   22.48
   7  -5  -9    9.69   22.11
   7  -5  -9   21.82   46.13
  -7   5   8   86.99   69.05
   7   5  -8   90.80   96.76
   7   5  -8   96.09   55.71
  -7  -5   8   87.89   96.11
   7  -5  -8   73.43   87.48
   7  -5  -8   96.16  114.46
  -7   5   7  481.11   96.31
   7   5  -7  519.04  108.38
   7   5  -7  436.23   74.32
   7  -5  -7  424.08  102.57
  -7   5   6  240.10   68.22
   7   5  -6  242.15   73.39
   7   5  -6  199.81   57.03
   7  -5  -6   90.35  106.50
  -7   5   5   93.27   39.11
   7   5  -5   75.99   48.52
  -7   5   5   80.02   68.22
   7  -5  -5  128.09   96.72
   7   5  -4   48.10   48.44
  -7   5   4   41.71   51.24
  -7   5   4   11.26   38.66
   7  -5  -4   67.68   49.86
  -7  -5   4   70.22   61.82
  -7   5   3  141.21   68.84
  -7  -5   3  208.37  143.41
   7  -5  -3  197.35   64.44
  -7   5   2  181.75  142.60
  -7  -5   2  211.16  180.22
   7  -5  -2  170.59   94.32
  -7   5   1  103.52  106.79
   7  -5  -1  112.98  126.34
  -7   5   0   39.96   35.28
   7  -5   0   42.36   44.93
  -7   5  -1  390.70  102.43
   7  -5   1  348.52   96.96
  -7   5  -2  118.08  124.74
   7  -5   2  116.50  127.16
  -7   5  -3   62.74   65.36
  -7  -5  -3  108.53  127.48
   7   5   4  157.08   70.08
  -7   5  -4  149.16  135.52
  -7  -5  -4  145.73  114.95
   7  -5   4  127.68  137.85
  -7  -5  -4  135.40   43.50
   7   5   5   43.84   52.12
  -7   5  -5   22.80   38.10
  -7  -5  -5   74.60   56.26
   7  -5   5   59.39   54.93
   7  -5   5   62.09   91.95
  -7  -5  -5   47.90   68.09
   7   5   6  113.07   72.49
  -7   5  -6  148.95   88.43
  -7  -5  -6  139.00  102.33
   7  -5   6   79.95  101.81
   7  -5   6   92.90   93.77
  -7  -5  -6   81.29   85.40
   7   5   7   12.83   58.94
  -7   5  -7    4.88   23.49
  -7  -5  -7   23.69   43.82
   7  -5   7   23.47   38.98
   7  -5   7   15.55   38.30
  -7  -5  -7   17.30   41.08
  -7  -5  -8  277.30  211.38
   7   6  -4   47.14   85.60
  -7  -6   4   13.27   33.61
   7  -6  -4   27.97   33.02
   7  -6  -4   11.73   33.83
   7   6  -3  119.91   86.02
  -7  -6   3  106.09  132.80
   7   6  -2  107.41   80.08
  -7   6   2   27.39   47.25
  -7  -6   2   36.77   55.55
   7   6  -1    3.98   27.54
  -7   6   1   -4.15   40.59
  -7  -6   1   -1.01   41.58
  -7   6   0   19.86   37.26
   7   6   0   59.50   74.48
   7  -6   0   11.56   26.36
  -7  -6   0   38.29   60.61
  -7   6  -1    3.86   41.01
   7   6   1    0.54   43.50
   7  -6   1   18.24   50.93
  -7  -6  -1   19.34   30.68
  -8   0  17   -0.59   39.40
   8   0 -17    5.65   52.87
   8   0 -17   -0.13   38.94
  -8   0  16   30.09   80.79
   8   0 -16   29.20   54.82
   8   0 -16   17.44   41.49
  -8   0  15 1377.12  141.67
   8   0 -15 1307.41  160.20
  -8   0  14   21.52   37.74
   8   0 -14   40.40   44.96
   8   0 -14   22.61   34.62
  -8   0  13 1326.16  151.79
  -8   0  13 1256.56  163.28
   8   0 -13 1274.49  151.90
   8   0 -13 1231.31  125.01
  -8   0  12  544.95  128.85
  -8   0  12  531.67   92.23
   8   0 -12  512.09   95.64
   8   0 -12  480.94  144.70
  -8   0  11   79.16   66.80
  -8   0  11   36.06   24.73
   8   0 -11   32.69   47.62
   8   0 -11   37.87   42.85
  -8   0  10  959.39  118.25
  -8   0  10  869.43  119.76
   8   0 -10  908.97  121.47
  -8   0  10  761.95   87.26
  -8   0   9    8.78   25.72
   8   0  -9   10.26   29.07
   8   0  -9    1.37   24.44
  -8   0   9    0.01   33.78
  -8   0   8 1163.09  147.40
   8   0  -8 1088.25   77.01
   8   0  -8 1148.87  144.15
  -8   0   8 1026.13   96.92
  -8   0   7  840.96  123.46
   8   0  -7  801.66   85.89
   8   0  -7  804.98  150.63
  -8   0   7  735.39   67.61
  -8   0   6 1083.66  120.38
   8   0  -6 1027.37   86.35
   8   0  -6  995.47  144.38
  -8   0   6  981.18   83.43
  -8   0   5 1539.44  103.29
   8   0  -5 1468.53   97.85
   8   0  -5 1431.46  108.32
  -8   0   5 1443.69  143.22
  -8   0   4 1137.82   84.70
   8   0  -4  993.07   69.70
   8   0  -4 1046.67  100.06
  -8   0   4 1030.11   81.71
  -8   0   3  592.47   66.07
   8   0  -3  593.83   55.67
   8   0  -3  635.36  148.17
  -8   0   3  622.76   64.07
  -8   0   2 2566.29  141.83
   8   0  -2 2805.76  139.69
   8   0  -2 2705.79  147.54
  -8   0   2 2862.79  201.01
  -8   0   1  162.41   60.28
   8   0  -1  170.48   45.41
   8   0  -1  152.80   71.39
  -8   0   1  163.83   70.07
  -8   0   0 2318.32  123.32
   8   0   0 2351.52  125.88
   8   0   0 2277.36  189.55
  -8   0   0 2372.08  145.11
  -8   0  -1 3424.58  191.08
   8   0   1 3204.93  183.59
   8   0   1 3267.87  183.77
  -8   0  -1 3051.59  209.53
  -8   0  -2 1381.36  102.41
   8   0   2 1353.87  104.86
   8   0   2 1378.01  114.97
  -8   0  -2 1295.87  122.47
  -8   0  -3  459.92   57.88
   8   0   3  411.79   60.61
   8   0   3  426.44  109.31
  -8   0  -3  438.36   67.94
  -8   0  -4 1151.22   71.45
   8   0   4 1143.26   96.50
   8   0   4 1126.30   89.63
  -8   0  -4 1106.35  123.87
  -8   0  -5  488.69   91.40
   8   0   5  447.82   93.74
   8   0   5  489.99  129.00
  -8   0  -5  444.90   77.28
  -8   0  -6 4054.83  446.15
   8   0   6 3696.52  305.72
   8   0   6 3747.00  318.56
  -8   0  -6 3753.74  370.23
  -8   0  -7  123.06   58.27
   8   0   7  111.81   89.64
   8   0   7  130.64   91.53
  -8   0  -7  142.99   50.43
  -8   0  -8   25.37   30.58
   8   0   8   19.36   44.17
   8   0   8   24.15   27.96
  -8   0  -8   19.13   30.86
  -8   0  -9 1817.78  217.77
   8   0   9 1498.88  173.00
   8   0   9 1535.95  174.03
  -8   0  -9 1630.42  183.78
   8   0  10   -2.65   39.04
   8   0  10    8.60   28.74
  -8   0 -10   -0.69   42.06
   8   0  11  483.27  144.31
   8   0  12   12.23   26.02
   8   0  12   21.39   41.02
  -8   0 -12    8.05   28.64
   8   0  13    2.30   27.13
   8   0  13    1.54   14.86
  -8   0 -13   11.91   27.74
   8   1 -17  941.89  138.90
  -8   1  17  889.18  152.76
   8  -1 -17  973.05  122.02
  -8  -1  17 1074.84  214.30
   8  -1 -17  991.27  112.49
  -8   1  16  449.28  114.55
   8   1 -16  432.84  125.31
  -8  -1  16  487.55  150.26
  -8  -1  16  464.37  150.02
   8  -1 -16  421.67  161.87
   8  -1 -16  403.63  253.31
   8   1 -15  113.62   80.66
  -8   1  15  107.84   72.50
  -8  -1  15   91.76   81.37
  -8  -1  15  107.18  104.54
   8  -1 -15  104.50   64.70
   8   1 -14  736.38  121.07
   8  -1 -14  678.48  173.74
   8  -1 -14  702.88  195.31
  -8  -1  14  690.28  100.89
  -8   1  13  512.35  105.53
   8   1 -13  558.93  152.02
   8   1 -13  551.76  109.72
  -8  -1  13  603.35  173.85
   8  -1 -13  466.29  131.28
  -8  -1  13  497.35  131.31
   8  -1 -13  568.34  213.71
   8   1 -12  756.12  172.30
  -8   1  12  745.21  117.98
   8   1 -12  773.09  159.46
  -8  -1  12  699.74  123.41
   8  -1 -12  750.28  127.49
   8  -1 -12  774.49  161.25
  -8  -1  12  771.25  157.46
  -8   1  11 1279.28  189.63
   8   1 -11 1291.46  136.30
   8   1 -11 1240.35  142.40
  -8  -1  11 1564.36  170.73
   8  -1 -11 1468.96  187.48
  -8  -1  11 1461.61  201.21
   8  -1 -11 1567.77  195.94
  -8   1  10  566.16  135.49
  -8   1  10  609.33  131.52
  -8   1  10  606.17   91.79
   8   1 -10  646.82   82.13
   8   1 -10  597.79  106.56
   8  -1 -10  648.34  105.37
  -8  -1  10  715.80   94.31
   8   1  -9 1548.03  150.94
  -8   1   9 1380.93  143.65
  -8   1   9 1396.60  111.76
  -8   1   9 1311.51  133.52
   8   1  -9 1395.09  149.34
  -8  -1   9 1645.32  201.93
  -8  -1   9 1407.35  151.56
   8  -1  -9 1646.60  169.49
  -8   1   8 1025.23  118.20
  -8   1   8 1079.03  129.55
  -8   1   8 1092.14   87.30
   8   1  -8 1152.90  111.94
   8   1  -8 1072.02  191.57
   8  -1  -8 1242.78  147.11
  -8  -1   8 1273.48  129.13
  -8  -1   8 1177.34  108.28
  -8   1   7 1286.11  130.54
   8   1  -7 1338.25  102.74
  -8   1   7 1207.85   94.85
   8   1  -7 1318.75  132.91
  -8  -1   7 1109.20  104.66
   8  -1  -7 1038.10   61.93
  -8  -1   7 1013.50   91.61
   8  -1  -7 1036.75  147.34
   8   1  -6 3156.06  173.36
  -8   1   6 3250.34  181.85
   8   1  -6 3153.81  219.46
  -8   1   6 3015.64  189.64
  -8  -1   6 3281.91  200.48
   8  -1  -6 3724.55  184.12
  -8  -1   6 3585.11  187.09
   8  -1  -6 3591.53  207.59
   8   1  -5  328.40   66.41
  -8   1   5  336.14   51.10
  -8   1   5  224.04   31.66
   8   1  -5  311.53   59.27
  -8   1   5  316.41   69.22
   8  -1  -5  230.83   34.67
  -8  -1   5  194.77   43.24
  -8  -1   5  223.84   44.23
   8  -1  -5  202.81  137.04
   8   1  -4 1688.12  114.21
  -8   1   4 1750.04  113.93
   8   1  -4 1808.41  149.59
  -8   1   4 1623.38  111.42
  -8  -1   4 2026.49  162.58
   8  -1  -4 2170.05  119.59
  -8  -1   4 2067.09  123.89
   8  -1  -4 1942.51  127.80
   8   1  -3 1132.40   91.86
  -8   1   3 1163.69   92.95
   8   1  -3 1151.15   99.64
  -8   1   3 1142.11  119.91
  -8  -1   3 1279.05   87.80
   8  -1  -3 1295.15   97.31
  -8  -1   3 1304.12   99.49
   8  -1  -3 1283.16  123.55
   8   1  -2 2350.98  147.01
  -8   1   2 2501.18  158.92
   8   1  -2 2506.29  214.19
  -8   1   2 2314.34  140.52
  -8  -1   2 2485.33  186.09
   8  -1  -2 2479.67  131.70
  -8  -1   2 2465.41  166.46
   8  -1  -2 2503.92  156.87
   8   1  -1 5001.62  292.52
  -8   1   1 5132.13  265.77
   8   1  -1 4945.10  255.78
  -8   1   1 5008.66  265.59
  -8  -1   1 4872.54  242.58
   8  -1  -1 4392.41  216.81
  -8  -1   1 4696.01  241.93
   8  -1  -1 4650.28  246.29
   8   1   0  835.29   98.19
  -8   1   0  946.05  106.92
   8   1   0  952.02   81.72
  -8   1   0  956.77  108.97
  -8  -1   0 1445.40   94.35
   8  -1   0 1406.24   91.25
  -8  -1   0 1327.11   92.91
   8  -1   0 1401.15  112.71
   8   1   1  514.26   63.42
  -8   1  -1  532.36   51.76
   8   1   1  519.59   66.01
  -8   1  -1  517.75  123.85
  -8  -1  -1  484.17   90.54
   8  -1   1  493.05   58.07
  -8  -1  -1  482.54   75.60
   8  -1   1  472.42   86.16
   8   1   2 4528.96  255.32
  -8   1  -2 4514.65  218.03
   8   1   2 4780.15  245.50
  -8   1  -2 4527.80  240.96
  -8  -1  -2 5178.66  256.64
   8  -1   2 5180.83  263.36
  -8  -1  -2 4873.41  335.56
   8  -1   2 5155.24  284.73
   8   1   3  852.89  128.36
  -8   1  -3  774.47   69.87
  -8   1  -3  788.43   51.60
   8   1   3  815.61   98.62
  -8   1  -3  854.45   82.81
   8  -1   3  757.76   76.14
  -8  -1  -3  738.68   59.38
  -8  -1  -3  760.02  144.83
   8  -1   3  714.01  125.86
   8   1   4 3831.31  289.59
  -8   1  -4 3682.70  265.67
   8   1   4 3901.55  289.07
  -8   1  -4 3660.38  284.28
  -8  -1  -4 3260.61  261.20
   8  -1   4 3143.83  272.28
  -8  -1  -4 3271.53  270.35
   8  -1   4 3202.56  286.46
   8   1   5    3.19   37.86
  -8   1  -5   11.05   19.51
   8   1   5    6.80   20.44
  -8   1  -5   11.26   43.82
  -8  -1  -5   91.12   71.40
   8  -1   5   50.68   37.51
  -8  -1  -5   50.90   70.07
   8  -1   5   84.27   75.95
   8   1   6   71.81   50.29
  -8   1  -6   69.32   55.56
   8   1   6   68.77   48.12
  -8   1  -6   93.79   64.65
  -8  -1  -6   65.92   50.83
   8  -1   6   66.18   44.72
  -8  -1  -6   62.44   74.59
   8  -1   6   75.45   70.97
  -8   1  -7 1211.50  146.82
   8   1   7 1199.73  138.59
   8   1   7 1175.98  136.64
   8  -1   7 1143.27  233.24
   8  -1   7 1132.41  136.03
  -8  -1  -7 1157.17  138.58
  -8  -1  -7 1246.70  149.08
  -8   1  -8  573.11   86.72
   8   1   8  560.31   87.28
   8   1   8  587.97  105.90
   8  -1   8  455.48  142.47
   8  -1   8  451.43   87.78
  -8  -1  -8  476.59  156.22
  -8  -1  -8  490.53  139.36
  -8   1  -9  571.24   76.73
   8   1   9  520.21  108.33
   8   1   9  577.71  103.68
   8  -1   9  522.45  134.47
   8  -1   9  593.68  100.91
  -8  -1  -9  590.30   95.61
  -8  -1  -9  656.95  151.20
  -8   1 -10   69.42   46.37
   8   1  10   32.21   41.57
   8   1  10   52.61   63.88
   8  -1  10   28.82   40.25
   8  -1  10   41.79   69.86
  -8  -1 -10   25.04   45.06
  -8  -1 -10   60.93   48.54
   8   1  11   66.48   64.80
   8   1  11   96.54   69.46
   8  -1  11   66.92   70.57
  -8  -1 -11   80.70   60.89
  -8  -1 -11   97.61   54.50
   8   1  12  158.70   80.12
  -8   1 -12  142.10   89.71
   8  -1  12  115.71   80.70
   8  -1  12   76.52   71.38
  -8  -1 -12  111.78   64.97
   8   1  13  148.14   64.36
  -8   1 -13  165.13  111.52
   8  -1  13  165.41   73.94
   8  -1  13  140.27  115.14
  -8  -1 -13  196.53   80.48
   8   2 -16  396.21  277.30
  -8   2  16  286.25  340.41
   8  -2 -16  395.67  195.31
  -8  -2  16  466.32  142.78
   8  -2 -16  498.05  211.10
   8   2 -15  588.94  128.62
  -8   2  15  500.52  130.18
  -8  -2  15  546.22  135.03
  -8  -2  15  575.16  178.40
   8  -2 -15  504.71  230.85
  -8   2  14   11.56   40.75
   8   2 -14  -10.47   59.11
  -8  -2  14    0.85   22.16
  -8  -2  14    6.33   27.13
   8  -2 -14    2.18   31.39
  -8   2  13  395.98   90.60
  -8  -2  13  544.65  200.17
   8  -2 -13  540.88  109.36
   8  -2 -13  616.34   98.44
  -8   2  12  262.94  237.64
   8   2 -12  391.97   97.03
  -8  -2  12  310.20  143.11
  -8  -2  12  268.06  153.86
   8  -2 -12  288.52  124.92
   8  -2 -12  285.64  209.91
  -8   2  11  234.38   92.70
   8   2 -11  275.99   79.29
  -8  -2  11  308.98  217.57
  -8  -2  11  255.68  186.59
   8  -2 -11  291.99  130.50
   8  -2 -11  302.22  167.21
  -8   2  10 1616.24  214.20
   8   2 -10 2350.00  219.71
   8   2 -10 1932.67  264.48
   8   2 -10 2116.73  189.37
  -8  -2  10 2076.25  207.08
   8  -2 -10 1950.08  213.68
  -8   2   9  154.84   97.16
  -8   2   9  106.51   58.73
   8   2  -9  159.16   55.82
   8   2  -9  160.84  143.23
   8  -2  -9  203.05  146.09
  -8  -2   9  160.05   62.28
  -8  -2   9  210.52   88.23
  -8   2   8  957.86  115.69
  -8   2   8  766.06  127.51
   8   2  -8 1080.29  123.27
   8   2  -8  944.27  135.93
   8  -2  -8 1170.57  275.69
  -8  -2   8 1081.90  110.20
  -8  -2   8 1090.91  111.96
  -8   2   7 1441.91  195.01
  -8   2   7 1114.97  123.47
   8   2  -7 1594.09  146.34
   8   2  -7 1417.68  200.25
   8  -2  -7 1107.49  122.71
  -8  -2   7 1113.75  101.78
  -8  -2   7 1074.86  109.90
  -8   2   6 1642.97  205.99
  -8   2   6 1330.65  124.76
   8   2  -6 1863.08  162.59
   8   2  -6 1608.93  160.38
   8  -2  -6 1855.81  163.37
  -8  -2   6 1951.09  168.38
  -8  -2   6 1961.48  220.81
  -8   2   5 3168.60  187.17
  -8   2   5 2455.55  146.84
   8   2  -5 3301.32  185.00
   8   2  -5 3007.42  217.44
   8  -2  -5 2804.23  172.61
  -8  -2   5 3077.62  162.99
  -8  -2   5 2971.39  175.19
   8   2  -4   64.09   52.61
  -8   2   4   44.87   29.11
  -8   2   4    0.62    4.10
  -8   2   4   74.85   69.92
   8   2  -4   62.26   43.39
  -8  -2   4  150.55   46.17
  -8  -2   4  149.44   46.64
   8  -2  -4  169.54  163.73
   8   2  -3 1260.65  102.25
  -8   2   3 1000.46   76.35
  -8   2   3  926.11   64.42
   8   2  -3 1299.22  102.08
  -8   2   3 1243.88  125.72
   8  -2  -3 1105.63   64.39
  -8  -2   3 1201.44   89.29
  -8  -2   3 1124.23  104.17
   8  -2  -3 1099.37   99.64
   8   2  -2 1146.36   99.90
   8   2  -2 1150.01  139.81
  -8   2   2 1196.86  165.66
   8   2  -1 1298.61  111.13
  -8   2   1  990.15   85.63
   8   2  -1 1239.17   94.43
  -8   2   1 1280.48  108.47
  -8  -2   1 1402.87   98.81
   8  -2  -1 1392.14   85.50
  -8  -2   1 1333.42  122.32
   8  -2  -1 1463.01  189.00
   8   2   0 4613.71  260.75
  -8   2   0 3934.84  189.60
   8   2   0 4594.60  233.96
  -8   2   0 4476.49  268.46
  -8  -2   0 4494.30  251.10
   8  -2   0 4654.91  222.08
  -8  -2   0 4550.36  227.26
   8  -2   0 4645.25  246.44
   8   2   1 2100.61  163.72
  -8   2  -1 1776.53  106.08
   8   2   1 1951.67  147.80
  -8   2  -1 2081.61  172.32
  -8  -2  -1 1553.16  102.74
   8  -2   1 1592.78   99.64
  -8  -2  -1 1573.92   99.41
   8  -2   1 1594.31  151.75
   8   2   2  452.19   89.45
  -8   2  -2  402.40   48.49
   8   2   2  452.99   76.84
  -8   2  -2  514.56  209.33
  -8  -2  -2  367.56   65.85
   8  -2   2  373.19   62.54
  -8  -2  -2  356.38   57.75
   8  -2   2  356.15  164.08
   8   2   3  246.58   75.45
  -8   2  -3  215.26   26.83
   8   2   3  206.42   95.75
  -8   2  -3  225.27  171.19
  -8  -2  -3  355.48  195.39
   8  -2   3  312.47   67.30
  -8  -2  -3  320.51   64.24
   8  -2   3  327.46  158.65
   8   2   4  296.82   79.51
  -8   2  -4  269.89   78.58
  -8  -2  -4  425.60  164.77
   8  -2   4  381.43   67.79
   8  -2   4  384.93  122.58
  -8  -2  -4  381.46  153.39
  -8   2  -5  508.18  112.82
   8   2   5  475.06   63.75
   8   2   5  474.67   90.94
   8  -2   5  445.31  154.27
   8  -2   5  482.91   82.68
  -8  -2  -5  490.97   74.26
  -8  -2  -5  492.36  171.02
  -8   2  -6  589.69   92.12
   8   2   6  575.27   79.13
   8   2   6  612.17   94.38
   8  -2   6  402.91  193.23
   8  -2   6  401.70   76.94
  -8  -2  -6  411.89   64.11
  -8  -2  -6  420.30  175.15
  -8   2  -7    5.57   21.49
   8   2   7    2.96    7.37
   8   2   7    3.39   26.13
   8  -2   7   -5.38   37.77
   8  -2   7    4.11   32.67
  -8  -2  -7   -0.38   34.60
  -8  -2  -7    7.46   18.94
   8   2   8  662.72  103.55
  -8   2  -8  659.30  115.06
  -8  -2  -8  654.27  186.66
   8  -2   8  575.60   98.71
   8  -2   8  617.97   91.59
  -8  -2  -8  625.14   99.68
   8   2   9   87.81   59.57
  -8   2  -9  100.01   79.62
  -8  -2  -9   89.92   71.93
   8  -2   9   74.46   61.71
   8  -2   9   80.96   54.79
  -8  -2  -9   57.83   42.40
  -8   2 -10    3.71   39.41
   8  -2  10    5.45   34.22
   8  -2  10    5.83   15.87
  -8  -2 -10   16.56   32.40
   8   2  11  265.82  102.12
  -8  -2 -11  293.38  194.37
   8  -2  11  258.79  217.27
  -8  -2 -11  237.35  218.64
   8   2  12   46.19   59.70
  -8   2 -12   47.21   53.91
  -8  -2 -12   30.46   49.11
   8  -2  12   19.72   41.87
   8  -2  12   32.48   53.69
  -8  -2 -12   42.49   50.87
  -8   3  15   36.82   78.89
   8   3 -15    7.69   34.89
  -8  -3  15   13.71   61.98
  -8  -3  15   22.23   46.90
   8  -3 -15    7.39   24.04
   8  -3 -15    8.53   33.54
   8   3 -14  693.30  120.09
  -8   3  14  595.40  123.03
  -8  -3  14  794.82  162.85
  -8  -3  14  862.91  227.32
   8  -3 -14  775.51  120.73
   8   3 -13   58.47   65.93
  -8   3  13   53.54   96.29
   8  -3 -13   58.61   59.16
  -8  -3  13   69.24   90.53
   8  -3 -13   65.86   79.39
  -8   3  12  247.71   87.51
  -8  -3  12  274.59  167.50
   8  -3 -12  273.54  157.10
  -8   3  11  455.45   89.90
   8   3 -11  641.00  103.86
   8   3 -11  559.84  106.55
  -8  -3  11  574.35  245.31
   8  -3 -11  565.56  173.47
   8  -3 -11  579.23  108.51
  -8   3  10   87.03   54.74
   8   3 -10   99.83   65.61
   8   3 -10   93.11   61.57
  -8  -3  10  101.07   63.17
   8  -3 -10  124.82   67.45
   8  -3 -10  117.00   80.06
  -8   3   9  617.47  108.36
   8   3  -9  780.15  113.90
   8   3  -9  634.06  139.73
  -8   3   9  670.36  111.26
  -8  -3   9  660.38  152.13
   8  -3  -9  676.89  136.76
  -8   3   8 1341.49  194.55
   8   3  -8 1658.73  188.90
   8   3  -8 1423.04  171.10
  -8   3   8 1498.19  181.30
  -8  -3   8 1374.78  165.82
   8  -3  -8 1256.72  151.25
  -8   3   7  373.41  116.26
   8   3  -7  426.31  136.84
   8   3  -7  361.23   81.07
  -8   3   7  377.75   83.06
  -8  -3   7  423.74  201.17
   8  -3  -7  390.44  167.57
  -8   3   6  143.57   54.17
   8   3  -6  173.09  143.91
   8   3  -6  137.24   59.64
  -8   3   6  151.87  107.64
  -8  -3   6  377.02  144.88
   8  -3  -6  251.15  106.11
  -8   3   5   15.05   48.51
   8   3  -5   39.71   75.50
   8   3  -5   17.26   33.57
  -8   3   5    9.50   38.26
  -8  -3   5   -4.19   32.36
   8  -3  -5    7.31   28.63
  -8   3   4 1749.69  169.09
  -8   3   4 1722.27  155.38
   8   3  -4 1940.13  190.20
   8   3  -4 1526.72  146.56
   8  -3  -4 2725.98  237.81
  -8  -3   4 2781.27  222.84
  -8  -3   4 2699.72  225.71
  -8   3   3 3157.77  320.77
  -8   3   3 3247.42  260.29
   8   3  -3 3363.99  287.63
   8   3  -3 2634.38  219.44
   8  -3  -3 3186.64  273.47
  -8  -3   3 3277.18  258.75
  -8  -3   3 3226.38  281.61
  -8   3   2  368.01   71.94
  -8   3   2  385.76   50.76
   8   3  -2  406.81   85.72
   8   3  -2  295.43   52.33
   8  -3  -2  312.47  150.03
  -8  -3   2  299.80   46.25
  -8  -3   2  330.62  120.77
   8   3  -1 1082.26  124.54
  -8   3   1 1105.04   99.07
   8   3  -1  782.91  105.91
  -8   3   1 1009.54  116.79
  -8  -3   1 1051.43  110.71
   8  -3  -1  947.52   87.44
  -8  -3   1  926.99  115.68
   8  -3  -1  943.56  168.47
   8   3   0   89.50   77.57
  -8   3   0   86.59   31.87
   8   3   0   65.80   49.15
  -8   3   0   91.81   71.55
  -8  -3   0   12.39   32.37
   8  -3   0   37.86   23.60
  -8  -3   0   32.64   34.10
   8  -3   0   25.48   43.27
  -8   3  -1  763.52  114.25
   8   3   1  549.30   64.75
   8   3   1  745.47  107.47
   8  -3   1  942.17  219.37
   8  -3   1  987.54  105.33
  -8  -3  -1  979.82  103.05
  -8  -3  -1  941.28  129.99
  -8   3  -2  631.14  105.59
   8   3   2  378.54   79.93
   8   3   2  560.54  101.15
   8  -3   2  439.80  207.14
   8  -3   2  465.41   66.26
  -8  -3  -2  485.90   67.07
  -8  -3  -2  474.31  139.20
  -8   3  -3   64.18   56.70
   8   3   3   42.84   31.53
   8   3   3   94.52   68.64
   8  -3   3   27.95   56.15
   8  -3   3   43.98   29.18
  -8  -3  -3   34.93   53.49
  -8  -3  -3   45.57   41.35
   8   3   4  772.46  109.89
  -8   3  -4  786.98  116.63
  -8  -3  -4  906.09  178.46
   8  -3   4  884.85  103.59
   8  -3   4  870.43  161.65
  -8  -3  -4  868.66  108.80
   8   3   5  204.47  114.79
  -8   3  -5  274.53  209.97
  -8  -3  -5  223.20   67.90
   8  -3   5  200.60   59.94
   8  -3   5  217.13  131.97
  -8  -3  -5  202.96   87.66
   8   3   6  183.72   72.74
  -8   3  -6  194.78   68.19
  -8  -3  -6  121.35   82.27
   8  -3   6  137.34   48.48
   8  -3   6  121.25   68.49
  -8  -3  -6  122.97  126.32
   8   3   7  296.96   97.09
  -8   3  -7  326.73   96.02
  -8  -3  -7  284.23   82.63
   8  -3   7  261.80   56.54
   8  -3   7  242.98   94.44
  -8  -3  -7  231.88  199.52
  -8   3  -8  192.47   54.90
   8  -3   8  183.71   60.09
  -8  -3  -8  172.82  181.20
  -8  -3  -8  199.77  137.84
  -8   3  -9  126.54  102.05
   8   3   9  142.61   73.55
  -8  -3  -9  180.72  117.32
   8  -3   9  142.86  125.01
   8  -3   9  190.67   68.12
   8   3  10  206.68   75.89
   8  -3  10  214.38   77.54
   8  -3  10  173.31  119.53
  -8  -3 -10  188.24  185.09
   8   3  11   66.59   90.82
  -8   3 -11   81.48   95.92
  -8  -3 -11   90.36   67.73
   8  -3  11   74.95   62.83
   8  -3  11   68.38   55.98
  -8  -3 -11   71.22   86.19
   8   4 -13  130.50   81.05
  -8   4  13  143.49   86.90
  -8  -4  13   97.59   97.67
  -8  -4  13   97.72  123.18
   8  -4 -13  103.50   85.45
  -8   4  12  308.42   95.42
   8   4 -12  273.35  271.03
  -8  -4  12  388.42   87.57
  -8  -4  12  341.48  149.83
   8  -4 -12  350.42  110.88
   8  -4 -12  307.41  269.01
  -8  -4  11   25.07   40.82
   8  -4 -11   37.62   70.18
   8  -4 -11   56.07   58.51
  -8   4  10  368.51   80.20
   8   4 -10  429.59  102.73
   8   4 -10  391.27   82.32
  -8  -4  10  326.68  195.55
   8  -4 -10  322.27  125.91
   8  -4 -10  357.23  188.71
  -8   4   9   41.84   55.24
   8   4  -9   59.70   61.72
   8  -4  -9   19.41   46.36
  -8   4   8   56.55   54.66
   8   4  -8   63.65   80.16
   8   4  -8   56.17   66.43
  -8  -4   8   16.22   27.31
   8  -4  -8   10.94   21.07
  -8   4   7  506.49   95.74
   8   4  -7  567.71  113.56
   8   4  -7  514.44  171.67
  -8   4   7  494.54  108.74
  -8  -4   7  686.51  115.73
   8  -4  -7  558.36  153.15
  -8   4   6  152.32   57.60
   8   4  -6  174.32  154.05
   8   4  -6  191.38   55.67
  -8   4   6  184.27  139.37
  -8  -4   6  156.90  160.80
   8  -4  -6  143.64  129.20
  -8   4   5  613.47   95.79
   8   4  -5  673.69   96.18
   8   4  -5  594.80   96.82
  -8   4   5  582.67  218.78
  -8  -4   5  642.31   99.90
   8  -4  -5  539.83  149.83
  -8   4   4  222.42   66.82
   8   4  -4  232.61   83.60
   8   4  -4  205.74   66.58
  -8   4   4  206.14  161.03
  -8  -4   4  259.92  109.25
   8  -4  -4  225.37   77.36
  -8   4   3  177.69   48.49
   8   4  -3  182.14   84.15
   8   4  -3  159.90   56.23
  -8   4   3  179.02  141.40
  -8  -4   3  156.74  153.77
   8  -4  -3  132.38  140.81
   8   4  -2    5.95   26.17
   8   4  -2   14.60   45.73
  -8   4   2   13.00   20.00
   8  -4  -2   52.73   42.05
  -8  -4   2   69.07   63.44
   8   4  -1  458.50   80.29
   8   4  -1  515.70  106.80
  -8   4   1  506.25  163.39
   8  -4  -1  382.29  169.65
  -8  -4   1  394.27  152.14
   8   4   0  253.24   89.24
  -8   4   0  222.04  156.48
  -8  -4   0   91.98   78.19
   8  -4   0  117.65   85.87
  -8  -4   0   73.16   86.83
   8   4   1  453.91   96.62
  -8   4  -1  459.09   82.93
  -8  -4  -1  505.05  118.81
   8  -4   1  490.68  114.53
  -8  -4  -1  476.68   76.03
   8   4   2 1207.13  132.69
  -8   4  -2 1206.97  183.84
  -8  -4  -2 1176.40  127.02
   8  -4   2 1113.52  101.75
   8  -4   2 1040.46  223.94
  -8  -4  -2 1069.18  106.07
   8   4   3  638.04  129.82
  -8   4  -3  667.62  159.72
  -8  -4  -3  773.98  152.86
   8  -4   3  734.05  112.73
   8  -4   3  689.26  147.14
  -8  -4  -3  710.96  102.48
   8   4   4  114.70   86.57
  -8   4  -4  127.38   51.13
  -8  -4  -4   60.09   51.53
   8  -4   4   58.29   40.63
   8  -4   4   59.95   47.16
  -8  -4  -4   62.11   40.38
  -8   4  -5   83.63   63.92
   8  -4   5   26.63   25.49
  -8  -4  -5   14.60   34.17
  -8  -4  -5   34.10   42.80
   8   4   6  364.94  218.13
  -8   4  -6  371.30   79.66
   8  -4   6  428.69   70.75
   8  -4   6  339.82  230.20
  -8  -4  -6  419.32   63.94
   8   4   7  117.49   69.24
  -8   4  -7  150.10   93.35
  -8  -4  -7   98.21   84.86
   8  -4   7   87.98   52.77
   8  -4   7   74.91   77.16
  -8  -4  -7   66.52   91.57
   8   4   8   69.64   77.94
  -8  -4  -8  106.39   74.37
   8  -4   8   82.75   54.23
   8  -4   8   79.17   72.19
   8   4   9  147.95   69.37
  -8   4  -9  151.24  130.95
  -8  -4  -9  142.44   98.43
   8  -4   9  153.61   58.51
   8  -4   9  100.17  108.13
  -8  -4  -9  151.98   57.31
   8   5  -9   33.19   42.45
   8   5  -9   30.82   50.95
   8  -5  -9   63.84   70.88
  -8  -5   9   83.40   90.55
   8  -5  -9   62.20  100.82
  -8   5   8   37.26   70.86
   8   5  -8   53.29   73.64
   8   5  -8   33.15   55.38
  -8  -5   8   37.90   63.78
   8  -5  -8   40.73   52.97
   8  -5  -8   59.20   67.42
  -8   5   7   10.55   67.76
   8   5  -7   15.84   76.25
   8   5  -7    7.23   36.84
  -8  -5   7    4.38   22.87
   8  -5  -7    8.44   38.00
   8  -5  -7    4.62   24.88
   8   5  -6   84.94   56.64
  -8   5   6  110.06   58.98
   8   5  -6  103.54   95.70
  -8   5   6   67.43   63.08
  -8  -5   6   49.23   61.57
  -8   5   5   50.61   66.65
   8   5  -5   40.97   70.12
   8  -5  -5   18.94   39.54
  -8  -5   5   39.60   51.95
  -8   5   4  110.14   95.60
   8   5  -4  152.49  119.10
   8  -5  -4   92.83   75.56
  -8  -5   4  106.22   96.44
   8   5  -3   18.99   69.62
  -8  -5   3   14.52   28.21
   8  -5  -3   28.46   66.46
   8   5  -2   83.25   77.14
  -8  -5   2   83.65   84.06
   8  -5  -2   98.07  111.74
   8   5  -1   91.03   71.55
  -8  -5   1   86.92   84.08
   8  -5  -1   69.94   80.70
   8   5   0    3.40   47.05
  -8   5   0    0.13   28.68
  -8  -5   0    7.40   17.61
   8   5   1  305.05  119.32
  -8   5  -1  288.73   93.50
  -8  -5  -1  241.54  162.16
  -8   5  -2  145.27  141.08
   8   5   2  184.16  102.53
   8  -5   2   81.28   96.70
  -8  -5  -2   99.91   81.70
   8   5   3  234.40   86.33
  -8  -5  -3  224.20  160.60
   8  -5   3  188.03  195.08
   8   5   4  371.08   82.90
  -8  -5  -4  292.49  199.89
   8  -5   4  240.18  236.13
   8   5   5  128.33   73.39
  -8  -5  -5  160.58  128.87
   8  -5   5  110.13  127.88
  -8  -5  -5   91.55  140.62
   8   5   6  142.76   69.75
  -8   5  -6  133.40  127.74
  -8  -5  -6  159.06  120.45
   8  -5   6  143.91  138.43
  -8  -5  -6  105.97  161.42
  -9   0  16  218.14   95.00
   9   0 -16  231.59   89.94
   9   0 -16  180.57  145.06
  -9   0  15 1051.70  153.16
   9   0 -15 1009.78  152.49
   9   0 -15 1016.76  144.60
  -9   0  14  672.34  152.49
   9   0 -14  611.78  108.12
   9   0 -14  563.52  239.90
   9   0 -13  150.07  105.69
  -9   0  12 2600.43  238.34
   9   0 -12 2343.73  313.91
   9   0 -12 2307.79  346.92
  -9   0  11   30.13   40.88
  -9   0  11    7.84   15.38
   9   0 -11   29.05   65.98
  -9   0  10 2017.27  194.59
  -9   0  10 1716.00  158.64
   9   0 -10 1811.52  223.06
  -9   0  10 1674.65  175.76
  -9   0   9 2631.59  268.75
   9   0  -9 2504.62  238.66
   9   0  -9 2438.13  302.63
  -9   0   9 2385.24  238.71
  -9   0   8  113.82  101.07
   9   0  -8   91.18   36.38
   9   0  -8  108.34   74.35
  -9   0   8  105.79   70.04
  -9   0   7 4112.79  340.36
   9   0  -7 4048.50  340.00
   9   0  -7 3761.94  298.14
  -9   0   7 3691.55  281.31
  -9   0   6  936.75   99.95
   9   0  -6  906.26   92.27
   9   0  -6  826.05  204.71
  -9   0   6  826.12  108.89
  -9   0   5 1444.85  134.01
   9   0  -5 1344.75  115.84
   9   0  -5 1287.58  144.99
  -9   0   5 1313.32  120.25
  -9   0   4 4427.39  225.54
   9   0  -4 4271.74  213.37
   9   0  -4 4109.96  230.98
  -9   0   4 4319.69  287.60
  -9   0   3  235.63  120.31
   9   0  -3  216.85   48.14
   9   0  -3  225.30  208.19
  -9   0   3  229.03  107.74
  -9   0   2  782.02   61.63
   9   0  -2  818.55   90.65
   9   0  -2  796.87   86.17
  -9   0   2  832.16  127.05
  -9   0   1  743.30   88.30
   9   0  -1  751.10   86.47
   9   0  -1  719.24   94.94
  -9   0   1  744.09   78.11
  -9   0   0  477.86   73.63
   9   0   0  482.12   81.53
   9   0   0  509.15  135.94
  -9   0   0  517.82  130.56
  -9   0  -1 1906.31  156.97
   9   0   1 1699.88  190.33
   9   0   1 1812.36  157.29
  -9   0  -1 1797.81  202.15
  -9   0  -2  800.79  100.18
   9   0   2  704.42  128.64
   9   0   2  713.00  170.19
  -9   0  -2  683.94  111.57
  -9   0  -3 3385.61  245.79
   9   0   3 3130.03  246.38
   9   0   3 3228.92  282.63
  -9   0  -3 3023.32  292.40
  -9   0  -4 4158.91  459.23
   9   0   4 3671.18  300.02
   9   0   4 3833.58  349.50
  -9   0  -4 3898.23  438.49
  -9   0  -5   12.24   22.86
   9   0   5   -9.64   31.37
   9   0   5   -0.61   40.31
  -9   0  -5   -8.10   42.36
  -9   0  -6  322.20   45.52
   9   0   6  374.62   84.05
   9   0   6  308.55  155.04
  -9   0  -6  336.84   67.79
  -9   0  -7 1279.55  134.64
   9   0   7 1127.54  151.27
   9   0   7 1100.21  244.98
  -9   0  -7 1128.05  137.98
   9   0   8   -0.40   40.17
   9   0   8    1.84   42.87
  -9   0  -8   11.51   39.71
   9   0   9  981.44  119.87
   9   0   9  963.71  109.12
   9   0  10    8.79   38.97
   9   0  10    6.48   20.83
  -9   0 -10   14.10   62.70
   9   0  11   -6.34   42.58
   9   0  11    6.71   19.39
  -9   0 -11   -0.54   45.80
   9   0  12  179.27   81.95
   9   0  12  129.14  138.42
  -9   0 -12  196.51   67.81
   9   1 -16  832.26  141.35
  -9   1  16  863.57  263.19
   9  -1 -16  654.78  249.28
  -9  -1  16  798.96  198.09
   9  -1 -16  644.31  265.39
   9   1 -15   54.43   77.95
  -9   1  15   52.17   44.98
   9  -1 -15   32.87   53.94
  -9  -1  15   83.75  104.55
  -9   1  14  738.92  217.14
   9   1 -14  824.13  120.94
  -9  -1  14  834.30  199.77
  -9  -1  14  755.16  106.80
   9  -1 -14  766.70  111.89
   9  -1 -14  797.69  136.28
   9   1 -13 1161.07  139.70
  -9  -1  13 1272.77  142.74
   9  -1 -13 1253.23  286.41
  -9   1  12   10.22   20.68
   9   1 -12    0.18   22.42
   9   1 -12    8.68   30.15
  -9  -1  12   14.11   33.58
   9  -1 -12    1.45   21.35
  -9  -1  12    2.51   22.50
   9  -1 -12   -5.56   42.05
  -9   1  11 1691.68  119.92
   9   1 -11 1656.86  110.68
   9   1 -11 1575.23  159.84
  -9  -1  11 1638.10  175.35
   9  -1 -11 1533.66  204.44
  -9  -1  11 1483.65  153.65
  -9   1  10 1193.48  147.04
  -9   1  10 1311.54  165.57
   9   1 -10 1320.17  147.15
   9   1 -10 1266.70  159.58
   9  -1 -10 1232.55  172.99
  -9  -1  10 1127.48  126.36
  -9  -1  10 1319.71  157.91
  -9   1   9  449.58   95.16
  -9   1   9  503.39  124.50
   9   1  -9  490.32   69.28
   9   1  -9  490.97   81.44
   9  -1  -9  338.50   76.04
  -9  -1   9  288.75   58.62
  -9  -1   9  316.49  182.59
  -9   1   8 2307.74  237.62
   9   1  -8 2362.38  227.60
   9   1  -8 2228.60  286.82
  -9   1   8 2110.35  216.69
  -9  -1   8 2296.97  257.61
   9  -1  -8 2207.54  229.00
  -9  -1   8 2135.43  210.83
  -9   1   7  393.65  143.25
   9   1  -7  411.13   64.18
  -9   1   7  330.31   65.49
   9   1  -7  361.19   72.29
  -9  -1   7  376.65   72.44
   9  -1  -7  391.59   46.26
  -9  -1   7  400.80  101.91
   9  -1  -7  369.18   97.02
  -9   1   6 1804.98  164.66
  -9   1   6 2043.76  179.77
   9   1  -6 1893.61  239.28
   9   1  -6 1901.82  159.51
   9  -1  -6 1396.88  137.42
   9  -1  -6 1559.80  124.34
  -9  -1   6 1425.44  135.00
  -9  -1   6 1502.37  145.77
  -9   1   5 2828.07  252.89
   9   1  -5 2652.39  211.54
  -9   1   5 2537.59  221.80
   9   1  -5 2684.74  225.62
  -9  -1   5 2176.04  228.24
   9  -1  -5 2535.02  186.21
  -9  -1   5 2475.86  246.25
   9  -1  -5 2344.95  196.78
  -9   1   4   12.49   16.96
   9   1  -4   -3.75   29.32
  -9   1   4   22.87   46.93
   9   1  -4   15.50   41.23
  -9  -1   4   12.75   36.98
   9  -1  -4   20.25   25.71
  -9  -1   4    5.29   34.04
   9  -1  -4    1.49   34.10
   9   1  -3 2459.04  192.39
  -9   1   3 2572.84  237.33
   9   1  -3 2604.50  216.81
  -9   1   3 2400.51  199.74
  -9  -1   3 2537.17  209.52
   9  -1  -3 2527.17  200.00
  -9  -1   3 2621.22  202.76
   9  -1  -3 2401.02  205.55
   9   1  -2 1892.48  156.46
  -9   1   2 2020.35  189.20
   9   1  -2 1999.27  179.51
  -9   1   2 1846.80  160.72
  -9  -1   2 1817.30  176.74
   9  -1  -2 1750.06  137.91
  -9  -1   2 1702.79  139.33
   9  -1  -2 1752.99  159.43
   9   1  -1  675.86   96.90
  -9   1   1  682.58   93.15
   9   1  -1  644.26  147.34
  -9   1   1  660.29  103.31
  -9  -1   1  934.56   96.15
   9  -1  -1  899.93  136.52
  -9  -1   1  871.24   89.72
   9  -1  -1  869.56  129.05
   9   1   0 2342.57  196.57
  -9   1   0 2427.93  198.99
   9   1   0 2343.15  194.16
  -9   1   0 2298.28  232.06
  -9  -1   0 2647.61  201.62
   9  -1   0 2454.78  186.02
  -9  -1   0 2337.20  183.83
   9  -1   0 2484.50  201.02
   9   1   1   76.34   48.06
  -9   1  -1   82.47   35.32
   9   1   1   84.34   47.42
  -9   1  -1   91.89   84.83
  -9  -1  -1   65.86   51.26
   9  -1   1   64.29   36.92
  -9  -1  -1   60.97   65.51
   9  -1   1   78.40   78.69
   9   1   2 2308.18  185.08
  -9   1  -2 2334.98  169.67
   9   1   2 2437.42  190.49
  -9   1  -2 2271.33  193.75
  -9  -1  -2 2039.48  180.52
   9  -1   2 1978.33  161.76
  -9  -1  -2 1948.00  160.97
   9  -1   2 1929.33  219.06
   9   1   3  903.15  153.66
  -9   1  -3  979.35   91.66
   9   1   3 1055.66  114.88
  -9   1  -3  912.65  113.56
  -9  -1  -3 1146.68  141.06
   9  -1   3 1089.68  114.08
  -9  -1  -3 1041.79  110.29
   9  -1   3 1108.02  140.71
   9   1   4  419.97  156.35
  -9   1  -4  409.19   57.87
   9   1   4  427.20  124.88
  -9   1  -4  441.41   83.87
  -9  -1  -4  531.64   88.40
   9  -1   4  522.43   81.76
  -9  -1  -4  538.77   98.84
   9  -1   4  555.73  210.76
  -9   1  -5 2849.73  280.67
   9   1   5 2967.28  261.70
   9   1   5 2883.87  258.74
   9  -1   5 3064.42  276.89
   9  -1   5 2849.85  252.52
  -9  -1  -5 3003.68  265.38
  -9  -1  -5 3194.06  271.06
  -9   1  -6  887.05  201.06
   9   1   6  913.62  122.35
   9   1   6  896.99  123.92
   9  -1   6  869.89  246.97
   9  -1   6  839.14  117.59
  -9  -1  -6  910.96  120.97
  -9  -1  -6  914.85  118.94
  -9   1  -7  949.03  117.77
   9   1   7  859.16  112.97
   9   1   7  953.77  114.02
   9  -1   7  890.73  239.69
   9  -1   7  966.79  122.50
  -9  -1  -7  964.01  124.78
  -9  -1  -7 1039.77  156.57
  -9   1  -8  469.53  177.05
   9   1   8  441.85  146.90
   9   1   8  467.03  111.51
   9  -1   8  705.36  113.88
   9  -1   8  720.20  134.05
  -9  -1  -8  718.27  115.73
  -9  -1  -8  803.82  119.89
   9   1   9  127.54   98.32
   9  -1   9  145.10   76.99
   9  -1   9  123.29  125.03
  -9  -1  -9  153.09   97.67
  -9   1 -10  219.45  195.63
   9   1  10  209.33  104.98
   9   1  10  229.09   98.21
   9  -1  10  119.90   77.79
   9  -1  10  155.77   82.00
  -9  -1 -10  159.14  165.56
  -9  -1 -10  143.32  115.13
  -9   1 -11  497.91   84.57
   9   1  11  508.88  121.20
  -9  -1 -11  575.59  195.21
   9  -1  11  505.15  115.41
   9   1  12    4.76   37.00
  -9   1 -12   -1.14   36.83
   9  -1  12   -2.84   38.01
   9  -1  12    1.99   38.86
  -9  -1 -12    5.74   44.45
  -9   2  15  605.52  125.18
   9   2 -15  693.38  113.51
  -9  -2  15  786.40  102.30
  -9  -2  15  702.28  146.34
   9  -2 -15  641.83  149.53
   9  -2 -15  702.29  274.40
  -9   2  14  664.10  148.78
   9   2 -14  753.52  137.52
  -9  -2  14  619.83  209.43
  -9  -2  14  648.71  139.04
   9  -2 -14  596.92  191.93
   9  -2 -14  636.23  244.18
   9   2 -13  395.22   96.88
  -9   2  13  369.21  201.67
  -9  -2  13  380.46  135.79
  -9  -2  13  429.14  236.55
  -9   2  12 1090.63  165.82
  -9  -2  12 1202.36  160.88
   9  -2 -12 1245.66  160.80
   9  -2 -12 1309.15  141.88
  -9   2  11  306.45   85.64
   9   2 -11  434.06   88.61
   9   2 -11  391.38  166.00
  -9  -2  11  396.31  282.13
   9  -2 -11  380.78  137.72
   9  -2 -11  472.71  139.05
  -9   2  10  599.51  106.04
   9   2 -10  794.10   95.45
   9   2 -10  646.00  114.41
  -9   2  10  701.01  146.29
  -9  -2  10  822.18  171.81
   9  -2 -10  788.52  137.21
  -9   2   9 1251.34  202.90
   9   2  -9 1802.52  201.69
   9   2  -9 1526.67  189.02
  -9   2   9 1537.87  202.73
  -9  -2   9 1647.35  181.19
   9  -2  -9 1612.14  220.73
  -9   2   8   62.83   92.09
   9   2  -8   95.92   55.67
   9   2  -8   77.23   53.89
  -9   2   8   87.95   53.42
  -9  -2   8   76.63   57.20
   9  -2  -8   83.67   51.76
  -9  -2   8   82.27   53.56
  -9   2   7 1097.80  153.20
  -9   2   7  837.01  121.79
   9   2  -7 1228.83  139.47
   9   2  -7 1103.69  180.50
   9  -2  -7 1091.95  128.89
  -9  -2   7 1155.75  158.84
  -9  -2   7 1100.44  130.43
  -9   2   6  897.87  115.97
  -9   2   6  646.54  160.09
   9   2  -6  953.11  125.21
   9   2  -6  924.57  126.18
   9  -2  -6  879.83  167.65
  -9  -2   6  935.25  102.26
  -9  -2   6  992.98  153.38
  -9   2   5  224.33   69.78
  -9   2   5  127.39   42.15
   9   2  -5  211.52   64.28
   9   2  -5  202.35  106.16
   9  -2  -5  166.14  115.17
  -9  -2   5  191.92   50.48
  -9  -2   5  172.42   86.05
  -9   2   4 1982.18  192.28
  -9   2   4 1371.07  148.94
   9   2  -4 2082.26  193.56
   9   2  -4 1980.13  186.70
   9  -2  -4 1616.78  158.32
  -9  -2   4 1690.30  151.76
  -9  -2   4 1698.17  160.25
   9   2  -3  799.24   98.97
  -9   2   3  538.95  122.81
   9   2  -3  848.71  150.62
  -9   2   3  830.29  107.85
  -9  -2   3  696.08  129.45
   9  -2  -3  723.61   90.58
  -9  -2   3  669.98  102.62
   9  -2  -3  688.52  182.17
   9   2  -2 1800.24  168.22
  -9   2   2 1253.15  120.60
   9   2  -2 1799.19  186.81
  -9   2   2 1797.06  172.25
  -9  -2   2 1875.58  172.40
   9  -2  -2 1904.61  156.75
  -9  -2   2 1833.87  159.24
   9  -2  -2 1785.79  170.78
   9   2  -1  582.84   81.24
  -9   2   1  429.14   47.16
   9   2  -1  585.43   71.70
  -9   2   1  586.56   92.35
  -9  -2   1  502.40   82.02
   9  -2  -1  503.57   56.74
  -9  -2   1  437.12   97.49
   9  -2  -1  481.88   75.08
   9   2   0  201.09   71.00
  -9   2   0  138.45   37.12
   9   2   0  207.58  114.35
  -9   2   0  212.53   58.41
  -9  -2   0  222.33  111.00
   9  -2   0  220.48   47.05
  -9  -2   0  190.88   46.40
   9  -2   0  224.61  116.27
   9   2   1 1230.38  149.58
  -9   2  -1  949.82   82.00
   9   2   1 1115.97  162.39
  -9   2  -1 1191.14  129.62
  -9  -2  -1 1430.71  149.43
   9  -2   1 1435.84  145.50
  -9  -2  -1 1443.59  132.17
   9  -2   1 1433.22  184.21
  -9   2  -2  857.00  193.84
   9   2   2  786.93  100.72
   9   2   2  844.51  117.06
   9  -2   2  772.89  138.71
   9  -2   2  732.51  113.55
  -9  -2  -2  778.75  129.96
  -9  -2  -2  790.04  169.09
  -9   2  -3  617.20   88.38
   9   2   3  575.37  110.26
   9   2   3  633.18   96.42
   9  -2   3  597.53  221.92
   9  -2   3  599.49  150.55
  -9  -2  -3  614.23   82.41
  -9  -2  -3  615.48  175.29
  -9   2  -4  629.92  188.78
   9   2   4  598.63  133.52
   9   2   4  626.19   83.63
   9  -2   4  509.62  189.37
   9  -2   4  503.15   79.28
  -9  -2  -4  554.47   80.14
  -9  -2  -4  587.79  126.88
  -9   2  -5   98.18   85.82
   9   2   5   82.47   41.65
   9   2   5   82.46   83.35
   9  -2   5   51.21   45.18
   9  -2   5   63.86   48.92
  -9  -2  -5   76.36   77.38
  -9  -2  -5   74.05   59.59
   9   2   6  701.77  129.95
  -9   2  -6  667.05   94.16
  -9  -2  -6  732.02  160.63
   9  -2   6  708.92   91.08
   9  -2   6  640.78  219.03
  -9  -2  -6  700.57  123.76
   9   2   7  322.42   90.64
  -9   2  -7  360.09  126.17
  -9  -2  -7  340.77  175.29
   9  -2   7  311.66   74.57
   9  -2   7  294.43   97.36
  -9  -2  -7  321.88   88.37
  -9   2  -8   -2.60   37.72
  -9  -2  -8    4.67   20.59
   9  -2   8   15.21   30.01
  -9  -2  -8    6.40   45.28
   9  -2   8   -0.14   36.62
   9   2   9  729.21  132.11
  -9  -2  -9  816.74  175.40
  -9  -2  -9  810.27  112.27
   9   2  10   29.38   37.10
  -9   2 -10   61.66   58.55
  -9  -2 -10   92.37   68.45
   9  -2  10   86.60   55.49
   9  -2  10   76.09   75.68
  -9  -2 -10   97.37   64.83
   9   2  11   86.33   95.14
  -9   2 -11   84.67  105.02
  -9  -2 -11  136.02  103.99
   9  -2  11  127.32   83.58
   9  -2  11   97.66   78.68
  -9  -2 -11  144.41   66.81
  -9   3  14  133.85  102.60
   9   3 -14  139.31  107.51
  -9  -3  14  129.56  132.60
  -9  -3  14  111.72   86.05
   9  -3 -14  102.56   88.22
   9  -3 -14  119.19  104.08
  -9   3  13  296.82  103.60
   9   3 -13  341.84  274.07
  -9  -3  13  334.73  226.44
  -9  -3  13  338.28  206.47
   9  -3 -13  323.66  208.02
   9  -3 -13  414.24  206.07
  -9   3  12   56.60   76.53
   9   3 -12   54.34   65.43
  -9  -3  12   61.78   88.70
   9  -3 -12   59.65   48.57
  -9   3  11  693.87   97.72
   9   3 -11 1057.42  125.54
  -9  -3  11  973.22  101.86
   9  -3 -11  863.27  141.20
   9  -3 -11  930.96  139.83
  -9   3  10  369.69   77.75
   9   3 -10  498.88   84.82
   9   3 -10  425.26   81.17
   9  -3 -10  392.57  138.30
  -9   3   9  152.31  168.89
   9   3  -9  262.82   72.38
   9   3  -9  206.52   61.30
  -9   3   9  211.42  161.37
  -9  -3   9  174.12  196.51
   9  -3  -9  211.77   90.28
  -9   3   8  919.99  149.26
   9   3  -8 1288.02  191.41
   9   3  -8 1018.48  152.46
  -9   3   8 1230.18  185.34
  -9  -3   8 1209.70  227.09
   9  -3  -8 1073.33  162.92
  -9   3   7  123.75  128.03
   9   3  -7  181.50   62.87
   9   3  -7  148.15  108.46
  -9   3   7  176.46  143.03
  -9  -3   7  253.68  131.31
   9  -3  -7  206.15  108.16
  -9   3   6  455.74  128.43
   9   3  -6  647.73  113.21
   9   3  -6  462.06  180.23
  -9   3   6  616.47  193.71
  -9  -3   6  750.77  251.66
   9  -3  -6  641.58  154.08
  -9   3   5  822.72  115.19
   9   3  -5 1021.40  133.11
   9   3  -5  711.29  148.04
  -9   3   5  951.22  158.50
  -9  -3   5 1166.27  136.75
   9  -3  -5  956.98  125.84
  -9   3   4   24.57   56.59
  -9   3   4    7.70   28.04
   9   3  -4   28.64   38.52
   9   3  -4   15.00   38.11
   9  -3  -4   20.48   45.30
  -9  -3   4   27.59   36.52
  -9  -3   4   18.83   30.35
  -9   3   3  361.70   67.90
  -9   3   3  367.97   56.55
   9   3  -3  397.71   79.07
   9   3  -3  296.82   60.87
   9  -3  -3  362.77  147.13
  -9  -3   3  405.32   53.51
  -9  -3   3  453.68   76.85
  -9   3   2  230.98  169.07
  -9   3   2  221.77   42.65
   9   3  -2  234.04   78.19
   9   3  -2  155.85   91.19
   9  -3  -2  233.98  118.44
  -9  -3   2  261.20   42.90
  -9  -3   2  259.25   50.30
   9   3  -1  119.41  105.26
   9   3  -1  171.08   65.85
  -9   3   1  191.03  141.39
  -9  -3   1  176.15   79.76
  -9  -3   1  160.98   68.01
   9  -3  -1  156.73  114.68
  -9   3   0 1157.29  158.12
   9   3   0  803.76  122.39
   9   3   0 1109.74  136.54
   9  -3   0 1129.14  204.25
   9  -3   0 1189.15  127.75
  -9  -3   0 1146.53  134.52
  -9  -3   0 1276.13  147.41
  -9   3  -1    9.46   23.05
   9   3   1   13.06   13.69
   9   3   1    8.85   40.21
   9  -3   1   15.23   29.74
   9  -3   1   27.20   30.82
  -9  -3  -1   31.10   36.68
  -9  -3  -1   36.41   43.50
  -9   3  -2  644.12  133.14
   9   3   2  408.36   88.19
   9   3   2  595.73  112.12
   9  -3   2  620.13  252.98
   9  -3   2  617.43   78.01
  -9  -3  -2  663.33   90.89
  -9  -3  -2  680.34  103.53
   9   3   3  276.45  229.47
  -9   3  -3  255.75   93.31
  -9  -3  -3  293.11  138.54
   9  -3   3  269.89   56.66
   9  -3   3  251.14  137.85
  -9  -3  -3  288.11   71.75
   9   3   4   62.53   82.86
  -9   3  -4   49.94   39.95
  -9  -3  -4   27.34   42.54
   9  -3   4   38.38   32.68
   9  -3   4   24.37   37.20
  -9  -3  -4   52.65   47.13
   9   3   5  277.30   90.50
  -9   3  -5  266.36  196.76
  -9  -3  -5  364.13  160.26
   9  -3   5  326.79   61.53
   9  -3   5  352.81  124.48
  -9  -3  -5  349.99   60.95
  -9   3  -6   20.78   40.73
   9  -3   6   73.28   49.97
  -9  -3  -6   71.78   64.45
  -9  -3  -6   72.18   58.44
   9   3   7   96.73   67.04
  -9  -3  -7   76.28   61.62
   9  -3   7   62.43   44.94
   9  -3   7   77.66   61.36
  -9  -3  -7   61.73   58.10
   9   3   8  143.54   74.71
   9  -3   8  108.19  104.68
   9  -3   8  117.07  112.43
  -9  -3  -8  128.08  113.27
   9   3   9   -9.30   41.73
  -9   3  -9   11.52   24.67
  -9  -3  -9    2.88   19.51
   9  -3   9   -1.88   33.50
   9  -3   9   -2.10   34.78
  -9  -3  -9    6.82   19.22
   9   3  10  160.33  154.95
  -9   3 -10  148.20  166.92
  -9  -3 -10  195.38  121.19
   9  -3  10  187.33   68.97
   9  -3  10  151.94  106.59
  -9  -3 -10  147.83  197.74
  -9   4  11    9.64   51.82
   9   4 -11   51.71   84.14
   9   4 -11    1.59   45.63
  -9  -4  11   15.20   36.98
   9  -4 -11   13.25   23.55
   9  -4 -11    4.20   15.59
  -9   4  10   47.74   70.56
   9   4 -10   19.66   76.00
  -9  -4  10   68.42   75.33
   9  -4 -10   68.52   82.11
   9   4  -9  243.43  207.94
  -9   4   9  269.47   92.25
   9   4  -9  335.65  101.65
  -9  -4   9  284.08  275.41
   9  -4  -9  339.94  193.64
  -9   4   8   88.52   59.67
   9   4  -8  120.47   92.12
   9   4  -8   99.17   68.07
  -9   4   8  105.69   78.86
  -9  -4   8   98.47   97.16
   9  -4  -8   93.29  111.04
   9   4  -7  674.80   82.76
  -9   4   7  725.32   94.09
  -9   4   7  761.31  104.64
   9  -4  -7  850.60  107.80
  -9  -4   7  976.79  109.04
  -9   4   6  283.94   61.22
   9   4  -6  263.43   62.89
   9  -4  -6  272.43  193.61
  -9   4   5   91.22   43.76
   9   4  -5   93.42   49.76
   9  -4  -5   84.80   85.47
   9   4  -4  727.80   79.26
  -9   4   4  889.57  121.43
   9  -4  -4  993.34  142.23
   9   4  -3  348.55  208.18
   9   4  -3  282.77   58.81
  -9   4   3  359.47   71.47
   9  -4  -3  412.30  112.04
   9   4  -2  213.82   75.80
   9   4  -2  259.50   89.66
  -9   4   2  278.34  241.01
   9  -4  -2  331.62   96.69
  -9  -4   2  338.09  146.69
  -9   4   1  672.60  113.89
  -9  -4   1  819.33  127.39
   9  -4  -1  811.08  207.91
  -9   4   0    7.74   26.48
   9  -4   0   16.23   55.03
  -9  -4   0    9.00    9.02
  -9  -4   0   11.22   37.75
  -9   4  -1  112.81   72.92
  -9  -4  -1   62.49   35.02
  -9   4  -2  157.78  156.59
  -9  -4  -2  148.12   36.43
   9   4   3   41.94   64.29
  -9   4  -3   63.07   64.82
   9  -4   3   10.30   38.05
  -9  -4  -3   13.78   30.88
   9   4   4  458.31  106.53
  -9  -4  -4  512.11  209.15
   9  -4   4  443.02  171.36
  -9  -4  -4  489.26   91.47
   9   4   5   35.67   62.89
  -9  -4  -5   32.39   44.51
   9  -4   5   15.39   20.99
   9  -4   5   23.93   46.38
  -9  -4  -5   21.49   43.41
   9   4   6   99.94   80.47
  -9   4  -6  120.62  136.82
  -9  -4  -6  135.47  121.82
   9  -4   6  137.46  100.70
   9  -4   6  124.81   87.87
  -9  -4  -6   92.89   45.60
   9   4   7  236.63  238.49
  -9   4  -7  266.35   78.95
  -9  -4  -7  281.98  200.99
   9  -4   7  232.62  149.67
   9  -4   7  223.00  152.54
  -9  -4  -7  221.07  155.33
   9   5  -7   18.00   51.67
  -9  -5   7   13.15   27.87
   9  -5  -7   10.64   56.14
   9   5  -6  112.74   83.04
  -9   5   6   85.36   67.18
  -9  -5   6   86.67   79.78
  -9   5   5  274.80   73.88
   9   5  -5  254.42   96.37
   9  -5  -5  222.53  216.05
  -9  -5   5  235.67  235.92
  -9   5   4   39.26   58.72
   9   5  -4   23.02   31.46
   9  -5  -4   29.14   52.13
  -9  -5   4   14.29   44.60
  -9   5   3  340.66   95.16
   9   5  -3  400.48  102.61
   9  -5  -3  282.01  147.02
  -9  -5   3  339.46  198.87
  -9   5   2   65.47   71.20
   9   5  -2   91.01   67.08
   9  -5  -2   51.38   66.33
  -9  -5   2   85.24   74.04
  -9   5   1   40.64   58.11
   9   5  -1   73.99   73.65
   9  -5  -1   50.49   51.84
  -9  -5   1   62.23   60.76
  -9   5   0  106.12   84.73
   9   5   0  120.15   81.90
   9  -5   0  144.54  139.27
  -9  -5   0  135.84  132.77
  -9   5  -1   97.01  107.56
   9   5   1  152.90   83.86
   9  -5   1  180.94  167.64
  -9  -5  -1  161.40  143.51
  -9   5  -2   26.50   51.00
   9   5   2   50.83   65.84
   9  -5   2   23.61   53.57
  -9  -5  -2   17.94   38.06
  -9   5  -3   14.70   26.01
   9   5   3    7.14   46.84
   9  -5   3   30.43   46.15
  -9  -5  -3   55.91   60.62
 -10   0  15  113.49  146.30
  10   0 -15  156.31  186.27
  10   0 -15  142.86  113.64
 -10   0  14  937.52  234.34
  10   0 -14  897.54  151.50
  10   0 -14  916.23  129.82
 -10   0  13  344.56  233.30
  10   0 -13  314.12  289.45
  10   0 -13  232.67  162.66
  10   0 -12  771.22  149.71
 -10   0  11 4430.21  173.78
  10   0 -11 3829.44  260.44
 -10   0  11 3654.43  146.79
 -10   0  10   95.85  132.67
  10   0 -10   93.23   63.92
 -10   0  10  108.30   54.62
 -10   0   9 1602.58  190.41
  10   0  -9 1439.92  248.28
 -10   0   9 1473.50  183.52
 -10   0   8 2169.50  296.33
  10   0  -8 2124.29  217.66
  10   0  -8 1905.98  334.12
 -10   0   8 1886.85  231.73
 -10   0   7  288.52   65.99
  10   0  -7  298.04   56.29
  10   0  -7  242.66   70.17
 -10   0   7  263.13  127.05
 -10   0   6 4116.93  357.27
  10   0  -6 4007.69  335.18
  10   0  -6 3793.84  359.89
 -10   0   6 3810.08  360.21
 -10   0   5  632.21  123.88
  10   0  -5  617.69   88.60
  10   0  -5  562.27  146.63
 -10   0   5  614.43   99.21
 -10   0   4 1457.44  155.49
  10   0  -4 1421.53  147.85
  10   0  -4 1373.32  191.11
 -10   0   4 1433.18  222.42
 -10   0   3 1057.43  114.99
  10   0  -3 1020.57  103.81
  10   0  -3  951.29  155.92
 -10   0   3  957.48  115.79
 -10   0   2  275.13   74.65
  10   0  -2  261.40   53.54
  10   0  -2  281.77  194.11
 -10   0   2  289.31   71.33
 -10   0   1 1485.31  176.54
  10   0  -1 1555.72  173.63
  10   0  -1 1647.48  185.40
 -10   0   1 1700.96  212.65
 -10   0   0 1568.93  152.47
  10   0   0 1650.31  172.57
  10   0   0 1649.57  217.43
 -10   0   0 1579.66  192.03
 -10   0  -1  399.11   79.29
  10   0   1  425.08   82.77
  10   0   1  392.65  101.02
 -10   0  -1  398.51  179.84
 -10   0  -2   65.22   55.12
  10   0   2   48.82   42.91
  10   0   2   37.21   58.58
 -10   0  -2   50.58   59.46
 -10   0  -3   89.21   73.01
  10   0   3   88.19   58.23
  10   0   3   94.07   79.41
 -10   0  -3   83.78   90.23
 -10   0  -4 1025.78  124.31
  10   0   4  886.53  121.06
  10   0   4  887.13  232.53
 -10   0  -4  896.63  126.28
 -10   0  -5    6.91   18.76
  10   0   5    2.37   30.87
  10   0   5   11.41   43.54
 -10   0  -5   10.23   34.18
  10   0   6  358.10   84.30
  10   0   6  339.93  144.56
 -10   0  -6  382.15   98.39
  10   0   7 1146.51  124.43
  10   0   7 1178.70  153.50
  10   0   8  115.29   98.28
 -10   0  -8  128.64  103.15
  10   0   9   15.70   60.16
  10   0   9    5.49   19.73
 -10   0  -9   20.84   29.76
  10   0  10   14.32   42.17
  10   0  10    5.20   18.86
 -10   0 -10   20.65   40.51
  10   1 -15  590.78  105.76
 -10   1  15  627.12  126.57
  10  -1 -15  438.12  210.38
 -10  -1  15  495.32  165.57
  10  -1 -15  473.53  238.36
  10   1 -14   58.26   53.49
 -10   1  14   34.79   56.93
  10  -1 -14   38.19   51.95
 -10  -1  14   63.82   52.87
 -10   1  13 1466.44  188.76
  10   1 -13 1528.50  141.39
 -10  -1  13 1487.17  209.19
 -10  -1  13 1284.08  206.87
  10  -1 -13 1320.35  211.45
  10  -1 -13 1355.58  262.18
  10   1 -12  624.18  127.51
 -10  -1  12  558.10  144.98
 -10  -1  12  527.27  156.72
  10  -1 -12  519.29  200.67
 -10   1  11   91.76   63.34
  10   1 -11   98.44   45.81
 -10   1  11   88.67   59.18
  10   1 -11  102.78   69.73
 -10  -1  11   78.24   67.09
  10  -1 -11   94.16   61.55
 -10   1  10 1654.32  292.46
 -10   1  10 1866.81  250.60
  10   1 -10 1884.47  245.16
  10   1 -10 1719.20  260.63
  10  -1 -10 1477.63  247.94
 -10  -1  10 1465.91  201.51
 -10  -1  10 1686.27  238.47
 -10   1   9 1203.23  170.13
  10   1  -9 1267.97  124.66
  10   1  -9 1186.97  140.24
 -10   1   9 1116.05  120.80
 -10  -1   9 1129.87  116.01
  10  -1  -9 1007.36  179.57
 -10  -1   9  990.64  104.10
 -10   1   8 1353.98  159.23
  10   1  -8 1408.58  176.43
  10   1  -8 1348.42  179.72
 -10   1   8 1254.07  154.25
 -10  -1   8 1471.98  165.81
  10  -1  -8 1378.24  178.36
 -10  -1   8 1400.38  181.80
 -10   1   7 1638.43  217.17
 -10   1   7 1781.41  198.75
  10   1  -7 1818.35  211.42
  10   1  -7 1677.76  227.26
  10  -1  -7 1594.82  169.66
 -10  -1   7 1725.97  172.75
 -10  -1   7 1683.34  168.42
 -10   1   6   68.51   80.98
  10   1  -6   68.42   40.99
  10   1  -6   64.47   58.61
 -10   1   6   53.56   54.95
 -10  -1   6   91.25   69.77
  10  -1  -6   67.31   55.14
 -10  -1   6   69.71   42.89
 -10   1   5  469.17  156.43
  10   1  -5  426.03   91.26
 -10   1   5  418.48  116.12
  10   1  -5  426.16  215.10
 -10  -1   5  420.05   77.10
  10  -1  -5  524.97   71.18
 -10  -1   5  468.70   79.22
  10  -1  -5  413.59  122.52
 -10   1   4 1957.05  191.18
  10   1  -4 1757.22  181.63
 -10   1   4 1850.98  199.43
  10   1  -4 1843.00  194.70
 -10  -1   4 1821.98  196.87
  10  -1  -4 2002.45  191.16
 -10  -1   4 1808.43  186.53
  10  -1  -4 1794.83  193.79
  10   1  -3  469.02   74.80
 -10   1   3  509.33   95.43
  10   1  -3  488.43  117.06
 -10   1   3  501.42   87.26
 -10  -1   3  300.26   90.96
  10  -1  -3  319.36   63.35
 -10  -1   3  313.76  115.09
  10  -1  -3  309.00  202.39
  10   1  -2 1435.04  159.66
 -10   1   2 1461.80  191.63
  10   1  -2 1367.33  199.41
 -10   1   2 1414.82  159.56
 -10  -1   2 1311.09  140.36
  10  -1  -2 1294.79  151.11
 -10  -1   2 1414.18  149.17
  10  -1  -2 1349.78  153.02
  10   1  -1  712.06  130.79
 -10   1   1  770.61  101.22
  10   1  -1  668.74  165.10
 -10   1   1  709.80  101.82
 -10  -1   1  659.76   91.69
  10  -1  -1  588.08  123.16
 -10  -1   1  607.36   84.60
  10  -1  -1  595.91  145.50
  10   1   0  222.59   70.98
 -10   1   0  225.99   44.59
  10   1   0  209.32  165.76
 -10   1   0  252.19  178.75
 -10  -1   0  396.16  101.24
  10  -1   0  352.16   62.59
 -10  -1   0  404.06  164.60
  10  -1   0  377.47  165.65
  10   1   1 1024.86  116.96
 -10   1  -1 1075.42  127.82
  10   1   1  954.88  132.93
 -10   1  -1 1099.90  199.24
 -10  -1  -1  768.84  124.21
  10  -1   1  723.02  101.01
 -10  -1  -1  666.77  124.05
  10  -1   1  745.72  121.64
  10   1   2   13.79   31.51
 -10   1  -2   21.41   25.63
  10   1   2    7.61   37.45
 -10   1  -2   16.76   50.27
 -10  -1  -2   32.44   33.63
  10  -1   2   22.30   40.52
 -10  -1  -2   20.47   25.30
  10  -1   2   12.05   26.63
  10   1   3  203.37  118.86
 -10   1  -3  195.21   61.52
  10   1   3  182.98  149.66
 -10   1  -3  189.68  135.70
 -10  -1  -3  494.96   71.48
  10  -1   3  451.09   78.99
 -10  -1  -3  484.84  175.20
  10  -1   3  467.52  167.26
 -10   1  -4  149.41  130.62
  10   1   4  114.69  105.96
  10   1   4  144.87   65.65
  10  -1   4  281.19  111.83
  10  -1   4  277.15   68.42
 -10  -1  -4  277.95  200.22
 -10  -1  -4  287.64  160.15
 -10   1  -5  170.96   71.84
  10   1   5  164.98  118.48
  10   1   5  182.93  134.67
  10  -1   5  133.63   78.10
  10  -1   5  151.44   53.72
 -10  -1  -5  135.51   68.34
 -10  -1  -5  140.08  109.93
 -10   1  -6  785.27  147.94
  10   1   6  793.95  127.27
  10   1   6  683.74  186.38
  10  -1   6  565.18  176.10
  10  -1   6  586.95  119.05
 -10  -1  -6  581.34  102.48
 -10  -1  -6  619.38   94.44
  10   1   7   27.26   38.17
  10  -1   7   37.93   55.28
  10  -1   7   26.79   38.81
 -10  -1  -7   27.16   36.90
  10   1   8  106.90   88.68
  10   1   8  126.29   78.98
 -10   1  -8  112.07  103.35
 -10  -1  -8  136.72   44.58
 -10  -1  -8  119.30   89.88
  10  -1   8  108.27   72.40
  10   1   9   91.31   67.84
  10   1   9   63.22   56.42
 -10   1  -9  111.81   90.65
  10  -1   9  131.21   64.98
 -10  -1  -9  138.20   82.06
  10   1  10   16.06   43.51
 -10   1 -10   32.04   35.76
  10  -1  10   30.45   57.63
  10  -1  10   31.97   38.87
 -10  -1 -10   36.39   69.75
 -10   2  14  325.64  233.27
  10   2 -14  406.13   87.71
 -10  -2  14  386.22  273.00
 -10  -2  14  320.34  234.50
  10  -2 -14  457.83  100.79
  10  -2 -14  384.95  305.55
 -10   2  13  173.73   92.07
  10   2 -13  153.54  106.85
 -10  -2  13  143.68  140.04
 -10  -2  13  152.26  116.44
  10  -2 -13  145.80  165.85
  10  -2 -13  143.03  121.44
 -10   2  12  359.40  212.84
  10   2 -12  370.14  100.82
 -10  -2  12  283.00  159.00
 -10  -2  12  225.98  163.43
  10  -2 -12  280.13  228.82
  10  -2 -12  274.05  202.81
 -10   2  11 1182.19  122.52
  10   2 -11 1447.66  112.79
 -10  -2  11 1184.24  234.75
 -10   2  10   22.42   57.11
  10   2 -10   46.81   63.78
  10   2 -10   10.54   42.96
 -10   2  10   31.32   43.95
  10  -2 -10   15.70   58.64
 -10   2   9  719.81  128.56
  10   2  -9  932.81  143.61
  10   2  -9  759.32  128.59
 -10   2   9  807.07  135.15
 -10  -2   9  834.73  132.89
  10  -2  -9  788.53  263.19
 -10   2   8  687.21  124.53
  10   2  -8  894.73  154.66
  10   2  -8  815.28  129.32
 -10   2   8  790.15  130.02
 -10  -2   8  997.71  148.83
  10  -2  -8  930.97  189.21
 -10   2   7  200.93  164.06
 -10   2   7  144.67  159.72
  10   2  -7  231.61   66.02
  10   2  -7  222.59  123.08
  10  -2  -7  185.34  123.72
 -10  -2   7  192.33   61.07
 -10  -2   7  184.30  107.76
 -10   2   6 2029.09  257.14
 -10   2   6 1775.34  208.30
  10   2  -6 2267.31  240.68
  10   2  -6 2133.38  234.24
  10  -2  -6 2243.04  247.33
 -10  -2   6 2425.83  195.05
 -10  -2   6 2332.32  274.80
 -10   2   5  657.13  160.82
 -10   2   5  524.38  129.24
  10   2  -5  645.24   92.98
  10   2  -5  607.73  108.21
  10  -2  -5  613.37  248.98
 -10  -2   5  712.22   92.31
 -10  -2   5  718.09  169.70
 -10   2   4  433.98   86.84
 -10   2   4  320.34   67.95
  10   2  -4  426.17  114.10
  10   2  -4  420.27  200.16
  10  -2  -4  591.32  153.34
 -10  -2   4  614.16   86.85
 -10  -2   4  612.96  225.89
 -10   2   3 1354.24  148.58
 -10   2   3  927.27  172.87
  10   2  -3 1374.50  145.26
  10   2  -3 1346.63  223.87
  10  -2  -3 1423.64  179.92
 -10  -2   3 1449.89  183.72
 -10  -2   3 1580.49  185.67
  10   2  -2   17.36   35.56
 -10   2   2    9.50   29.76
  10   2  -2   23.81   50.00
 -10   2   2   25.49   41.11
 -10  -2   2   41.66   30.81
  10  -2  -2   38.54   37.00
 -10  -2   2   21.21   28.53
  10  -2  -2   18.10   27.34
  10   2  -1  739.75   98.52
 -10   2   1  471.44   56.75
  10   2  -1  720.77   95.63
 -10   2   1  742.78  124.34
 -10  -2   1  490.15  128.62
  10  -2  -1  482.67   84.78
 -10  -2   1  498.22   72.84
  10  -2  -1  494.37  103.99
  10   2   0  373.07   74.56
 -10   2   0  250.25   44.21
  10   2   0  336.99  134.81
 -10   2   0  387.98   86.94
 -10  -2   0  509.10   90.70
  10  -2   0  502.87   70.47
 -10  -2   0  444.47   72.30
  10  -2   0  491.34  107.44
 -10   2  -1  566.95   95.79
  10   2   1  511.61  153.58
  10   2   1  525.52  159.14
  10  -2   1  603.83  175.60
  10  -2   1  565.59   79.32
 -10  -2  -1  557.55   77.80
 -10  -2  -1  608.69   86.77
 -10   2  -2  935.38  132.12
  10   2   2  849.80  159.73
  10   2   2  920.37  135.90
  10  -2   2  997.12  189.63
  10  -2   2 1053.14  130.60
 -10  -2  -2  992.22  118.76
 -10  -2  -2 1064.68  142.80
 -10   2  -3  611.93  106.91
  10   2   3  543.68   92.75
  10   2   3  527.36   99.24
  10  -2   3  510.49  203.53
  10  -2   3  542.71   78.41
 -10  -2  -3  554.02   79.55
 -10  -2  -3  579.36   85.74
 -10   2  -4  150.48   63.20
  10   2   4  110.45   81.98
  10   2   4  139.73   73.56
  10  -2   4   98.44   74.99
  10  -2   4   94.87   71.86
 -10  -2  -4  103.20   50.08
 -10  -2  -4  106.43   54.37
 -10   2  -5  537.02  148.85
  10   2   5  476.60  139.71
  10   2   5  545.09  100.29
  10  -2   5  544.86  201.47
  10  -2   5  561.68   72.72
 -10  -2  -5  556.87   75.15
 -10  -2  -5  590.80   81.06
 -10  -2  -6    9.14   27.53
  10  -2   6   32.04   36.91
  10  -2   6   35.22   42.56
 -10  -2  -6   38.60   48.98
 -10   2  -7   32.23   38.06
  10   2   7   49.20   84.93
 -10  -2  -7  103.68   80.00
  10  -2   7   67.24   67.84
  10  -2   7   99.42   63.01
  10   2   8  219.59  106.97
 -10   2  -8  176.68  135.91
 -10  -2  -8  143.36  111.41
  10  -2   8  131.02   86.42
 -10  -2  -8  123.61  140.08
  10   2   9   93.41   74.09
 -10   2  -9  110.17   86.82
 -10  -2  -9  124.21   65.21
  10  -2   9  125.35   59.43
  10  -2   9   93.91   66.99
 -10  -2  -9  132.69   64.55
  10   3 -12  150.70   68.23
 -10   3  12  109.81   66.29
  10  -3 -12  180.30   65.61
 -10  -3  12  178.35  141.44
  10  -3 -12  201.37  157.04
  10   3 -11   57.91   65.98
 -10  -3  11   65.11   72.65
  10  -3 -11   35.49   57.38
  10  -3 -11   31.63   44.63
 -10   3  10  709.25  250.19
 -10   3  10  482.63  101.58
  10  -3 -10  696.60  183.67
 -10  -3  10  736.23  227.27
  10   3  -9  444.12   78.06
 -10   3   9  295.74   88.25
  10   3  -9  528.73   92.70
 -10   3   9  469.89  100.04
 -10  -3   9  421.77  137.63
  10   3  -8  266.26  138.96
 -10   3   8  158.25  200.58
  10   3  -8  327.07   82.81
 -10  -3   8  182.77  161.86
 -10   3   7  592.84   95.05
  10   3  -7  846.30  110.21
  10   3  -7  704.22  213.82
  10  -3  -7  681.07  209.19
 -10   3   6   19.90   36.30
  10   3  -6   36.02   47.70
  10   3  -6   47.85   35.65
 -10   3   6   -3.73   53.23
 -10  -3   6   44.10   58.05
  10  -3  -6   19.68   49.10
 -10   3   5  813.52  128.11
  10   3  -5 1023.52  159.63
  10   3  -5  787.89  134.13
 -10   3   5  982.63  185.18
 -10  -3   5 1013.34  151.41
  10  -3  -5  815.99  218.10
 -10   3   4  206.11  142.85
  10   3  -4  296.89   77.46
  10   3  -4  254.23   54.84
 -10   3   4  275.74  215.12
 -10  -3   4  337.57   79.82
  10  -3  -4  264.50  228.33
 -10   3   3  310.37   94.08
 -10   3   3  270.82  107.73
  10   3  -3  332.07   92.43
  10   3  -3  272.08   58.82
  10  -3  -3  298.83  220.10
 -10  -3   3  373.10   64.32
 -10  -3   3  343.89  123.41
  10   3  -2  536.05  138.67
  10   3  -2  679.69  133.20
 -10   3   2  696.08  215.98
 -10  -3   2  786.25  117.08
 -10  -3   2  696.73  103.61
  10  -3  -2  694.19  174.03
  10   3  -1  213.88   56.05
  10   3  -1  236.35   79.39
 -10   3   1  286.13  124.29
 -10  -3   1  310.07  123.85
 -10  -3   1  293.37   59.33
  10  -3  -1  280.09  219.84
  10   3   0  220.32  109.29
  10   3   0  262.33   76.67
 -10   3   0  292.35  209.51
 -10  -3   0  203.96   75.20
 -10  -3   0  163.17   87.50
  10  -3   0  162.55  127.49
  10   3   1  742.09  119.76
  10   3   1  932.61  147.09
 -10   3  -1  948.12  158.59
 -10  -3  -1  861.35  126.45
 -10  -3  -1  838.84  117.89
  10  -3   1  796.28  189.14
 -10   3  -2   36.93   67.25
  10   3   2   -0.32   42.49
 -10  -3  -2   20.30   31.13
 -10  -3  -2   44.39   42.76
  10  -3   2   22.83   42.65
 -10  -3  -3  513.13   73.00
  10  -3   3  462.56   69.19
 -10  -3  -3  491.48   67.91
  10   3   4  122.11   93.90
 -10  -3  -4  103.18   48.39
  10  -3   4   84.62   39.02
  10  -3   4   73.82   67.11
 -10  -3  -4   74.99   42.71
  10   3   5   46.27   75.50
 -10   3  -5   61.39   58.77
 -10  -3  -5   80.43   72.06
  10  -3   5   86.35   45.03
  10  -3   5   84.98   54.71
 -10  -3  -5   92.15  109.13
 -10   3  -6  223.21  179.28
  10   3   6  285.81   98.68
  10  -3   6  199.98  169.24
  10  -3   6  202.37   67.79
  10   3   7   89.96   76.28
 -10   3  -7  106.11   95.27
 -10  -3  -7  120.94   78.63
  10  -3   7   98.37   49.51
  10  -3   7  114.31  111.00
 -10  -3  -7   90.27  116.40
  10   3   8  164.16   81.96
 -10   3  -8  179.23   76.65
 -10  -3  -8  118.43  108.35
  10  -3   8  138.37   66.37
  10  -3   8   93.73   70.66
 -10  -3  -8   99.20  122.31
 -10   4   9  245.12   79.02
  10   4  -9  375.17   92.77
 -10   4   9  273.25  260.96
 -10  -4   9  271.22  234.82
  10  -4  -9  304.31   91.24
 -10   4   8  113.88   59.99
  10   4  -8  170.67   84.08
  10   4  -8   94.11   50.16
 -10   4   8  131.53   89.15
 -10  -4   8  150.91  130.63
  10  -4  -8   95.92   85.49
 -10   4   7  136.85   73.68
  10   4  -7  180.17   99.07
  10   4  -7  125.59   66.81
 -10   4   7  134.96  121.25
 -10  -4   7  170.18  174.06
  10  -4  -7  168.81  143.27
  10   4  -6   97.62   53.23
  10   4  -6  153.66  102.59
 -10   4   6  106.30   97.41
  10  -4  -6   94.66  110.05
 -10  -4   6  123.31  114.54
  10   4  -5   26.82   45.82
  10   4  -5   21.82   51.10
 -10   4   5   15.72   46.93
  10  -4  -5   10.26   44.26
 -10  -4   5   17.61   36.13
  10   4  -4   71.22  102.03
  10   4  -4  116.04   86.86
 -10   4   4  112.68  114.47
  10  -4  -4   74.20   75.97
 -10  -4   4   78.39   65.46
 -10   4   3  290.47  243.67
  10   4  -3  316.87  105.78
  10  -4  -3  336.06  201.79
 -10  -4   3  348.34  197.13
 -10   4   2   68.62   70.92
  10   4  -2   23.36   47.24
  10  -4  -2   83.70   86.78
 -10  -4   2   83.34   72.22
 -10   4   1  587.63  127.02
  10   4  -1  541.24  130.86
  10  -4  -1  613.47  170.24
 -10  -4   1  621.65  148.44
 -10   4   0  262.91   90.93
  10   4   0  245.60  114.39
  10  -4   0  146.58  134.74
 -10  -4   0  194.21   85.45
 -10   4  -1   81.32   83.88
  10   4   1   71.23   85.94
  10  -4   1   82.50   63.57
 -10  -4  -1  109.13   88.22
  10   4   2   31.27   71.47
 -10   4  -2    8.65   24.37
 -10  -4  -2   58.92   41.20
  10  -4   2   37.43   53.11
 -10  -4  -2   16.72   21.27
  10   4   3  112.49   91.91
 -10   4  -3   75.87   87.84
 -10  -4  -3  129.25   47.75
  10  -4   3   85.69   80.32
 -10  -4  -3   74.73  110.44
  10   4   4   76.28   75.26
 -10   4  -4   97.49   79.06
 -10  -4  -4   85.74   72.05
  10  -4   4   76.59   67.50
 -10  -4  -4   69.86   88.05
 -10   4  -5   65.71   72.71
  10   4   5   76.70   70.21
  10  -4   5   36.46   42.89
 -10  -4  -5   46.52   50.25
 -11   0  13  678.23  143.64
  11   0 -13  578.18  157.66
  11   0 -13  665.65  143.16
 -11   0  12  107.59   89.37
  11   0 -12  110.65   79.69
 -11   0  11  525.64   80.91
  11   0 -11  420.38  171.83
 -11   0  11  428.88  130.24
 -11   0  10  168.89  142.66
 -11   0  10  143.59  109.58
 -11   0   9   87.12   85.48
 -11   0   9   96.99   78.75
 -11   0   8 1384.54  188.22
  11   0  -8 1292.44  205.31
 -11   0   8 1297.98  183.67
 -11   0   7  157.59  125.78
  11   0  -7  134.95   91.94
  11   0  -7  153.90  142.05
 -11   0   7  145.89  117.04
 -11   0   6  511.52   86.48
  11   0  -6  515.49   71.78
  11   0  -6  450.03   89.84
 -11   0   6  496.29   74.62
 -11   0   5 1107.97  157.76
  11   0  -5 1075.10  124.54
  11   0  -5 1001.29  145.11
 -11   0   5 1080.05  134.46
 -11   0   4  407.69  145.54
  11   0  -4  371.04   68.33
  11   0  -4  354.49   86.12
 -11   0   4  400.32   81.71
 -11   0   3 1983.42  281.97
  11   0  -3 2041.73  215.00
  11   0  -3 1936.84  219.11
 -11   0   3 2086.96  252.77
 -11   0   2  363.42   79.68
  11   0  -2  351.74   75.89
  11   0  -2  336.48  142.63
 -11   0   2  351.55   80.21
 -11   0   1  391.25   68.68
  11   0  -1  421.70   88.19
  11   0  -1  350.31  153.92
 -11   0   1  441.17  142.27
 -11   0   0  415.16  142.27
  11   0   0  440.93   81.81
  11   0   0  436.10  109.93
 -11   0   0  413.11   81.19
 -11   0  -1  282.89  101.41
  11   0   1  265.03   69.97
  11   0   1  268.04  119.55
 -11   0  -1  288.88  133.63
 -11   0  -2  190.73  120.37
  11   0   2  185.64   58.87
  11   0   2  204.63  145.59
 -11   0  -2  177.32  176.70
 -11   0  -3 1371.33  179.71
  11   0   3 1162.67  195.63
  11   0   3 1208.94  188.16
 -11   0  -3 1212.06  195.94
  11   0   4  217.11  189.52
  11   0   4  258.29  111.21
 -11   0  -4  265.95  155.94
  11   0   5  331.77   78.81
  11   0   5  353.31   77.47
  11   0   6   15.33   34.39
 -11   0  -6   23.83   44.73
  11   0   7  133.74   74.17
  11   0   7  102.39   74.31
 -11   0  -7  109.74  118.34
  11   0   8   50.10   55.97
  11   0   8   22.62   37.77
 -11   0  -8   54.39   70.73
  11   0   9   22.72   58.35
 -11   0  -9   53.26   58.85
  11   1 -13   36.96   69.50
 -11   1  13   77.36   77.91
  11  -1 -13   25.75   46.27
 -11  -1  13   28.53   54.26
  11  -1 -13   14.89   29.25
  11   1 -12  585.02  120.97
 -11   1  12  662.66  138.66
  11  -1 -12  751.00  160.29
 -11  -1  12  828.38  127.60
 -11   1  11  147.22  141.54
  11   1 -11  131.33  112.76
  11  -1 -11  189.44  158.38
 -11  -1  11  199.00  152.09
 -11   1  10  727.19  187.27
  11   1 -10  711.27   98.34
 -11   1  10  653.47  103.55
  11  -1 -10  745.75  127.65
 -11  -1  10  750.84   82.33
 -11   1   9 1461.38  179.22
  11   1  -9 1497.09  129.10
 -11   1   9 1240.40  201.81
 -11  -1   9 1419.40  123.74
 -11   1   8   16.72   33.04
  11   1  -8   17.27   48.72
  11   1  -8   14.93   45.24
 -11   1   8   -1.12   43.88
 -11  -1   8   15.21   28.48
  11  -1  -8   -3.52   41.28
 -11  -1   8   11.60   24.77
 -11   1   7 1168.93  213.39
  11   1  -7 1200.97  165.18
  11   1  -7 1121.85  180.54
 -11   1   7 1078.00  259.82
 -11  -1   7 1173.31  164.57
  11  -1  -7 1095.14  159.15
 -11  -1   7 1185.30  164.40
 -11   1   6  972.37  120.05
  11   1  -6  939.06  116.32
  11   1  -6  852.02  201.24
 -11   1   6  861.72  154.84
 -11  -1   6  879.35   98.88
  11  -1  -6  817.73  233.45
 -11  -1   6  904.32  101.97
 -11   1   5  535.24  144.31
 -11   1   5  616.55  169.89
  11   1  -5  624.53   93.34
  11   1  -5  574.37  112.75
  11  -1  -5  526.24  130.19
 -11  -1   5  600.73  166.98
 -11  -1   5  540.66   74.70
 -11   1   4 1119.73  116.28
  11   1  -4 1045.39  110.91
  11   1  -4 1097.70  180.48
 -11   1   4 1062.59  119.66
 -11  -1   4 1063.23  109.14
  11  -1  -4 1059.80  170.66
 -11  -1   4 1189.59  124.06
  11   1  -3  112.56   58.11
 -11   1   3   74.48  108.85
  11   1  -3   78.26   59.33
 -11   1   3  107.58   71.67
 -11  -1   3   62.91   49.16
  11  -1  -3   52.95   35.41
 -11  -1   3   52.14   37.72
  11  -1  -3   52.48   42.94
  11   1  -2  167.30   55.22
 -11   1   2  181.38   66.41
  11   1  -2  210.42   90.43
 -11   1   2  200.66  112.66
 -11  -1   2  182.85  101.34
  11  -1  -2  177.06   55.48
 -11  -1   2  191.53   80.62
  11  -1  -2  173.42  124.81
  11   1  -1 1325.03  124.76
 -11   1   1 1459.83  157.00
  11   1  -1 1305.79  286.90
 -11   1   1 1347.05  133.81
 -11  -1   1 1432.04  213.33
  11  -1  -1 1427.23  145.86
 -11  -1   1 1416.89  160.20
  11  -1  -1 1482.06  144.03
  11   1   0  139.03   55.09
 -11   1   0  111.99  117.49
  11   1   0  124.71   90.63
 -11   1   0  123.88  110.41
 -11  -1   0  143.90  108.46
  11  -1   0  109.67  100.43
 -11  -1   0  126.58  136.44
  11  -1   0  117.68  101.36
  11   1   1 1108.71  146.16
 -11   1  -1 1146.23  135.79
  11   1   1 1118.63  155.69
 -11   1  -1 1127.74  122.61
 -11  -1  -1 1205.78  111.41
  11  -1   1 1093.56  134.68
 -11  -1  -1 1047.11  106.89
  11  -1   1 1085.90  172.71
 -11   1  -2  376.07   85.00
  11   1   2  335.16  175.15
  11   1   2  329.70   82.25
  11  -1   2  209.76  178.06
  11  -1   2  226.34   62.83
 -11  -1  -2  210.11  104.07
 -11  -1  -2  265.83  131.82
 -11   1  -3   60.10   53.20
  11   1   3   38.34   43.84
  11   1   3   49.31   64.18
  11  -1   3   43.95   52.42
  11  -1   3   62.93   48.60
 -11  -1  -3   24.72   26.19
 -11  -1  -3   58.05   47.00
  11   1   4  180.47  152.89
  11   1   4  229.55   75.64
 -11  -1  -4  126.28  112.13
  11  -1   4  122.74   86.54
  11  -1   4  118.47   52.70
 -11  -1  -4  131.56   64.82
  11   1   5    8.85   24.70
 -11   1  -5    7.24   25.19
  11  -1   5    1.72   20.68
 -11  -1  -5   10.51   19.60
  11  -1   5    6.99   28.91
  11   1   6   27.95   55.79
  11   1   6    6.14   44.00
 -11   1  -6   13.23   31.61
  11  -1   6   14.61   36.45
 -11  -1  -6   16.64   24.02
 -11  -1  -6   11.22   37.22
  11   1   7   58.84   75.68
  11   1   7   34.68   43.70
 -11   1  -7   61.16   69.62
  11  -1   7   30.92   53.60
 -11  -1  -7   22.30   43.84
  11   1   8   60.13   60.74
 -11   1  -8   59.05   79.74
  11  -1   8   49.67   53.56
  11  -1   8   49.68   52.72
 -11  -1  -8   68.75   73.25
  11   2 -12   15.94   15.59
 -11   2  12    7.13   27.88
  11  -2 -12    9.70   29.73
 -11  -2  12   13.97   16.78
  11  -2 -12    8.33   20.03
 -11   2  11  801.18  126.77
  11   2 -11  913.20  134.87
  11   2 -11  801.39  125.51
 -11   2  11  806.96  130.75
 -11  -2  11  781.24  119.67
  11  -2 -11  698.55  162.11
 -11   2  10  570.28  115.43
  11   2 -10  657.75  125.90
  11   2 -10  571.49  132.18
 -11   2  10  539.74  117.04
 -11  -2  10  632.85  129.58
  11  -2 -10  525.65  203.95
 -11   2   9   90.58   96.60
  11   2  -9  144.26   77.32
 -11  -2   9  109.43   81.40
  11  -2  -9   84.21   80.33
 -11   2   8 1007.58  121.69
  11   2  -8 1164.67  122.04
  11   2  -8 1066.33   98.29
 -11   2   7  222.96  213.05
  11   2  -7  290.27   74.19
  11   2  -7  243.79  146.12
 -11   2   7  253.22  204.34
  11   2  -6  180.13  132.14
 -11   2   6  107.44  130.22
  11   2  -6  158.71   57.77
 -11   2   6  172.98  168.30
 -11  -2   6  143.79   49.40
 -11  -2   6  149.37   86.05
 -11   2   5  897.28  175.60
 -11   2   5  776.92  120.17
  11   2  -5  816.19  132.71
  11   2  -5  878.01  142.15
  11  -2  -5  926.43  264.85
 -11  -2   5  984.68  157.16
 -11  -2   5  994.14  147.76
 -11   2   4    3.89   48.59
 -11   2   4    4.97   17.82
  11   2  -4   -2.08   33.32
  11   2  -4    7.15   43.64
  11  -2  -4   16.07   39.98
 -11  -2   4   -0.08   30.58
 -11  -2   4   14.22   27.31
 -11   2   3  697.81  211.99
 -11   2   3  507.17   86.23
  11   2  -3  663.97  116.02
  11   2  -3  639.42  124.73
  11  -2  -3  570.01  143.57
 -11  -2   3  602.44   94.83
 -11  -2   3  662.08  166.90
 -11   2   2  480.60  213.61
 -11   2   2  346.44   85.90
  11   2  -2  457.33  100.61
  11   2  -2  458.75  169.24
  11  -2  -2  510.68  125.13
 -11  -2   2  531.41   86.63
 -11  -2   2  609.53  128.60
  11   2  -1   73.67   48.67
  11   2  -1   74.46   63.46
 -11   2   1   78.08   97.92
 -11  -2   1   84.97   78.53
 -11  -2   1   74.29   84.18
  11  -2  -1   77.61   75.91
  11   2   0  172.01  139.33
  11   2   0  210.24   71.54
 -11   2   0  239.20  173.90
 -11  -2   0  238.48  122.28
 -11  -2   0  208.33  137.62
  11  -2   0  205.31   75.52
  11   2   1  130.63   88.52
  11   2   1  176.53   67.88
  11  -2   1  189.30   51.03
 -11  -2  -1  197.53  100.59
 -11  -2  -1  140.98  149.52
  11   2   2  309.51  132.70
  11   2   2  348.17   82.84
  11  -2   2  230.85   52.43
 -11  -2  -2  233.81  156.27
 -11  -2  -2  213.32  100.21
 -11   2  -3  287.02  205.64
  11   2   3  226.22   57.49
 -11  -2  -3  351.95   75.51
 -11  -2  -3  327.48  144.94
  11  -2   3  300.72   51.71
 -11   2  -4   90.30   66.58
  11   2   4   62.66   59.25
  11   2   4   40.46   72.75
  11  -2   4   21.44   32.40
  11  -2   4   48.08   41.07
 -11  -2  -4   41.23   56.18
 -11  -2  -4   42.92   53.78
 -11   2  -5   19.24   62.30
  11   2   5    9.32   42.56
 -11  -2  -5   89.72   52.07
  11  -2   5   84.88   73.48
  11  -2   5   78.31   51.83
  11   2   6  181.03   83.50
 -11   2  -6  147.36  177.58
 -11  -2  -6  196.86  166.62
  11  -2   6  199.09   65.96
  11  -2   6  198.97  147.51
 -11  -2  -6  220.90   65.02
  11   2   7  105.91   85.08
 -11   2  -7  123.17   85.25
 -11  -2  -7   86.12   70.89
  11  -2   7   71.36   78.42
  11  -2   7   69.39   55.18
 -11  -2  -7   78.03   82.76
  11   3 -10  157.38  157.00
  11   3 -10  161.76  143.45
 -11   3  10  173.82  133.56
  11  -3 -10   77.64   95.23
 -11  -3  10  121.32   54.04
 -11   3   9  275.88   92.08
  11   3  -9  405.70   99.99
  11   3  -9  320.36   77.49
 -11   3   9  348.18   90.04
 -11  -3   9  289.85  239.97
  11  -3  -9  234.53  233.69
 -11   3   8  163.34  133.20
 -11   3   8  102.91   74.57
  11  -3  -8  177.23   88.94
 -11  -3   8  130.67  114.79
  11   3  -7  548.23  167.36
 -11   3   7  369.28  123.59
 -11   3   7  583.69  235.02
  11  -3  -7  545.95  286.59
 -11  -3   7  628.40  139.71
  11   3  -6  595.61  108.10
 -11   3   6  426.65  136.79
 -11   3   6  705.94  265.41
  11  -3  -6  626.52  125.69
 -11  -3   6  625.51  188.45
  11   3  -5   21.27   51.67
 -11   3   5   -1.86   28.04
 -11   3   5    7.88   39.52
  11  -3  -5   37.52   58.70
 -11  -3   5   38.90   36.93
 -11   3   4  383.67  155.71
  11   3  -4  352.66  165.60
  11  -3  -4  359.36  101.01
 -11  -3   4  405.98  153.36
  11   3  -3  258.09  172.19
 -11   3   3  319.81  127.53
  11  -3  -3  283.51  107.44
  11   3  -2  301.27  104.68
 -11   3   2  350.48  135.20
  11  -3  -2  442.87  134.45
 -11   3   1  222.66  170.66
  11   3  -1  177.30   62.13
 -11  -3   1  167.47   42.77
  11  -3  -1  173.97   77.32
  11   3   0  173.50   93.22
 -11   3   0  208.63  119.77
  11  -3   0  140.74  107.17
 -11  -3   0   85.62  111.32
  11   3   1  133.24   82.82
 -11   3  -1  114.56   92.88
  11  -3   1  100.58   90.55
 -11  -3  -1   54.77   87.02
  11   3   2   19.40   45.40
 -11   3  -2   28.60   49.22
  11  -3   2   86.29   78.99
 -11  -3  -2   83.07   92.57
  11   3   3  168.26   91.50
 -11   3  -3  140.55  108.05
  11  -3   3  201.94  177.26
 -11  -3  -3  150.34  186.77
 -11   3  -4  521.81   87.70
  11   3   4  497.90  235.91
  11  -3   4  457.04  173.27
 -11  -3  -4  513.28  161.15
  11   3   5  143.60   97.61
 -11   3  -5  119.24   70.74
 -11  -3  -5   95.68   59.88
  11  -3   5   83.89   44.57
  11  -3   5   99.74   67.90
 -11  -3  -5  103.35   66.42
  11   4  -6  146.68   61.57
  11   4  -6  176.56  156.72
 -11   4   6  204.48   76.41
  11  -4  -6  167.50  182.46
 -11  -4   6  185.13   93.30
 -11   4   5  222.37  217.74
  11   4  -5  230.66  205.40
  11  -4  -5  151.50  133.37
 -11  -4   5  158.32  154.54
 -11   4   4  381.64  170.35
  11   4  -4  507.64  112.55
  11  -4  -4  278.70  255.90
 -11  -4   4  331.76  264.22
 -11   4   3   96.93  108.51
  11   4  -3  108.23   79.57
  11  -4  -3   72.99   95.38
 -11  -4   3   91.61   77.56
 -11   4   2   30.55   60.97
  11   4  -2   36.25   45.20
  11  -4  -2    8.83   36.38
 -11  -4   2   22.98   30.70
 -11   4   1   18.77   53.52
  11   4  -1   21.32   64.58
  11  -4  -1    4.74   22.42
 -11  -4   1    5.68   21.04
 -11   4   0  424.74   97.35
  11   4   0  389.83   98.66
  11  -4   0  498.98  113.85
 -11  -4   0  505.48  122.62
 -11   4  -1  110.05  123.17
  11   4   1  145.74   91.66
  11  -4   1   80.15   80.52
 -11  -4  -1   80.88   96.24
 -12   0  12  399.32   74.03
  12   0 -12  365.61   81.07
 -12   0  11  151.39  185.10
  12   0 -11  167.97  148.36
 -12   0  11  173.72   96.78
 -12   0  10 1845.45  115.96
  12   0 -10 1643.92  247.30
 -12   0  10 1701.03  202.44
  12   0  -9  162.79  130.07
 -12   0   9  206.02   74.32
  12   0  -8  800.45  125.17
 -12   0   8  822.26   90.67
 -12   0   7 1085.20  123.40
 -12   0   7  980.54   97.58
 -12   0   6  -15.88   34.88
 -12   0   6   -5.82   39.53
 -12   0   5 1011.41  104.80
 -12   0   5  942.19  136.93
 -12   0   4  847.49  112.01
  12   0  -4  791.77   93.07
  12   0  -4  700.71  137.26
 -12   0   4  794.62  103.75
 -12   0   3   65.55   71.60
  12   0  -3   60.43   47.06
  12   0  -3   72.37   60.43
 -12   0   3   58.91   57.11
 -12   0   2 1746.26  187.37
  12   0  -2 1645.00  131.84
  12   0  -2 1569.68  175.26
 -12   0   2 1624.44  146.37
 -12   0   1  244.26   65.26
  12   0  -1  251.31  113.30
  12   0  -1  232.00   88.07
 -12   0   1  235.78  175.51
 -12   0   0  714.37   90.78
  12   0   0  794.56  103.42
  12   0   0  660.34  113.87
 -12   0   0  712.92  137.78
 -12   0  -1  778.23   81.87
  12   0   1  754.07  141.46
  12   0   1  777.29  115.83
  12   0   2   13.75   29.97
  12   0   2    6.76   28.32
  12   0   3   12.82   34.98
  12   0   3   -4.25   31.66
 -12   0  -3    9.11   23.87
  12   0   4  490.08  116.70
 -12   0  -4  544.50  280.21
  12   0   5   23.16   42.00
 -12   0  -5   59.41   63.84
  12   0   6  288.91  164.45
 -12   0  -6  273.21  309.61
  12   1 -11 1108.52  121.88
 -12   1  11 1155.08  125.22
 -12   1  11 1076.10  121.91
  12  -1 -11  925.94  118.50
 -12  -1  11 1113.30  106.26
  12   1 -10   29.95   56.27
 -12   1  10    4.59   14.15
  12  -1 -10   27.58   61.04
 -12  -1  10    8.87   21.24
  12   1  -9  535.09   96.91
 -12  -1   9  621.15  111.58
  12  -1  -9  589.76  217.93
 -12  -1   9  606.58  100.51
 -12   1   8  654.96  131.26
  12   1  -8  691.74  114.75
  12   1  -8  596.62  150.37
 -12  -1   8  603.60  173.09
  12  -1  -8  497.25  187.48
 -12  -1   8  623.85  106.33
 -12   1   7   89.05  123.87
  12   1  -7  114.36   49.84
 -12   1   7   82.32  101.99
  12  -1  -7   69.05   62.81
 -12  -1   7   69.67   79.41
 -12   1   6 2502.26  202.59
  12   1  -6 2480.87  105.26
 -12   1   6 2381.21  245.98
 -12  -1   6 2411.68  134.82
  12  -1  -6 2348.36  170.42
 -12  -1   6 2525.37  128.38
  12   1  -5  368.58   89.70
 -12   1   5  363.15  138.04
  12   1  -5  360.60   64.34
 -12   1   5  338.57  135.61
 -12  -1   5  416.33   83.68
 -12  -1   5  424.30  116.52
  12   1  -4  675.44  107.86
 -12   1   4  735.80  109.10
  12   1  -4  683.41   90.74
 -12   1   4  675.30  200.33
 -12  -1   4  651.12   93.59
 -12  -1   4  696.02   92.03
  12   1  -3  997.29  183.25
 -12   1   3 1060.35  123.95
  12   1  -3 1019.36  105.29
 -12   1   3 1034.98  163.23
 -12  -1   3 1025.80  102.20
 -12  -1   3 1027.22  103.24
  12   1  -2   40.51   50.46
 -12   1   2   52.90   74.61
  12   1  -2   56.12   52.00
 -12  -1   2   58.84   58.86
 -12  -1   2   64.35   69.78
 -12   1   1  794.99   87.62
  12   1  -1  764.60   95.30
  12   1  -1  648.58  146.81
 -12  -1   1  650.19   81.40
  12  -1  -1  640.83  149.23
 -12  -1   1  589.69  119.45
  12   1   0  744.22  183.35
  12   1   0  791.77   96.10
  12  -1   0  711.13   73.32
 -12  -1   0  777.13  178.25
 -12  -1   0  665.65  160.71
  12   1   1   24.75   51.32
  12   1   1    2.47   23.91
 -12   1  -1   23.10   52.37
  12  -1   1   25.10   36.18
 -12  -1  -1   18.45   23.30
 -12  -1  -1   22.93   47.65
  12   1   2  931.28  184.18
 -12   1  -2 1022.74  168.58
  12   1   2  896.01  178.63
 -12  -1  -2 1137.68  198.28
  12  -1   2 1030.07  157.10
  12   1   3  146.01  142.35
 -12   1  -3  218.54   90.70
  12  -1   3  159.48  105.20
 -12  -1  -3  156.29  151.23
  12  -1   3  125.18  123.39
 -12  -1  -3  143.37  157.29
  12   1   4  599.60  119.74
 -12   1  -4  562.22  200.65
 -12  -1  -4  750.68  124.74
  12  -1   4  638.74  122.18
  12  -1   4  683.73  121.99
 -12  -1  -4  610.86  117.56
  12   1   5  166.73  166.12
 -12   1  -5  188.30  218.23
  12  -1   5  228.51  192.81
 -12  -1  -5  198.54  247.85
  12   1   6   44.50   53.56
  12   1   6   80.38   79.28
 -12   1  -6  111.48   79.21
  12  -1   6   86.81   58.96
 -12  -1  -6   84.34   67.21
  12  -1   6   55.48   81.63
 -12   2  10  173.19  218.45
  12   2 -10  234.47   68.06
  12   2 -10  155.54  167.94
 -12   2  10  180.63   80.72
 -12  -2  10  199.12  206.62
  12  -2 -10  213.11  185.92
  12   2  -9  179.61   83.41
  12   2  -9  210.78   71.88
 -12   2   9  188.22  207.83
  12  -2  -9  147.56  151.66
 -12  -2   9  182.80  184.41
 -12   2   8  743.76  207.29
  12   2  -8  874.91  129.59
  12   2  -8  799.71  124.84
 -12   2   8  843.10  191.20
 -12  -2   8  865.66  130.21
  12  -2  -8  667.06  175.76
 -12   2   7  345.21   87.45
  12   2  -7  436.94   95.59
 -12   2   7  400.43  151.23
 -12  -2   7  414.43   81.07
  12  -2  -7  312.32  266.11
 -12   2   6   21.06   44.08
  12   2  -6   20.46   49.77
  12   2  -6   33.27   33.14
 -12   2   6   52.66   80.57
 -12  -2   6   10.05   15.77
  12  -2  -6   22.65   51.00
 -12   2   5  452.47  103.09
 -12   2   5  426.60   96.97
  12   2  -5  462.58  102.04
  12   2  -5  450.19  193.74
  12  -2  -5  328.69  269.60
 -12  -2   5  433.81   84.20
 -12  -2   5  358.54   81.08
  12   2  -4 1340.38  225.47
 -12   2   4 1440.95  125.06
  12   2  -4 1314.58  217.94
 -12  -2   4 1324.86  194.26
  12  -2  -4 1097.43  272.18
  12   2  -3  125.63  100.91
 -12   2   3  137.17   85.86
  12   2  -3  122.09   89.52
 -12  -2   3   98.17   44.59
  12  -2  -3  110.08   76.69
  12   2  -2  626.55  129.83
  12   2  -2  619.07  137.11
 -12   2   2  648.50  141.14
 -12  -2   2  644.74  141.09
 -12  -2   2  626.37  114.97
  12  -2  -2  537.70  177.98
 -12   2   1  181.11  107.10
  12   2  -1  165.73  123.44
 -12  -2   1  122.83  103.26
 -12  -2   1  103.14  134.17
  12  -2  -1  102.25  106.67
 -12   2   0  126.77   82.75
  12   2   0  118.11   64.67
 -12  -2   0  187.91  110.88
 -12  -2   0  126.82  164.49
  12  -2   0  148.05  108.36
  12   2   1  237.80  127.43
  12   2   1  238.27   79.40
 -12   2  -1  254.22   78.48
 -12  -2  -1  199.58  170.82
 -12  -2  -1  155.35  199.12
  12  -2   1  207.80   74.86
  12   2   2   65.33   77.10
  12   2   2   95.71   78.71
 -12   2  -2   89.52   73.89
  12  -2   2   64.41   60.55
 -12  -2  -2   55.04   72.86
  12   2   3  297.89  127.60
 -12   2  -3  299.34  174.24
 -12  -2  -3  307.08   93.88
  12  -2   3  262.93   68.72
  12  -2   3  219.15  171.55
 -12  -2  -3  180.77  217.89
  12   2   4  164.42   88.21
 -12   2  -4  155.46  113.04
 -12  -2  -4  135.21  114.66
  12  -2   4  154.30   56.10
  12  -2   4  128.84  114.59
 -12  -2  -4  146.84   63.76
 -12   2  -5  100.84  124.94
 -12  -2  -5   77.44   80.49
  12   3  -7   -3.42   40.20
  12   3  -7    8.28   37.93
 -12   3   7    2.37   34.63
  12  -3  -7    8.89   29.27
 -12  -3   7    5.77   37.26
 -12   3   6  670.63  312.19
  12   3  -6  667.73  182.15
  12  -3  -6  558.32  163.69
 -12  -3   6  585.83   84.20
  12   3  -5    2.94   33.67
  12   3  -5    5.44   35.33
 -12   3   5    9.41   36.81
  12  -3  -5    7.14   46.85
 -12  -3   5    3.28   21.61
  12   3  -4  117.64  110.33
  12   3  -4  186.22   82.93
 -12   3   4  129.64  148.79
  12  -3  -4  127.91  100.85
 -12  -3   4  118.09  122.49
  12   3  -3  251.51   65.13
  12   3  -3  305.11   76.19
 -12   3   3  249.09  153.10
  12  -3  -3  249.25  238.80
 -12  -3   3  290.91  170.11
  12   3  -2  159.41   70.98
  12   3  -2  166.37   73.70
 -12   3   2  147.28  141.72
  12  -3  -2  165.65  149.01
 -12  -3   2  195.00   91.67
 -12   3   1  418.01  105.35
  12   3  -1  411.68   89.55
  12  -3  -1  385.43  109.55
 -12  -3   1  444.45   71.74
  12   3   0  155.77  103.62
 -12   3   0  171.17   83.55
 -12  -3   0  132.17  141.41
  12  -3   0  181.91   69.03
 -12  -3   0  164.99   56.68
  12   3   1  152.28  100.65
 -12   3  -1  143.39  140.80
 -12  -3  -1  129.36  142.35
  12  -3   1  143.36  121.68
 -12  -3  -1  114.55  120.96
 -12   3  -2   79.85  102.09
  12   3   2  124.22   89.03
  12  -3   2  118.52   91.10
 -12  -3  -2  123.42   94.94
 -13   0   9 2068.72  168.94
  13   0  -9 1680.20  219.27
 -13   0   8    5.06   22.20
  13   0  -8   21.20   35.35
 -13   0   7  202.42  173.50
  13   0  -7  227.25  168.11
  13   0  -6  207.90  128.37
 -13   0   5    8.49   24.34
  13   0  -5   25.54   54.62
 -13   0   4 1013.55  174.77
  13   0  -4  879.04  214.71
 -13   0   3   98.12   99.45
  13   0  -3  130.58   76.31
 -13   0   3  109.28  143.97
 -13   0   2   15.12   43.49
  13   0  -2    5.83   25.44
  13   0  -2   17.06   29.77
 -13   0   2    7.72   41.11
 -13   0   1  943.95  153.07
  13   0  -1  883.31  129.87
  13   0  -1  799.91  182.54
 -13   0   1  882.46  131.30
  13   0   0    0.44   33.38
  13   0   0    9.94   36.38
 -13   0   0   14.68   27.70
  13   0   1  293.38   84.06
  13   0   1  208.08  172.53
 -13   0  -1  306.31  166.55
  13   0   2    7.95   26.61
 -13   0  -2    7.49   26.08
  13   0   3   13.23   33.27
  13   0   3   15.40   38.22
 -13   0  -3   11.19   34.64
  13   1  -8  407.61   86.72
 -13   1   8  465.56   83.80
 -13   1   8  340.68  188.12
  13  -1  -8  410.31   99.64
 -13  -1   8  421.08  156.04
 -13   1   7  438.80   82.32
  13   1  -7  425.31   90.16
  13  -1  -7  377.19   87.83
 -13  -1   7  416.39   82.30
 -13  -1   7  380.96   91.93
 -13   1   6   24.08   43.45
  13   1  -6   55.35   52.05
  13   1  -6   56.99   52.51
 -13   1   6   55.80   63.32
 -13  -1   6   77.49   89.19
  13  -1  -6   59.56   76.02
 -13  -1   6   19.74   47.84
 -13   1   5  422.55  100.37
 -13   1   5  416.07  122.96
  13   1  -5  404.72   99.32
  13   1  -5  386.84   98.67
  13  -1  -5  433.24   96.76
 -13  -1   5  458.66   87.00
 -13  -1   5  516.05   85.96
 -13   1   4   49.01   61.59
  13   1  -4   17.65   33.62
  13   1  -4   26.95   61.81
 -13   1   4   37.32   72.17
  13  -1  -4   23.24   40.49
 -13  -1   4   26.15   48.46
  13   1  -3  642.17  109.91
 -13   1   3  644.95  127.35
  13  -1  -3  610.75  132.58
 -13   1   2  281.68  257.04
  13   1  -2  313.38   89.73
  13  -1  -2  206.90  162.05
 -13  -1   2  209.44  184.75
  13   1  -1   15.22   48.04
 -13   1   1   -9.64   57.16
 -13  -1   1    7.04   26.93
  13  -1  -1   12.98   42.04
 -13  -1   1    8.99   25.61
 -13   1   0  181.54   70.65
 -13  -1   0  307.85  105.10
  13  -1   0  323.65   80.58
 -13  -1   0  279.47  181.03
  13   1   1  351.46  197.97
 -13   1  -1  438.25   80.89
 -13  -1  -1  476.78   78.86
  13  -1   1  392.31  190.46
 -13  -1  -1  397.75  185.18
  13   1   2   79.27  105.53
 -13   1  -2  117.83  105.45
 -13  -1  -2   58.32   67.80
  13  -1   2   39.92   50.68
  13  -1   2   61.77   70.37
 -13  -1  -2   26.37   30.94
  13   2  -6  494.52  102.39
 -13   2   6  462.53  208.79
 -13  -2   6  441.28  201.39
  13   2  -5  189.16   89.36
  13   2  -5  169.12   64.17
 -13   2   5  147.17  151.08
  13  -2  -5  110.23  105.36
 -13  -2   5  107.22  111.83
  13   2  -4  121.90  123.68
  13   2  -4  160.39   72.07
 -13   2   4  161.34   86.09
  13  -2  -4  239.10   77.28
 -13  -2   4  209.91  127.26
  13   2  -3  259.82   86.18
 -13   2   3  264.04   91.88
 -13  -2   3  238.26  221.97
  13  -2  -3  191.28  180.38
 -13  -2   3  284.43   66.32
  13   2  -2  273.13   74.30
 -13   2   2  269.77   81.56
 -13  -2   2  295.15  148.93
  13  -2  -2  250.44  213.11
 -13  -2   2  274.02   62.80
  13   2  -1 1001.11  113.64
  13   2  -1  957.24  116.64
 -13   2   1 1079.16  139.85
  13  -2  -1  915.83  144.33
 -13  -2   1  954.93  100.62
  13   2   0    7.63   29.39
  13   2   0   10.15   36.67
 -13   2   0   18.49   64.93
 -13  -2   0   11.52   28.82
 -13  -2   0   11.99   24.48
  13  -2   0   13.61   54.72
;
_shelx_hkl_checksum              99709
loop_
_space_group_symop_id
_space_group_symop_operation_xyz
1 +X,+Y,+Z
2 -X,1/2+Y,-Z
loop_
_atom_site_label
_atom_site_type_symbol
_atom_site_fract_x
_atom_site_fract_y
_atom_site_fract_z
_atom_site_U_iso_or_equiv
_atom_site_adp_type
_atom_site_occupancy
_atom_site_site_symmetry_order
_atom_site_calc_flag
_atom_site_refinement_flags_posn
_atom_site_refinement_flags_adp
Br1 Br 0.86298(3) 0.37400(11) 0.68902(2) 0.05263(16) Uani 1 1 d . .
O1 O 1.53154(17) 0.3651(7) 0.67666(13) 0.0415(6) Uani 1 1 d . .
O2 O 1.4435(2) 0.6612(5) 0.58050(15) 0.0406(7) Uani 1 1 d . .
N1 N 1.3138(3) 1.0984(5) 0.9327(2) 0.0355(8) Uani 1 1 d . .
N2 N 1.4809(2) 0.9226(5) 0.87398(17) 0.0275(7) Uani 1 1 d . .
N3 N 1.5375(3) 0.6920(5) 0.85994(18) 0.0256(7) Uani 1 1 d . .
N4 N 1.5686(2) 0.7695(5) 0.70730(17) 0.0327(8) Uani 1 1 d . .
H4 H 1.5643 0.9174 0.6840 0.039 Uiso 1 1 calc R U
C1 C 1.1875(3) 1.1026(7) 0.9400(3) 0.0401(10) Uani 1 1 d . .
H1 H 1.1579 1.2312 0.9739 0.048 Uiso 1 1 calc R U
C2 C 1.1010(3) 0.9352(7) 0.9022(2) 0.0373(11) Uani 1 1 d . .
H2 H 1.0135 0.9477 0.9091 0.045 Uiso 1 1 calc R U
C3 C 1.1436(3) 0.7440(7) 0.8529(2) 0.0345(9) Uani 1 1 d . .
H3 H 1.0858 0.6214 0.8271 0.041 Uiso 1 1 calc R U
C4 C 1.2706(3) 0.7348(6) 0.8422(2) 0.0291(8) Uani 1 1 d . .
H4A H 1.3014 0.6089 0.8077 0.035 Uiso 1 1 calc R U
C5 C 1.3529(3) 0.9160(7) 0.8835(2) 0.0256(8) Uani 1 1 d . .
C6 C 1.5691(3) 1.0961(6) 0.9253(3) 0.0316(9) Uani 1 1 d . .
H6A H 1.5840 1.0496 0.9898 0.038 Uiso 1 1 calc R U
H6B H 1.5315 1.2619 0.9201 0.038 Uiso 1 1 calc R U
C7 C 1.6920(3) 1.0955(7) 0.8895(3) 0.0385(10) Uani 1 1 d . .
H7 H 1.7539 1.2158 0.9112 0.046 Uiso 1 1 calc R U
C8 C 1.7204(3) 0.9369(7) 0.8292(2) 0.0367(11) Uani 1 1 d . .
H8 H 1.7974 0.9547 0.8048 0.044 Uiso 1 1 calc R U
C9 C 1.6318(3) 0.7298(7) 0.7990(2) 0.0288(8) Uani 1 1 d . .
H9 H 1.6843 0.5778 0.7997 0.035 Uiso 1 1 calc R U
C10 C 1.5161(3) 0.5779(9) 0.6576(2) 0.0351(9) Uani 1 1 d . .
C11 C 1.3627(3) 0.4799(7) 0.5299(2) 0.0413(11) Uani 1 1 d . .
H11A H 1.4087 0.3221 0.5317 0.050 Uiso 1 1 calc R U
H11B H 1.3416 0.5316 0.4661 0.050 Uiso 1 1 calc R U
C12 C 1.2419(3) 0.4488(6) 0.5694(2) 0.0287(9) Uani 1 1 d . .
C13 C 1.2235(3) 0.2555(6) 0.6247(2) 0.0373(10) Uani 1 1 d . .
H13 H 1.2888 0.1359 0.6376 0.045 Uiso 1 1 calc R U
C14 C 1.1121(4) 0.2305(7) 0.6620(2) 0.0373(9) Uani 1 1 d . .
H14 H 1.1004 0.0958 0.6998 0.045 Uiso 1 1 calc R U
C15 C 1.0188(3) 0.4075(8) 0.64246(19) 0.0290(8) Uani 1 1 d . .
C16 C 1.0344(3) 0.6047(6) 0.5891(2) 0.0309(9) Uani 1 1 d . .
H16 H 0.9696 0.7257 0.5771 0.037 Uiso 1 1 calc R U
C17 C 1.1464(3) 0.6236(6) 0.5532(2) 0.0302(8) Uani 1 1 d . .
H17 H 1.1583 0.7602 0.5164 0.036 Uiso 1 1 calc R U
loop_
_atom_site_aniso_label
_atom_site_aniso_U_11
_atom_site_aniso_U_22
_atom_site_aniso_U_33
_atom_site_aniso_U_23
_atom_site_aniso_U_13
_atom_site_aniso_U_12
Br1 0.0347(2) 0.0788(3) 0.0495(2) -0.0135(3) 0.02292(16) -0.0164(3)
O1 0.0308(13) 0.0514(16) 0.0420(14) 0.0000(19) 0.0043(10) 0.0046(19)
O2 0.0226(13) 0.0726(19) 0.0261(13) 0.0083(14) 0.0017(11) -0.0113(13)
N1 0.0254(17) 0.0316(18) 0.0481(19) -0.0043(15) 0.0010(15) 0.0045(14)
N2 0.0228(14) 0.023(2) 0.0368(15) 0.0014(14) 0.0032(12) 0.0004(14)
N3 0.0267(17) 0.0177(16) 0.0342(17) 0.0007(14) 0.0098(14) -0.0016(13)
N4 0.0269(16) 0.045(2) 0.0260(16) 0.0078(14) 0.0038(13) -0.0009(14)
C1 0.029(2) 0.042(2) 0.047(2) -0.003(2) -0.0012(19) 0.007(2)
C2 0.0184(17) 0.056(3) 0.036(2) 0.001(2) -0.0003(15) 0.0007(19)
C3 0.029(2) 0.041(2) 0.030(2) 0.0022(19) -0.0063(17) -0.0075(19)
C4 0.030(2) 0.0301(19) 0.0276(19) -0.0007(17) 0.0045(16) -0.0022(17)
C5 0.0237(17) 0.024(2) 0.0284(17) 0.0069(18) 0.0016(14) 0.0029(19)
C6 0.029(2) 0.0167(18) 0.048(2) -0.0051(18) 0.0023(18) -0.0069(17)
C7 0.030(2) 0.031(2) 0.051(3) 0.008(2) -0.007(2) -0.0061(18)
C8 0.0198(18) 0.056(3) 0.034(2) 0.014(2) 0.0011(16) -0.004(2)
C9 0.022(2) 0.035(2) 0.028(2) 0.0056(17) 0.0022(16) 0.0007(17)
C10 0.0162(19) 0.060(3) 0.031(2) 0.006(2) 0.0123(17) 0.001(2)
C11 0.026(2) 0.075(3) 0.0228(19) -0.0064(19) 0.0059(16) -0.0025(19)
C12 0.0237(18) 0.039(3) 0.0233(18) -0.0072(18) 0.0024(15) 0.0004(16)
C13 0.027(2) 0.036(2) 0.046(2) -0.008(2) -0.0038(19) 0.0094(18)
C14 0.045(2) 0.032(2) 0.034(2) 0.0040(18) 0.0045(19) -0.002(2)
C15 0.0217(17) 0.040(2) 0.0261(16) -0.009(2) 0.0067(14) -0.006(2)
C16 0.025(2) 0.030(2) 0.036(2) 0.0008(18) 0.0023(17) 0.0048(17)
C17 0.028(2) 0.031(2) 0.031(2) -0.0009(17) 0.0022(16) -0.0019(17)
loop_
_atom_type_symbol
_atom_type_description
_atom_type_scat_dispersion_real
_atom_type_scat_dispersion_imag
_atom_type_scat_source
C C 0.0033 0.0016
;
International Tables for Crystallography
(Vol. C, Tables 4.2.6.8 and 6.1.1.4)
;
H H 0.0000 0.0000
;
International Tables for Crystallography
(Vol. C, Table 6.1.1.4)
;
N N 0.0061 0.0033
;
International Tables for Crystallography
(Vol. C, Tables 4.2.6.8 and 6.1.1.4)
;
O O 0.0106 0.0060
;
International Tables for Crystallography
(Vol. C, Tables 4.2.6.8 and 6.1.1.4)
;
Br Br -0.2901 2.4595
;
International Tables for Crystallography
(Vol. C, Tables 4.2.6.8 and 6.1.1.4)
;
loop_
_geom_angle_atom_site_label_1
_geom_angle_atom_site_label_2
_geom_angle_atom_site_label_3
_geom_angle
C10 O2 C11 115.1(3)
C5 N1 C1 116.6(3)
C5 N2 N3 115.6(3)
C5 N2 C6 121.1(3)
N3 N2 C6 113.8(2)
N2 N3 C9 108.0(3)
C10 N4 C9 119.7(3)
C10 N4 H4 120.2
C9 N4 H4 120.2
N1 C1 C2 124.3(4)
N1 C1 H1 117.8
C2 C1 H1 117.8
C1 C2 C3 118.4(3)
C1 C2 H2 120.8
C3 C2 H2 120.8
C4 C3 C2 119.4(3)
C4 C3 H3 120.3
C2 C3 H3 120.3
C3 C4 C5 118.2(3)
C3 C4 H4A 120.9
C5 C4 H4A 120.9
N1 C5 N2 115.3(3)
N1 C5 C4 123.1(3)
N2 C5 C4 121.6(3)
N2 C6 C7 109.4(3)
N2 C6 H6A 109.8
C7 C6 H6A 109.8
N2 C6 H6B 109.8
C7 C6 H6B 109.8
H6A C6 H6B 108.2
C8 C7 C6 123.7(3)
C8 C7 H7 118.2
C6 C7 H7 118.2
C7 C8 C9 120.4(3)
C7 C8 H8 119.8
C9 C8 H8 119.8
N4 C9 N3 110.7(2)
N4 C9 C8 110.3(3)
N3 C9 C8 111.9(3)
N4 C9 H9 107.9
N3 C9 H9 107.9
C8 C9 H9 107.9
O1 C10 N4 126.1(3)
O1 C10 O2 124.2(4)
N4 C10 O2 109.7(4)
O2 C11 C12 110.0(3)
O2 C11 H11A 109.7
C12 C11 H11A 109.7
O2 C11 H11B 109.7
C12 C11 H11B 109.7
H11A C11 H11B 108.2
C13 C12 C17 118.0(3)
C13 C12 C11 122.3(3)
C17 C12 C11 119.7(3)
C12 C13 C14 121.8(3)
C12 C13 H13 119.1
C14 C13 H13 119.1
C15 C14 C13 118.0(3)
C15 C14 H14 121.0
C13 C14 H14 121.0
C14 C15 C16 122.0(3)
C14 C15 Br1 119.2(3)
C16 C15 Br1 118.8(3)
C15 C16 C17 118.5(3)
C15 C16 H16 120.8
C17 C16 H16 120.8
C16 C17 C12 121.8(3)
C16 C17 H17 119.1
C12 C17 H17 119.1
loop_
_geom_bond_atom_site_label_1
_geom_bond_atom_site_label_2
_geom_bond_distance
Br1 C15 1.898(3)
O1 C10 1.205(5)
O2 C10 1.363(4)
O2 C11 1.446(4)
N1 C5 1.345(4)
N1 C1 1.358(4)
N2 C5 1.385(4)
N2 N3 1.427(4)
N2 C6 1.463(4)
N3 C9 1.470(4)
N4 C10 1.356(4)
N4 C9 1.450(4)
N4 H4 0.8800
C1 C2 1.356(5)
C1 H1 0.9500
C2 C3 1.397(5)
C2 H2 0.9500
C3 C4 1.379(4)
C3 H3 0.9500
C4 C5 1.399(4)
C4 H4A 0.9500
C6 C7 1.483(5)
C6 H6A 0.9900
C6 H6B 0.9900
C7 C8 1.323(5)
C7 H7 0.9500
C8 C9 1.496(5)
C8 H8 0.9500
C9 H9 1.0000
C11 C12 1.500(4)
C11 H11A 0.9900
C11 H11B 0.9900
C12 C13 1.377(4)
C12 C17 1.387(4)
C13 C14 1.389(5)
C13 H13 0.9500
C14 C15 1.383(5)
C14 H14 0.9500
C15 C16 1.370(5)
C16 C17 1.381(4)
C16 H16 0.9500
C17 H17 0.9500
loop_
_geom_torsion_atom_site_label_1
_geom_torsion_atom_site_label_2
_geom_torsion_atom_site_label_3
_geom_torsion_atom_site_label_4
_geom_torsion
C5 N2 N3 C9 145.3(2)
C6 N2 N3 C9 -67.8(3)
C5 N1 C1 C2 0.8(5)
N1 C1 C2 C3 0.5(5)
C1 C2 C3 C4 -1.8(5)
C2 C3 C4 C5 1.6(5)
C1 N1 C5 N2 177.3(3)
C1 N1 C5 C4 -0.9(5)
N3 N2 C5 N1 152.8(3)
C6 N2 C5 N1 8.5(4)
N3 N2 C5 C4 -28.8(4)
C6 N2 C5 C4 -173.2(3)
C3 C4 C5 N1 -0.3(5)
C3 C4 C5 N2 -178.4(3)
C5 N2 C6 C7 -169.3(3)
N3 N2 C6 C7 45.8(4)
N2 C6 C7 C8 -8.4(5)
C6 C7 C8 C9 -5.7(5)
C10 N4 C9 N3 -75.6(4)
C10 N4 C9 C8 159.9(3)
N2 N3 C9 N4 -74.1(3)
N2 N3 C9 C8 49.5(3)
C7 C8 C9 N4 108.4(3)
C7 C8 C9 N3 -15.4(4)
C9 N4 C10 O1 -11.5(5)
C9 N4 C10 O2 169.5(2)
C11 O2 C10 O1 12.4(4)
C11 O2 C10 N4 -168.6(3)
C10 O2 C11 C12 82.2(3)
O2 C11 C12 C13 -101.4(4)
O2 C11 C12 C17 76.1(4)
C17 C12 C13 C14 1.4(5)
C11 C12 C13 C14 179.0(3)
C12 C13 C14 C15 -0.3(5)
C13 C14 C15 C16 -0.9(5)
C13 C14 C15 Br1 178.0(2)
C14 C15 C16 C17 0.9(5)
Br1 C15 C16 C17 -178.0(2)
C15 C16 C17 C12 0.3(5)
C13 C12 C17 C16 -1.4(5)
C11 C12 C17 C16 -179.1(3)
