#------------------------------------------------------------------------------
#$Date: 2019-11-25 15:29:24 +0200 (Mon, 25 Nov 2019) $
#$Revision: 241202 $
#$URL: file:///home/coder/svn-repositories/cod/cif/4/13/08/4130843.cif $
#------------------------------------------------------------------------------
#
# This file is available in the Crystallography Open Database (COD),
# http://www.crystallography.net/
#
# All data on this site have been placed in the public domain by the
# contributors.
#
data_4130843
loop_
_publ_author_name
'Karothu, Durga Prasad'
'Weston, James'
'Desta, Israel Tilahun'
'Naumov, Pan\<ce'
_publ_section_title
;
 Shape-Memory and Self-Healing Effects in Mechanosalient Molecular
 Crystals.
;
_journal_issue                   40
_journal_name_full               'Journal of the American Chemical Society'
_journal_page_first              13298
_journal_page_last               13306
_journal_paper_doi               10.1021/jacs.6b07406
_journal_volume                  138
_journal_year                    2016
_chemical_formula_moiety         'C8 H6 O4'
_chemical_formula_sum            'C8 H6 O4'
_chemical_formula_weight         166.13
_space_group_crystal_system      triclinic
_space_group_IT_number           2
_space_group_name_Hall           '-P 1'
_space_group_name_H-M_alt        'P -1'
_atom_sites_solution_hydrogens   mixed
_atom_sites_solution_primary     iterative
_audit_creation_date             2016-07-04
_audit_creation_method
;
Olex2 1.2
(compiled 2016.02.19 svn.r3266 for OlexSys, GUI svn.r5155)
;
_cell_angle_alpha                72.004(2)
_cell_angle_beta                 76.098(2)
_cell_angle_gamma                87.219(2)
_cell_formula_units_Z            1
_cell_length_a                   5.0374(6)
_cell_length_b                   5.3641(7)
_cell_length_c                   7.0068(9)
_cell_measurement_reflns_used    5038
_cell_measurement_temperature    290(2)
_cell_measurement_theta_max      30.47
_cell_measurement_theta_min      3.15
_cell_volume                     174.73(4)
_computing_cell_refinement       'SAINT v8.34A (Bruker, 2013)'
_computing_data_reduction        'SAINT v8.34A (Bruker, 2013)'
_computing_molecular_graphics    'Olex2 (Dolomanov et al., 2009)'
_computing_publication_material  'Olex2 (Dolomanov et al., 2009)'
_computing_structure_refinement  'ShelXL (Sheldrick, 2015)'
_computing_structure_solution    'olex2.solve (Bourhis et al., 2015)'
_diffrn_ambient_temperature      290.01
_diffrn_measured_fraction_theta_full 0.998
_diffrn_measured_fraction_theta_max 0.999
_diffrn_measurement_device_type  'Bruker APEX-II CCD'
_diffrn_measurement_method       '\f and \w scans'
_diffrn_radiation_type           MoK\a
_diffrn_radiation_wavelength     0.71073
_diffrn_reflns_av_R_equivalents  0.0171
_diffrn_reflns_av_unetI/netI     0.0098
_diffrn_reflns_Laue_measured_fraction_full 0.998
_diffrn_reflns_Laue_measured_fraction_max 0.999
_diffrn_reflns_limit_h_max       6
_diffrn_reflns_limit_h_min       -6
_diffrn_reflns_limit_k_max       6
_diffrn_reflns_limit_k_min       -6
_diffrn_reflns_limit_l_max       8
_diffrn_reflns_limit_l_min       -8
_diffrn_reflns_number            4841
_diffrn_reflns_point_group_measured_fraction_full 0.998
_diffrn_reflns_point_group_measured_fraction_max 0.999
_diffrn_reflns_theta_full        25.242
_diffrn_reflns_theta_max         25.993
_diffrn_reflns_theta_min         3.147
_diffrn_standards_number         0
_exptl_absorpt_coefficient_mu    0.129
_exptl_absorpt_correction_T_max  0.7461
_exptl_absorpt_correction_T_min  0.6912
_exptl_absorpt_correction_type   multi-scan
_exptl_absorpt_process_details
;
SADABS-2014/5 (Bruker,2014/5) was used for absorption correction.
wR2(int) was 0.1172 before and 0.0416 after correction.
The Ratio of minimum to maximum transmission is 0.9264.
The \l/2 correction factor is 0.00150.
;
_exptl_crystal_colour            colorless
_exptl_crystal_density_diffrn    1.579
_exptl_crystal_description       Parallelepiped
_exptl_crystal_F_000             86
_exptl_crystal_size_max          0.3
_exptl_crystal_size_mid          0.2
_exptl_crystal_size_min          0.2
_refine_diff_density_max         0.263
_refine_diff_density_min         -0.217
_refine_diff_density_rms         0.043
_refine_ls_extinction_method     none
_refine_ls_goodness_of_fit_ref   1.044
_refine_ls_hydrogen_treatment    mixed
_refine_ls_matrix_type           full
_refine_ls_number_parameters     59
_refine_ls_number_reflns         685
_refine_ls_number_restraints     0
_refine_ls_restrained_S_all      1.044
_refine_ls_R_factor_all          0.0388
_refine_ls_R_factor_gt           0.0354
_refine_ls_shift/su_max          0.000
_refine_ls_shift/su_mean         0.000
_refine_ls_structure_factor_coef Fsqd
_refine_ls_weighting_details
'w=1/[\s^2^(Fo^2^)+(0.0750P)^2^+0.0460P] where P=(Fo^2^+2Fc^2^)/3'
_refine_ls_weighting_scheme      calc
_refine_ls_wR_factor_gt          0.1100
_refine_ls_wR_factor_ref         0.1148
_reflns_Friedel_coverage         0.000
_reflns_number_gt                618
_reflns_number_total             685
_reflns_threshold_expression     'I > 2\s(I)'
_cod_data_source_file            ja6b07406_si_023.cif
_cod_data_source_block           TA_Form_2_Reversible_cycle_2
_cod_database_code               4130843
_shelx_space_group_comment
;
The symmetry employed for this shelxl refinement is uniquely defined
by the following loop, which should always be used as a source of
symmetry information in preference to the above space-group names.
They are only intended as comments.
;
_shelx_estimated_absorpt_t_max   0.975
_shelx_estimated_absorpt_t_min   0.962
_olex2_refinement_description
;
1. Fixed Uiso
 At 1.2 times of:
  All C(H) groups
2.a Aromatic/amide H refined with riding coordinates:
 C3(H3), C4(H4)
;
_shelx_res_file
;
    mo_ta_cy_rev_290k_0m.res created by SHELXL-2014/7

TITL
CELL 0.71073 5.0374 5.3641 7.0068 72.004 76.098 87.219
ZERR 1 0.0006 0.0007 0.0009 0.002 0.002 0.002
LATT 1
SFAC C O H
UNIT 8 4 6

L.S. 14
PLAN  5
SIZE 0.2 0.2 0.3
TEMP 16.86
CONF
fmap 2
acta
MORE -1
BOND $H
OMIT 0 52
REM <olex2.extras>
REM <HklSrc "%.\\mo_TA_Cy_Rev_290K_0m.hkl">
REM </olex2.extras>

WGHT    0.075000    0.046000
FVAR       0.55332
O2    2    0.780470    0.803648    0.957575    11.00000    0.04871    0.04078 =
         0.03038    0.00090   -0.02215   -0.01178
O1    2    0.930332    1.211636    0.773626    11.00000    0.05032    0.03770 =
         0.03830   -0.00582   -0.02486   -0.01248
C3    1    0.661693    1.218277    0.470853    11.00000    0.03260    0.02719 =
         0.02853   -0.00612   -0.01307   -0.00552
AFIX  43
H3    3    0.769747    1.363670    0.451982    11.00000   -1.20000
AFIX   0
C2    1    0.640626    1.002665    0.646312    11.00000    0.02383    0.02926 =
         0.02385   -0.00973   -0.00866    0.00102
C4    1    0.479410    0.784399    0.676213    11.00000    0.03500    0.02792 =
         0.02414   -0.00214   -0.01352   -0.00394
AFIX  43
H4    3    0.466116    0.640893    0.794104    11.00000   -1.20000
AFIX   0
C1    1    0.792320    1.003351    0.804171    11.00000    0.02749    0.03272 =
         0.02488   -0.00857   -0.01012   -0.00144
H1    3    1.048118    1.216175    0.891601    11.00000    0.14923
HKLF 4

REM
REM R1 =  0.0354 for     618 Fo > 4sig(Fo)  and  0.0388 for all     685 data
REM     59 parameters refined using      0 restraints

END

WGHT      0.0560      0.0434

REM Highest difference peak  0.263,  deepest hole -0.217,  1-sigma level  0.043
Q1    1   0.7147  1.0047  0.7170  11.00000  0.05    0.26
Q2    1   1.0140  1.2178  0.8464  11.00000  0.05    0.24
Q3    1   0.8574  0.7867  1.0339  11.00000  0.05    0.21
Q4    1   0.9248  0.9874  0.9206  11.00000  0.05    0.21
Q5    1   0.6254  0.8647  0.6407  11.00000  0.05    0.19
;
_shelx_res_checksum              24285
_shelx_hkl_file
;
  -1   0   0    3.56    0.08
  -1   0   0    3.26    0.08
   1   0   0    3.45    0.08
   1   0   0    3.53    0.08
   1   0   0    3.71    0.08
   1   0   0    3.63    0.09
   1   0   0    3.44    0.08
   1   0   0    3.54    0.08
   1   0   0    3.59    0.08
   1   0   0    3.52    0.08
   1   0   0    3.60    0.08
  -2   0   0   10.06    0.23
  -2   0   0   10.44    0.23
  -2   0   0   10.29    0.23
   2   0   0   10.62    0.23
   2   0   0   10.42    0.24
   2   0   0   10.39    0.22
   2   0   0   10.14    0.23
   2   0   0   10.45    0.22
   2   0   0   10.48    0.23
   2   0   0   10.45    0.23
   2   0   0   10.10    0.23
   2   0   0   10.58    0.24
  -3   0   0    0.24    0.03
  -3   0   0    0.23    0.02
  -3   0   0    0.29    0.02
  -3   0   0    0.25    0.03
   3   0   0    0.20    0.03
   3   0   0    0.18    0.02
   3   0   0    0.21    0.02
   3   0   0    0.21    0.03
   3   0   0    0.24    0.02
   3   0   0    0.25    0.03
   3   0   0    0.27    0.03
   3   0   0    0.27    0.02
   3   0   0    0.26    0.03
  -4   0   0    0.60    0.03
  -4   0   0    0.54    0.03
  -4   0   0    0.55    0.04
  -4   0   0    0.55    0.05
  -4   0   0    0.54    0.04
   4   0   0    0.54    0.03
   4   0   0    0.55    0.05
   4   0   0    0.47    0.04
   4   0   0    0.54    0.04
   4   0   0    0.53    0.03
   4   0   0    0.53    0.04
   4   0   0    0.54    0.05
   4   0   0    0.50    0.04
  -5   0   0    0.25    0.05
  -5   0   0    0.20    0.04
  -5   0   0    0.23    0.04
  -5   0   0    0.22    0.06
   5   0   0    0.14    0.03
   5   0   0    0.25    0.04
   5   0   0    0.18    0.03
   5   0   0    0.21    0.04
   5   0   0    0.14    0.03
  -6   0   0    0.98    0.08
  -6   0   0    0.87    0.10
  -6   0   0    0.80    0.08
   6   0   0    0.75    0.09
   6   0   0    0.77    0.08
   6   0   0    0.88    0.06
   6  -1   0    0.87    0.09
   6  -1   0    0.86    0.07
   6  -1   0    0.69    0.08
  -6   1   0    1.01    0.08
  -6   1   0    0.90    0.09
  -6   1   0    0.81    0.07
   5  -1   0    1.64    0.07
   5  -1   0    1.59    0.09
   5  -1   0    1.62    0.07
   5  -1   0    1.57    0.07
   5  -1   0    1.58    0.07
   5  -1   0    1.61    0.06
   5  -1   0    1.65    0.08
   5  -1   0    1.52    0.08
   5  -1   0    1.57    0.06
  -5   1   0    1.51    0.08
  -5   1   0    1.56    0.07
  -5   1   0    1.50    0.06
  -5   1   0    1.64    0.08
  -5   1   0    1.57    0.06
  -5   1   0    1.58    0.07
   4  -1   0    9.79    0.23
   4  -1   0    9.43    0.22
   4  -1   0    9.64    0.23
   4  -1   0    9.36    0.23
   4  -1   0    9.31    0.23
   4  -1   0    9.66    0.24
   4  -1   0    9.64    0.22
   4  -1   0    9.66    0.22
   4  -1   0    9.51    0.22
  -4   1   0    9.63    0.22
  -4   1   0    9.30    0.23
  -4   1   0    9.26    0.24
  -4   1   0    9.34    0.22
  -4   1   0    9.40    0.23
   3  -1   0   25.23    0.55
   3  -1   0   25.63    0.55
   3  -1   0   25.57    0.55
   3  -1   0   25.66    0.56
   3  -1   0   25.74    0.54
   3  -1   0   25.56    0.54
   3  -1   0   26.09    0.55
   3  -1   0   26.05    0.55
   3  -1   0   25.59    0.55
  -3   1   0   24.06    0.55
  -3   1   0   24.39    0.56
  -3   1   0   25.66    0.55
   2  -1   0    2.88    0.07
   2  -1   0    3.03    0.08
   2  -1   0    2.91    0.07
   2  -1   0    2.97    0.08
   2  -1   0    2.95    0.07
   2  -1   0    2.84    0.07
   2  -1   0    2.93    0.08
   2  -1   0    2.97    0.08
   2  -1   0    3.00    0.08
  -2   1   0    2.94    0.07
  -2   1   0    2.72    0.08
   1  -1   0    6.41    0.14
   1  -1   0    6.43    0.14
   1  -1   0    6.09    0.14
   1  -1   0    6.17    0.14
   1  -1   0    6.20    0.14
   1  -1   0    6.32    0.14
   1  -1   0    6.47    0.14
  -1   1   0    5.93    0.14
  -1   1   0    6.39    0.14
  -1   1   0    6.25    0.14
   0  -1   0  278.71    6.25
   0   1   0  284.12    6.23
   0   1   0  296.74    6.27
   0   1   0  279.53    6.31
  -1  -1   0    0.50    0.02
  -1  -1   0    0.54    0.02
  -1  -1   0    0.53    0.02
   1   1   0    0.53    0.03
   1   1   0    0.53    0.02
   1   1   0    0.53    0.02
   1   1   0    0.56    0.03
  -2  -1   0   30.61    0.65
  -2  -1   0   29.79    0.68
  -2  -1   0   31.59    0.65
   2   1   0   30.91    0.67
   2   1   0   30.20    0.65
   2   1   0   31.67    0.66
   2   1   0   30.31    0.66
  -3  -1   0   38.05    0.81
  -3  -1   0   37.02    0.81
  -3  -1   0   37.80    0.80
   3   1   0   37.20    0.80
   3   1   0   39.00    0.82
   3   1   0   38.24    0.83
   3   1   0   36.87    0.81
   3   1   0   37.89    0.80
  -4  -1   0    7.72    0.18
  -4  -1   0    7.21    0.19
  -4  -1   0    7.63    0.18
   4   1   0    7.53    0.18
   4   1   0    7.68    0.20
   4   1   0    7.69    0.20
   4   1   0    7.53    0.18
   4   1   0    7.57    0.21
  -5  -1   0    1.27    0.06
  -5  -1   0    1.27    0.05
  -5  -1   0    1.14    0.08
   5   1   0    1.27    0.09
   5   1   0    1.25    0.06
   5   1   0    1.32    0.08
   5   1   0    1.26    0.08
  -6  -1   0   -0.02    0.03
   6   1   0   -0.01    0.03
   6   1   0    0.02    0.03
   6  -2   0    0.01    0.03
   6  -2   0    0.02    0.02
  -6   2   0   -0.02    0.02
  -6   2   0    0.00    0.03
  -6   2   0   -0.01    0.02
  -6   2   0   -0.01    0.03
   5  -2   0    4.12    0.12
   5  -2   0    4.23    0.14
   5  -2   0    4.02    0.13
   5  -2   0    3.97    0.13
   5  -2   0    4.08    0.12
   5  -2   0    3.97    0.11
  -5   2   0    4.01    0.13
  -5   2   0    4.02    0.12
  -5   2   0    4.10    0.12
  -5   2   0    4.07    0.13
   4  -2   0    6.48    0.17
   4  -2   0    6.67    0.17
   4  -2   0    6.58    0.16
   4  -2   0    6.93    0.17
   4  -2   0    6.72    0.17
   4  -2   0    6.60    0.16
   4  -2   0    6.82    0.17
  -4   2   0    6.14    0.16
  -4   2   0    6.67    0.17
  -4   2   0    6.79    0.17
  -4   2   0    6.64    0.17
   3  -2   0    2.58    0.07
   3  -2   0    2.59    0.08
   3  -2   0    2.65    0.08
   3  -2   0    2.59    0.07
   3  -2   0    2.62    0.08
   3  -2   0    2.56    0.08
   3  -2   0    2.72    0.08
  -3   2   0    2.56    0.08
  -3   2   0    2.36    0.07
  -3   2   0    2.59    0.08
  -3   2   0    2.60    0.08
   2  -2   0    6.47    0.16
   2  -2   0    6.55    0.15
   2  -2   0    6.59    0.15
   2  -2   0    6.73    0.15
   2  -2   0    6.51    0.15
   2  -2   0    6.62    0.15
  -2   2   0    6.51    0.15
  -2   2   0    6.60    0.15
  -2   2   0    6.48    0.15
   1  -2   0    0.20    0.02
   1  -2   0    0.18    0.02
   1  -2   0    0.18    0.02
   1  -2   0    0.20    0.02
  -1   2   0    0.15    0.02
  -1   2   0    0.20    0.02
   0  -2   0   87.86    1.95
   0  -2   0   91.85    2.21
   0  -2   0   94.35    1.97
   0  -2   0   94.67    1.95
   0  -2   0   93.79    1.95
   0  -2   0   94.70    1.97
   0   2   0   89.98    1.96
   0   2   0   92.10    1.97
   0   2   0   93.04    1.97
   0   2   0   86.44    1.97
  -1  -2   0    9.75    0.20
  -1  -2   0    9.62    0.21
  -1  -2   0    8.95    0.21
  -1  -2   0    9.47    0.21
   1   2   0    9.29    0.21
   1   2   0    9.41    0.20
   1   2   0    9.30    0.21
   1   2   0    9.37    0.22
  -2  -2   0   17.73    0.38
  -2  -2   0   16.99    0.39
  -2  -2   0   17.89    0.38
   2   2   0   18.03    0.39
   2   2   0   17.14    0.40
   2   2   0   17.53    0.38
   2   2   0   17.16    0.39
  -3  -2   0   11.67    0.26
  -3  -2   0   11.61    0.26
  -3  -2   0   11.08    0.27
   3   2   0   11.56    0.29
   3   2   0   11.44    0.27
   3   2   0   12.02    0.28
   3   2   0   11.73    0.26
  -4  -2   0    0.01    0.02
  -4  -2   0    0.03    0.02
  -4  -2   0    0.02    0.01
   4   2   0    0.02    0.01
   4   2   0    0.02    0.02
   4   2   0    0.00    0.02
   4   2   0    0.02    0.02
  -5  -2   0    3.25    0.11
  -5  -2   0    3.23    0.10
  -5  -2   0    3.22    0.13
   5   2   0    3.33    0.11
   5   2   0    3.35    0.14
   5   2   0    3.50    0.13
   6  -3   0    0.01    0.03
   6  -3   0    0.01    0.03
   6  -3   0    0.03    0.03
  -6   3   0    0.03    0.02
  -6   3   0    0.00    0.03
  -6   3   0   -0.02    0.03
   5  -3   0    1.50    0.07
   5  -3   0    1.47    0.09
   5  -3   0    1.49    0.07
  -5   3   0    1.46    0.07
  -5   3   0    1.51    0.08
  -5   3   0    1.40    0.08
   4  -3   0    0.00    0.02
   4  -3   0    0.01    0.02
   4  -3   0    0.02    0.02
   4  -3   0    0.01    0.02
  -4   3   0    0.03    0.02
  -4   3   0    0.01    0.02
   3  -3   0    7.45    0.18
   3  -3   0    7.51    0.18
   3  -3   0    7.70    0.18
   3  -3   0    7.58    0.19
   3  -3   0    7.77    0.19
  -3   3   0    7.66    0.19
  -3   3   0    7.49    0.18
  -3   3   0    7.71    0.18
   2  -3   0    6.43    0.15
   2  -3   0    6.34    0.15
   2  -3   0    6.44    0.15
   2  -3   0    6.60    0.16
   2  -3   0    6.41    0.16
  -2   3   0    6.29    0.16
  -2   3   0    6.41    0.15
  -2   3   0    6.31    0.15
   1  -3   0    0.63    0.03
   1  -3   0    0.59    0.03
   1  -3   0    0.60    0.03
   1  -3   0    0.56    0.04
   1  -3   0    0.60    0.03
  -1   3   0    0.57    0.03
  -1   3   0    0.62    0.03
  -1   3   0    0.63    0.03
   0  -3   0   10.48    0.23
   0  -3   0   10.20    0.23
   0  -3   0   10.48    0.23
   0  -3   0   10.52    0.23
   0  -3   0   10.71    0.23
   0   3   0   10.39    0.23
   0   3   0   10.10    0.23
   0   3   0   10.10    0.23
   0   3   0    9.90    0.23
  -1  -3   0    5.65    0.14
  -1  -3   0    6.15    0.13
  -1  -3   0    5.93    0.13
  -1  -3   0    5.85    0.14
  -1  -3   0    5.84    0.14
   1   3   0    5.62    0.14
   1   3   0    5.70    0.15
   1   3   0    5.70    0.14
   1   3   0    5.70    0.13
  -2  -3   0    0.93    0.05
  -2  -3   0    0.97    0.04
  -2  -3   0    0.98    0.04
   2   3   0    0.97    0.06
   2   3   0    0.92    0.04
   2   3   0    0.93    0.05
  -3  -3   0    4.83    0.13
  -3  -3   0    4.76    0.14
  -3  -3   0    4.86    0.12
   3   3   0    4.57    0.15
   3   3   0    4.65    0.14
   3   3   0    4.78    0.12
  -4  -3   0    8.82    0.23
  -4  -3   0    8.88    0.21
  -4  -3   0    8.72    0.22
   4   3   0    8.58    0.25
   4   3   0    8.71    0.21
   4   3   0    8.67    0.23
  -5  -3   0    1.31    0.07
  -5  -3   0    1.60    0.10
  -5  -3   0    1.48    0.08
   5   3   0    1.65    0.10
   5   3   0    1.55    0.11
   5   3   0    1.59    0.07
  -6  -3   0    0.36    0.06
   6   3   0    0.20    0.04
   6   3   0    0.26    0.05
   5  -4   0    0.03    0.03
   5  -4   0    0.07    0.03
   5  -4   0    0.06    0.03
  -5   4   0    0.02    0.03
  -5   4   0    0.06    0.03
   4  -4   0    0.48    0.05
   4  -4   0    0.53    0.05
   4  -4   0    0.36    0.07
   4  -4   0    0.52    0.06
  -4   4   0    0.50    0.06
  -4   4   0    0.48    0.05
  -4   4   0    0.46    0.06
   3  -4   0    4.93    0.13
   3  -4   0    4.97    0.14
   3  -4   0    5.01    0.15
   3  -4   0    5.07    0.14
   3  -4   0    4.96    0.13
  -3   4   0    5.18    0.14
  -3   4   0    5.14    0.14
  -3   4   0    4.88    0.14
   2  -4   0    1.84    0.07
   2  -4   0    1.82    0.08
   2  -4   0    1.85    0.06
   2  -4   0    1.83    0.06
   2  -4   0    1.84    0.07
  -2   4   0    1.89    0.07
  -2   4   0    1.89    0.07
  -2   4   0    1.91    0.07
   1  -4   0    1.33    0.06
   1  -4   0    1.33    0.05
   1  -4   0    1.33    0.05
   1  -4   0    1.30    0.05
   1  -4   0    1.28    0.05
  -1   4   0    1.27    0.05
  -1   4   0    1.32    0.05
  -1   4   0    1.37    0.06
   0  -4   0   45.60    0.95
   0  -4   0   43.49    0.94
   0  -4   0   45.66    0.95
   0  -4   0   45.59    0.95
   0  -4   0   45.50    0.95
   0   4   0   42.42    0.96
   0   4   0   43.96    0.96
   0   4   0   45.19    0.95
   0   4   0   45.08    0.95
  -1  -4   0    0.15    0.03
  -1  -4   0    0.18    0.02
  -1  -4   0    0.23    0.02
   1   4   0    0.22    0.02
   1   4   0    0.18    0.03
   1   4   0    0.12    0.02
   1   4   0    0.18    0.04
  -2  -4   0   -0.01    0.01
  -2  -4   0   -0.02    0.01
  -2  -4   0    0.00    0.02
   2   4   0    0.01    0.01
   2   4   0    0.01    0.02
   2   4   0   -0.01    0.02
  -3  -4   0    4.50    0.13
  -3  -4   0    4.63    0.13
  -3  -4   0    4.72    0.14
   3   4   0    4.60    0.13
   3   4   0    4.56    0.16
   3   4   0    4.58    0.14
  -4  -4   0    4.30    0.14
  -4  -4   0    3.94    0.12
  -4  -4   0    4.05    0.13
   4   4   0    4.06    0.12
   4   4   0    4.04    0.16
   4   4   0    4.15    0.15
  -5  -4   0    0.02    0.03
  -5  -4   0   -0.01    0.03
  -5  -4   0    0.00    0.02
   5   4   0    0.01    0.03
   5   4   0    0.06    0.04
   5  -5   0    0.02    0.03
   5  -5   0    0.11    0.03
  -5   5   0    0.06    0.03
  -5   5   0    0.05    0.03
   4  -5   0    0.01    0.03
   4  -5   0    0.03    0.03
   4  -5   0   -0.01    0.03
   4  -5   0    0.02    0.03
  -4   5   0    0.01    0.03
  -4   5   0    0.04    0.03
   3  -5   0    0.01    0.03
   3  -5   0    0.03    0.02
   3  -5   0    0.01    0.02
   3  -5   0    0.03    0.03
  -3   5   0    0.02    0.02
  -3   5   0    0.03    0.02
  -3   5   0    0.02    0.02
   2  -5   0    0.13    0.03
   2  -5   0    0.13    0.03
   2  -5   0    0.13    0.03
   2  -5   0    0.10    0.02
   2  -5   0    0.08    0.03
  -2   5   0    0.09    0.02
  -2   5   0    0.14    0.02
   1  -5   0    2.47    0.09
   1  -5   0    2.52    0.08
   1  -5   0    2.55    0.08
   1  -5   0    2.43    0.09
  -1   5   0    2.40    0.08
  -1   5   0    2.55    0.09
  -1   5   0    2.33    0.09
   0  -5   0   46.76    0.98
   0  -5   0   46.44    0.99
   0  -5   0   45.03    0.99
   0  -5   0   47.01    0.98
   0   5   0   45.30    0.98
   0   5   0   46.27    0.99
   0   5   0   45.63    1.00
  -1  -5   0    0.21    0.04
  -1  -5   0    0.24    0.03
  -1  -5   0    0.24    0.05
   1   5   0    0.31    0.04
   1   5   0    0.23    0.03
  -2  -5   0    1.23    0.07
  -2  -5   0    1.20    0.06
  -2  -5   0    1.20    0.07
   2   5   0    1.21    0.08
   2   5   0    1.29    0.07
   2   5   0    1.33    0.06
  -3  -5   0    0.13    0.03
  -3  -5   0    0.14    0.03
  -3  -5   0    0.11    0.03
   3   5   0    0.18    0.04
   3   5   0    0.23    0.04
   3   5   0    0.14    0.03
  -4  -5   0    0.32    0.05
  -4  -5   0    0.20    0.03
  -4  -5   0    0.19    0.03
   4   5   0    0.31    0.08
   4  -6   0    0.50    0.07
   4  -6   0    0.44    0.07
  -4   6   0    0.49    0.08
   3  -6   0    0.52    0.07
   3  -6   0    0.59    0.07
   3  -6   0    0.54    0.07
  -3   6   0    0.54    0.07
  -3   6   0    0.56    0.08
   2  -6   0    0.13    0.03
   2  -6   0    0.20    0.03
   2  -6   0    0.17    0.03
  -2   6   0    0.09    0.03
  -2   6   0    0.14    0.03
   1  -6   0    0.40    0.05
   1  -6   0    0.46    0.05
   1  -6   0    0.48    0.06
   1  -6   0    0.40    0.05
  -1   6   0    0.44    0.06
   0  -6   0    1.58    0.07
   0  -6   0    1.63    0.08
   0  -6   0    1.68    0.07
   0   6   0    1.41    0.09
   0   6   0    1.33    0.08
  -1  -6   0    0.50    0.06
  -1  -6   0    0.42    0.05
   1   6   0    0.49    0.05
  -2  -6   0    3.39    0.12
  -2  -6   0    3.29    0.11
   2   6   0    3.38    0.11
   2   6   0    3.55    0.14
  -3  -6   0    1.80    0.10
  -3  -6   0    1.86    0.09
   3   6   0    1.95    0.09
   3   6   0    2.23    0.12
  -2   7   0    0.38    0.08
  -2   7   0    0.55    0.07
   1  -7   0    0.40    0.06
  -1   7   0    0.38    0.07
   0  -7   0    0.96    0.07
   0   7   0    0.98    0.09
   0   7   0    0.77    0.07
  -1  -7   0    0.00    0.03
   1   7   0    0.03    0.03
   1   7   0    0.03    0.04
   3   6  -1    1.11    0.08
   3   6  -1    1.12    0.10
  -3  -6   1    0.90    0.07
  -3  -6   1    0.91    0.08
   2   6  -1    0.03    0.02
   2   6  -1    0.04    0.03
  -2  -6   1   -0.01    0.03
  -2  -6   1   -0.02    0.03
   1   6  -1    1.83    0.10
   1   6  -1    1.75    0.08
  -1  -6   1    1.71    0.08
  -1  -6   1    1.78    0.09
   0   6  -1    0.40    0.06
   0  -6   1    0.39    0.05
   0  -6   1    0.36    0.06
  -1   6  -1    1.41    0.08
  -1   6  -1    1.59    0.08
  -1   6  -1    1.29    0.08
   1  -6   1    1.46    0.07
   1  -6   1    1.56    0.08
   1  -6   1    1.45    0.08
   1  -6   1    1.53    0.07
  -2   6  -1    0.08    0.03
   2  -6   1    0.05    0.03
   2  -6   1    0.09    0.03
   2  -6   1    0.10    0.03
   2  -6   1    0.09    0.03
  -3   6  -1    0.77    0.07
  -3   6  -1    0.78    0.08
   3  -6   1    0.86    0.08
   3  -6   1    0.80    0.07
   3  -6   1    0.80    0.07
   4   5  -1    1.85    0.12
   4   5  -1    1.83    0.09
   4   5  -1    1.88    0.11
  -4  -5   1    2.03    0.11
  -4  -5   1    1.77    0.11
   3   5  -1    3.42    0.15
   3   5  -1    3.43    0.14
   3   5  -1    3.38    0.12
  -3  -5   1    3.42    0.11
  -3  -5   1    3.55    0.13
  -3  -5   1    3.38    0.12
   2   5  -1    0.72    0.05
   2   5  -1    0.66    0.07
  -2  -5   1    0.65    0.05
  -2  -5   1    0.65    0.06
  -2  -5   1    0.53    0.06
   1   5  -1    5.90    0.17
   1   5  -1    6.06    0.16
  -1  -5   1    6.27    0.16
  -1  -5   1    6.05    0.16
   0   5  -1    0.08    0.02
   0   5  -1    0.13    0.03
   0  -5   1    0.11    0.02
   0  -5   1    0.14    0.03
   0  -5   1    0.14    0.02
   0  -5   1    0.12    0.02
  -1   5  -1    0.38    0.05
   1  -5   1    0.36    0.05
   1  -5   1    0.35    0.05
   1  -5   1    0.37    0.05
   1  -5   1    0.36    0.05
  -2   5  -1    3.13    0.10
  -2   5  -1    3.14    0.11
  -2   5  -1    3.29    0.10
   2  -5   1    3.07    0.10
   2  -5   1    3.04    0.10
   2  -5   1    3.01    0.11
   2  -5   1    3.21    0.11
  -3   5  -1    1.73    0.08
  -3   5  -1    1.85    0.09
   3  -5   1    1.77    0.08
   3  -5   1    1.62    0.08
   3  -5   1    1.62    0.08
   3  -5   1    1.66    0.08
  -4   5  -1    1.44    0.09
  -4   5  -1    1.20    0.08
   4  -5   1    1.24    0.08
   4  -5   1    1.30    0.08
   4  -5   1    1.20    0.08
  -5   5  -1    0.08    0.04
  -5   5  -1    0.03    0.03
   5  -5   1    0.09    0.04
   5  -5   1    0.11    0.04
   5   4  -1    0.02    0.04
   5   4  -1   -0.04    0.03
   5   4  -1    0.00    0.03
  -5  -4   1   -0.02    0.03
  -5  -4   1   -0.02    0.03
   4   4  -1    0.00    0.02
   4   4  -1    0.01    0.03
   4   4  -1    0.00    0.03
  -4  -4   1   -0.01    0.02
  -4  -4   1   -0.03    0.02
  -4  -4   1   -0.02    0.02
   3   4  -1    1.48    0.08
   3   4  -1    1.45    0.09
   3   4  -1    1.43    0.07
  -3  -4   1    1.36    0.08
  -3  -4   1    1.34    0.06
  -3  -4   1    1.39    0.07
   2   4  -1    0.08    0.02
   2   4  -1    0.09    0.02
   2   4  -1    0.08    0.02
  -2  -4   1    0.07    0.02
  -2  -4   1    0.04    0.02
   1   4  -1   79.25    1.68
   1   4  -1   77.16    1.69
   1   4  -1   79.77    1.67
   1   4  -1   77.27    1.69
  -1  -4   1   80.71    1.70
  -1  -4   1   81.98    1.69
  -1  -4   1   79.81    1.67
  -1  -4   1   79.58    1.68
   0   4  -1    1.81    0.06
   0   4  -1    1.73    0.07
   0   4  -1    1.61    0.06
   0  -4   1    1.76    0.06
   0  -4   1    1.65    0.06
   0  -4   1    1.67    0.06
   0  -4   1    1.77    0.06
   0  -4   1    1.71    0.06
  -1   4  -1    0.51    0.04
  -1   4  -1    0.52    0.04
  -1   4  -1    0.45    0.04
   1  -4   1    0.37    0.04
   1  -4   1    0.39    0.04
   1  -4   1    0.36    0.04
   1  -4   1    0.45    0.04
  -2   4  -1    0.05    0.02
  -2   4  -1    0.00    0.02
  -2   4  -1    0.00    0.02
   2  -4   1   -0.01    0.02
  -3   4  -1    0.03    0.02
  -3   4  -1    0.03    0.02
  -3   4  -1    0.01    0.02
   3  -4   1    0.01    0.02
   3  -4   1    0.03    0.02
   3  -4   1   -0.01    0.02
   3  -4   1    0.02    0.02
   3  -4   1    0.01    0.02
  -4   4  -1    0.12    0.03
  -4   4  -1    0.10    0.03
   4  -4   1    0.15    0.03
   4  -4   1    0.09    0.03
   4  -4   1    0.14    0.03
   4  -4   1    0.15    0.03
   4  -4   1    0.12    0.05
  -5   4  -1    0.79    0.08
  -5   4  -1    0.72    0.07
   5  -4   1    0.85    0.09
   5  -4   1    0.71    0.08
   5  -4   1    0.72    0.07
   5  -4   1    0.70    0.07
   5   3  -1    2.59    0.12
   5   3  -1    2.43    0.10
   5   3  -1    2.39    0.13
  -5  -3   1    2.55    0.12
  -5  -3   1    2.32    0.10
  -5  -3   1    2.65    0.13
   4   3  -1    3.37    0.14
   4   3  -1    3.55    0.13
   4   3  -1    3.59    0.11
  -4  -3   1    3.40    0.10
  -4  -3   1    3.56    0.13
  -4  -3   1    3.30    0.11
   3   3  -1    0.02    0.02
   3   3  -1    0.01    0.02
   3   3  -1    0.01    0.02
  -3  -3   1    0.00    0.02
  -3  -3   1    0.01    0.02
  -3  -3   1    0.01    0.02
   2   3  -1    1.24    0.05
   2   3  -1    1.31    0.07
   2   3  -1    1.26    0.06
   2   3  -1    1.24    0.04
  -2  -3   1    1.34    0.05
  -2  -3   1    1.30    0.06
  -2  -3   1    1.33    0.05
   1   3  -1   39.81    0.88
   1   3  -1   38.99    0.87
   1   3  -1   40.72    0.87
   1   3  -1   40.73    0.86
  -1  -3   1   40.47    0.86
  -1  -3   1   42.33    0.87
  -1  -3   1   41.70    0.87
  -1  -3   1   40.80    0.85
   0   3  -1    3.14    0.08
   0   3  -1    3.28    0.09
   0   3  -1    3.14    0.09
   0  -3   1    3.25    0.08
   0  -3   1    3.29    0.09
   0  -3   1    3.17    0.08
   0  -3   1    3.21    0.09
   0  -3   1    3.20    0.08
  -1   3  -1    5.15    0.13
  -1   3  -1    5.04    0.12
  -1   3  -1    5.21    0.13
   1  -3   1    5.11    0.13
   1  -3   1    5.37    0.13
   1  -3   1    4.86    0.12
   1  -3   1    5.23    0.12
   1  -3   1    5.14    0.12
  -2   3  -1   26.16    0.55
  -2   3  -1   25.09    0.55
  -2   3  -1   24.92    0.55
   2  -3   1   25.66    0.55
   2  -3   1   25.26    0.55
   2  -3   1   25.58    0.56
   2  -3   1   25.25    0.55
   2  -3   1   25.11    0.55
  -3   3  -1    4.97    0.13
  -3   3  -1    5.04    0.14
  -3   3  -1    5.21    0.13
   3  -3   1    5.08    0.14
   3  -3   1    5.22    0.14
   3  -3   1    5.02    0.13
   3  -3   1    5.13    0.13
   3  -3   1    5.13    0.14
  -4   3  -1    0.27    0.04
  -4   3  -1    0.26    0.04
   4  -3   1    0.30    0.05
   4  -3   1    0.27    0.04
   4  -3   1    0.17    0.03
   4  -3   1    0.29    0.04
   4  -3   1    0.17    0.03
  -5   3  -1    0.17    0.03
  -5   3  -1    0.29    0.05
   5  -3   1    0.19    0.03
   5  -3   1    0.22    0.03
   5  -3   1    0.23    0.03
  -6   3  -1    0.98    0.08
  -6   3  -1    1.00    0.07
  -6   3  -1    0.99    0.06
  -6   3  -1    1.11    0.07
   6  -3   1    1.00    0.07
   6  -3   1    0.98    0.07
   6  -3   1    1.01    0.09
   6   2  -1    1.29    0.11
   6   2  -1    1.30    0.10
   6   2  -1    1.38    0.08
  -6  -2   1    1.28    0.11
  -6  -2   1    1.24    0.08
   5   2  -1    2.82    0.13
   5   2  -1    2.81    0.10
   5   2  -1    2.89    0.12
  -5  -2   1    2.72    0.10
  -5  -2   1    2.82    0.12
  -5  -2   1    2.99    0.13
   4   2  -1    0.85    0.07
   4   2  -1    0.98    0.08
   4   2  -1    0.98    0.06
  -4  -2   1    0.95    0.04
  -4  -2   1    0.96    0.07
  -4  -2   1    0.98    0.05
   3   2  -1    0.72    0.05
   3   2  -1    0.70    0.06
   3   2  -1    0.76    0.04
   3   2  -1    0.67    0.03
  -3  -2   1    0.70    0.05
  -3  -2   1    0.66    0.03
  -3  -2   1    0.68    0.04
   2   2  -1    6.99    0.18
   2   2  -1    6.93    0.17
   2   2  -1    6.66    0.16
   2   2  -1    6.99    0.16
  -2  -2   1    6.97    0.16
  -2  -2   1    7.08    0.16
  -2  -2   1    6.98    0.17
   1   2  -1   33.01    0.73
   1   2  -1   33.63    0.74
   1   2  -1   33.80    0.72
   1   2  -1   33.05    0.73
  -1  -2   1   34.25    0.75
  -1  -2   1   35.63    0.73
  -1  -2   1   35.54    0.73
   0   2  -1    4.74    0.11
   0   2  -1    4.78    0.11
   0   2  -1    4.72    0.11
   0   2  -1    4.83    0.11
   0  -2   1    4.75    0.11
   0  -2   1    5.12    0.11
   0  -2   1    4.86    0.11
   0  -2   1    4.83    0.11
   0  -2   1    4.90    0.11
  -1   2  -1   21.61    0.47
  -1   2  -1   21.74    0.47
  -1   2  -1   22.17    0.47
   1  -2   1   21.26    0.47
   1  -2   1   22.15    0.47
   1  -2   1   21.89    0.47
   1  -2   1   21.54    0.47
   1  -2   1   22.61    0.47
  -2   2  -1   19.76    0.43
  -2   2  -1   19.84    0.42
  -2   2  -1   19.27    0.42
   2  -2   1   19.90    0.42
   2  -2   1   19.98    0.43
   2  -2   1   19.59    0.43
   2  -2   1   19.77    0.43
   2  -2   1   18.82    0.42
   2  -2   1   19.86    0.42
  -3   2  -1    0.01    0.01
  -3   2  -1    0.01    0.01
  -3   2  -1    0.00    0.01
  -3   2  -1    0.00    0.01
   3  -2   1    0.01    0.01
   3  -2   1   -0.02    0.01
   3  -2   1    0.00    0.01
   3  -2   1    0.01    0.01
   3  -2   1   -0.01    0.01
   3  -2   1    0.00    0.01
  -4   2  -1    4.60    0.12
  -4   2  -1    4.44    0.12
  -4   2  -1    4.23    0.12
  -4   2  -1    4.38    0.12
   4  -2   1    4.34    0.12
   4  -2   1    4.35    0.13
   4  -2   1    4.43    0.13
   4  -2   1    4.45    0.12
   4  -2   1    4.46    0.13
   4  -2   1    4.58    0.13
  -5   2  -1    0.00    0.02
  -5   2  -1   -0.01    0.02
  -5   2  -1   -0.03    0.02
  -5   2  -1    0.02    0.02
   5  -2   1   -0.01    0.02
   5  -2   1   -0.01    0.02
   5  -2   1    0.01    0.02
   5  -2   1    0.01    0.02
   5  -2   1    0.01    0.02
   5  -2   1   -0.01    0.02
  -6   2  -1    0.15    0.03
  -6   2  -1    0.08    0.03
  -6   2  -1    0.18    0.03
  -6   2  -1    0.09    0.03
   6  -2   1    0.15    0.03
   6  -2   1    0.19    0.03
   6  -2   1    0.13    0.03
   6   1  -1    1.58    0.09
   6   1  -1    1.62    0.12
   6   1  -1    1.76    0.11
  -6  -1   1    1.54    0.11
  -6  -1   1    2.01    0.12
   5   1  -1    0.02    0.02
   5   1  -1    0.02    0.03
   5   1  -1    0.03    0.03
  -5  -1   1    0.02    0.02
  -5  -1   1   -0.01    0.02
  -5  -1   1    0.02    0.03
   4   1  -1    6.20    0.16
   4   1  -1    6.56    0.19
   4   1  -1    6.60    0.17
   4   1  -1    6.66    0.18
  -4  -1   1    6.75    0.16
  -4  -1   1    6.21    0.18
  -4  -1   1    6.47    0.15
  -4  -1   1    6.54    0.18
   3   1  -1    7.28    0.17
   3   1  -1    7.26    0.19
   3   1  -1    7.36    0.18
   3   1  -1    7.50    0.20
  -3  -1   1    7.29    0.18
  -3  -1   1    7.41    0.17
  -3  -1   1    7.36    0.17
   2   1  -1    1.92    0.06
   2   1  -1    1.95    0.06
   2   1  -1    1.93    0.05
   2   1  -1    1.99    0.07
  -2  -1   1    2.00    0.05
  -2  -1   1    2.03    0.06
  -2  -1   1    1.97    0.06
   1   1  -1   59.32    1.33
   1   1  -1   59.70    1.32
   1   1  -1   59.72    1.38
   1   1  -1   61.22    1.35
  -1  -1   1   61.80    1.82
  -1  -1   1   63.97    1.32
  -1  -1   1   63.86    1.31
   0   1  -1    0.20    0.01
   0   1  -1    0.20    0.01
   0   1  -1    0.21    0.01
   0   1  -1    0.19    0.01
   0  -1   1    0.20    0.01
   0  -1   1    0.21    0.01
   0  -1   1    0.23    0.02
   0  -1   1    0.19    0.01
   0  -1   1    0.22    0.01
  -1   1  -1   17.44    0.36
  -1   1  -1   17.45    0.36
  -1   1  -1   17.00    0.37
   1  -1   1   17.06    0.37
   1  -1   1   15.96    0.36
   1  -1   1   17.10    0.36
   1  -1   1   16.89    0.36
   1  -1   1   17.32    0.36
  -2   1  -1   28.49    0.60
  -2   1  -1   27.73    0.59
  -2   1  -1   28.03    0.59
   2  -1   1   27.79    0.60
   2  -1   1   28.04    0.59
   2  -1   1   28.57    0.59
   2  -1   1   27.74    0.60
   2  -1   1   27.92    0.59
   2  -1   1   27.07    0.60
   2  -1   1   27.42    0.60
   2  -1   1   28.95    0.60
  -3   1  -1   49.43    1.05
  -3   1  -1   49.47    1.04
  -3   1  -1   48.91    1.04
   3  -1   1   49.26    1.05
   3  -1   1   49.43    1.04
   3  -1   1   49.40    1.05
   3  -1   1   50.19    1.04
   3  -1   1   49.06    1.05
   3  -1   1   49.55    1.04
   3  -1   1   49.31    1.04
   3  -1   1   49.35    1.05
   3  -1   1   48.60    1.05
  -4   1  -1    8.82    0.21
  -4   1  -1    8.89    0.21
  -4   1  -1    8.86    0.21
  -4   1  -1    8.59    0.20
   4  -1   1    8.89    0.21
   4  -1   1    9.08    0.21
   4  -1   1    9.13    0.22
   4  -1   1    8.70    0.21
   4  -1   1    8.84    0.21
   4  -1   1    8.93    0.20
   4  -1   1    9.03    0.22
   4  -1   1    8.91    0.21
   4  -1   1    9.01    0.22
  -5   1  -1    0.54    0.04
  -5   1  -1    0.52    0.05
  -5   1  -1    0.54    0.04
  -5   1  -1    0.48    0.06
  -5   1  -1    0.56    0.05
  -5   1  -1    0.51    0.05
  -5   1  -1    0.65    0.05
  -5   1  -1    0.51    0.05
   5  -1   1    0.52    0.05
   5  -1   1    0.50    0.04
   5  -1   1    0.49    0.06
   5  -1   1    0.49    0.04
   5  -1   1    0.53    0.04
   5  -1   1    0.58    0.05
   5  -1   1    0.56    0.05
   5  -1   1    0.49    0.06
  -6   1  -1    0.92    0.08
  -6   1  -1    0.75    0.06
  -6   1  -1    0.86    0.07
   6  -1   1    0.80    0.08
   6  -1   1    0.74    0.10
   6  -1   1    0.58    0.08
   6  -1   1    0.80    0.09
   6   0  -1    0.21    0.03
   6   0  -1    0.12    0.04
  -6   0   1    0.15    0.03
   5   0  -1    1.11    0.09
   5   0  -1    1.16    0.08
   5   0  -1    1.30    0.07
   5   0  -1    1.32    0.08
  -5   0   1    1.17    0.08
  -5   0   1    1.25    0.08
  -5   0   1    1.23    0.06
   4   0  -1    8.79    0.21
   4   0  -1    8.77    0.22
   4   0  -1    8.51    0.21
   4   0  -1    8.81    0.23
  -4   0   1    8.65    0.20
  -4   0   1    8.91    0.20
  -4   0   1    8.24    0.22
  -4   0   1    8.40    0.21
   3   0  -1   10.67    0.23
   3   0  -1   10.31    0.23
   3   0  -1   10.92    0.24
   3   0  -1   10.79    0.25
   3   0  -1   10.84    0.26
   3   0  -1   10.90    0.25
  -3   0   1   10.92    0.24
  -3   0   1   10.51    0.26
  -3   0   1   10.39    0.25
  -3   0   1   10.93    0.24
   2   0  -1    0.35    0.02
   2   0  -1    0.35    0.03
   2   0  -1    0.34    0.01
   2   0  -1    0.36    0.03
   2   0  -1    0.32    0.02
  -2   0   1    0.36    0.02
  -2   0   1    0.27    0.03
  -2   0   1    0.34    0.02
   1   0  -1  378.54    8.64
   1   0  -1  351.29    8.11
   1   0  -1  358.73    8.09
   1   0  -1  365.25    8.32
   1   0  -1  360.41    7.76
  -1   0   1  362.64    8.28
  -1   0   1  380.81    7.92
  -1   0   1  353.36    8.35
   0   0  -1    0.61    0.02
   0   0  -1    0.62    0.02
   0   0  -1    0.60    0.02
   0   0  -1    0.61    0.02
   0   0  -1    0.63    0.02
   0   0   1    0.64    0.02
   0   0   1    0.64    0.02
   0   0   1    0.64    0.02
   0   0   1    0.67    0.02
  -1   0  -1    1.05    0.03
  -1   0  -1    0.99    0.03
   1   0   1    1.01    0.04
   1   0   1    0.99    0.03
   1   0   1    0.99    0.04
   1   0   1    1.02    0.04
   1   0   1    1.01    0.03
  -2   0  -1   85.63    1.81
  -2   0  -1   88.30    1.81
  -2   0  -1   86.88    1.83
   2   0   1   84.30    1.83
   2   0   1   85.00    1.83
   2   0   1   84.64    1.81
   2   0   1   83.76    1.87
   2   0   1   83.89    1.81
   2   0   1   85.89    2.33
   2   0   1   84.56    1.89
   2   0   1   87.38    1.81
   2   0   1   82.80    1.83
  -3   0  -1   33.30    0.70
  -3   0  -1   32.82    0.70
  -3   0  -1   32.54    0.70
   3   0   1   32.94    0.70
   3   0   1   32.38    0.71
   3   0   1   32.73    0.71
   3   0   1   33.33    0.72
   3   0   1   32.91    0.71
   3   0   1   33.11    0.70
   3   0   1   33.01    0.70
   3   0   1   32.98    0.72
   3   0   1   33.35    0.70
  -4   0  -1    2.08    0.06
  -4   0  -1    2.06    0.07
  -4   0  -1    2.16    0.07
  -4   0  -1    2.18    0.06
  -4   0  -1    2.20    0.07
   4   0   1    2.18    0.06
   4   0   1    2.20    0.08
   4   0   1    2.19    0.09
   4   0   1    2.12    0.06
   4   0   1    2.16    0.08
   4   0   1    2.21    0.07
   4   0   1    2.07    0.07
   4   0   1    2.15    0.07
   4   0   1    2.17    0.07
  -5   0  -1    2.83    0.10
  -5   0  -1    2.71    0.08
  -5   0  -1    2.83    0.09
  -5   0  -1    2.75    0.08
  -5   0  -1    2.82    0.09
  -5   0  -1    2.79    0.09
   5   0   1    2.81    0.08
   5   0   1    2.67    0.09
   5   0   1    2.66    0.11
   5   0   1    2.52    0.10
   5   0   1    2.94    0.11
   5   0   1    2.81    0.10
   5   0   1    2.84    0.11
  -6   0  -1   14.47    0.37
  -6   0  -1   13.91    0.35
  -6   0  -1   15.27    0.36
  -6   0  -1   14.68    0.37
   6   0   1   14.76    0.38
   6   0   1   14.71    0.37
   6   0   1   14.55    0.36
   6  -1  -1    0.07    0.03
   6  -1  -1    0.05    0.04
  -6   1   1    0.03    0.03
  -6   1   1    0.11    0.04
   5  -1  -1    0.00    0.02
   5  -1  -1    0.01    0.03
   5  -1  -1    0.00    0.02
   5  -1  -1   -0.01    0.02
  -5   1   1    0.01    0.02
  -5   1   1    0.04    0.02
  -5   1   1   -0.01    0.02
   4  -1  -1    0.24    0.04
   4  -1  -1    0.34    0.03
   4  -1  -1    0.27    0.04
   4  -1  -1    0.33    0.04
   4  -1  -1    0.31    0.05
   4  -1  -1    0.21    0.03
   4  -1  -1    0.27    0.03
  -4   1   1    0.29    0.03
  -4   1   1    0.27    0.03
  -4   1   1    0.24    0.04
  -4   1   1    0.21    0.04
  -4   1   1    0.19    0.05
   3  -1  -1    3.78    0.10
   3  -1  -1    3.91    0.10
   3  -1  -1    3.76    0.09
   3  -1  -1    3.77    0.09
   3  -1  -1    3.82    0.10
   3  -1  -1    3.85    0.11
   3  -1  -1    3.94    0.11
   3  -1  -1    3.92    0.10
  -3   1   1    3.92    0.10
  -3   1   1    3.57    0.10
  -3   1   1    3.65    0.11
  -3   1   1    3.71    0.10
   2  -1  -1    5.20    0.12
   2  -1  -1    5.13    0.12
   2  -1  -1    5.10    0.12
   2  -1  -1    5.12    0.12
   2  -1  -1    5.06    0.12
   2  -1  -1    4.92    0.12
   2  -1  -1    5.34    0.13
   2  -1  -1    5.19    0.12
  -2   1   1    4.92    0.12
  -2   1   1    4.81    0.11
  -2   1   1    5.02    0.13
  -2   1   1    5.04    0.12
   1  -1  -1 1000.00   21.48
   1  -1  -1  992.20   21.52
   1  -1  -1  988.13   21.40
   0  -1  -1    0.10    0.01
   0  -1  -1    0.11    0.01
   0  -1  -1    0.11    0.01
   0  -1  -1    0.12    0.01
   0  -1  -1    0.13    0.01
   0  -1  -1    0.11    0.01
   0   1   1    0.12    0.01
   0   1   1    0.09    0.01
  -1  -1  -1   13.73    0.29
  -1  -1  -1   13.66    0.29
  -1  -1  -1   13.46    0.29
   1   1   1   13.34    0.29
   1   1   1   13.47    0.30
   1   1   1   13.51    0.29
  -2  -1  -1    1.41    0.04
  -2  -1  -1    1.41    0.04
  -2  -1  -1    1.41    0.03
  -2  -1  -1    1.40    0.04
   2   1   1    1.38    0.05
   2   1   1    1.38    0.04
   2   1   1    1.40    0.05
   2   1   1    1.41    0.04
   2   1   1    1.36    0.05
  -3  -1  -1    9.49    0.20
  -3  -1  -1    9.27    0.21
  -3  -1  -1    9.68    0.22
  -3  -1  -1    9.51    0.20
   3   1   1    9.71    0.22
   3   1   1    9.20    0.21
   3   1   1    9.39    0.23
   3   1   1    9.05    0.22
   3   1   1    9.24    0.23
  -4  -1  -1    1.20    0.04
  -4  -1  -1    1.13    0.06
  -4  -1  -1    1.17    0.04
  -4  -1  -1    1.14    0.05
  -4  -1  -1    1.18    0.05
   4   1   1    1.21    0.05
   4   1   1    1.13    0.06
   4   1   1    1.23    0.06
   4   1   1    1.15    0.06
   4   1   1    1.18    0.05
   4   1   1    1.11    0.07
  -5  -1  -1    1.53    0.08
  -5  -1  -1    1.43    0.07
  -5  -1  -1    1.51    0.06
   5   1   1    1.30    0.08
   5   1   1    1.50    0.08
   5   1   1    1.52    0.06
   5   1   1    1.32    0.09
  -6  -1  -1   12.28    0.33
  -6  -1  -1   13.49    0.34
  -6  -1  -1   12.91    0.32
   6   1   1   13.38    0.33
   6   1   1   13.50    0.34
   6   1   1   13.28    0.36
  -7  -1  -1    0.38    0.09
   6  -2  -1    0.89    0.08
   6  -2  -1    0.68    0.08
   6  -2  -1    0.81    0.07
  -6   2   1    0.81    0.10
  -6   2   1    0.82    0.07
  -6   2   1    0.78    0.08
   5  -2  -1    1.92    0.08
   5  -2  -1    1.89    0.07
   5  -2  -1    1.82    0.07
   5  -2  -1    1.92    0.09
   5  -2  -1    1.87    0.09
  -5   2   1    1.94    0.08
  -5   2   1    1.86    0.08
  -5   2   1    1.91    0.09
   4  -2  -1    3.94    0.11
   4  -2  -1    3.96    0.12
   4  -2  -1    3.97    0.11
   4  -2  -1    4.08    0.12
   4  -2  -1    3.97    0.11
   4  -2  -1    4.14    0.12
  -4   2   1    3.99    0.11
  -4   2   1    3.99    0.12
  -4   2   1    3.84    0.11
  -4   2   1    3.95    0.12
   3  -2  -1    0.98    0.04
   3  -2  -1    1.06    0.05
   3  -2  -1    0.95    0.04
   3  -2  -1    1.06    0.04
   3  -2  -1    1.03    0.05
   3  -2  -1    0.98    0.05
   3  -2  -1    0.95    0.04
  -3   2   1    0.94    0.04
  -3   2   1    0.92    0.05
  -3   2   1    0.98    0.05
  -3   2   1    0.96    0.05
   2  -2  -1    5.23    0.12
   2  -2  -1    5.12    0.12
   2  -2  -1    5.10    0.13
   2  -2  -1    5.16    0.12
   2  -2  -1    5.20    0.13
   2  -2  -1    5.18    0.12
  -2   2   1    5.20    0.13
  -2   2   1    5.15    0.13
  -2   2   1    5.25    0.13
   1  -2  -1   47.77    1.01
   1  -2  -1   46.76    1.00
   1  -2  -1   47.15    1.00
   1  -2  -1   48.53    1.21
   1  -2  -1   47.50    0.99
   1  -2  -1   44.95    0.99
  -1   2   1   48.04    1.02
  -1   2   1   45.72    1.02
  -1   2   1   45.61    1.00
   0  -2  -1    0.06    0.01
   0  -2  -1    0.09    0.01
   0  -2  -1    0.07    0.01
   0  -2  -1    0.09    0.01
   0  -2  -1    0.06    0.01
   0   2   1    0.07    0.01
  -1  -2  -1   49.70    1.06
  -1  -2  -1   48.91    1.06
  -1  -2  -1   49.01    1.04
  -1  -2  -1   49.95    1.04
   1   2   1   49.60    1.05
   1   2   1   48.09    1.10
   1   2   1   48.35    1.08
   1   2   1   49.36    1.07
  -2  -2  -1   79.07    1.65
  -2  -2  -1   79.03    1.68
  -2  -2  -1   79.19    1.64
  -2  -2  -1   79.85    2.03
   2   2   1   76.18    1.70
   2   2   1   78.50    1.71
   2   2   1   76.30    1.76
   2   2   1   78.39    1.67
  -3  -2  -1   21.19    0.46
  -3  -2  -1   21.07    0.44
  -3  -2  -1   21.67    0.46
  -3  -2  -1   20.74    0.47
   3   2   1   21.29    0.48
   3   2   1   20.75    0.48
   3   2   1   20.78    0.47
   3   2   1   21.04    0.45
  -4  -2  -1    3.98    0.13
  -4  -2  -1    4.11    0.11
  -4  -2  -1    3.97    0.11
   4   2   1    4.08    0.11
   4   2   1    4.14    0.13
   4   2   1    4.05    0.14
   4   2   1    4.14    0.12
   5   2   1   -0.01    0.02
   5   2   1    0.01    0.02
   5   2   1   -0.01    0.02
  -6  -2  -1    0.07    0.03
  -6  -2  -1    0.02    0.04
  -6  -2  -1    0.07    0.02
   6   2   1    0.06    0.03
   6   2   1    0.09    0.03
   6   2   1    0.04    0.03
   6  -3  -1    1.33    0.09
   6  -3  -1    1.41    0.09
   6  -3  -1    1.38    0.09
  -6   3   1    1.31    0.09
  -6   3   1    1.46    0.08
  -6   3   1    1.27    0.09
   5  -3  -1    0.74    0.06
   5  -3  -1    0.79    0.07
   5  -3  -1    0.81    0.07
   5  -3  -1    0.79    0.06
  -5   3   1    0.80    0.07
  -5   3   1    0.80    0.06
   4  -3  -1    0.01    0.02
   4  -3  -1    0.02    0.02
   4  -3  -1    0.00    0.02
   4  -3  -1    0.02    0.02
   4  -3  -1    0.00    0.02
  -4   3   1    0.01    0.02
  -4   3   1    0.02    0.02
  -4   3   1    0.00    0.02
   3  -3  -1    1.81    0.06
   3  -3  -1    1.80    0.07
   3  -3  -1    1.88    0.07
   3  -3  -1    1.77    0.06
   3  -3  -1    1.89    0.07
  -3   3   1    1.79    0.07
  -3   3   1    1.83    0.07
  -3   3   1    1.83    0.07
   2  -3  -1    0.03    0.01
   2  -3  -1    0.03    0.01
   2  -3  -1    0.02    0.01
   2  -3  -1    0.01    0.01
   2  -3  -1    0.02    0.01
  -2   3   1    0.04    0.01
  -2   3   1    0.02    0.01
  -2   3   1    0.03    0.01
   1  -3  -1   28.12    0.62
   1  -3  -1   29.60    0.62
   1  -3  -1   27.58    0.61
   1  -3  -1   29.42    0.62
   1  -3  -1   29.90    0.62
  -1   3   1   30.24    0.62
  -1   3   1   28.46    0.62
  -1   3   1   28.56    0.62
   0  -3  -1    6.01    0.14
   0  -3  -1    6.11    0.13
   0  -3  -1    5.71    0.14
   0  -3  -1    6.05    0.13
   0  -3  -1    5.99    0.14
   0   3   1    5.79    0.14
   0   3   1    5.92    0.14
   0   3   1    5.61    0.14
   0   3   1    5.85    0.14
  -1  -3  -1   21.58    0.45
  -1  -3  -1   21.90    0.45
  -1  -3  -1   20.96    0.45
  -1  -3  -1   19.70    0.45
  -1  -3  -1   21.19    0.45
   1   3   1   20.93    0.46
   1   3   1   20.45    0.47
   1   3   1   21.02    0.46
   1   3   1   20.94    0.45
   1   3   1   21.19    0.45
  -2  -3  -1    6.95    0.14
  -2  -3  -1    6.69    0.15
  -2  -3  -1    6.82    0.16
  -2  -3  -1    6.47    0.16
  -2  -3  -1    6.77    0.16
   2   3   1    6.56    0.15
   2   3   1    6.58    0.17
   2   3   1    6.32    0.16
   2   3   1    6.41    0.18
  -3  -3  -1    0.23    0.03
  -3  -3  -1    0.25    0.03
  -3  -3  -1    0.21    0.04
   3   3   1    0.25    0.04
   3   3   1    0.18    0.04
   3   3   1    0.25    0.03
   3   3   1    0.22    0.03
  -4  -3  -1    4.04    0.12
  -4  -3  -1    3.93    0.13
  -4  -3  -1    4.02    0.11
   4   3   1    4.15    0.11
   4   3   1    4.19    0.13
   4   3   1    4.17    0.15
   4   3   1    4.10    0.14
  -5  -3  -1   -0.01    0.02
  -5  -3  -1   -0.03    0.02
  -5  -3  -1   -0.02    0.02
   5   3   1   -0.01    0.03
   5   3   1   -0.01    0.02
   5   3   1    0.02    0.03
  -6  -3  -1    0.84    0.10
  -6  -3  -1    0.66    0.07
   6   3   1    0.78    0.09
   6   3   1    0.72    0.10
   5  -4  -1   -0.01    0.03
   5  -4  -1   -0.02    0.03
   5  -4  -1    0.03    0.02
  -5   4   1   -0.02    0.03
  -5   4   1    0.01    0.03
   4  -4  -1    2.00    0.08
   4  -4  -1    2.14    0.10
   4  -4  -1    1.93    0.10
   4  -4  -1    2.02    0.08
  -4   4   1    2.05    0.09
  -4   4   1    2.02    0.08
  -4   4   1    2.04    0.09
   3  -4  -1    2.34    0.08
   3  -4  -1    2.23    0.08
   3  -4  -1    2.26    0.09
   3  -4  -1    2.26    0.08
  -3   4   1    2.25    0.08
  -3   4   1    2.32    0.08
   2  -4  -1   -0.01    0.01
   2  -4  -1   -0.02    0.01
   2  -4  -1    0.00    0.01
   2  -4  -1   -0.01    0.01
   2  -4  -1   -0.02    0.02
  -2   4   1    0.01    0.02
  -2   4   1   -0.01    0.01
  -2   4   1   -0.01    0.01
   1  -4  -1    0.03    0.01
   1  -4  -1    0.02    0.01
   1  -4  -1    0.03    0.01
   1  -4  -1    0.04    0.01
  -1   4   1    0.07    0.02
  -1   4   1    0.06    0.01
  -1   4   1    0.04    0.01
   0  -4  -1    1.36    0.05
   0  -4  -1    1.35    0.05
   0  -4  -1    1.26    0.05
   0  -4  -1    1.34    0.05
   0   4   1    1.33    0.06
   0   4   1    1.34    0.05
   0   4   1    1.21    0.05
   0   4   1    1.27    0.05
  -1  -4  -1    0.42    0.03
  -1  -4  -1    0.37    0.03
  -1  -4  -1    0.34    0.03
  -1  -4  -1    0.42    0.02
  -1  -4  -1    0.41    0.03
   1   4   1    0.35    0.04
   1   4   1    0.41    0.03
   1   4   1    0.35    0.03
   1   4   1    0.40    0.02
  -2  -4  -1    7.74    0.18
  -2  -4  -1    7.49    0.19
  -2  -4  -1    7.82    0.19
  -2  -4  -1    7.90    0.17
   2   4   1    7.60    0.21
   2   4   1    7.68    0.20
   2   4   1    7.70    0.18
  -3  -4  -1   15.81    0.36
  -3  -4  -1   16.81    0.37
  -3  -4  -1   15.88    0.37
   3   4   1   15.54    0.39
   3   4   1   15.90    0.36
   3   4   1   15.95    0.38
  -4  -4  -1    0.98    0.06
  -4  -4  -1    0.93    0.07
  -4  -4  -1    0.85    0.05
   4   4   1    1.03    0.07
   4   4   1    0.97    0.08
   4   4   1    0.99    0.05
   4   4   1    0.91    0.08
  -5  -4  -1    1.04    0.09
  -5  -4  -1    0.80    0.06
  -5  -4  -1    0.88    0.07
   5   4   1    0.94    0.10
   5   4   1    0.97    0.08
   5  -5  -1    0.06    0.03
   5  -5  -1   -0.02    0.03
  -5   5   1   -0.01    0.03
  -5   5   1   -0.01    0.03
   4  -5  -1    0.88    0.07
   4  -5  -1    0.75    0.08
   4  -5  -1    0.92    0.06
  -4   5   1    0.80    0.07
  -4   5   1    0.73    0.08
  -4   5   1    0.93    0.08
   3  -5  -1    0.72    0.07
   3  -5  -1    0.72    0.06
   3  -5  -1    0.73    0.05
   3  -5  -1    0.62    0.06
  -3   5   1    0.75    0.07
  -3   5   1    0.67    0.07
  -3   5   1    0.66    0.06
   2  -5  -1    0.91    0.05
   2  -5  -1    1.05    0.07
   2  -5  -1    0.92    0.05
   2  -5  -1    0.87    0.06
  -2   5   1    0.89    0.06
  -2   5   1    0.77    0.06
  -2   5   1    0.90    0.06
   1  -5  -1   26.13    0.58
   1  -5  -1   26.80    0.59
   1  -5  -1   26.34    0.58
   1  -5  -1   27.28    0.58
  -1   5   1   26.65    0.59
  -1   5   1   26.14    0.58
  -1   5   1   27.03    0.59
   0  -5  -1    0.01    0.02
   0  -5  -1    0.01    0.02
   0  -5  -1    0.03    0.02
   0  -5  -1   -0.01    0.02
   0   5   1    0.03    0.02
   0   5   1    0.04    0.02
  -1  -5  -1    0.02    0.02
  -1  -5  -1    0.02    0.02
  -1  -5  -1    0.05    0.01
  -1  -5  -1    0.03    0.02
   1   5   1    0.06    0.02
   1   5   1    0.06    0.02
   1   5   1    0.07    0.02
  -2  -5  -1    2.40    0.09
  -2  -5  -1    2.28    0.09
  -2  -5  -1    2.32    0.08
   2   5   1    2.42    0.08
   2   5   1    2.31    0.11
   2   5   1    2.41    0.10
  -3  -5  -1    3.50    0.12
  -3  -5  -1    3.46    0.11
  -3  -5  -1    3.28    0.11
   3   5   1    3.29    0.10
   3   5   1    3.37    0.13
   3   5   1    3.33    0.14
  -4  -5  -1   -0.03    0.02
  -4  -5  -1   -0.01    0.02
   4   5   1    0.01    0.03
   4   5   1   -0.03    0.03
  -5  -5  -1    2.44    0.13
  -5  -5  -1    2.30    0.11
  -5  -5  -1    2.10    0.10
   5   5   1    2.32    0.13
   5   5   1    2.27    0.14
   4  -6  -1    0.00    0.03
   4  -6  -1   -0.01    0.03
  -4   6   1    0.01    0.03
  -4   6   1   -0.02    0.03
   3  -6  -1    0.02    0.03
   3  -6  -1    0.04    0.03
   3  -6  -1    0.06    0.03
   3  -6  -1    0.02    0.03
  -3   6   1    0.05    0.03
  -3   6   1    0.01    0.03
  -3   6   1    0.02    0.03
   2  -6  -1    2.01    0.09
   2  -6  -1    2.08    0.09
   2  -6  -1    1.99    0.09
   2  -6  -1    2.16    0.11
  -2   6   1    2.26    0.10
  -2   6   1    2.17    0.10
  -2   6   1    1.89    0.09
   1  -6  -1   15.24    0.37
   1  -6  -1   16.13    0.37
   1  -6  -1   16.24    0.37
  -1   6   1   16.63    0.38
  -1   6   1   16.69    0.38
  -1   6   1   16.22    0.38
   0  -6  -1    0.12    0.02
   0  -6  -1    0.11    0.03
   0  -6  -1    0.14    0.02
   0  -6  -1    0.09    0.02
   0   6   1    0.12    0.03
   0   6   1    0.08    0.03
  -1  -6  -1    1.01    0.07
  -1  -6  -1    1.02    0.06
   1   6   1    1.13    0.08
   1   6   1    1.09    0.06
  -2  -6  -1    0.53    0.06
  -2  -6  -1    0.42    0.06
   2   6   1    0.66    0.07
   2   6   1    0.61    0.05
  -3  -6  -1    0.80    0.07
  -3  -6  -1    0.77    0.07
   3   6   1    0.91    0.06
   3   6   1    0.97    0.09
  -4  -6  -1    0.04    0.04
   4   6   1    0.07    0.04
   2  -7  -1    0.13    0.04
   2  -7  -1    0.20    0.04
  -2   7   1    0.09    0.03
  -2   7   1    0.08    0.03
   1  -7  -1    0.40    0.06
   1  -7  -1    0.42    0.06
  -1   7   1    0.37    0.08
   0  -7  -1    0.20    0.04
   0   7   1    0.19    0.04
   0   7   1    0.16    0.03
  -1  -7  -1    2.43    0.10
  -1  -7  -1    2.28    0.10
   1   7   1    2.54    0.10
   1   7   1    2.71    0.12
  -2  -7  -1    0.90    0.08
   2   7   1    1.10    0.07
   2   7   1    1.27    0.10
   2   6  -2    0.08    0.03
   2   6  -2    0.09    0.04
  -2  -6   2    0.07    0.03
  -2  -6   2    0.09    0.03
   1   6  -2    0.03    0.03
   1   6  -2    0.03    0.03
  -1  -6   2    0.01    0.03
  -1  -6   2    0.00    0.03
   0   6  -2    1.62    0.08
   0  -6   2    1.54    0.08
   0  -6   2    1.51    0.08
  -1   6  -2    1.10    0.08
  -1   6  -2    1.21    0.08
   1  -6   2    1.01    0.08
   1  -6   2    1.36    0.08
  -2   6  -2   -0.01    0.03
  -2   6  -2   -0.01    0.03
   2  -6   2    0.01    0.03
   2  -6   2    0.03    0.03
   2  -6   2    0.06    0.03
   2  -6   2    0.01    0.03
  -3   6  -2    0.41    0.07
  -3   6  -2    0.41    0.08
   3  -6   2    0.57    0.08
   3  -6   2    0.45    0.07
   3   5  -2    0.01    0.02
   3   5  -2   -0.01    0.03
  -3  -5   2   -0.04    0.02
  -3  -5   2   -0.03    0.03
   2   5  -2    1.51    0.09
   2   5  -2    1.52    0.08
  -2  -5   2    1.45    0.09
  -2  -5   2    1.60    0.07
  -2  -5   2    1.48    0.08
   1   5  -2    0.61    0.06
   1   5  -2    0.66    0.06
  -1  -5   2    0.67    0.05
  -1  -5   2    0.63    0.06
   0   5  -2    2.15    0.08
   0   5  -2    2.02    0.08
   0   5  -2    2.15    0.09
   0  -5   2    2.13    0.08
   0  -5   2    2.09    0.08
  -1   5  -2    1.15    0.06
  -1   5  -2    1.14    0.07
   1  -5   2    1.08    0.06
   1  -5   2    1.06    0.07
   1  -5   2    1.20    0.06
   1  -5   2    1.17    0.07
  -2   5  -2    3.86    0.12
  -2   5  -2    3.96    0.13
   2  -5   2    3.77    0.12
   2  -5   2    4.06    0.13
   2  -5   2    3.70    0.13
   2  -5   2    3.81    0.12
  -3   5  -2    2.72    0.10
  -3   5  -2    2.90    0.11
   3  -5   2    2.71    0.10
   3  -5   2    2.62    0.11
   3  -5   2    2.88    0.11
   3  -5   2    2.69    0.10
  -4   5  -2   -0.03    0.03
  -4   5  -2   -0.03    0.03
   4  -5   2    0.00    0.03
   4  -5   2   -0.01    0.03
   4  -5   2    0.03    0.03
   4   4  -2    2.68    0.11
   4   4  -2    2.74    0.14
   4   4  -2    2.67    0.13
  -4  -4   2    3.01    0.13
  -4  -4   2    2.44    0.11
  -4  -4   2    2.67    0.12
   3   4  -2    0.52    0.07
   3   4  -2    0.63    0.06
   3   4  -2    0.58    0.07
  -3  -4   2    0.43    0.06
  -3  -4   2    0.44    0.07
  -3  -4   2    0.53    0.05
   2   4  -2   12.68    0.30
   2   4  -2   13.00    0.32
   2   4  -2   12.37    0.32
  -2  -4   2   13.28    0.31
  -2  -4   2   12.56    0.31
  -2  -4   2   13.08    0.30
  -2  -4   2   12.75    0.30
   1   4  -2   -0.02    0.02
   1   4  -2   -0.01    0.02
  -1  -4   2   -0.02    0.02
  -1  -4   2   -0.03    0.02
   0  -4   2    0.38    0.04
   0  -4   2    0.33    0.04
   0  -4   2    0.27    0.03
   0  -4   2    0.25    0.04
   0  -4   2    0.26    0.03
  -1   4  -2    8.64    0.21
  -1   4  -2    8.52    0.20
  -1   4  -2    8.62    0.21
   1  -4   2    8.27    0.21
   1  -4   2    8.66    0.20
   1  -4   2    8.46    0.21
   1  -4   2    8.50    0.20
  -2   4  -2    3.85    0.11
  -2   4  -2    3.96    0.12
   2  -4   2    3.80    0.11
   2  -4   2    3.79    0.12
   2  -4   2    3.87    0.12
   2  -4   2    3.90    0.11
  -3   4  -2    2.31    0.09
  -3   4  -2    2.28    0.08
   3  -4   2    2.29    0.09
   3  -4   2    2.12    0.09
   3  -4   2    2.26    0.08
   3  -4   2    2.22    0.08
  -4   4  -2    0.45    0.07
  -4   4  -2    0.32    0.05
   4  -4   2    0.32    0.06
   4  -4   2    0.33    0.07
   4  -4   2    0.30    0.04
   4  -4   2    0.34    0.06
  -5   4  -2    6.70    0.19
  -5   4  -2    7.75    0.21
  -5   4  -2    6.84    0.19
  -5   4  -2    7.22    0.20
   5  -4   2    7.47    0.20
   5  -4   2    7.38    0.20
   5  -4   2    7.30    0.21
   5   3  -2   -0.01    0.03
   5   3  -2   -0.02    0.03
   5   3  -2   -0.02    0.03
  -5  -3   2   -0.04    0.02
  -5  -3   2    0.05    0.04
   4   3  -2    1.06    0.09
   4   3  -2    1.14    0.07
   4   3  -2    1.22    0.08
  -4  -3   2    0.99    0.08
  -4  -3   2    1.20    0.09
  -4  -3   2    0.99    0.07
   3   3  -2    0.03    0.02
   3   3  -2    0.06    0.02
   3   3  -2    0.06    0.03
  -3  -3   2    0.05    0.02
  -3  -3   2    0.03    0.02
  -3  -3   2    0.07    0.02
  -3  -3   2    0.02    0.02
   2   3  -2   73.56    1.63
   2   3  -2   77.62    1.64
   2   3  -2   75.39    1.62
   2   3  -2   74.89    1.61
  -2  -3   2   77.85    1.62
  -2  -3   2   80.47    1.62
  -2  -3   2   79.18    1.64
  -2  -3   2   74.44    1.63
   1   3  -2    1.06    0.06
   1   3  -2    1.06    0.04
   1   3  -2    1.12    0.05
   1   3  -2    1.04    0.05
  -1  -3   2    1.05    0.05
  -1  -3   2    1.05    0.05
  -1  -3   2    1.17    0.05
  -1  -3   2    1.18    0.05
   0   3  -2    0.80    0.03
   0   3  -2    0.73    0.04
   0   3  -2    0.77    0.04
   0   3  -2    0.76    0.04
   0  -3   2    0.74    0.03
   0  -3   2    0.68    0.04
   0  -3   2    0.70    0.03
   0  -3   2    0.71    0.03
   0  -3   2    0.78    0.04
   0  -3   2    0.70    0.04
  -1   3  -2    0.86    0.04
  -1   3  -2    0.82    0.04
  -1   3  -2    0.75    0.04
   1  -3   2    0.79    0.04
   1  -3   2    0.78    0.04
   1  -3   2    0.81    0.04
   1  -3   2    0.74    0.04
   1  -3   2    0.82    0.04
  -2   3  -2    2.66    0.07
  -2   3  -2    2.52    0.08
  -2   3  -2    2.52    0.08
   2  -3   2    2.49    0.07
   2  -3   2    2.51    0.08
   2  -3   2    2.46    0.08
   2  -3   2    2.61    0.08
   2  -3   2    2.58    0.08
  -3   3  -2    0.57    0.04
  -3   3  -2    0.51    0.05
   3  -3   2    0.57    0.04
   3  -3   2    0.57    0.05
   3  -3   2    0.60    0.05
  -4   3  -2    1.25    0.07
  -4   3  -2    1.42    0.06
   4  -3   2    1.36    0.08
   4  -3   2    1.36    0.07
   4  -3   2    1.36    0.07
   4  -3   2    1.43    0.08
  -5   3  -2   13.64    0.33
  -5   3  -2   14.74    0.33
  -5   3  -2   13.36    0.33
  -5   3  -2   14.50    0.34
   5  -3   2   14.44    0.33
   5  -3   2   14.54    0.33
   5  -3   2   14.68    0.35
   5  -3   2   14.33    0.35
  -6   3  -2    0.04    0.03
  -6   3  -2    0.02    0.03
  -6   3  -2    0.00    0.03
   6  -3   2    0.04    0.03
   6  -3   2    0.02    0.03
   6  -3   2    0.02    0.03
   5   2  -2    1.20    0.08
   5   2  -2    1.27    0.09
   5   2  -2    1.20    0.10
  -5  -2   2    1.17    0.09
  -5  -2   2    1.38    0.11
   4   2  -2    0.01    0.02
   4   2  -2    0.00    0.03
   4   2  -2    0.02    0.02
  -4  -2   2   -0.02    0.02
  -4  -2   2    0.02    0.02
  -4  -2   2    0.01    0.02
   3   2  -2    2.33    0.08
   3   2  -2    2.72    0.09
   3   2  -2    2.80    0.11
   3   2  -2    2.88    0.10
  -3  -2   2    2.94    0.10
  -3  -2   2    2.80    0.11
  -3  -2   2    2.87    0.08
  -3  -2   2    2.83    0.09
   2   2  -2   17.76    0.42
   2   2  -2   18.66    0.43
   2   2  -2   17.97    0.40
   2   2  -2   18.06    0.41
  -2  -2   2   19.12    0.41
  -2  -2   2   17.93    0.42
  -2  -2   2   18.94    0.42
  -2  -2   2   19.74    0.40
   1   2  -2    5.48    0.13
   1   2  -2    5.53    0.14
   1   2  -2    5.40    0.14
   1   2  -2    5.64    0.14
  -1  -2   2    5.34    0.14
  -1  -2   2    5.87    0.13
  -1  -2   2    5.60    0.14
  -1  -2   2    5.77    0.13
   0   2  -2   12.89    0.27
   0   2  -2   12.54    0.28
   0   2  -2   12.52    0.28
   0   2  -2   12.48    0.28
   0  -2   2   12.52    0.28
   0  -2   2   12.63    0.27
   0  -2   2   12.52    0.27
   0  -2   2   12.88    0.28
   0  -2   2   13.43    0.28
   0  -2   2   13.04    0.28
  -1   2  -2   73.62    1.55
  -1   2  -2   72.16    1.58
  -1   2  -2   73.69    1.57
   1  -2   2   73.04    1.55
   1  -2   2   72.75    1.58
   1  -2   2   73.65    1.55
   1  -2   2   78.40    2.01
   1  -2   2   69.59    1.57
  -2   2  -2   22.68    0.48
  -2   2  -2   23.29    0.48
  -2   2  -2   22.36    0.49
   2  -2   2   22.78    0.49
   2  -2   2   22.74    0.49
   2  -2   2   22.40    0.49
   2  -2   2   21.47    0.49
   2  -2   2   22.59    0.49
  -3   2  -2    1.14    0.04
  -3   2  -2    1.09    0.04
  -3   2  -2    1.07    0.05
   3  -2   2    1.08    0.05
   3  -2   2    1.07    0.04
   3  -2   2    1.10    0.05
   3  -2   2    1.08    0.05
   3  -2   2    1.09    0.05
  -4   2  -2    0.63    0.04
  -4   2  -2    0.60    0.04
  -4   2  -2    0.56    0.04
   4  -2   2    0.54    0.05
   4  -2   2    0.62    0.04
   4  -2   2    0.66    0.05
   4  -2   2    0.57    0.04
   4  -2   2    0.63    0.05
  -5   2  -2    0.80    0.05
  -5   2  -2    0.79    0.06
  -5   2  -2    0.79    0.05
  -5   2  -2    0.82    0.05
   5  -2   2    0.85    0.06
   5  -2   2    0.64    0.07
   5  -2   2    0.81    0.06
   5  -2   2    0.82    0.06
  -6   2  -2    0.14    0.03
  -6   2  -2    0.18    0.03
   6  -2   2    0.17    0.03
   6  -2   2    0.14    0.03
   6  -2   2    0.10    0.04
   6  -2   2    0.16    0.03
   6   1  -2    0.54    0.10
   6   1  -2    0.53    0.09
   6   1  -2    0.54    0.08
  -6  -1   2    0.40    0.09
   5   1  -2    0.04    0.03
   5   1  -2    0.02    0.02
   5   1  -2    0.02    0.03
  -5  -1   2   -0.01    0.02
  -5  -1   2    0.04    0.03
  -5  -1   2    0.02    0.02
   4   1  -2    0.33    0.05
   4   1  -2    0.36    0.06
   4   1  -2    0.28    0.05
  -4  -1   2    0.27    0.05
  -4  -1   2    0.34    0.04
  -4  -1   2    0.32    0.06
   3   1  -2    2.55    0.09
   3   1  -2    2.42    0.08
   3   1  -2    2.56    0.10
   3   1  -2    2.36    0.07
  -3  -1   2    2.55    0.07
  -3  -1   2    2.38    0.09
  -3  -1   2    2.53    0.09
   2   1  -2   21.90    0.48
   2   1  -2   22.82    0.50
   2   1  -2   21.87    0.49
   2   1  -2   21.95    0.49
  -2  -1   2   22.66    0.48
  -2  -1   2   23.15    0.47
  -2  -1   2   23.20    0.49
  -2  -1   2   21.44    0.50
   1   1  -2    3.74    0.10
   1   1  -2    3.88    0.09
   1   1  -2    3.94    0.10
   1   1  -2    3.75    0.10
  -1  -1   2    3.71    0.10
  -1  -1   2    4.11    0.09
  -1  -1   2    3.88    0.10
  -1  -1   2    3.98    0.09
   0   1  -2   40.70    0.89
   0   1  -2   40.98    0.87
   0   1  -2   41.14    0.88
   0   1  -2   41.57    0.87
   0   1  -2   41.12    0.87
   0  -1   2   41.38    0.92
   0  -1   2   42.72    0.90
   0  -1   2   40.03    0.87
   0  -1   2   41.20    0.93
  -1   1  -2   19.34    0.41
  -1   1  -2   19.31    0.42
  -1   1  -2   19.84    0.41
  -1   1  -2   19.93    0.41
   1  -1   2   19.88    0.42
   1  -1   2   19.00    0.42
   1  -1   2   19.00    0.41
   1  -1   2   19.55    0.42
   1  -1   2   19.39    0.41
  -2   1  -2    3.15    0.08
  -2   1  -2    3.20    0.08
  -2   1  -2    3.16    0.08
  -2   1  -2    3.14    0.08
   2  -1   2    3.10    0.08
   2  -1   2    3.09    0.08
   2  -1   2    3.06    0.08
   2  -1   2    3.00    0.08
   2  -1   2    3.13    0.08
  -3   1  -2    9.90    0.22
  -3   1  -2    9.97    0.22
  -3   1  -2    9.58    0.22
  -3   1  -2    9.89    0.22
  -3   1  -2    9.99    0.22
   3  -1   2    9.74    0.22
   3  -1   2    9.73    0.23
   3  -1   2    9.84    0.23
   3  -1   2    9.75    0.22
   3  -1   2    9.84    0.22
   3  -1   2    9.75    0.23
   3  -1   2    9.82    0.23
  -4   1  -2    0.24    0.03
  -4   1  -2    0.30    0.03
  -4   1  -2    0.29    0.03
  -4   1  -2    0.29    0.03
  -4   1  -2    0.28    0.03
   4  -1   2    0.27    0.03
   4  -1   2    0.27    0.04
   4  -1   2    0.28    0.03
   4  -1   2    0.21    0.04
   4  -1   2    0.25    0.03
   4  -1   2    0.24    0.04
   4  -1   2    0.28    0.04
   4  -1   2    0.28    0.04
  -5   1  -2    3.11    0.09
  -5   1  -2    3.11    0.09
  -5   1  -2    3.17    0.10
  -5   1  -2    3.07    0.09
  -5   1  -2    2.78    0.10
   5  -1   2    3.13    0.11
   5  -1   2    3.05    0.11
   5  -1   2    3.02    0.11
   5  -1   2    3.07    0.10
   5  -1   2    3.17    0.12
   5  -1   2    3.21    0.09
   5  -1   2    3.20    0.09
  -6   1  -2    0.02    0.02
  -6   1  -2    0.02    0.02
  -6   1  -2    0.00    0.02
  -6   1  -2    0.03    0.02
   6  -1   2   -0.01    0.02
   6  -1   2    0.00    0.03
   6  -1   2    0.00    0.03
   6  -1   2   -0.02    0.02
   6   0  -2   -0.03    0.03
   6   0  -2   -0.05    0.03
  -6   0   2    0.00    0.04
   5   0  -2    1.96    0.10
   5   0  -2    2.17    0.09
   5   0  -2    2.15    0.10
   5   0  -2    2.03    0.11
  -5   0   2    2.18    0.11
  -5   0   2    2.08    0.10
   4   0  -2    3.04    0.10
   4   0  -2    2.89    0.10
   4   0  -2    2.98    0.12
   4   0  -2    3.06    0.11
  -4   0   2    3.01    0.09
  -4   0   2    3.03    0.11
  -4   0   2    2.95    0.10
   3   0  -2    0.01    0.01
   3   0  -2   -0.01    0.01
   3   0  -2   -0.02    0.01
   3   0  -2   -0.01    0.01
   3   0  -2   -0.01    0.01
  -3   0   2   -0.01    0.01
  -3   0   2   -0.01    0.01
  -3   0   2   -0.01    0.01
   2   0  -2    5.80    0.15
   2   0  -2    5.69    0.14
   2   0  -2    5.91    0.15
   2   0  -2    5.60    0.14
   2   0  -2    5.79    0.13
  -2   0   2    5.93    0.13
  -2   0   2    5.74    0.15
  -2   0   2    6.20    0.14
   1   0  -2    2.09    0.06
   1   0  -2    2.13    0.05
   1   0  -2    2.13    0.06
   1   0  -2    2.22    0.06
  -1   0   2    2.19    0.06
  -1   0   2    2.09    0.06
  -1   0   2    2.21    0.05
   0   0  -2   11.75    0.26
   0   0  -2   11.91    0.25
   0   0  -2   11.93    0.25
   0   0  -2   12.05    0.26
   0   0  -2   11.73    0.26
   0   0   2   12.14    0.28
   0   0   2   12.02    0.25
   0   0   2   11.84    0.26
   0   0   2   12.05    0.26
  -1   0  -2   78.86    1.71
  -1   0  -2   82.94    1.70
  -1   0  -2   81.27    1.72
  -1   0  -2   81.40    1.71
   1   0   2   76.58    1.74
   1   0   2   82.77    1.74
   1   0   2   81.01    1.73
   1   0   2   78.63    1.75
  -2   0  -2  201.36    4.19
  -2   0  -2  201.23    4.19
  -2   0  -2  203.46    4.18
   2   0   2  195.15    4.26
   2   0   2  192.76    4.27
   2   0   2  196.88    4.23
   2   0   2  197.64    4.24
  -3   0  -2   14.14    0.31
  -3   0  -2   14.19    0.32
  -3   0  -2   14.69    0.31
  -3   0  -2   14.18    0.31
  -3   0  -2   13.98    0.31
   3   0   2   14.04    0.33
   3   0   2   14.34    0.31
   3   0   2   14.13    0.31
   3   0   2   14.79    0.31
   3   0   2   14.19    0.32
   3   0   2   14.01    0.33
   3   0   2   13.98    0.31
   3   0   2   14.28    0.32
  -4   0  -2    2.54    0.07
  -4   0  -2    2.40    0.07
  -4   0  -2    2.58    0.07
  -4   0  -2    2.49    0.08
  -4   0  -2    2.39    0.07
   4   0   2    2.50    0.07
   4   0   2    2.57    0.08
   4   0   2    2.55    0.09
   4   0   2    2.51    0.09
   4   0   2    2.49    0.09
   4   0   2    2.46    0.08
   4   0   2    2.57    0.07
  -5   0  -2    2.01    0.06
  -5   0  -2    1.80    0.08
  -5   0  -2    2.05    0.06
  -5   0  -2    1.90    0.08
  -5   0  -2    1.97    0.07
   5   0   2    2.08    0.10
   5   0   2    2.06    0.09
   5   0   2    2.02    0.08
   5   0   2    1.96    0.09
   5   0   2    1.89    0.07
  -6   0  -2    0.51    0.05
  -6   0  -2    0.42    0.06
   6   0   2    0.44    0.07
   6   0   2    0.41    0.07
   6   0   2    0.39    0.07
  -7   0  -2    0.01    0.02
   7   0   2    0.00    0.03
   6  -1  -2    0.02    0.04
   6  -1  -2    0.04    0.03
  -6   1   2    0.09    0.04
  -6   1   2    0.01    0.04
   5  -1  -2    1.64    0.09
   5  -1  -2    1.57    0.08
   5  -1  -2    1.56    0.08
  -5   1   2    1.63    0.08
  -5   1   2    1.69    0.10
  -5   1   2    1.61    0.09
   4  -1  -2    3.73    0.12
   4  -1  -2    3.67    0.11
   4  -1  -2    3.55    0.09
   4  -1  -2    3.63    0.11
  -4   1   2    3.56    0.12
  -4   1   2    3.40    0.11
  -4   1   2    3.74    0.11
   3  -1  -2    0.01    0.01
   3  -1  -2    0.02    0.01
   3  -1  -2    0.02    0.01
   3  -1  -2    0.02    0.01
   3  -1  -2    0.03    0.02
  -3   1   2    0.02    0.01
  -3   1   2    0.01    0.01
  -3   1   2    0.02    0.01
  -3   1   2    0.00    0.01
   2  -1  -2  134.35    2.87
   2  -1  -2  132.65    2.90
   2  -1  -2  135.28    2.89
   2  -1  -2  132.21    2.86
   2  -1  -2  136.07    2.91
  -2   1   2  135.35    2.92
  -2   1   2  135.68    2.94
  -2   1   2  140.76    3.05
   1  -1  -2    1.03    0.03
   1  -1  -2    1.03    0.03
   1  -1  -2    1.05    0.04
   1  -1  -2    1.02    0.04
   1  -1  -2    1.11    0.04
  -1   1   2    1.01    0.04
  -1   1   2    1.00    0.04
  -1   1   2    1.04    0.04
   0  -1  -2   -0.01    0.01
   0  -1  -2    0.00    0.01
   0  -1  -2   -0.01    0.01
   0  -1  -2    0.01    0.01
   0  -1  -2    0.01    0.01
   0   1   2    0.00    0.01
   0   1   2    0.02    0.02
  -1  -1  -2   79.31    1.72
  -1  -1  -2   81.51    1.80
  -1  -1  -2   80.88    1.91
  -1  -1  -2   81.73    1.85
   1   1   2   78.32    1.77
   1   1   2   78.88    1.71
   1   1   2   80.95    1.73
   1   1   2   79.36    1.75
  -2  -1  -2   47.28    1.01
  -2  -1  -2   47.32    0.99
  -2  -1  -2   47.13    0.99
   2   1   2   46.93    1.03
   2   1   2   45.64    1.04
   2   1   2   47.49    1.02
   2   1   2   45.33    1.00
  -3  -1  -2    2.46    0.06
  -3  -1  -2    2.57    0.06
  -3  -1  -2    2.49    0.06
  -3  -1  -2    2.49    0.07
  -3  -1  -2    2.39    0.07
   3   1   2    2.52    0.09
   3   1   2    2.45    0.07
   3   1   2    2.52    0.08
   3   1   2    2.47    0.08
  -4  -1  -2    5.50    0.13
  -4  -1  -2    5.50    0.13
  -4  -1  -2    5.27    0.14
  -4  -1  -2    5.28    0.14
  -4  -1  -2    5.47    0.13
   4   1   2    5.28    0.16
   4   1   2    5.46    0.13
   4   1   2    5.36    0.16
   4   1   2    5.16    0.14
   4   1   2    5.49    0.15
  -5  -1  -2   40.95    0.89
  -5  -1  -2   39.97    0.90
  -5  -1  -2   41.44    0.88
  -5  -1  -2   41.31    0.87
   5   1   2   42.06    0.90
   5   1   2   41.42    0.92
   5   1   2   41.78    0.93
   5   1   2   40.95    0.90
  -6  -1  -2    0.04    0.02
  -6  -1  -2    0.07    0.02
   6   1   2    0.02    0.03
   6   1   2    0.06    0.03
   6   1   2    0.03    0.03
  -7  -1  -2    0.01    0.03
   7   1   2    0.01    0.03
   7   1   2   -0.02    0.03
   6  -2  -2    0.01    0.04
   6  -2  -2    0.00    0.03
   6  -2  -2    0.04    0.03
  -6   2   2   -0.04    0.03
  -6   2   2    0.08    0.03
  -6   2   2    0.04    0.03
   5  -2  -2    0.01    0.03
   5  -2  -2    0.04    0.02
   5  -2  -2    0.01    0.02
  -5   2   2    0.02    0.03
  -5   2   2    0.00    0.03
   4  -2  -2    0.90    0.05
   4  -2  -2    0.91    0.05
   4  -2  -2    0.93    0.06
   4  -2  -2    0.90    0.06
   4  -2  -2    0.96    0.06
  -4   2   2    0.84    0.05
  -4   2   2    0.92    0.06
  -4   2   2    0.90    0.07
   3  -2  -2    4.59    0.11
   3  -2  -2    4.54    0.13
   3  -2  -2    4.62    0.13
   3  -2  -2    4.52    0.11
   3  -2  -2    4.62    0.12
  -3   2   2    4.42    0.12
  -3   2   2    4.51    0.13
  -3   2   2    4.54    0.12
   2  -2  -2  169.16    3.68
   2  -2  -2  169.19    3.64
   2  -2  -2  171.44    3.65
   2  -2  -2  173.09    3.64
  -2   2   2  173.54    3.71
  -2   2   2  176.54    3.64
  -2   2   2  169.86    3.68
   1  -2  -2    0.05    0.01
   1  -2  -2    0.07    0.01
   1  -2  -2    0.06    0.01
  -1   2   2    0.05    0.01
  -1   2   2    0.05    0.01
  -1   2   2    0.05    0.01
  -1   2   2    0.07    0.01
   0  -2  -2    8.25    0.18
   0  -2  -2    8.09    0.17
   0  -2  -2    8.01    0.18
   0  -2  -2    8.31    0.18
   0  -2  -2    8.21    0.18
   0  -2  -2    8.13    0.18
   0   2   2    8.01    0.19
   0   2   2    8.17    0.18
   0   2   2    8.22    0.18
   0   2   2    7.56    0.18
  -1  -2  -2   10.15    0.22
  -1  -2  -2    9.91    0.22
  -1  -2  -2   10.21    0.22
  -1  -2  -2   10.09    0.22
   1   2   2    9.78    0.22
   1   2   2   10.31    0.22
   1   2   2    9.85    0.23
   1   2   2    9.96    0.23
  -2  -2  -2   31.77    0.67
  -2  -2  -2   31.48    0.66
  -2  -2  -2   31.46    0.66
  -2  -2  -2   31.54    0.67
   2   2   2   30.25    0.67
   2   2   2   32.00    0.67
   2   2   2   30.50    0.68
   2   2   2   30.59    0.68
  -3  -2  -2    4.90    0.11
  -3  -2  -2    4.72    0.11
  -3  -2  -2    4.87    0.12
  -3  -2  -2    4.85    0.13
   3   2   2    4.79    0.11
   3   2   2    4.86    0.14
   3   2   2    4.68    0.14
   3   2   2    4.67    0.13
   3   2   2    5.03    0.13
  -4  -2  -2    2.24    0.07
  -4  -2  -2    2.29    0.06
  -4  -2  -2    2.20    0.08
  -4  -2  -2    2.28    0.06
   4   2   2    2.46    0.08
   4   2   2    2.25    0.09
   4   2   2    1.96    0.10
   4   2   2    2.15    0.08
  -5  -2  -2   24.13    0.54
  -5  -2  -2   23.77    0.56
  -5  -2  -2   24.06    0.55
   5   2   2   24.88    0.55
   5   2   2   24.62    0.58
   5   2   2   24.29    0.57
  -6  -2  -2    0.77    0.09
  -6  -2  -2    0.78    0.06
  -6  -2  -2    0.72    0.06
   6   2   2    0.65    0.09
   6   2   2    0.75    0.07
   6   2   2    0.74    0.08
   6  -3  -2    0.18    0.04
  -6   3   2    0.21    0.04
   5  -3  -2    0.38    0.06
   5  -3  -2    0.38    0.07
   5  -3  -2    0.31    0.05
   5  -3  -2    0.31    0.05
  -5   3   2    0.42    0.06
  -5   3   2    0.39    0.06
  -5   3   2    0.33    0.09
   4  -3  -2    0.12    0.03
   4  -3  -2    0.15    0.02
   4  -3  -2    0.14    0.02
   4  -3  -2    0.13    0.03
  -4   3   2    0.15    0.03
  -4   3   2    0.13    0.03
  -4   3   2    0.10    0.03
   3  -3  -2    2.48    0.08
   3  -3  -2    2.46    0.09
   3  -3  -2    2.42    0.09
   3  -3  -2    2.52    0.08
   3  -3  -2    2.47    0.08
  -3   3   2    2.53    0.08
  -3   3   2    2.60    0.08
  -3   3   2    2.63    0.09
   2  -3  -2    5.22    0.12
   2  -3  -2    5.01    0.12
   2  -3  -2    4.91    0.13
   2  -3  -2    5.26    0.12
   2  -3  -2    4.89    0.13
  -2   3   2    4.90    0.13
  -2   3   2    4.97    0.13
  -2   3   2    4.78    0.13
   1  -3  -2    0.27    0.02
   1  -3  -2    0.20    0.03
   1  -3  -2    0.20    0.02
  -1   3   2    0.28    0.02
   0  -3  -2   29.94    0.64
   0  -3  -2   30.15    0.63
   0  -3  -2   30.27    0.65
   0  -3  -2   29.88    0.63
   0  -3  -2   29.86    0.63
   0   3   2   30.53    0.65
   0   3   2   28.24    0.65
   0   3   2   30.15    0.64
  -1  -3  -2   48.47    1.02
  -1  -3  -2   48.68    1.04
  -1  -3  -2   48.33    1.01
  -1  -3  -2   49.66    1.04
  -1  -3  -2   48.04    1.02
   1   3   2   47.69    1.02
   1   3   2   46.90    1.05
   1   3   2   46.06    1.06
   1   3   2   48.98    1.03
  -2  -3  -2   22.08    0.46
  -2  -3  -2   21.45    0.45
  -2  -3  -2   21.83    0.45
  -2  -3  -2   21.68    0.46
   2   3   2   20.66    0.47
   2   3   2   20.87    0.45
   2   3   2   20.48    0.47
   2   3   2   20.77    0.48
  -3  -3  -2    7.13    0.17
  -3  -3  -2    7.15    0.15
  -3  -3  -2    7.21    0.16
  -3  -3  -2    7.18    0.17
   3   3   2    6.98    0.16
   3   3   2    6.96    0.18
   3   3   2    6.84    0.20
   3   3   2    6.82    0.19
  -4  -3  -2   -0.02    0.02
  -4  -3  -2   -0.02    0.02
   4   3   2    0.02    0.02
   4   3   2   -0.01    0.02
   4   3   2    0.02    0.02
  -5  -3  -2    0.21    0.05
  -5  -3  -2    0.14    0.03
  -5  -3  -2    0.12    0.02
   5   3   2    0.12    0.03
   5   3   2    0.14    0.03
   5   3   2    0.14    0.03
  -6  -3  -2    0.32    0.05
  -6  -3  -2    0.33    0.06
   6   3   2    0.21    0.05
   6   3   2    0.19    0.04
   5  -4  -2    0.01    0.03
   5  -4  -2    0.03    0.02
   5  -4  -2    0.01    0.03
   5  -4  -2    0.03    0.03
  -5   4   2    0.03    0.03
  -5   4   2   -0.03    0.03
   4  -4  -2    0.69    0.05
   4  -4  -2    0.57    0.07
   4  -4  -2    0.62    0.07
   4  -4  -2    0.62    0.05
  -4   4   2    0.68    0.07
  -4   4   2    0.60    0.06
   3  -4  -2   -0.02    0.02
   3  -4  -2    0.02    0.02
   3  -4  -2    0.01    0.02
   3  -4  -2   -0.02    0.02
  -3   4   2   -0.03    0.02
  -3   4   2    0.00    0.02
   2  -4  -2    3.81    0.10
   2  -4  -2    3.85    0.12
   2  -4  -2    3.91    0.11
   2  -4  -2    3.83    0.10
  -2   4   2    4.03    0.11
  -2   4   2    3.72    0.11
  -2   4   2    3.78    0.11
   1  -4  -2    0.43    0.04
   1  -4  -2    0.40    0.03
   1  -4  -2    0.40    0.03
   1  -4  -2    0.46    0.03
  -1   4   2    0.47    0.04
  -1   4   2    0.47    0.03
  -1   4   2    0.49    0.04
   0  -4  -2   10.79    0.23
   0  -4  -2   10.30    0.24
   0  -4  -2   10.64    0.23
   0  -4  -2   10.77    0.24
   0  -4  -2   10.59    0.23
   0   4   2   10.07    0.25
   0   4   2   10.40    0.24
   0   4   2   10.17    0.24
  -1  -4  -2    0.62    0.04
  -1  -4  -2    0.57    0.03
  -1  -4  -2    0.59    0.03
  -1  -4  -2    0.60    0.03
  -1  -4  -2    0.59    0.03
   1   4   2    0.58    0.04
   1   4   2    0.51    0.04
   1   4   2    0.54    0.05
   1   4   2    0.57    0.03
   1   4   2    0.64    0.03
  -2  -4  -2    2.68    0.08
  -2  -4  -2    2.64    0.07
  -2  -4  -2    2.68    0.08
  -2  -4  -2    2.61    0.07
  -2  -4  -2    2.36    0.08
   2   4   2    2.47    0.10
   2   4   2    2.57    0.07
   2   4   2    2.52    0.09
   2   4   2    2.57    0.09
  -3  -4  -2    3.10    0.08
  -3  -4  -2    3.00    0.11
  -3  -4  -2    3.10    0.10
  -3  -4  -2    3.05    0.09
   3   4   2    2.97    0.11
   3   4   2    3.10    0.10
   3   4   2    3.04    0.12
   3   4   2    3.06    0.09
  -4  -4  -2   -0.01    0.02
  -4  -4  -2   -0.01    0.02
  -4  -4  -2   -0.01    0.02
   4   4   2    0.01    0.02
   4   4   2   -0.01    0.02
   4   4   2   -0.02    0.02
  -5  -4  -2    2.11    0.11
  -5  -4  -2    1.79    0.08
  -5  -4  -2    1.84    0.09
   5   4   2    1.86    0.12
   5   4   2    1.90    0.10
   5   4   2    1.73    0.10
  -6  -4  -2    0.19    0.04
  -6  -4  -2    0.17    0.03
   6   4   2    0.18    0.04
   6   4   2    0.19    0.05
   5  -5  -2    0.56    0.07
  -5   5   2    0.50    0.07
  -5   5   2    0.46    0.08
   4  -5  -2    0.87    0.07
   4  -5  -2    0.85    0.09
   4  -5  -2    0.87    0.06
  -4   5   2    0.95    0.08
  -4   5   2    0.82    0.07
  -4   5   2    0.83    0.08
   3  -5  -2    0.00    0.02
   3  -5  -2   -0.01    0.02
   3  -5  -2    0.01    0.02
   3  -5  -2    0.01    0.02
  -3   5   2   -0.01    0.03
  -3   5   2   -0.02    0.02
   2  -5  -2    0.88    0.05
   2  -5  -2    0.95    0.05
   2  -5  -2    1.04    0.07
   2  -5  -2    0.99    0.06
  -2   5   2    1.04    0.07
  -2   5   2    0.92    0.06
   1  -5  -2    0.09    0.02
   1  -5  -2    0.09    0.02
   1  -5  -2    0.10    0.02
   1  -5  -2    0.11    0.02
  -1   5   2    0.12    0.02
  -1   5   2    0.11    0.02
  -1   5   2    0.08    0.02
   0  -5  -2    0.02    0.01
   0  -5  -2   -0.01    0.01
   0  -5  -2   -0.01    0.02
   0  -5  -2   -0.01    0.02
   0  -5  -2    0.00    0.01
   0   5   2    0.03    0.02
   0   5   2    0.00    0.02
   0   5   2    0.01    0.01
  -1  -5  -2    4.51    0.11
  -1  -5  -2    4.53    0.12
  -1  -5  -2    4.58    0.11
  -1  -5  -2    4.48    0.12
   1   5   2    4.40    0.14
   1   5   2    4.49    0.12
   1   5   2    4.49    0.13
  -2  -5  -2   15.26    0.33
  -2  -5  -2   15.61    0.35
  -2  -5  -2   14.70    0.35
  -2  -5  -2   15.75    0.35
   2   5   2   15.42    0.36
   2   5   2   15.10    0.34
   2   5   2   14.70    0.38
  -3  -5  -2    0.47    0.05
  -3  -5  -2    0.35    0.05
  -3  -5  -2    0.34    0.05
   3   5   2    0.31    0.06
   3   5   2    0.34    0.06
   3   5   2    0.37    0.07
   3   5   2    0.37    0.05
  -4  -5  -2    1.39    0.08
  -4  -5  -2    1.09    0.07
  -4  -5  -2    1.14    0.07
   4   5   2    1.15    0.10
   4   5   2    1.19    0.09
   4   5   2    1.21    0.08
  -5  -5  -2    4.03    0.15
  -5  -5  -2    3.59    0.13
  -5  -5  -2    3.40    0.12
   5   5   2    3.63    0.17
   5   5   2    3.70    0.15
   4  -6  -2    0.15    0.04
   4  -6  -2    0.15    0.04
  -4   6   2    0.07    0.04
  -4   6   2    0.16    0.04
  -4   6   2    0.13    0.04
   3  -6  -2    0.88    0.09
   3  -6  -2    0.76    0.07
   3  -6  -2    0.81    0.07
  -3   6   2    0.66    0.08
  -3   6   2    0.78    0.08
  -3   6   2    0.61    0.07
   2  -6  -2   11.07    0.28
   2  -6  -2   10.46    0.26
   2  -6  -2   10.22    0.26
   2  -6  -2   10.02    0.26
  -2   6   2   10.93    0.27
  -2   6   2   10.68    0.27
  -2   6   2   10.50    0.26
   1  -6  -2    0.04    0.02
   1  -6  -2    0.01    0.02
   1  -6  -2    0.05    0.02
   1  -6  -2    0.08    0.02
  -1   6   2    0.06    0.02
  -1   6   2    0.07    0.03
  -1   6   2    0.04    0.02
   0  -6  -2    0.00    0.02
   0  -6  -2    0.00    0.02
   0  -6  -2    0.02    0.02
   0  -6  -2   -0.01    0.02
   0   6   2    0.03    0.02
   0   6   2    0.06    0.03
  -1  -6  -2    0.41    0.04
  -1  -6  -2    0.31    0.05
  -1  -6  -2    0.34    0.05
  -1  -6  -2    0.43    0.04
   1   6   2    0.43    0.06
   1   6   2    0.45    0.05
  -2  -6  -2    1.30    0.07
  -2  -6  -2    1.26    0.07
   2   6   2    1.27    0.09
   2   6   2    1.24    0.06
   2   6   2    1.31    0.08
  -3  -6  -2   -0.03    0.02
  -3  -6  -2   -0.04    0.02
   3   6   2    0.00    0.03
   3   6   2    0.00    0.03
  -4  -6  -2    2.71    0.11
  -4  -6  -2    2.42    0.11
   4   6   2    2.87    0.15
   4   6   2    2.90    0.13
   2  -7  -2    4.57    0.16
   2  -7  -2    4.18    0.14
   2  -7  -2    4.04    0.14
  -2   7   2    4.00    0.14
  -2   7   2    4.56    0.15
  -2   7   2    4.43    0.15
   1  -7  -2    0.09    0.03
   1  -7  -2    0.10    0.03
   1  -7  -2    0.06    0.03
  -1   7   2    0.03    0.03
  -1   7   2    0.04    0.03
   0  -7  -2    0.84    0.06
   0  -7  -2    0.83    0.06
   0  -7  -2    0.85    0.07
   0   7   2    0.97    0.08
   0   7   2    0.77    0.07
  -1  -7  -2    0.41    0.06
  -1  -7  -2    0.50    0.06
   1   7   2    0.52    0.06
  -2  -7  -2    0.50    0.07
  -2  -7  -2    0.65    0.10
   1   6  -3    0.17    0.04
   0   6  -3    2.20    0.10
   0  -6   3    2.23    0.10
   0  -6   3    2.05    0.14
  -1   6  -3    0.69    0.07
   1  -6   3    0.82    0.08
  -2   6  -3   -0.02    0.03
  -2   6  -3    0.01    0.03
   2  -6   3    0.02    0.03
   3   5  -3    0.18    0.04
  -3  -5   3    0.14    0.03
   2   5  -3    0.04    0.03
   2   5  -3    0.05    0.03
  -2  -5   3    0.03    0.03
  -2  -5   3    0.09    0.02
   1   5  -3    2.21    0.10
   1   5  -3    2.28    0.10
  -1  -5   3    2.22    0.09
  -1  -5   3    2.25    0.09
   0   5  -3    1.05    0.07
   0   5  -3    0.96    0.07
   0  -5   3    1.02    0.07
   0  -5   3    1.07    0.07
  -1   5  -3    0.35    0.05
  -1   5  -3    0.35    0.05
   1  -5   3    0.33    0.06
   1  -5   3    0.49    0.06
  -2   5  -3    0.85    0.07
  -2   5  -3    0.90    0.07
  -2   5  -3    0.96    0.06
   2  -5   3    1.11    0.07
   2  -5   3    0.86    0.06
   2  -5   3    0.96    0.07
   2  -5   3    0.96    0.06
  -3   5  -3    0.06    0.03
  -3   5  -3    0.02    0.03
  -3   5  -3    0.05    0.03
  -3   5  -3    0.07    0.03
   3  -5   3    0.06    0.03
   3  -5   3    0.07    0.03
   3  -5   3    0.10    0.03
   3  -5   3    0.10    0.03
  -4   5  -3    0.53    0.06
  -4   5  -3    0.53    0.08
  -4   5  -3    0.62    0.09
  -4   5  -3    0.38    0.07
   4  -5   3    0.60    0.08
   4  -5   3    0.51    0.07
   4  -5   3    0.40    0.06
   4   4  -3    0.03    0.03
   4   4  -3    0.00    0.04
   3   4  -3    0.40    0.06
   3   4  -3    0.41    0.07
   3   4  -3    0.34    0.08
  -3  -4   3    0.53    0.10
  -3  -4   3    0.41    0.06
   2   4  -3    1.05    0.07
   2   4  -3    1.04    0.07
  -2  -4   3    1.04    0.08
  -2  -4   3    0.98    0.06
  -2  -4   3    1.07    0.06
   1   4  -3    2.01    0.07
   1   4  -3    2.01    0.09
   1   4  -3    2.04    0.08
  -1  -4   3    1.91    0.08
  -1  -4   3    1.97    0.09
  -1  -4   3    2.00    0.08
   0   4  -3    3.56    0.11
   0   4  -3    3.49    0.11
   0   4  -3    3.46    0.11
   0  -4   3    3.44    0.11
   0  -4   3    3.52    0.11
   0  -4   3    3.42    0.11
  -1   4  -3   10.92    0.25
  -1   4  -3   10.66    0.25
  -1   4  -3   10.71    0.25
  -1   4  -3   11.02    0.26
   1  -4   3   10.33    0.26
   1  -4   3   10.52    0.26
   1  -4   3   10.66    0.25
   1  -4   3   10.79    0.25
  -2   4  -3    4.11    0.12
  -2   4  -3    4.09    0.12
  -2   4  -3    4.07    0.11
   2  -4   3    3.90    0.12
   2  -4   3    4.00    0.12
   2  -4   3    4.03    0.12
   2  -4   3    4.06    0.13
  -3   4  -3    0.03    0.02
  -3   4  -3    0.01    0.02
  -3   4  -3    0.03    0.02
  -3   4  -3    0.04    0.02
   3  -4   3    0.03    0.03
   3  -4   3    0.01    0.02
   3  -4   3    0.01    0.02
   3  -4   3    0.02    0.03
  -4   4  -3    0.14    0.03
  -4   4  -3    0.19    0.03
  -4   4  -3    0.15    0.03
   4  -4   3    0.27    0.04
   4  -4   3    0.27    0.04
  -5   4  -3   -0.01    0.03
  -5   4  -3    0.01    0.03
   5  -4   3    0.01    0.03
   5  -4   3   -0.01    0.03
   5  -4   3    0.02    0.03
   5  -4   3    0.04    0.03
   5   3  -3    1.48    0.11
   5   3  -3    1.54    0.10
   4   3  -3    0.10    0.04
   4   3  -3    0.16    0.03
   4   3  -3    0.09    0.04
  -4  -3   3    0.04    0.03
  -4  -3   3    0.11    0.04
  -4  -3   3    0.07    0.03
   3   3  -3   13.41    0.34
   3   3  -3   13.17    0.32
   3   3  -3   12.95    0.33
  -3  -3   3   12.73    0.31
  -3  -3   3   13.69    0.33
  -3  -3   3   13.27    0.33
   2   3  -3    0.03    0.01
   2   3  -3    0.01    0.02
   2   3  -3    0.05    0.02
   2   3  -3    0.02    0.02
  -2  -3   3    0.02    0.02
  -2  -3   3    0.04    0.02
  -2  -3   3    0.02    0.02
  -2  -3   3    0.01    0.02
   1   3  -3    0.16    0.03
   1   3  -3    0.17    0.03
   1   3  -3    0.18    0.04
  -1  -3   3    0.09    0.02
  -1  -3   3    0.07    0.02
  -1  -3   3    0.10    0.02
  -1  -3   3    0.10    0.02
   0   3  -3   10.61    0.25
   0   3  -3   10.69    0.24
   0   3  -3   10.96    0.24
   0   3  -3   10.94    0.25
   0   3  -3   10.72    0.25
   0  -3   3   10.82    0.25
   0  -3   3   10.61    0.24
   0  -3   3   10.77    0.25
   0  -3   3   10.56    0.25
  -1   3  -3    4.18    0.11
  -1   3  -3    4.29    0.11
  -1   3  -3    4.34    0.11
  -1   3  -3    4.15    0.11
  -1   3  -3    4.18    0.11
   1  -3   3    4.23    0.11
   1  -3   3    4.12    0.12
   1  -3   3    4.26    0.11
   1  -3   3    4.03    0.11
   1  -3   3    4.08    0.12
  -2   3  -3    3.49    0.10
  -2   3  -3    3.60    0.10
  -2   3  -3    3.60    0.10
  -2   3  -3    3.08    0.10
   2  -3   3    3.54    0.10
   2  -3   3    3.45    0.10
   2  -3   3    3.59    0.10
   2  -3   3    3.56    0.11
   2  -3   3    3.53    0.11
  -3   3  -3    0.89    0.05
  -3   3  -3    1.00    0.05
  -3   3  -3    0.96    0.06
  -3   3  -3    0.94    0.05
   3  -3   3    0.82    0.06
   3  -3   3    0.92    0.05
   3  -3   3    0.80    0.06
   3  -3   3    0.94    0.05
  -4   3  -3   24.37    0.56
  -4   3  -3   24.89    0.56
  -4   3  -3   25.75    0.55
  -4   3  -3   23.99    0.55
   4  -3   3   25.76    0.56
   4  -3   3   25.56    0.56
   4  -3   3   26.36    0.58
   4  -3   3   25.31    0.57
  -5   3  -3    0.28    0.05
  -5   3  -3    0.22    0.03
  -5   3  -3    0.21    0.03
   5  -3   3    0.26    0.04
   5  -3   3    0.38    0.07
   5  -3   3    0.27    0.04
   5  -3   3    0.34    0.07
  -6   3  -3   -0.04    0.03
   6  -3   3    0.01    0.05
   6  -3   3   -0.03    0.03
   6  -3   3   -0.03    0.03
   6  -3   3    0.00    0.04
   5   2  -3    0.56    0.08
   5   2  -3    0.47    0.09
   5   2  -3    0.57    0.07
  -5  -2   3    0.64    0.10
   4   2  -3    0.72    0.07
   4   2  -3    0.72    0.07
   4   2  -3    0.59    0.08
  -4  -2   3    0.55    0.06
  -4  -2   3    0.56    0.07
  -4  -2   3    0.65    0.08
   3   2  -3   40.87    0.90
   3   2  -3   40.55    0.91
   3   2  -3   39.75    0.89
   3   2  -3   41.54    0.92
  -3  -2   3   42.27    0.89
  -3  -2   3   43.05    0.91
  -3  -2   3   41.63    0.91
   2   2  -3    1.05    0.07
   2   2  -3    1.19    0.05
   2   2  -3    1.12    0.05
  -2  -2   3    1.13    0.04
  -2  -2   3    1.02    0.06
  -2  -2   3    1.11    0.06
  -2  -2   3    1.13    0.05
   1   2  -3    0.93    0.04
   1   2  -3    0.89    0.05
   1   2  -3    0.88    0.04
  -1  -2   3    0.88    0.04
  -1  -2   3    0.88    0.05
  -1  -2   3    0.87    0.05
  -1  -2   3    0.88    0.04
   0   2  -3    4.99    0.12
   0   2  -3    4.92    0.11
   0   2  -3    4.89    0.12
   0   2  -3    4.86    0.12
   0   2  -3    5.01    0.11
   0  -2   3    5.25    0.12
   0  -2   3    4.88    0.12
   0  -2   3    4.89    0.13
   0  -2   3    4.93    0.11
   0  -2   3    4.97    0.12
  -1   2  -3   12.48    0.28
  -1   2  -3   12.95    0.28
  -1   2  -3   12.70    0.28
  -1   2  -3   12.58    0.28
   1  -2   3   12.34    0.29
   1  -2   3   12.59    0.28
   1  -2   3   12.80    0.29
   1  -2   3   12.45    0.28
   1  -2   3   12.89    0.29
  -2   2  -3    2.67    0.07
  -2   2  -3    2.64    0.07
  -2   2  -3    2.65    0.08
  -2   2  -3    2.65    0.07
   2  -2   3    2.59    0.08
   2  -2   3    2.58    0.08
   2  -2   3    2.62    0.07
   2  -2   3    2.65    0.08
   2  -2   3    2.60    0.07
  -3   2  -3    2.38    0.07
  -3   2  -3    2.19    0.08
  -3   2  -3    2.31    0.07
  -3   2  -3    2.28    0.07
   3  -2   3    2.34    0.07
   3  -2   3    2.32    0.08
   3  -2   3    2.37    0.07
   3  -2   3    2.30    0.08
   3  -2   3    2.28    0.08
  -4   2  -3   33.17    0.73
  -4   2  -3   34.58    0.73
  -4   2  -3   33.01    0.74
  -4   2  -3   33.09    0.73
   4  -2   3   34.34    0.75
   4  -2   3   34.25    0.75
   4  -2   3   34.36    0.73
   4  -2   3   33.49    0.75
   4  -2   3   34.68    0.73
  -5   2  -3   -0.03    0.02
  -5   2  -3    0.00    0.02
  -5   2  -3   -0.02    0.02
   5  -2   3   -0.04    0.03
   5  -2   3   -0.03    0.02
   5  -2   3   -0.04    0.02
  -6   2  -3    0.62    0.05
  -6   2  -3    0.55    0.07
  -6   2  -3    0.66    0.06
  -6   2  -3    0.71    0.06
   6  -2   3    0.60    0.06
   6  -2   3    0.57    0.07
   6  -2   3    0.70    0.06
   6  -2   3    0.70    0.08
   5   1  -3    0.01    0.03
   5   1  -3   -0.01    0.03
   5   1  -3    0.01    0.03
  -5  -1   3    0.02    0.04
   4   1  -3    2.33    0.10
   4   1  -3    2.28    0.09
   4   1  -3    2.64    0.12
   4   1  -3    2.71    0.11
  -4  -1   3    2.68    0.12
  -4  -1   3    2.46    0.10
  -4  -1   3    2.47    0.08
   3   1  -3    6.01    0.17
   3   1  -3    6.10    0.16
   3   1  -3    6.19    0.18
   3   1  -3    5.90    0.16
  -3  -1   3    6.04    0.17
  -3  -1   3    6.35    0.17
  -3  -1   3    6.33    0.15
   2   1  -3    3.23    0.09
   2   1  -3    3.11    0.10
   2   1  -3    3.27    0.09
   2   1  -3    3.34    0.11
  -2  -1   3    3.30    0.10
  -2  -1   3    3.29    0.09
  -2  -1   3    3.16    0.10
   1   1  -3   14.85    0.32
   1   1  -3   15.10    0.34
   1   1  -3   15.32    0.34
   1   1  -3   15.16    0.34
  -1  -1   3   15.03    0.34
  -1  -1   3   15.65    0.34
  -1  -1   3   15.23    0.33
  -1  -1   3   16.52    0.33
   0   1  -3   70.81    1.52
   0   1  -3   70.86    1.53
   0   1  -3   71.14    1.55
   0   1  -3   71.34    1.52
   0   1  -3   70.81    1.55
   0  -1   3   75.01    1.54
   0  -1   3   71.80    1.58
   0  -1   3   71.69    1.57
   0  -1   3   74.27    1.57
  -1   1  -3   37.45    0.79
  -1   1  -3   37.63    0.78
  -1   1  -3   37.04    0.78
  -1   1  -3   37.31    0.78
   1  -1   3   35.80    0.78
   1  -1   3   36.71    0.80
   1  -1   3   37.77    0.81
   1  -1   3   36.97    0.80
  -2   1  -3    2.66    0.07
  -2   1  -3    2.68    0.07
  -2   1  -3    2.61    0.07
  -2   1  -3    2.59    0.07
   2  -1   3    2.58    0.08
   2  -1   3    2.58    0.08
   2  -1   3    2.52    0.08
   2  -1   3    2.60    0.07
   2  -1   3    2.59    0.07
  -3   1  -3    1.81    0.06
  -3   1  -3    1.81    0.06
  -3   1  -3    1.91    0.05
  -3   1  -3    1.71    0.06
   3  -1   3    1.79    0.07
   3  -1   3    1.86    0.06
   3  -1   3    1.81    0.06
   3  -1   3    1.79    0.07
   3  -1   3    1.87    0.07
   3  -1   3    1.79    0.06
  -4   1  -3    0.04    0.01
  -4   1  -3    0.05    0.01
  -4   1  -3    0.05    0.01
   4  -1   3    0.04    0.02
   4  -1   3    0.04    0.02
   4  -1   3    0.05    0.02
   4  -1   3    0.01    0.02
   4  -1   3    0.03    0.02
  -5   1  -3    0.15    0.02
  -5   1  -3    0.16    0.02
  -5   1  -3    0.12    0.02
  -5   1  -3    0.13    0.02
   5  -1   3    0.08    0.03
   5  -1   3    0.14    0.03
   5  -1   3    0.17    0.02
   5  -1   3    0.18    0.03
  -6   1  -3    1.37    0.07
  -6   1  -3    1.37    0.07
  -6   1  -3    1.39    0.06
   6  -1   3    1.34    0.09
   6  -1   3    1.28    0.08
   6  -1   3    1.43    0.09
  -7   1  -3    0.81    0.07
  -7   1  -3    0.68    0.08
   7  -1   3    0.63    0.08
   7  -1   3    0.60    0.08
   6   0  -3   -0.05    0.04
   6   0  -3   -0.02    0.03
  -6   0   3    0.02    0.04
  -6   0   3   -0.04    0.04
   5   0  -3    0.15    0.04
   5   0  -3    0.11    0.03
  -5   0   3    0.15    0.04
   4   0  -3    0.23    0.03
   4   0  -3    0.28    0.05
   4   0  -3    0.38    0.06
  -4   0   3    0.30    0.06
   3   0  -3    4.64    0.13
   3   0  -3    4.63    0.13
   3   0  -3    4.46    0.13
  -3   0   3    4.76    0.11
  -3   0   3    4.61    0.14
  -3   0   3    4.63    0.13
   2   0  -3    0.14    0.03
   2   0  -3    0.12    0.03
   2   0  -3    0.12    0.01
   2   0  -3    0.19    0.03
  -2   0   3    0.16    0.03
  -2   0   3    0.18    0.03
  -2   0   3    0.17    0.02
   1   0  -3   24.06    0.51
   1   0  -3   23.66    0.51
   1   0  -3   24.47    0.52
   1   0  -3   23.64    0.52
   1   0  -3   23.78    0.52
  -1   0   3   25.08    0.53
  -1   0   3   24.07    0.53
  -1   0   3   24.97    0.51
   0   0  -3    2.37    0.06
   0   0  -3    2.36    0.06
   0   0  -3    2.37    0.06
   0   0  -3    2.37    0.06
   0   0  -3    2.32    0.06
   0   0   3    2.40    0.07
   0   0   3    2.35    0.06
   0   0   3    2.41    0.07
   0   0   3    2.41    0.06
  -1   0  -3   25.08    0.53
  -1   0  -3   24.95    0.53
  -1   0  -3   25.48    0.53
  -1   0  -3   24.72    0.53
   1   0   3   25.63    0.55
   1   0   3   24.59    0.56
   1   0   3   24.52    0.53
   1   0   3   24.54    0.54
  -2   0  -3   12.92    0.28
  -2   0  -3   12.84    0.28
  -2   0  -3   12.83    0.28
   2   0   3   12.41    0.29
   2   0   3   12.54    0.29
   2   0   3   13.05    0.29
   2   0   3   12.95    0.29
  -3   0  -3    1.63    0.05
  -3   0  -3    1.62    0.05
  -3   0  -3    1.61    0.05
   3   0   3    1.66    0.06
   3   0   3    1.60    0.06
   3   0   3    1.66    0.06
   3   0   3    1.61    0.06
  -4   0  -3   13.28    0.30
  -4   0  -3   13.46    0.30
  -4   0  -3   13.28    0.31
  -4   0  -3   13.79    0.30
   4   0   3   13.66    0.33
   4   0   3   13.78    0.32
   4   0   3   13.67    0.32
   4   0   3   14.14    0.31
   4   0   3   13.47    0.33
  -5   0  -3    0.04    0.02
  -5   0  -3    0.04    0.02
  -5   0  -3    0.02    0.02
  -5   0  -3    0.01    0.01
   5   0   3    0.02    0.02
   5   0   3    0.01    0.02
   5   0   3    0.04    0.02
   5   0   3    0.02    0.02
  -6   0  -3    0.31    0.04
  -6   0  -3    0.32    0.05
  -6   0  -3    0.39    0.06
  -6   0  -3    0.33    0.04
   6   0   3    0.35    0.06
   6   0   3    0.30    0.07
  -7   0  -3    0.01    0.02
  -7   0  -3    0.04    0.03
   7   0   3    0.01    0.03
   7   0   3    0.01    0.03
   6  -1  -3    0.31    0.05
   6  -1  -3    0.38    0.07
  -6   1   3    0.41    0.10
   5  -1  -3    1.16    0.08
   5  -1  -3    1.17    0.08
   5  -1  -3    1.25    0.09
  -5   1   3    1.25    0.09
  -5   1   3    1.30    0.10
  -5   1   3    1.11    0.08
   4  -1  -3    0.01    0.02
   4  -1  -3    0.04    0.02
   4  -1  -3    0.04    0.03
  -4   1   3    0.03    0.02
  -4   1   3    0.04    0.02
  -4   1   3    0.05    0.02
   3  -1  -3    0.07    0.02
   3  -1  -3    0.07    0.02
   3  -1  -3    0.08    0.01
  -3   1   3    0.09    0.02
  -3   1   3    0.06    0.02
   2  -1  -3    1.52    0.06
   2  -1  -3    1.53    0.04
   2  -1  -3    1.57    0.06
   2  -1  -3    1.57    0.04
   2  -1  -3    1.66    0.06
  -2   1   3    1.51    0.06
  -2   1   3    1.55    0.06
  -2   1   3    1.61    0.06
   1  -1  -3    1.84    0.06
   1  -1  -3    1.88    0.05
   1  -1  -3    1.85    0.06
   1  -1  -3    1.87    0.05
   1  -1  -3    1.92    0.06
  -1   1   3    1.81    0.06
  -1   1   3    1.89    0.06
  -1   1   3    1.93    0.06
   0  -1  -3   49.44    1.08
   0  -1  -3   49.23    1.06
   0  -1  -3   50.17    1.05
   0  -1  -3   49.55    1.06
   0   1   3   48.33    1.08
   0   1   3   51.05    1.11
   0   1   3   50.06    1.13
   0   1   3   49.80    1.06
  -1  -1  -3  239.85    5.73
  -1  -1  -3  238.92    5.33
  -1  -1  -3  243.58    5.32
  -1  -1  -3  242.11    5.37
   1   1   3  244.11    5.46
   1   1   3  236.98    5.53
   1   1   3  233.00    6.18
   1   1   3  243.16    5.83
   1   1   3  241.10    5.47
  -2  -1  -3   12.45    0.27
  -2  -1  -3   12.46    0.27
  -2  -1  -3   12.80    0.28
  -2  -1  -3   12.59    0.27
   2   1   3   12.70    0.28
   2   1   3   12.78    0.28
   2   1   3   12.38    0.29
   2   1   3   11.75    0.27
   2   1   3   12.20    0.29
  -3  -1  -3    4.88    0.11
  -3  -1  -3    4.83    0.12
  -3  -1  -3    4.68    0.11
  -3  -1  -3    4.67    0.11
   3   1   3    4.68    0.13
   3   1   3    4.72    0.14
   3   1   3    4.82    0.13
   3   1   3    4.84    0.12
   3   1   3    4.55    0.12
  -4  -1  -3    6.69    0.16
  -4  -1  -3    6.86    0.15
  -4  -1  -3    6.66    0.15
  -4  -1  -3    6.38    0.17
  -4  -1  -3    6.59    0.17
   4   1   3    6.82    0.18
   4   1   3    6.72    0.19
   4   1   3    6.68    0.19
   4   1   3    6.53    0.16
  -5  -1  -3    0.31    0.04
  -5  -1  -3    0.27    0.03
  -5  -1  -3    0.25    0.03
   5   1   3    0.29    0.05
   5   1   3    0.29    0.06
   5   1   3    0.26    0.06
   5   1   3    0.30    0.04
  -6  -1  -3    0.03    0.02
  -6  -1  -3    0.02    0.02
   6   1   3    0.02    0.03
   6   1   3    0.01    0.03
   6   1   3    0.03    0.03
  -7  -1  -3    1.00    0.07
  -7  -1  -3    1.05    0.08
   7   1   3    1.04    0.10
   7   1   3    0.96    0.11
   6  -2  -3    0.21    0.04
   6  -2  -3    0.17    0.05
  -6   2   3    0.13    0.04
  -6   2   3    0.23    0.05
   5  -2  -3    1.08    0.09
   5  -2  -3    1.17    0.08
   5  -2  -3    0.98    0.08
  -5   2   3    0.96    0.10
  -5   2   3    1.07    0.08
   4  -2  -3    0.32    0.06
   4  -2  -3    0.31    0.06
   4  -2  -3    0.36    0.04
  -4   2   3    0.29    0.06
  -4   2   3    0.29    0.05
   3  -2  -3   32.89    0.73
   3  -2  -3   33.61    0.73
   3  -2  -3   35.00    0.75
   3  -2  -3   35.08    0.75
   3  -2  -3   33.72    0.75
  -3   2   3   34.51    0.75
  -3   2   3   34.61    0.76
  -3   2   3   36.12    0.74
   2  -2  -3    0.18    0.02
   2  -2  -3    0.19    0.02
   2  -2  -3    0.20    0.03
   2  -2  -3    0.24    0.03
  -2   2   3    0.19    0.03
  -2   2   3    0.19    0.04
  -2   2   3    0.16    0.03
   1  -2  -3    0.18    0.02
   1  -2  -3    0.22    0.02
   1  -2  -3    0.17    0.02
   1  -2  -3    0.21    0.03
  -1   2   3    0.23    0.02
  -1   2   3    0.17    0.03
   0  -2  -3   16.88    0.36
   0  -2  -3   17.01    0.36
   0  -2  -3   16.90    0.37
   0  -2  -3   17.25    0.36
   0  -2  -3   17.12    0.36
   0   2   3   16.00    0.37
   0   2   3   16.97    0.37
   0   2   3   16.93    0.37
  -1  -2  -3   16.49    0.34
  -1  -2  -3   15.55    0.35
  -1  -2  -3   16.09    0.35
  -1  -2  -3   16.52    0.34
  -1  -2  -3   16.29    0.35
   1   2   3   15.76    0.36
   1   2   3   15.71    0.36
   1   2   3   16.45    0.35
   1   2   3   15.88    0.35
  -2  -2  -3    3.14    0.07
  -2  -2  -3    2.98    0.08
  -2  -2  -3    3.09    0.08
  -2  -2  -3    3.10    0.07
   2   2   3    3.03    0.08
   2   2   3    3.04    0.08
   2   2   3    3.03    0.10
   2   2   3    3.03    0.09
  -3  -2  -3    7.81    0.18
  -3  -2  -3    7.89    0.19
  -3  -2  -3    8.10    0.19
  -3  -2  -3    7.93    0.18
   3   2   3    8.06    0.19
   3   2   3    7.88    0.20
   3   2   3    7.66    0.19
   3   2   3    7.87    0.21
  -4  -2  -3   85.93    1.77
  -4  -2  -3   82.45    1.78
  -4  -2  -3   84.13    1.76
  -4  -2  -3   84.55    1.80
   4   2   3   83.22    1.78
   4   2   3   84.60    1.81
   4   2   3   81.43    1.83
   4   2   3   85.54    1.79
  -5  -2  -3    0.12    0.02
  -5  -2  -3    0.10    0.02
  -5  -2  -3    0.09    0.02
   5   2   3    0.14    0.03
   5   2   3    0.14    0.03
   5   2   3    0.11    0.03
   5   2   3    0.09    0.03
  -6  -2  -3    0.02    0.02
  -6  -2  -3    0.03    0.02
  -6  -2  -3    0.04    0.03
   6   2   3    0.01    0.03
   6   2   3    0.01    0.03
   6   2   3    0.04    0.04
   5  -3  -3    0.13    0.03
   5  -3  -3    0.11    0.03
   5  -3  -3    0.08    0.03
  -5   3   3    0.16    0.03
  -5   3   3    0.17    0.04
   4  -3  -3    2.62    0.11
   4  -3  -3    2.60    0.10
   4  -3  -3    2.61    0.08
   4  -3  -3    2.64    0.09
  -4   3   3    2.65    0.10
  -4   3   3    2.69    0.10
  -4   3   3    2.79    0.11
   3  -3  -3   27.68    0.61
   3  -3  -3   27.70    0.61
   3  -3  -3   28.68    0.62
   3  -3  -3   28.47    0.63
  -3   3   3   27.91    0.62
  -3   3   3   29.44    0.63
  -3   3   3   27.94    0.62
   2  -3  -3    0.05    0.01
   2  -3  -3    0.05    0.01
   2  -3  -3    0.05    0.02
   2  -3  -3    0.04    0.02
  -2   3   3    0.03    0.01
  -2   3   3    0.03    0.02
  -2   3   3    0.05    0.02
   1  -3  -3    3.53    0.09
   1  -3  -3    3.52    0.09
   1  -3  -3    3.51    0.09
   1  -3  -3    3.53    0.09
   1  -3  -3    3.51    0.10
  -1   3   3    3.39    0.10
  -1   3   3    3.49    0.09
  -1   3   3    3.42    0.10
   0  -3  -3    7.05    0.16
   0  -3  -3    7.04    0.16
   0  -3  -3    7.21    0.16
   0  -3  -3    7.39    0.16
   0  -3  -3    7.10    0.17
   0   3   3    7.03    0.16
   0   3   3    7.16    0.17
   0   3   3    6.57    0.17
   0   3   3    6.91    0.16
  -1  -3  -3   27.04    0.56
  -1  -3  -3   26.36    0.56
  -1  -3  -3   27.15    0.56
  -1  -3  -3   26.33    0.56
  -1  -3  -3   26.19    0.56
   1   3   3   26.93    0.56
   1   3   3   25.19    0.58
   1   3   3   25.59    0.57
   1   3   3   25.38    0.57
  -2  -3  -3    7.76    0.18
  -2  -3  -3    7.61    0.18
  -2  -3  -3    7.59    0.17
  -2  -3  -3    7.60    0.17
   2   3   3    7.61    0.20
   2   3   3    7.41    0.19
   2   3   3    7.48    0.18
  -3  -3  -3    4.30    0.10
  -3  -3  -3    4.25    0.10
  -3  -3  -3    4.27    0.12
  -3  -3  -3    4.32    0.11
   3   3   3    4.06    0.12
   3   3   3    4.20    0.14
   3   3   3    3.99    0.13
  -4  -3  -3   27.35    0.59
  -4  -3  -3   27.88    0.60
  -4  -3  -3   26.98    0.58
   4   3   3   26.65    0.60
   4   3   3   26.61    0.62
   4   3   3   27.42    0.63
  -5  -3  -3    1.88    0.08
  -5  -3  -3    1.89    0.08
   5   3   3    1.92    0.09
   5   3   3    1.87    0.10
   5   3   3    1.90    0.11
  -6  -3  -3    1.67    0.09
  -6  -3  -3    1.59    0.08
   6   3   3    1.73    0.09
   6   3   3    1.67    0.12
   6   3   3    1.64    0.11
   5  -4  -3    0.07    0.03
   5  -4  -3    0.05    0.03
   5  -4  -3    0.02    0.03
   5  -4  -3    0.01    0.03
  -5   4   3    0.03    0.04
  -5   4   3    0.05    0.03
   4  -4  -3    0.93    0.06
   4  -4  -3    0.90    0.06
   4  -4  -3    0.91    0.08
  -4   4   3    0.85    0.07
  -4   4   3    0.97    0.08
   3  -4  -3    0.97    0.05
   3  -4  -3    0.91    0.07
   3  -4  -3    0.95    0.05
   3  -4  -3    0.94    0.07
  -3   4   3    0.92    0.08
  -3   4   3    0.86    0.06
  -3   4   3    0.92    0.07
   2  -4  -3    0.00    0.01
   2  -4  -3    0.00    0.02
   2  -4  -3   -0.02    0.01
   2  -4  -3   -0.01    0.02
   2  -4  -3   -0.01    0.01
  -2   4   3   -0.02    0.01
   1  -4  -3   11.74    0.26
   1  -4  -3   11.48    0.26
   1  -4  -3   11.75    0.26
   1  -4  -3   11.16    0.27
  -1   4   3   11.32    0.26
  -1   4   3   11.57    0.27
  -1   4   3   11.33    0.27
   0  -4  -3   10.13    0.23
   0  -4  -3   10.00    0.22
   0  -4  -3    9.96    0.22
   0  -4  -3    9.94    0.22
   0  -4  -3   10.08    0.23
   0   4   3    9.51    0.24
   0   4   3    9.72    0.23
   0   4   3    9.89    0.23
  -1  -4  -3    6.25    0.15
  -1  -4  -3    6.68    0.15
  -1  -4  -3    6.63    0.15
  -1  -4  -3    6.17    0.15
  -1  -4  -3    6.27    0.15
   1   4   3    6.16    0.16
   1   4   3    6.00    0.17
   1   4   3    6.40    0.15
   1   4   3    6.20    0.16
  -2  -4  -3    5.58    0.13
  -2  -4  -3    5.72    0.13
  -2  -4  -3    5.80    0.14
  -2  -4  -3    5.72    0.14
   2   4   3    5.70    0.15
   2   4   3    5.46    0.13
   2   4   3    5.64    0.15
   2   4   3    5.40    0.16
  -3  -4  -3    0.07    0.02
  -3  -4  -3    0.07    0.02
  -3  -4  -3    0.13    0.02
  -3  -4  -3    0.13    0.02
   3   4   3    0.11    0.03
   3   4   3    0.10    0.02
  -4  -4  -3    2.05    0.08
  -4  -4  -3    2.02    0.10
  -4  -4  -3    2.08    0.08
   4   4   3    2.03    0.09
   4   4   3    2.06    0.11
   4   4   3    2.02    0.10
  -5  -4  -3    0.09    0.02
  -5  -4  -3    0.07    0.02
   5   4   3    0.06    0.03
   5   4   3    0.10    0.03
   5   4   3    0.15    0.04
  -6  -4  -3    1.51    0.08
  -6  -4  -3    1.70    0.09
   6   4   3    1.70    0.13
   6   4   3    1.78    0.10
   6   4   3    1.62    0.11
   4  -5  -3    0.03    0.03
   4  -5  -3    0.06    0.03
   4  -5  -3   -0.01    0.03
  -4   5   3   -0.03    0.03
  -4   5   3   -0.03    0.03
   3  -5  -3    0.10    0.03
   3  -5  -3    0.10    0.03
   3  -5  -3    0.10    0.03
  -3   5   3    0.08    0.03
  -3   5   3    0.08    0.03
   2  -5  -3    0.00    0.02
   2  -5  -3    0.00    0.02
   2  -5  -3    0.00    0.02
   2  -5  -3    0.01    0.02
  -2   5   3   -0.01    0.03
  -2   5   3    0.01    0.02
   1  -5  -3    3.34    0.11
   1  -5  -3    3.07    0.09
   1  -5  -3    3.19    0.10
   1  -5  -3    3.18    0.09
  -1   5   3    3.08    0.11
  -1   5   3    3.31    0.11
  -1   5   3    3.16    0.10
   0  -5  -3    0.01    0.02
   0  -5  -3    0.00    0.02
   0  -5  -3   -0.02    0.02
   0  -5  -3   -0.03    0.02
   0   5   3    0.00    0.01
   0   5   3    0.00    0.02
   0   5   3    0.01    0.02
  -1  -5  -3    4.51    0.12
  -1  -5  -3    4.58    0.12
  -1  -5  -3    4.62    0.12
  -1  -5  -3    4.63    0.12
   1   5   3    4.54    0.13
   1   5   3    4.44    0.14
   1   5   3    4.48    0.12
  -2  -5  -3    1.89    0.06
  -2  -5  -3    1.76    0.08
  -2  -5  -3    1.88    0.06
  -2  -5  -3    1.83    0.07
  -2  -5  -3    1.84    0.07
   2   5   3    1.71    0.08
   2   5   3    1.79    0.06
   2   5   3    1.81    0.08
   2   5   3    1.84    0.10
  -3  -5  -3   -0.02    0.02
  -3  -5  -3   -0.01    0.02
   3   5   3    0.00    0.02
   3   5   3   -0.01    0.02
   3   5   3   -0.01    0.02
  -4  -5  -3    1.57    0.08
  -4  -5  -3    1.55    0.07
   4   5   3    1.60    0.09
   4   5   3    1.62    0.11
   4   5   3    1.59    0.09
  -5  -5  -3    0.51    0.06
  -5  -5  -3    0.52    0.07
   5   5   3    0.71    0.10
   5   5   3    0.76    0.08
   5   5   3    0.56    0.08
   3  -6  -3    0.93    0.07
   3  -6  -3    1.04    0.07
   3  -6  -3    1.16    0.09
  -3   6   3    1.05    0.09
  -3   6   3    0.93    0.08
  -3   6   3    1.06    0.09
   2  -6  -3    0.01    0.03
   2  -6  -3    0.07    0.03
   2  -6  -3    0.03    0.03
   2  -6  -3   -0.01    0.02
  -2   6   3    0.02    0.03
  -2   6   3    0.02    0.03
  -2   6   3    0.05    0.02
   1  -6  -3    0.00    0.02
   1  -6  -3   -0.04    0.02
   1  -6  -3   -0.02    0.02
  -1   6   3   -0.02    0.03
  -1   6   3   -0.01    0.02
  -1   6   3   -0.03    0.02
   0  -6  -3    1.02    0.06
   0  -6  -3    1.07    0.06
   0  -6  -3    1.03    0.06
   0   6   3    1.07    0.07
   0   6   3    1.01    0.06
  -1  -6  -3    7.66    0.20
  -1  -6  -3    7.99    0.19
  -1  -6  -3    7.89    0.19
   1   6   3    7.55    0.19
   1   6   3    7.42    0.22
   1   6   3    8.10    0.21
  -2  -6  -3    0.08    0.02
  -2  -6  -3    0.11    0.02
  -2  -6  -3    0.10    0.03
   2   6   3    0.11    0.03
   2   6   3    0.14    0.03
  -3  -6  -3    1.02    0.07
  -3  -6  -3    1.07    0.07
   3   6   3    1.23    0.10
   3   6   3    1.16    0.08
  -4  -6  -3    5.58    0.17
  -4  -6  -3    5.78    0.17
   4   6   3    6.38    0.23
   4   6   3    6.12    0.20
   2  -7  -3    0.01    0.03
   2  -7  -3    0.05    0.03
  -2   7   3    0.06    0.03
  -2   7   3    0.09    0.04
  -2   7   3   -0.01    0.03
   1  -7  -3   -0.03    0.03
   1  -7  -3    0.02    0.03
   1  -7  -3    0.03    0.02
  -1   7   3    0.04    0.03
  -1   7   3   -0.03    0.03
   0  -7  -3    0.00    0.02
   0  -7  -3    0.06    0.02
   0  -7  -3    0.02    0.03
   0   7   3   -0.02    0.02
   0   7   3    0.04    0.03
  -1  -7  -3    0.11    0.03
  -1  -7  -3    0.16    0.03
   1   7   3    0.14    0.03
  -2  -7  -3   -0.04    0.03
   2   7   3    0.01    0.03
  -3  -7  -3    2.59    0.12
   3   7   3    3.07    0.14
   2   5  -4    0.55    0.07
  -2  -5   4    0.57    0.07
   1   5  -4    2.65    0.11
  -1  -5   4    2.52    0.11
  -1  -5   4    2.63    0.10
   0   5  -4    0.90    0.07
   0   5  -4    0.96    0.07
   0  -5   4    0.83    0.07
   0  -5   4    0.93    0.07
  -1   5  -4    0.01    0.02
  -1   5  -4   -0.01    0.02
   1  -5   4    0.00    0.03
   1  -5   4    0.00    0.03
  -2   5  -4    1.19    0.08
  -2   5  -4    1.22    0.06
  -2   5  -4    1.12    0.08
  -2   5  -4    1.22    0.07
   2  -5   4    1.19    0.09
   2  -5   4    1.17    0.07
   2  -5   4    1.18    0.07
   2  -5   4    1.06    0.08
  -3   5  -4    0.39    0.05
  -3   5  -4    0.30    0.06
  -3   5  -4    0.35    0.05
   3  -5   4    0.35    0.06
   3  -5   4    0.42    0.07
   3   4  -4    0.10    0.03
   3   4  -4    0.10    0.04
  -3  -4   4    0.08    0.03
   2   4  -4    2.35    0.10
   2   4  -4    2.27    0.11
  -2  -4   4    2.25    0.09
  -2  -4   4    2.27    0.11
   1   4  -4    0.32    0.05
   1   4  -4    0.36    0.05
  -1  -4   4    0.37    0.05
  -1  -4   4    0.41    0.05
   0   4  -4    1.80    0.08
   0   4  -4    1.88    0.08
   0  -4   4    1.93    0.08
   0  -4   4    1.86    0.08
   0  -4   4    1.75    0.08
  -1   4  -4    1.03    0.06
  -1   4  -4    1.12    0.05
  -1   4  -4    1.02    0.06
   1  -4   4    1.10    0.07
   1  -4   4    1.06    0.06
   1  -4   4    1.03    0.06
  -2   4  -4    0.30    0.04
  -2   4  -4    0.17    0.03
  -2   4  -4    0.28    0.04
   2  -4   4    0.31    0.05
   2  -4   4    0.21    0.03
   2  -4   4    0.29    0.06
   2  -4   4    0.20    0.03
  -3   4  -4    2.61    0.10
  -3   4  -4    2.58    0.09
  -3   4  -4    2.80    0.11
  -3   4  -4    2.58    0.09
   3  -4   4    2.57    0.10
   3  -4   4    2.70    0.11
   3  -4   4    2.55    0.09
   3  -4   4    2.80    0.11
  -4   4  -4    0.34    0.05
  -4   4  -4    0.21    0.03
  -4   4  -4    0.23    0.03
  -4   4  -4    0.35    0.07
   4  -4   4    0.26    0.04
   4  -4   4    0.23    0.04
  -5   4  -4    0.22    0.04
   5  -4   4    0.25    0.04
   4   3  -4   -0.01    0.03
   4   3  -4    0.00    0.03
  -4  -3   4    0.01    0.03
  -4  -3   4   -0.01    0.03
   3   3  -4    0.93    0.08
   3   3  -4    1.01    0.07
  -3  -3   4    0.91    0.07
  -3  -3   4    0.99    0.08
  -3  -3   4    0.92    0.09
   2   3  -4    1.14    0.06
   2   3  -4    1.14    0.07
   2   3  -4    1.12    0.07
  -2  -3   4    0.99    0.06
  -2  -3   4    0.94    0.08
  -2  -3   4    1.11    0.07
   1   3  -4    4.24    0.13
   1   3  -4    4.49    0.12
   1   3  -4    4.36    0.13
  -1  -3   4    4.16    0.12
  -1  -3   4    4.52    0.12
  -1  -3   4    4.34    0.14
   0   3  -4   16.36    0.37
   0   3  -4   15.54    0.36
   0  -3   4   16.43    0.36
   0  -3   4   16.34    0.37
   0  -3   4   15.57    0.37
  -1   3  -4    4.28    0.12
  -1   3  -4    4.14    0.12
  -1   3  -4    4.24    0.11
  -1   3  -4    4.11    0.11
   1  -3   4    3.98    0.12
   1  -3   4    4.09    0.11
   1  -3   4    4.13    0.12
   1  -3   4    4.18    0.12
  -2   3  -4    0.20    0.04
  -2   3  -4    0.16    0.02
  -2   3  -4    0.23    0.04
  -2   3  -4    0.16    0.02
   2  -3   4    0.17    0.02
   2  -3   4    0.15    0.02
   2  -3   4    0.18    0.04
   2  -3   4    0.13    0.03
  -3   3  -4    1.83    0.07
  -3   3  -4    1.98    0.08
  -3   3  -4    1.82    0.07
  -3   3  -4    1.67    0.07
   3  -3   4    1.80    0.09
   3  -3   4    1.77    0.07
   3  -3   4    1.74    0.08
   3  -3   4    1.76    0.07
  -4   3  -4    0.00    0.02
  -4   3  -4    0.00    0.02
  -4   3  -4   -0.04    0.02
  -4   3  -4   -0.01    0.02
   4  -3   4   -0.02    0.02
   4  -3   4    0.00    0.02
   4  -3   4    0.03    0.03
   4  -3   4    0.01    0.03
  -5   3  -4   -0.02    0.03
  -5   3  -4   -0.05    0.02
   5  -3   4   -0.05    0.03
   5  -3   4   -0.04    0.03
   5  -3   4    0.03    0.03
   4   2  -4    7.81    0.22
   4   2  -4    7.62    0.23
  -4  -2   4    7.95    0.24
  -4  -2   4    7.76    0.22
  -4  -2   4    8.20    0.23
   3   2  -4    0.01    0.02
   3   2  -4   -0.04    0.03
   3   2  -4    0.03    0.02
  -3  -2   4    0.00    0.03
  -3  -2   4   -0.02    0.03
  -3  -2   4    0.01    0.02
   2   2  -4    0.00    0.01
   2   2  -4   -0.01    0.02
   2   2  -4    0.01    0.02
  -2  -2   4   -0.03    0.02
   1   2  -4    5.43    0.15
   1   2  -4    5.38    0.14
   1   2  -4    5.24    0.14
  -1  -2   4    5.34    0.15
  -1  -2   4    5.58    0.13
  -1  -2   4    5.16    0.14
  -1  -2   4    5.29    0.14
   0   2  -4    1.91    0.07
   0   2  -4    1.93    0.06
   0   2  -4    1.93    0.05
   0   2  -4    1.97    0.07
   0   2  -4    1.96    0.05
   0  -2   4    1.99    0.07
   0  -2   4    1.92    0.07
   0  -2   4    1.90    0.07
   0  -2   4    1.99    0.07
  -1   2  -4    5.35    0.13
  -1   2  -4    5.56    0.13
  -1   2  -4    5.51    0.14
  -1   2  -4    5.49    0.13
   1  -2   4    5.39    0.14
   1  -2   4    5.57    0.14
   1  -2   4    5.27    0.14
  -2   2  -4    1.71    0.06
  -2   2  -4    1.75    0.06
  -2   2  -4    1.57    0.06
  -2   2  -4    1.60    0.06
   2  -2   4    1.75    0.06
   2  -2   4    1.66    0.07
   2  -2   4    1.67    0.07
   2  -2   4    1.63    0.07
  -3   2  -4   64.56    1.33
  -3   2  -4   62.49    1.34
  -3   2  -4   61.30    1.34
  -3   2  -4   63.25    1.34
   3  -2   4   63.27    1.35
   3  -2   4   64.13    1.34
   3  -2   4   62.67    1.34
   3  -2   4   62.63    1.35
   3  -2   4   64.07    1.35
  -4   2  -4   -0.04    0.02
  -4   2  -4    0.01    0.02
  -4   2  -4   -0.04    0.02
   4  -2   4   -0.04    0.02
   4  -2   4    0.01    0.02
   4  -2   4   -0.01    0.03
   4  -2   4    0.03    0.02
  -5   2  -4   -0.03    0.02
  -5   2  -4   -0.04    0.02
  -5   2  -4    0.00    0.02
   5  -2   4   -0.01    0.03
   5  -2   4    0.00    0.03
   5  -2   4    0.02    0.03
  -6   2  -4    0.17    0.03
  -6   2  -4    0.16    0.03
  -6   2  -4    0.17    0.03
   6  -2   4    0.14    0.04
   5   1  -4    0.85    0.09
   5   1  -4    0.81    0.09
  -5  -1   4    0.97    0.12
   4   1  -4   15.42    0.39
   4   1  -4   15.63    0.38
   4   1  -4   15.69    0.38
  -4  -1   4   16.48    0.40
  -4  -1   4   16.07    0.39
   3   1  -4    0.95    0.06
   3   1  -4    0.98    0.06
  -3  -1   4    0.88    0.07
  -3  -1   4    0.76    0.08
  -3  -1   4    0.88    0.05
   2   1  -4    0.86    0.05
   2   1  -4    0.89    0.05
   2   1  -4    0.81    0.06
  -2  -1   4    0.80    0.06
  -2  -1   4    0.85    0.06
  -2  -1   4    1.00    0.05
   1   1  -4    5.40    0.14
   1   1  -4    5.28    0.14
   1   1  -4    5.26    0.13
   1   1  -4    5.18    0.12
  -1  -1   4    5.36    0.14
  -1  -1   4    5.35    0.13
  -1  -1   4    5.28    0.14
  -1  -1   4    5.58    0.13
   0   1  -4   18.17    0.39
   0   1  -4   17.48    0.39
   0   1  -4   16.99    0.39
   0   1  -4   17.42    0.38
   0   1  -4   17.45    0.38
   0  -1   4   18.01    0.38
   0  -1   4   17.83    0.39
   0  -1   4   17.95    0.39
   0  -1   4   17.50    0.39
  -1   1  -4    5.35    0.12
  -1   1  -4    5.20    0.13
  -1   1  -4    5.35    0.12
  -1   1  -4    5.39    0.13
   1  -1   4    5.23    0.14
   1  -1   4    5.40    0.13
   1  -1   4    5.20    0.13
   1  -1   4    5.38    0.13
  -2   1  -4    4.79    0.12
  -2   1  -4    4.71    0.12
  -2   1  -4    4.74    0.12
  -2   1  -4    4.72    0.11
   2  -1   4    4.77    0.13
   2  -1   4    4.77    0.13
   2  -1   4    4.55    0.13
  -3   1  -4   52.76    1.07
  -3   1  -4   49.52    1.08
  -3   1  -4   50.02    1.07
  -3   1  -4   50.64    1.08
   3  -1   4   52.02    1.09
   3  -1   4   50.26    1.09
   3  -1   4   49.82    1.09
  -4   1  -4    0.03    0.02
  -4   1  -4    0.06    0.02
  -4   1  -4    0.07    0.02
   4  -1   4    0.03    0.02
   4  -1   4    0.03    0.02
   4  -1   4    0.06    0.02
  -5   1  -4    1.31    0.06
  -5   1  -4    1.42    0.07
  -5   1  -4    1.30    0.06
   5  -1   4    1.40    0.08
   5  -1   4    1.43    0.09
   5  -1   4    1.33    0.08
  -6   1  -4    1.06    0.07
  -6   1  -4    1.03    0.06
  -6   1  -4    0.99    0.06
   6  -1   4    1.01    0.09
   6  -1   4    1.08    0.08
   6  -1   4    1.11    0.08
   5   0  -4    1.21    0.09
   5   0  -4    1.30    0.10
  -5   0   4    1.02    0.10
  -5   0   4    1.40    0.12
  -5   0   4    1.48    0.09
   4   0  -4    1.95    0.10
   4   0  -4    2.14    0.09
   4   0  -4    2.08    0.10
  -4   0   4    2.02    0.10
  -4   0   4    2.29    0.11
   3   0  -4    0.57    0.05
   3   0  -4    0.55    0.05
  -3   0   4    0.49    0.06
  -3   0   4    0.50    0.06
   2   0  -4    9.14    0.22
   2   0  -4    8.29    0.20
   2   0  -4    8.92    0.22
   2   0  -4    9.02    0.22
  -2   0   4    9.26    0.22
  -2   0   4    9.38    0.20
  -2   0   4    9.05    0.23
   1   0  -4   20.78    0.47
   1   0  -4   20.93    0.45
   1   0  -4   20.97    0.47
   1   0  -4   21.30    0.47
   1   0  -4   20.94    0.45
  -1   0   4   21.93    0.47
  -1   0   4   22.45    0.46
  -1   0   4   21.29    0.47
   0   0  -4   16.75    0.36
   0   0  -4   16.71    0.35
   0   0  -4   16.75    0.36
   0   0  -4   15.96    0.36
   0   0  -4   16.59    0.35
   0   0   4   16.88    0.37
   0   0   4   16.62    0.36
   0   0   4   16.67    0.37
   0   0   4   16.63    0.36
   0   0   4   16.12    0.36
  -1   0  -4    2.51    0.06
  -1   0  -4    2.53    0.06
  -1   0  -4    2.54    0.06
  -1   0  -4    2.49    0.07
   1   0   4    2.48    0.07
   1   0   4    2.44    0.08
   1   0   4    2.47    0.07
   1   0   4    2.48    0.07
  -2   0  -4    4.15    0.10
  -2   0  -4    4.18    0.10
  -2   0  -4    4.19    0.10
   2   0   4    3.99    0.11
   2   0   4    4.01    0.11
   2   0   4    4.15    0.11
   2   0   4    4.18    0.11
  -3   0  -4    4.98    0.12
  -3   0  -4    4.79    0.12
  -3   0  -4    4.85    0.12
   3   0   4    4.87    0.13
   3   0   4    4.59    0.14
   3   0   4    4.93    0.13
   3   0   4    4.71    0.13
  -4   0  -4    0.02    0.01
  -4   0  -4    0.03    0.01
  -4   0  -4    0.01    0.01
   4   0   4    0.02    0.02
   4   0   4    0.01    0.02
   4   0   4   -0.01    0.02
   4   0   4   -0.01    0.02
  -5   0  -4    2.42    0.08
  -5   0  -4    2.49    0.08
  -5   0  -4    2.41    0.09
  -5   0  -4    2.43    0.08
   5   0   4    2.43    0.10
   5   0   4    2.43    0.10
   5   0   4    2.50    0.11
   5   0   4    2.56    0.11
  -6   0  -4    1.73    0.08
  -6   0  -4    1.77    0.07
  -6   0  -4    1.78    0.09
  -6   0  -4    1.76    0.07
   6   0   4    1.66    0.11
   6   0   4    1.77    0.10
   6   0   4    1.75    0.09
  -7   0  -4    0.07    0.03
   7   0   4    0.01    0.03
   7   0   4   -0.01    0.03
   5  -1  -4    0.01    0.04
   5  -1  -4    0.01    0.03
   5  -1  -4   -0.02    0.03
  -5   1   4   -0.01    0.04
  -5   1   4    0.06    0.04
   4  -1  -4    0.24    0.04
   4  -1  -4    0.30    0.07
   4  -1  -4    0.21    0.03
  -4   1   4    0.33    0.06
  -4   1   4    0.18    0.03
  -4   1   4    0.29    0.07
   3  -1  -4    0.14    0.03
   3  -1  -4    0.11    0.02
   3  -1  -4    0.15    0.03
   3  -1  -4    0.16    0.03
  -3   1   4    0.21    0.05
  -3   1   4    0.10    0.02
  -3   1   4    0.14    0.02
   2  -1  -4    7.73    0.19
   2  -1  -4    7.69    0.19
   2  -1  -4    7.55    0.17
   2  -1  -4    7.25    0.17
   2  -1  -4    7.60    0.19
  -2   1   4    7.40    0.19
  -2   1   4    7.75    0.20
  -2   1   4    7.94    0.19
   1  -1  -4    0.03    0.01
   1  -1  -4    0.03    0.01
   1  -1  -4    0.01    0.01
   1  -1  -4    0.03    0.01
   1  -1  -4    0.01    0.01
  -1   1   4    0.02    0.01
  -1   1   4    0.03    0.01
  -1   1   4    0.00    0.01
   0  -1  -4   29.35    0.64
   0  -1  -4   30.37    0.64
   0  -1  -4   30.46    0.64
   0  -1  -4   29.61    0.64
   0   1   4   30.07    0.65
   0   1   4   30.36    0.64
   0   1   4   30.63    0.69
   0   1   4   30.19    0.68
  -1  -1  -4    6.97    0.16
  -1  -1  -4    7.07    0.16
  -1  -1  -4    7.03    0.16
  -1  -1  -4    7.14    0.16
   1   1   4    6.82    0.17
   1   1   4    7.15    0.16
   1   1   4    7.10    0.16
   1   1   4    6.88    0.16
   1   1   4    6.92    0.17
  -2  -1  -4    1.57    0.05
  -2  -1  -4    1.54    0.05
  -2  -1  -4    1.57    0.05
  -2  -1  -4    1.58    0.05
   2   1   4    1.53    0.06
   2   1   4    1.57    0.06
   2   1   4    1.56    0.05
   2   1   4    1.54    0.06
  -3  -1  -4   23.76    0.49
  -3  -1  -4   23.22    0.50
  -3  -1  -4   22.67    0.49
  -3  -1  -4   23.65    0.51
   3   1   4   22.19    0.52
   3   1   4   23.22    0.51
   3   1   4   22.39    0.52
   3   1   4   23.34    0.51
  -4  -1  -4    0.29    0.04
  -4  -1  -4    0.33    0.03
  -4  -1  -4    0.33    0.03
  -4  -1  -4    0.33    0.03
   4   1   4    0.34    0.04
   4   1   4    0.31    0.05
   4   1   4    0.33    0.04
   4   1   4    0.34    0.05
  -5  -1  -4    0.36    0.05
  -5  -1  -4    0.42    0.04
  -5  -1  -4    0.39    0.05
  -5  -1  -4    0.39    0.03
   5   1   4    0.40    0.05
   5   1   4    0.40    0.06
   5   1   4    0.39    0.06
  -6  -1  -4    0.29    0.04
  -6  -1  -4    0.31    0.05
  -6  -1  -4    0.32    0.04
  -6  -1  -4    0.36    0.06
   6   1   4    0.33    0.06
   6   1   4    0.31    0.07
   6   1   4    0.30    0.07
  -7  -1  -4    3.03    0.13
   7   1   4    3.22    0.15
   7   1   4    3.16    0.13
   5  -2  -4   -0.01    0.04
   5  -2  -4    0.00    0.03
   5  -2  -4   -0.04    0.03
  -5   2   4   -0.01    0.03
  -5   2   4   -0.04    0.04
   4  -2  -4    0.63    0.07
   4  -2  -4    0.74    0.07
   4  -2  -4    0.67    0.07
  -4   2   4    0.76    0.08
  -4   2   4    0.76    0.07
   3  -2  -4    0.41    0.03
   3  -2  -4    0.40    0.05
   3  -2  -4    0.55    0.06
   3  -2  -4    0.44    0.03
   3  -2  -4    0.48    0.05
  -3   2   4    0.47    0.05
  -3   2   4    0.47    0.06
  -3   2   4    0.38    0.05
   2  -2  -4    0.10    0.02
   2  -2  -4    0.12    0.01
   2  -2  -4    0.09    0.02
   2  -2  -4    0.14    0.02
  -2   2   4    0.10    0.02
  -2   2   4    0.09    0.02
  -2   2   4    0.11    0.02
   1  -2  -4   10.06    0.22
   1  -2  -4   10.12    0.23
   1  -2  -4    9.99    0.23
   1  -2  -4    9.97    0.22
  -1   2   4    9.91    0.23
  -1   2   4   10.16    0.24
  -1   2   4    9.93    0.23
   0  -2  -4   82.61    1.82
   0  -2  -4   82.03    1.75
   0  -2  -4   83.12    1.77
   0  -2  -4   80.74    1.77
   0  -2  -4   83.16    1.77
   0   2   4   85.45    1.86
   0   2   4   84.03    1.80
   0   2   4   80.77    1.81
  -1  -2  -4    5.67    0.13
  -1  -2  -4    5.78    0.13
  -1  -2  -4    5.64    0.13
  -1  -2  -4    5.70    0.13
   1   2   4    5.63    0.14
   1   2   4    5.52    0.15
   1   2   4    5.78    0.13
   1   2   4    5.61    0.14
  -2  -2  -4    3.81    0.09
  -2  -2  -4    3.80    0.09
  -2  -2  -4    3.74    0.10
  -2  -2  -4    3.76    0.09
   2   2   4    3.62    0.11
   2   2   4    3.67    0.10
   2   2   4    3.64    0.09
   2   2   4    3.69    0.11
  -3  -2  -4   18.13    0.39
  -3  -2  -4   18.49    0.39
  -3  -2  -4   18.78    0.41
  -3  -2  -4   17.99    0.41
   3   2   4   18.06    0.43
   3   2   4   17.65    0.40
   3   2   4   18.37    0.42
   3   2   4   18.27    0.41
  -4  -2  -4    0.00    0.02
  -4  -2  -4   -0.01    0.02
  -4  -2  -4    0.01    0.01
  -4  -2  -4    0.01    0.01
   4   2   4    0.01    0.02
   4   2   4    0.01    0.02
   4   2   4    0.02    0.01
   4   2   4    0.01    0.02
  -5  -2  -4    0.24    0.03
  -5  -2  -4    0.27    0.05
  -5  -2  -4    0.27    0.04
  -5  -2  -4    0.26    0.03
   5   2   4    0.27    0.05
   5   2   4    0.29    0.06
   5   2   4    0.30    0.06
  -6  -2  -4    2.88    0.11
  -6  -2  -4    2.84    0.11
   6   2   4    2.73    0.14
   6   2   4    2.94    0.12
   6   2   4    2.84    0.13
   5  -3  -4    0.21    0.04
   5  -3  -4    0.39    0.08
  -5   3   4    0.13    0.04
  -5   3   4    0.24    0.05
   4  -3  -4    8.43    0.23
   4  -3  -4    8.08    0.21
   4  -3  -4    8.40    0.23
  -4   3   4    9.20    0.25
  -4   3   4    8.97    0.23
   3  -3  -4    0.02    0.02
   3  -3  -4    0.02    0.02
   3  -3  -4    0.03    0.02
   3  -3  -4    0.02    0.02
  -3   3   4    0.04    0.03
  -3   3   4    0.04    0.02
   2  -3  -4    0.00    0.02
   2  -3  -4    0.03    0.02
   2  -3  -4   -0.03    0.01
  -2   3   4    0.00    0.02
  -2   3   4   -0.01    0.02
   1  -3  -4    1.04    0.05
   1  -3  -4    1.11    0.04
   1  -3  -4    1.07    0.05
   1  -3  -4    1.11    0.04
  -1   3   4    1.06    0.05
  -1   3   4    1.07    0.06
  -1   3   4    1.10    0.05
  -1   3   4    1.09    0.04
   0  -3  -4    1.86    0.05
   0  -3  -4    1.67    0.05
   0  -3  -4    1.77    0.05
   0  -3  -4    1.73    0.06
   0  -3  -4    1.81    0.05
   0   3   4    1.67    0.07
   0   3   4    1.73    0.05
   0   3   4    1.70    0.06
   0   3   4    1.72    0.06
  -1  -3  -4    2.84    0.08
  -1  -3  -4    3.03    0.08
  -1  -3  -4    2.93    0.07
  -1  -3  -4    2.92    0.07
  -1  -3  -4    2.97    0.08
   1   3   4    2.74    0.09
   1   3   4    2.85    0.08
   1   3   4    2.87    0.09
   1   3   4    2.93    0.07
  -2  -3  -4   10.34    0.23
  -2  -3  -4   10.06    0.23
  -2  -3  -4   10.13    0.22
  -2  -3  -4   10.17    0.22
   2   3   4    9.79    0.23
   2   3   4    9.86    0.25
   2   3   4    9.83    0.24
   2   3   4    9.81    0.23
  -3  -3  -4   97.56    2.07
  -3  -3  -4   96.92    2.02
  -3  -3  -4   97.50    2.07
  -3  -3  -4   95.81    2.03
   3   3   4   91.97    2.07
   3   3   4   96.20    2.03
   3   3   4   93.58    2.05
   3   3   4   96.14    2.13
  -4  -3  -4    1.41    0.06
  -4  -3  -4    1.43    0.05
  -4  -3  -4    1.42    0.05
  -4  -3  -4    1.39    0.07
   4   3   4    1.40    0.09
   4   3   4    1.38    0.08
   4   3   4    1.46    0.07
   4   3   4    1.40    0.06
  -5  -3  -4    0.01    0.02
  -5  -3  -4   -0.01    0.02
  -5  -3  -4   -0.01    0.02
   5   3   4    0.00    0.02
   5   3   4    0.00    0.02
   5   3   4    0.01    0.02
  -6  -3  -4    0.04    0.03
  -6  -3  -4    0.02    0.03
   6   3   4    0.02    0.03
   6   3   4    0.00    0.03
   5  -4  -4    1.00    0.09
   5  -4  -4    1.03    0.09
   5  -4  -4    1.18    0.10
  -5   4   4    1.14    0.09
  -5   4   4    1.06    0.10
   4  -4  -4    5.44    0.18
   4  -4  -4    5.36    0.17
   4  -4  -4    5.05    0.15
   4  -4  -4    5.44    0.15
  -4   4   4    5.48    0.17
  -4   4   4    5.95    0.19
  -4   4   4    5.58    0.17
   3  -4  -4    0.03    0.03
   3  -4  -4    0.03    0.02
   3  -4  -4    0.02    0.02
   3  -4  -4    0.03    0.02
  -3   4   4    0.01    0.03
   2  -4  -4    1.66    0.06
   2  -4  -4    1.64    0.07
   2  -4  -4    1.64    0.08
   2  -4  -4    1.65    0.06
  -2   4   4    1.40    0.09
  -2   4   4    1.61    0.07
  -2   4   4    1.57    0.07
   1  -4  -4    1.92    0.06
   1  -4  -4    1.93    0.08
   1  -4  -4    1.82    0.07
   1  -4  -4    1.95    0.06
   1  -4  -4    2.04    0.06
  -1   4   4    1.96    0.07
  -1   4   4    1.91    0.07
  -1   4   4    1.87    0.08
   0  -4  -4    7.61    0.17
   0  -4  -4    7.27    0.18
   0  -4  -4    7.26    0.17
   0  -4  -4    7.46    0.17
   0   4   4    6.88    0.19
   0   4   4    7.35    0.17
   0   4   4    7.37    0.18
  -1  -4  -4    3.90    0.10
  -1  -4  -4    3.91    0.10
  -1  -4  -4    4.17    0.11
  -1  -4  -4    4.06    0.11
  -1  -4  -4    4.01    0.10
   1   4   4    3.82    0.12
   1   4   4    3.90    0.11
   1   4   4    3.91    0.11
   1   4   4    4.02    0.10
  -2  -4  -4    6.19    0.15
  -2  -4  -4    6.28    0.16
  -2  -4  -4    6.44    0.16
  -2  -4  -4    6.20    0.15
   2   4   4    6.23    0.17
   2   4   4    6.25    0.16
   2   4   4    6.11    0.18
  -3  -4  -4   15.50    0.35
  -3  -4  -4   15.66    0.35
  -3  -4  -4   15.81    0.34
  -3  -4  -4   15.35    0.34
   3   4   4   14.82    0.36
   3   4   4   15.46    0.37
   3   4   4   15.12    0.39
  -4  -4  -4    2.09    0.08
  -4  -4  -4    2.11    0.06
  -4  -4  -4    2.13    0.08
   4   4   4    2.04    0.10
   4   4   4    2.19    0.11
   4   4   4    2.14    0.09
  -5  -4  -4    2.50    0.10
  -5  -4  -4    2.59    0.09
   5   4   4    2.39    0.12
   5   4   4    2.60    0.11
   5   4   4    2.65    0.14
  -6  -4  -4    1.24    0.08
  -6  -4  -4    1.15    0.09
   6   4   4    1.29    0.10
   6   4   4    1.39    0.10
   6   4   4    1.41    0.12
   4  -5  -4    0.43    0.08
   4  -5  -4    0.37    0.06
   4  -5  -4    0.41    0.06
   3  -5  -4    0.05    0.03
   3  -5  -4    0.06    0.03
   3  -5  -4    0.06    0.02
  -3   5   4    0.04    0.03
   2  -5  -4    3.63    0.13
   2  -5  -4    3.52    0.11
   2  -5  -4    3.48    0.11
  -2   5   4    3.50    0.12
  -2   5   4    3.86    0.13
  -2   5   4    3.59    0.11
   1  -5  -4    0.97    0.05
   1  -5  -4    0.91    0.05
   1  -5  -4    1.14    0.07
   1  -5  -4    0.99    0.05
  -1   5   4    1.13    0.05
  -1   5   4    1.06    0.07
  -1   5   4    1.17    0.07
   0  -5  -4    0.37    0.05
   0  -5  -4    0.31    0.04
   0  -5  -4    0.31    0.04
   0  -5  -4    0.32    0.04
   0   5   4    0.41    0.05
   0   5   4    0.44    0.06
   0   5   4    0.39    0.04
  -1  -5  -4    2.47    0.08
  -1  -5  -4    2.39    0.07
  -1  -5  -4    2.37    0.07
  -1  -5  -4    2.43    0.08
   1   5   4    2.51    0.09
   1   5   4    2.54    0.10
   1   5   4    2.39    0.07
  -2  -5  -4    0.11    0.02
  -2  -5  -4    0.18    0.03
  -2  -5  -4    0.14    0.02
  -2  -5  -4    0.13    0.02
   2   5   4    0.13    0.03
   2   5   4    0.14    0.03
  -3  -5  -4    3.37    0.11
  -3  -5  -4    3.47    0.09
  -3  -5  -4    3.34    0.11
   3   5   4    3.36    0.12
   3   5   4    3.16    0.14
   3   5   4    3.36    0.12
  -4  -5  -4   -0.02    0.02
  -4  -5  -4   -0.02    0.02
   4   5   4    0.01    0.03
   4   5   4   -0.02    0.02
   4   5   4    0.02    0.03
  -5  -5  -4    2.35    0.10
  -5  -5  -4    2.29    0.10
   5   5   4    2.41    0.12
   5   5   4    2.41    0.11
   5   5   4    2.45    0.14
   3  -6  -4    0.04    0.03
   3  -6  -4    0.04    0.03
   3  -6  -4    0.04    0.03
  -3   6   4   -0.01    0.04
  -3   6   4    0.01    0.03
   2  -6  -4    0.59    0.06
   2  -6  -4    0.66    0.06
   2  -6  -4    0.89    0.08
  -2   6   4    0.75    0.07
  -2   6   4    0.60    0.08
   1  -6  -4    0.02    0.02
   1  -6  -4    0.01    0.02
   1  -6  -4   -0.02    0.02
   1  -6  -4   -0.02    0.02
  -1   6   4   -0.02    0.03
  -1   6   4    0.01    0.02
   0  -6  -4    3.11    0.10
   0  -6  -4    3.04    0.10
   0  -6  -4    3.10    0.10
   0   6   4    3.03    0.10
   0   6   4    3.20    0.11
   0   6   4    3.34    0.12
  -1  -6  -4    1.03    0.06
  -1  -6  -4    1.08    0.05
  -1  -6  -4    1.02    0.06
   1   6   4    1.09    0.08
   1   6   4    0.90    0.08
   1   6   4    1.12    0.07
  -2  -6  -4    0.01    0.02
  -2  -6  -4   -0.02    0.02
  -2  -6  -4   -0.01    0.02
  -2  -6  -4    0.00    0.02
   2   6   4    0.02    0.03
   2   6   4    0.01    0.03
  -3  -6  -4    0.24    0.05
  -3  -6  -4    0.16    0.03
   3   6   4    0.32    0.06
  -4  -6  -4    0.45    0.06
  -4  -6  -4    0.39    0.06
   4   6   4    0.61    0.10
   2  -7  -4   -0.01    0.03
   2  -7  -4   -0.05    0.03
  -2   7   4   -0.01    0.03
  -2   7   4   -0.03    0.04
  -2   7   4   -0.03    0.03
   1  -7  -4    0.08    0.03
   1  -7  -4    0.04    0.03
  -1   7   4    0.03    0.03
  -1   7   4    0.08    0.04
   0  -7  -4    2.26    0.10
   0  -7  -4    2.47    0.09
   0  -7  -4    2.48    0.09
   0   7   4    2.27    0.09
   0   7   4    2.67    0.11
  -1  -7  -4    0.08    0.03
  -1  -7  -4    0.04    0.02
  -1  -7  -4    0.03    0.03
   1   7   4    0.13    0.04
  -2  -7  -4    0.86    0.07
   2   7   4    1.14    0.09
  -3  -7  -4    6.12    0.18
   3   7   4    6.56    0.23
   3   7   4    6.41    0.21
   0   5  -5    0.04    0.03
   0   5  -5    0.10    0.03
   0  -5   5    0.06    0.03
   0  -5   5    0.10    0.03
  -1   5  -5    1.38    0.09
  -1   5  -5    1.46    0.09
   1  -5   5    1.34    0.09
   1  -5   5    1.24    0.09
  -2   5  -5    8.79    0.24
  -2   5  -5    8.82    0.23
   2  -5   5    8.64    0.25
   2   4  -5    1.72    0.10
  -2  -4   5    1.52    0.11
  -2  -4   5    1.78    0.09
   1   4  -5    0.64    0.07
   1   4  -5    0.54    0.06
  -1  -4   5    0.57    0.06
  -1  -4   5    0.47    0.08
   0   4  -5   -0.02    0.02
   0   4  -5   -0.03    0.02
   0  -4   5    0.01    0.02
   0  -4   5    0.00    0.02
   0  -4   5    0.01    0.02
  -1   4  -5    1.72    0.09
  -1   4  -5    1.78    0.08
   1  -4   5    1.79    0.09
   1  -4   5    1.76    0.08
  -2   4  -5   -0.01    0.02
  -2   4  -5    0.02    0.02
  -2   4  -5    0.01    0.02
  -2   4  -5    0.03    0.02
   2  -4   5    0.03    0.03
   2  -4   5    0.00    0.03
   2  -4   5    0.02    0.02
  -3   4  -5    0.01    0.02
  -3   4  -5    0.00    0.02
  -3   4  -5    0.01    0.03
  -3   4  -5   -0.01    0.02
   3  -4   5    0.00    0.03
   3  -4   5    0.02    0.03
   3  -4   5    0.04    0.03
  -4   4  -5    1.17    0.09
  -4   4  -5    1.14    0.09
  -4   4  -5    1.16    0.07
   4  -4   5    1.17    0.09
   4  -4   5    1.12    0.09
   3   3  -5    1.49    0.09
   3   3  -5    1.51    0.10
  -3  -3   5    1.51    0.11
  -3  -3   5    1.57    0.08
   2   3  -5   -0.03    0.03
   2   3  -5    0.01    0.02
   2   3  -5    0.03    0.03
  -2  -3   5   -0.01    0.03
  -2  -3   5    0.02    0.02
   1   3  -5    3.28    0.11
   1   3  -5    3.40    0.11
  -1  -3   5    3.18    0.11
  -1  -3   5    3.18    0.12
   0   3  -5    0.85    0.06
   0   3  -5    0.86    0.06
   0  -3   5    0.96    0.07
   0  -3   5    0.91    0.06
   0  -3   5    0.85    0.06
  -1   3  -5    0.37    0.04
  -1   3  -5    0.36    0.05
  -1   3  -5    0.38    0.05
  -1   3  -5    0.31    0.04
   1  -3   5    0.36    0.06
   1  -3   5    0.36    0.05
   1  -3   5    0.31    0.05
  -2   3  -5    5.56    0.14
  -2   3  -5    5.43    0.14
  -2   3  -5    5.51    0.15
  -2   3  -5    5.48    0.15
   2  -3   5    5.36    0.16
   2  -3   5    5.46    0.16
   2  -3   5    5.16    0.16
  -3   3  -5    0.66    0.05
  -3   3  -5    0.65    0.05
  -3   3  -5    0.66    0.05
  -3   3  -5    0.62    0.06
   3  -3   5    0.64    0.06
   3  -3   5    0.59    0.05
   3  -3   5    0.65    0.07
  -4   3  -5    0.54    0.05
  -4   3  -5    0.48    0.05
  -4   3  -5    0.44    0.07
   4  -3   5    0.59    0.06
   4  -3   5    0.62    0.07
   4  -3   5    0.52    0.07
  -5   3  -5    0.04    0.03
  -5   3  -5    0.04    0.03
  -5   3  -5    0.05    0.03
   5  -3   5    0.07    0.03
   5  -3   5    0.08    0.04
   4   2  -5    0.50    0.08
   4   2  -5    0.58    0.08
  -4  -2   5    0.50    0.10
   3   2  -5    0.38    0.07
   3   2  -5    0.38    0.07
   3   2  -5    0.36    0.06
  -3  -2   5    0.30    0.05
   2   2  -5    2.40    0.09
   2   2  -5    2.38    0.10
   2   2  -5    2.43    0.10
  -2  -2   5    2.23    0.10
  -2  -2   5    2.21    0.11
  -2  -2   5    2.38    0.09
   1   2  -5   12.71    0.29
   1   2  -5   11.96    0.29
   1   2  -5   12.13    0.29
  -1  -2   5   12.71    0.30
  -1  -2   5   12.36    0.30
  -1  -2   5   12.33    0.29
   0   2  -5    3.93    0.11
   0   2  -5    3.94    0.10
   0   2  -5    3.79    0.11
   0  -2   5    3.75    0.11
   0  -2   5    3.75    0.12
   0  -2   5    3.92    0.11
  -1   2  -5    0.23    0.03
  -1   2  -5    0.23    0.03
  -1   2  -5    0.29    0.04
   1  -2   5    0.14    0.02
   1  -2   5    0.21    0.04
   1  -2   5    0.19    0.02
  -2   2  -5    6.90    0.16
  -2   2  -5    6.63    0.17
  -2   2  -5    6.98    0.17
  -2   2  -5    6.91    0.16
   2  -2   5    6.49    0.18
   2  -2   5    6.63    0.18
   2  -2   5    6.65    0.18
  -3   2  -5    0.39    0.04
  -3   2  -5    0.37    0.04
  -3   2  -5    0.36    0.04
   3  -2   5    0.34    0.05
   3  -2   5    0.37    0.05
  -4   2  -5   -0.01    0.02
  -4   2  -5   -0.03    0.02
  -4   2  -5   -0.02    0.02
   4  -2   5    0.02    0.03
   4  -2   5    0.03    0.02
   4  -2   5    0.05    0.02
  -5   2  -5    2.67    0.10
  -5   2  -5    2.62    0.10
  -5   2  -5    2.66    0.10
   5  -2   5    2.82    0.12
   5  -2   5    2.83    0.12
  -6   2  -5    3.56    0.12
  -6   2  -5    3.77    0.13
   6  -2   5    3.80    0.15
   4   1  -5   -0.01    0.03
   4   1  -5    0.03    0.03
   4   1  -5    0.01    0.03
  -4  -1   5   -0.01    0.03
  -4  -1   5   -0.02    0.04
   3   1  -5   -0.02    0.02
   3   1  -5   -0.01    0.03
   3   1  -5    0.00    0.02
   2   1  -5    0.90    0.06
   2   1  -5    0.96    0.06
   2   1  -5    1.02    0.06
  -2  -1   5    0.95    0.07
  -2  -1   5    1.06    0.05
  -2  -1   5    0.93    0.07
   1   1  -5    0.44    0.04
   1   1  -5    0.46    0.04
   1   1  -5    0.40    0.04
  -1  -1   5    0.39    0.05
  -1  -1   5    0.45    0.04
  -1  -1   5    0.49    0.05
   0   1  -5    5.82    0.13
   0   1  -5    5.86    0.15
   0   1  -5    5.55    0.14
   0   1  -5    5.67    0.14
   0   1  -5    5.71    0.13
   0  -1   5    5.56    0.15
   0  -1   5    5.72    0.14
   0  -1   5    5.89    0.14
   0  -1   5    5.76    0.15
  -1   1  -5    3.36    0.09
  -1   1  -5    3.45    0.09
  -1   1  -5    3.43    0.10
  -1   1  -5    3.41    0.09
   1  -1   5    3.49    0.10
   1  -1   5    3.28    0.10
   1  -1   5    3.33    0.10
   1  -1   5    3.22    0.10
  -2   1  -5   95.53    2.01
  -2   1  -5   98.00    2.01
  -2   1  -5   96.31    2.01
  -2   1  -5   96.97    2.04
   2  -1   5   95.08    2.07
   2  -1   5   97.05    2.03
   2  -1   5   91.94    2.05
  -3   1  -5    0.10    0.02
  -3   1  -5    0.17    0.02
  -3   1  -5    0.11    0.02
   3  -1   5    0.12    0.02
   3  -1   5    0.15    0.03
   3  -1   5    0.14    0.03
  -4   1  -5   -0.01    0.01
   4  -1   5    0.00    0.02
   4  -1   5    0.00    0.02
   4  -1   5    0.02    0.02
  -5   1  -5    0.27    0.04
  -5   1  -5    0.23    0.03
  -5   1  -5    0.35    0.05
   5  -1   5    0.34    0.08
   5  -1   5    0.41    0.06
   5  -1   5    0.38    0.06
  -6   1  -5    0.13    0.03
  -6   1  -5    0.10    0.03
  -6   1  -5    0.15    0.03
   6  -1   5    0.12    0.04
   6  -1   5    0.16    0.04
   6  -1   5    0.08    0.03
   5   0  -5    4.54    0.18
   5   0  -5    4.61    0.17
  -5   0   5    5.27    0.21
  -5   0   5    4.88    0.18
  -5   0   5    4.91    0.17
   4   0  -5    0.15    0.04
  -4   0   5    0.22    0.04
  -4   0   5    0.21    0.04
   3   0  -5    0.54    0.07
   3   0  -5    0.63    0.06
   3   0  -5    0.63    0.06
  -3   0   5    0.56    0.08
  -3   0   5    0.62    0.07
   2   0  -5    1.93    0.08
   2   0  -5    1.99    0.08
   2   0  -5    1.96    0.08
  -2   0   5    1.97    0.09
  -2   0   5    1.99    0.09
   1   0  -5    7.77    0.19
   1   0  -5    7.67    0.19
   1   0  -5    7.75    0.17
   1   0  -5    7.92    0.17
   1   0  -5    7.93    0.19
  -1   0   5    8.05    0.18
  -1   0   5    7.81    0.20
  -1   0   5    7.47    0.19
  -1   0   5    8.11    0.20
   0   0  -5    3.52    0.10
   0   0  -5    3.46    0.09
   0   0  -5    3.61    0.09
   0   0  -5    3.44    0.09
   0   0  -5    3.50    0.08
   0   0   5    3.56    0.09
   0   0   5    3.49    0.09
   0   0   5    3.39    0.09
   0   0   5    3.45    0.10
   0   0   5    3.47    0.10
  -1   0  -5    8.95    0.20
  -1   0  -5    8.84    0.20
  -1   0  -5    8.80    0.21
  -1   0  -5    8.70    0.20
   1   0   5    8.81    0.20
   1   0   5    8.77    0.21
   1   0   5    8.45    0.21
   1   0   5    8.73    0.21
  -2   0  -5   39.31    0.83
  -2   0  -5   39.49    0.83
  -2   0  -5   39.79    0.83
   2   0   5   38.53    0.84
   2   0   5   37.55    0.84
   2   0   5   38.79    0.85
   2   0   5   39.29    0.84
  -3   0  -5    0.02    0.02
  -3   0  -5    0.04    0.01
  -3   0  -5    0.03    0.01
   3   0   5    0.01    0.02
   3   0   5    0.03    0.02
   3   0   5    0.01    0.01
   3   0   5    0.02    0.02
  -4   0  -5    2.27    0.07
  -4   0  -5    2.23    0.07
  -4   0  -5    2.34    0.08
  -4   0  -5    2.22    0.09
   4   0   5    2.27    0.10
   4   0   5    2.26    0.09
   4   0   5    2.26    0.09
   4   0   5    2.23    0.09
  -5   0  -5    3.36    0.11
  -5   0  -5    3.39    0.10
  -5   0  -5    3.29    0.10
  -5   0  -5    3.39    0.12
   5   0   5    3.41    0.13
   5   0   5    3.52    0.12
   5   0   5    3.56    0.14
  -6   0  -5    0.98    0.06
  -6   0  -5    1.00    0.07
  -6   0  -5    1.05    0.06
   6   0   5    1.09    0.08
   6   0   5    1.11    0.09
   6   0   5    1.06    0.10
   5  -1  -5    0.57    0.09
   5  -1  -5    0.64    0.09
   5  -1  -5    0.69    0.08
  -5   1   5    0.75    0.12
  -5   1   5    0.50    0.11
  -5   1   5    0.85    0.09
   4  -1  -5   -0.01    0.02
   4  -1  -5   -0.01    0.03
  -4   1   5   -0.02    0.03
  -4   1   5   -0.01    0.03
   3  -1  -5    3.74    0.12
   3  -1  -5    3.96    0.13
   3  -1  -5    3.64    0.13
  -3   1   5    3.95    0.14
  -3   1   5    4.01    0.13
  -3   1   5    3.66    0.12
   2  -1  -5    3.06    0.10
   2  -1  -5    3.03    0.08
   2  -1  -5    2.92    0.10
   2  -1  -5    3.02    0.10
  -2   1   5    3.05    0.11
  -2   1   5    2.95    0.10
  -2   1   5    3.07    0.10
   1  -1  -5    1.71    0.05
   1  -1  -5    1.76    0.05
   1  -1  -5    1.68    0.06
   1  -1  -5    1.65    0.06
   1  -1  -5    1.67    0.06
  -1   1   5    1.75    0.07
  -1   1   5    1.82    0.05
  -1   1   5    1.76    0.08
  -1   1   5    1.65    0.06
   0  -1  -5    1.08    0.04
   0  -1  -5    1.06    0.05
   0  -1  -5    1.08    0.04
   0  -1  -5    1.03    0.04
   0   1   5    1.03    0.05
   0   1   5    1.03    0.04
   0   1   5    1.07    0.04
   0   1   5    1.01    0.05
  -1  -1  -5    3.69    0.10
  -1  -1  -5    3.72    0.09
  -1  -1  -5    3.71    0.09
  -1  -1  -5    3.70    0.09
  -1  -1  -5    3.75    0.10
   1   1   5    3.66    0.10
   1   1   5    3.69    0.10
   1   1   5    3.63    0.11
   1   1   5    3.62    0.09
   1   1   5    3.54    0.10
  -2  -1  -5   12.43    0.27
  -2  -1  -5   12.55    0.28
  -2  -1  -5   12.30    0.27
  -2  -1  -5   12.64    0.27
   2   1   5   11.93    0.28
   2   1   5   12.22    0.28
   2   1   5   11.57    0.29
   2   1   5   11.75    0.29
  -3  -1  -5    0.94    0.04
  -3  -1  -5    0.93    0.04
  -3  -1  -5    0.77    0.05
  -3  -1  -5    0.95    0.04
   3   1   5    0.87    0.06
   3   1   5    0.85    0.05
   3   1   5    0.83    0.05
   3   1   5    0.80    0.05
  -4  -1  -5    3.67    0.10
  -4  -1  -5    3.67    0.10
  -4  -1  -5    3.70    0.11
  -4  -1  -5    3.64    0.10
   4   1   5    3.71    0.12
   4   1   5    3.69    0.12
   4   1   5    3.65    0.13
   4   1   5    3.73    0.13
  -5  -1  -5    2.59    0.08
  -5  -1  -5    2.56    0.10
  -5  -1  -5    2.53    0.08
   5   1   5    2.60    0.12
   5   1   5    2.62    0.10
   5   1   5    2.64    0.12
   5   1   5    2.54    0.10
  -6  -1  -5    0.12    0.03
  -6  -1  -5    0.12    0.02
  -6  -1  -5    0.11    0.02
   6   1   5    0.09    0.03
   6   1   5    0.10    0.03
   6   1   5    0.09    0.03
   5  -2  -5   -0.02    0.03
   5  -2  -5   -0.06    0.03
   5  -2  -5   -0.03    0.04
  -5   2   5    0.00    0.04
   4  -2  -5    0.15    0.03
   4  -2  -5    0.17    0.04
   4  -2  -5    0.18    0.03
  -4   2   5    0.20    0.04
  -4   2   5    0.15    0.04
   3  -2  -5    2.01    0.09
   3  -2  -5    2.05    0.09
   3  -2  -5    1.98    0.09
   3  -2  -5    1.96    0.07
  -3   2   5    2.07    0.10
  -3   2   5    2.07    0.09
  -3   2   5    2.04    0.09
   2  -2  -5    0.08    0.01
   2  -2  -5    0.08    0.02
   2  -2  -5    0.05    0.02
   2  -2  -5    0.07    0.02
  -2   2   5    0.07    0.02
  -2   2   5    0.06    0.02
  -2   2   5    0.06    0.02
   1  -2  -5   13.22    0.30
   1  -2  -5   13.10    0.31
   1  -2  -5   13.35    0.29
   1  -2  -5   13.43    0.29
  -1   2   5   13.35    0.30
  -1   2   5   13.60    0.32
  -1   2   5   13.14    0.30
   0  -2  -5    2.66    0.07
   0  -2  -5    2.56    0.08
   0  -2  -5    2.69    0.07
   0  -2  -5    2.60    0.07
   0   2   5    2.58    0.07
   0   2   5    2.63    0.07
   0   2   5    2.58    0.09
   0   2   5    2.48    0.08
  -1  -2  -5    0.14    0.02
  -1  -2  -5    0.17    0.02
  -1  -2  -5    0.16    0.02
  -1  -2  -5    0.15    0.02
   1   2   5    0.14    0.03
   1   2   5    0.17    0.02
   1   2   5    0.14    0.02
   1   2   5    0.13    0.03
  -2  -2  -5   12.25    0.26
  -2  -2  -5   12.12    0.26
  -2  -2  -5   12.00    0.27
  -2  -2  -5   12.36    0.27
   2   2   5   12.15    0.28
   2   2   5   11.26    0.26
   2   2   5   11.63    0.29
   2   2   5   11.92    0.29
  -3  -2  -5    0.19    0.02
  -3  -2  -5    0.20    0.02
  -3  -2  -5    0.18    0.02
   3   2   5    0.23    0.03
   3   2   5    0.17    0.04
   3   2   5    0.20    0.02
   3   2   5    0.17    0.04
  -4  -2  -5    0.32    0.04
  -4  -2  -5    0.34    0.03
  -4  -2  -5    0.33    0.03
   4   2   5    0.34    0.04
   4   2   5    0.32    0.06
   4   2   5    0.31    0.05
  -5  -2  -5    1.43    0.08
  -5  -2  -5    1.46    0.06
  -5  -2  -5    1.47    0.06
  -5  -2  -5    1.44    0.07
   5   2   5    1.49    0.10
   5   2   5    1.48    0.09
   5   2   5    1.47    0.08
  -6  -2  -5    9.37    0.25
  -6  -2  -5    9.03    0.24
  -6  -2  -5    9.39    0.22
   6   2   5    9.70    0.28
   6   2   5    9.56    0.29
   6   2   5    9.60    0.26
   4  -3  -5    0.04    0.03
   4  -3  -5    0.05    0.03
  -4   3   5    0.08    0.04
  -4   3   5    0.02    0.04
   3  -3  -5   -0.02    0.02
   3  -3  -5   -0.04    0.02
   3  -3  -5   -0.02    0.02
   3  -3  -5    0.00    0.02
  -3   3   5    0.01    0.02
   2  -3  -5    1.03    0.05
   2  -3  -5    1.03    0.05
   2  -3  -5    0.97    0.07
   2  -3  -5    1.08    0.06
  -2   3   5    1.08    0.06
  -2   3   5    1.00    0.08
   1  -3  -5   16.26    0.35
   1  -3  -5   15.99    0.37
   1  -3  -5   15.78    0.36
   1  -3  -5   16.41    0.35
  -1   3   5   16.21    0.36
  -1   3   5   15.86    0.36
  -1   3   5   16.19    0.38
   0  -3  -5    2.81    0.07
   0  -3  -5    2.67    0.07
   0  -3  -5    2.70    0.07
   0  -3  -5    2.62    0.08
   0  -3  -5    2.61    0.08
   0   3   5    2.57    0.09
   0   3   5    2.66    0.08
   0   3   5    2.62    0.07
   0   3   5    2.57    0.08
  -1  -3  -5    2.20    0.07
  -1  -3  -5    2.29    0.07
  -1  -3  -5    2.32    0.07
  -1  -3  -5    2.28    0.06
  -1  -3  -5    2.21    0.06
   1   3   5    2.23    0.07
   1   3   5    2.24    0.06
   1   3   5    2.10    0.08
   1   3   5    2.16    0.07
   1   3   5    2.22    0.08
  -2  -3  -5   26.26    0.55
  -2  -3  -5   26.27    0.56
  -2  -3  -5   26.11    0.56
  -2  -3  -5   26.72    0.56
  -2  -3  -5   25.74    0.55
   2   3   5   25.37    0.58
   2   3   5   25.57    0.58
   2   3   5   25.59    0.56
   2   3   5   24.68    0.56
  -3  -3  -5    0.56    0.04
  -3  -3  -5    0.57    0.03
  -3  -3  -5    0.50    0.05
  -3  -3  -5    0.54    0.03
   3   3   5    0.49    0.04
   3   3   5    0.55    0.04
   3   3   5    0.51    0.05
   3   3   5    0.55    0.06
  -4  -3  -5    0.95    0.04
  -4  -3  -5    0.91    0.06
  -4  -3  -5    0.97    0.06
  -4  -3  -5    0.92    0.04
   4   3   5    0.91    0.07
   4   3   5    0.96    0.08
   4   3   5    0.96    0.05
   4   3   5    0.95    0.06
  -5  -3  -5    3.87    0.10
  -5  -3  -5    3.93    0.12
  -5  -3  -5    3.85    0.13
  -5  -3  -5    3.83    0.10
   5   3   5    3.81    0.13
   5   3   5    3.81    0.15
   5   3   5    3.74    0.16
  -6  -3  -5    7.18    0.20
  -6  -3  -5    7.45    0.21
   6   3   5    7.48    0.25
   6   3   5    7.51    0.24
   4  -4  -5    0.08    0.03
   4  -4  -5    0.06    0.03
   4  -4  -5    0.04    0.03
  -4   4   5    0.04    0.04
  -4   4   5    0.01    0.03
   3  -4  -5   -0.05    0.02
   3  -4  -5   -0.03    0.02
   3  -4  -5   -0.01    0.02
   3  -4  -5   -0.04    0.02
  -3   4   5   -0.03    0.03
   2  -4  -5   -0.01    0.02
   2  -4  -5   -0.01    0.02
   2  -4  -5   -0.02    0.02
   2  -4  -5    0.00    0.02
  -2   4   5    0.01    0.02
  -2   4   5   -0.03    0.03
  -2   4   5    0.00    0.02
   1  -4  -5    0.12    0.02
   1  -4  -5    0.10    0.02
  -1   4   5    0.18    0.03
  -1   4   5    0.13    0.03
  -1   4   5    0.21    0.04
   0  -4  -5    1.38    0.05
   0  -4  -5    1.37    0.06
   0  -4  -5    1.35    0.05
   0  -4  -5    1.40    0.05
   0   4   5    1.38    0.05
   0   4   5    1.23    0.07
   0   4   5    1.26    0.06
  -1  -4  -5    9.99    0.23
  -1  -4  -5   10.20    0.23
  -1  -4  -5   10.04    0.22
  -1  -4  -5   10.02    0.22
   1   4   5    9.77    0.24
   1   4   5    9.31    0.25
   1   4   5    9.72    0.24
  -2  -4  -5   60.50    1.24
  -2  -4  -5   58.16    1.24
  -2  -4  -5   58.63    1.23
  -2  -4  -5   58.66    1.23
   2   4   5   57.00    1.25
   2   4   5   57.10    1.27
   2   4   5   58.88    1.26
  -3  -4  -5    1.86    0.06
  -3  -4  -5    1.83    0.06
  -3  -4  -5    1.82    0.07
  -3  -4  -5    1.81    0.07
   3   4   5    1.74    0.07
   3   4   5    1.84    0.09
   3   4   5    1.72    0.10
  -4  -4  -5   -0.01    0.02
  -4  -4  -5   -0.02    0.02
  -4  -4  -5   -0.02    0.01
  -4  -4  -5   -0.03    0.01
   4   4   5   -0.01    0.02
   4   4   5    0.01    0.02
   4   4   5    0.00    0.02
   5   4   5    0.01    0.03
  -6  -4  -5   -0.03    0.03
   6   4   5    0.02    0.03
   6   4   5   -0.01    0.03
   4  -5  -5    0.03    0.03
   4  -5  -5    0.04    0.03
   4  -5  -5    0.04    0.04
  -4   5   5    0.01    0.03
   3  -5  -5    0.68    0.07
   3  -5  -5    0.67    0.08
   3  -5  -5    0.59    0.06
   3  -5  -5    0.61    0.06
  -3   5   5    0.77    0.07
  -3   5   5    0.51    0.08
   2  -5  -5    0.22    0.03
   2  -5  -5    0.22    0.03
   2  -5  -5    0.33    0.07
  -2   5   5    0.31    0.06
  -2   5   5    0.35    0.05
   1  -5  -5    0.88    0.07
   1  -5  -5    0.82    0.05
   1  -5  -5    0.78    0.05
  -1   5   5    0.93    0.07
  -1   5   5    0.96    0.05
   0  -5  -5    0.79    0.05
   0  -5  -5    0.73    0.05
   0  -5  -5    0.84    0.06
   0  -5  -5    0.69    0.05
   0   5   5    0.92    0.06
   0   5   5    0.95    0.05
  -1  -5  -5    5.26    0.14
  -1  -5  -5    5.22    0.13
  -1  -5  -5    5.08    0.13
   1   5   5    5.17    0.17
   1   5   5    4.98    0.14
  -2  -5  -5    4.58    0.12
  -2  -5  -5    4.63    0.12
  -2  -5  -5    4.63    0.13
  -2  -5  -5    4.62    0.12
   2   5   5    4.16    0.16
   2   5   5    4.32    0.14
   2   5   5    4.87    0.19
  -3  -5  -5    1.29    0.05
  -3  -5  -5    1.31    0.06
  -3  -5  -5    1.28    0.07
  -3  -5  -5    1.29    0.05
   3   5   5    1.19    0.10
   3   5   5    1.25    0.07
   3   5   5    1.29    0.08
  -4  -5  -5    3.04    0.11
  -4  -5  -5    3.06    0.11
  -4  -5  -5    3.11    0.09
   4   5   5    3.18    0.15
   4   5   5    3.05    0.12
   4   5   5    3.15    0.13
  -5  -5  -5    1.55    0.08
  -5  -5  -5    1.66    0.09
   5   5   5    1.73    0.13
   5   5   5    1.70    0.09
   5   5   5    1.66    0.11
   3  -6  -5    1.06    0.09
   3  -6  -5    0.91    0.07
  -3   6   5    0.73    0.10
  -3   6   5    0.92    0.08
   2  -6  -5   -0.01    0.03
   2  -6  -5   -0.02    0.03
   2  -6  -5    0.05    0.03
  -2   6   5    0.04    0.03
  -2   6   5    0.01    0.04
   1  -6  -5   -0.02    0.02
   1  -6  -5   -0.04    0.02
   1  -6  -5   -0.04    0.02
  -1   6   5    0.00    0.02
  -1   6   5    0.00    0.03
   0  -6  -5    0.84    0.06
   0  -6  -5    0.81    0.06
   0  -6  -5    0.78    0.06
   0   6   5    0.90    0.07
   0   6   5    0.72    0.05
  -1  -6  -5    0.03    0.02
  -1  -6  -5    0.04    0.02
  -1  -6  -5    0.02    0.02
   1   6   5    0.04    0.03
   1   6   5    0.04    0.03
  -2  -6  -5    1.93    0.08
  -2  -6  -5    1.96    0.07
  -2  -6  -5    2.02    0.07
   2   6   5    1.99    0.09
   2   6   5    1.97    0.12
  -3  -6  -5   -0.03    0.02
   3   6   5    0.00    0.03
   3   6   5   -0.01    0.03
  -4  -6  -5    2.21    0.10
  -4  -6  -5    2.18    0.11
   4   6   5    2.26    0.11
   4   6   5    2.37    0.14
   1  -7  -5    1.11    0.08
  -1   7   5    1.41    0.10
  -1   7   5    1.03    0.08
   0  -7  -5    0.50    0.06
   0  -7  -5    0.48    0.06
   0   7   5    0.65    0.08
  -1  -7  -5   -0.01    0.03
  -1  -7  -5   -0.04    0.02
  -1  -7  -5   -0.01    0.02
   1   7   5    0.04    0.03
  -2  -7  -5    0.02    0.02
  -2  -7  -5   -0.03    0.03
   2   7   5    0.03    0.03
   2   7   5    0.03    0.03
   3   7   5    0.13    0.04
   0   4  -6    2.10    0.10
   0   4  -6    2.15    0.10
   0  -4   6    2.04    0.10
   0  -4   6    2.15    0.11
  -1   4  -6    9.05    0.23
  -1   4  -6    8.88    0.23
   1  -4   6    8.27    0.23
   1  -4   6    8.40    0.24
  -2   4  -6    0.39    0.07
   2  -4   6    0.43    0.07
   2  -4   6    0.36    0.08
  -3   4  -6    0.38    0.05
  -3   4  -6    0.39    0.05
  -3   4  -6    0.41    0.07
   2   3  -6    0.06    0.02
   2   3  -6    0.08    0.03
  -2  -3   6    0.00    0.03
  -2  -3   6    0.09    0.03
   1   3  -6    0.02    0.02
   1   3  -6    0.01    0.02
  -1  -3   6   -0.02    0.03
  -1  -3   6    0.03    0.02
   0   3  -6    1.83    0.09
   0   3  -6    1.88    0.09
   0  -3   6    2.02    0.10
   0  -3   6    1.82    0.08
  -1   3  -6    0.58    0.06
  -1   3  -6    0.56    0.06
   1  -3   6    0.76    0.07
   1  -3   6    0.72    0.06
   1  -3   6    0.58    0.06
  -2   3  -6    0.03    0.02
  -2   3  -6   -0.02    0.02
  -2   3  -6   -0.01    0.02
  -2   3  -6    0.02    0.02
   2  -3   6    0.01    0.03
   2  -3   6    0.03    0.03
  -3   3  -6    2.01    0.08
  -3   3  -6    2.01    0.08
  -3   3  -6    2.03    0.09
   3  -3   6    1.93    0.10
   3  -3   6    2.02    0.10
  -4   3  -6    1.22    0.09
  -4   3  -6    1.25    0.07
  -4   3  -6    1.32    0.07
   4  -3   6    1.27    0.10
   4  -3   6    1.22    0.09
   3   2  -6    0.01    0.03
   3   2  -6   -0.04    0.03
   3   2  -6   -0.02    0.03
   2   2  -6    2.89    0.11
   2   2  -6    2.87    0.11
  -2  -2   6    2.64    0.10
  -2  -2   6    2.53    0.12
  -2  -2   6    2.76    0.12
   1   2  -6    0.69    0.06
   1   2  -6    0.74    0.06
  -1  -2   6    0.66    0.07
  -1  -2   6    0.74    0.06
   0   2  -6    0.13    0.02
   0   2  -6    0.10    0.02
   0  -2   6    0.10    0.02
   0  -2   6    0.06    0.02
  -1   2  -6    4.72    0.14
  -1   2  -6    4.64    0.12
  -1   2  -6    4.66    0.12
  -1   2  -6    4.80    0.13
   1  -2   6    4.76    0.15
   1  -2   6    4.81    0.14
   1  -2   6    4.48    0.14
  -2   2  -6    1.22    0.05
  -2   2  -6    1.24    0.06
  -2   2  -6    1.21    0.05
  -2   2  -6    1.23    0.07
   2  -2   6    1.28    0.08
   2  -2   6    1.20    0.07
   2  -2   6    1.17    0.07
  -3   2  -6    0.52    0.05
  -3   2  -6    0.38    0.06
  -3   2  -6    0.45    0.05
   3  -2   6    0.48    0.06
   3  -2   6    0.42    0.06
  -4   2  -6    0.60    0.05
  -4   2  -6    0.71    0.06
  -4   2  -6    0.61    0.07
   4  -2   6    0.74    0.08
   4  -2   6    0.69    0.07
  -5   2  -6    6.79    0.19
  -5   2  -6    6.61    0.18
  -5   2  -6    6.51    0.18
   5  -2   6    6.58    0.21
   5  -2   6    6.33    0.20
   3   1  -6    0.62    0.07
   3   1  -6    0.64    0.07
   3   1  -6    0.63    0.08
  -3  -1   6    0.42    0.09
   2   1  -6    5.56    0.17
   2   1  -6    5.71    0.16
   2   1  -6    5.62    0.17
  -2  -1   6    5.70    0.18
  -2  -1   6    5.66    0.18
   1   1  -6    3.25    0.11
   1   1  -6    3.36    0.14
   1   1  -6    3.27    0.11
  -1  -1   6    3.23    0.10
  -1  -1   6    3.13    0.12
  -1  -1   6    3.07    0.12
   0   1  -6    0.34    0.03
   0   1  -6    0.39    0.05
   0   1  -6    0.37    0.04
   0  -1   6    0.26    0.04
  -1   1  -6   12.97    0.28
  -1   1  -6   12.91    0.30
  -1   1  -6   12.75    0.28
  -1   1  -6   12.41    0.29
   1  -1   6   12.68    0.29
   1  -1   6   12.29    0.31
   1  -1   6   12.46    0.30
  -2   1  -6    1.23    0.06
  -2   1  -6    1.37    0.05
  -2   1  -6    1.36    0.05
  -2   1  -6    1.37    0.05
   2  -1   6    1.27    0.07
   2  -1   6    1.34    0.07
   2  -1   6    1.33    0.07
  -3   1  -6    0.31    0.04
  -3   1  -6    0.30    0.04
  -3   1  -6    0.27    0.05
   3  -1   6    0.31    0.05
   3  -1   6    0.38    0.06
   3  -1   6    0.32    0.05
  -4   1  -6    5.19    0.15
  -4   1  -6    5.16    0.14
  -4   1  -6    5.17    0.14
   4  -1   6    5.31    0.16
   4  -1   6    5.11    0.16
   4  -1   6    5.39    0.17
  -5   1  -6    7.88    0.20
  -5   1  -6    7.94    0.21
  -5   1  -6    7.75    0.20
   5  -1   6    7.98    0.23
   5  -1   6    7.62    0.22
   5  -1   6    8.11    0.24
  -6   1  -6    0.60    0.06
   6  -1   6    0.83    0.10
   6  -1   6    0.66    0.09
   4   0  -6   -0.06    0.03
   4   0  -6   -0.01    0.03
   4   0  -6   -0.02    0.02
  -4   0   6    0.05    0.03
   3   0  -6    0.03    0.02
   3   0  -6    0.07    0.03
   3   0  -6    0.04    0.03
  -3   0   6    0.07    0.03
  -3   0   6   -0.02    0.03
   2   0  -6    0.10    0.02
   2   0  -6    0.09    0.03
   2   0  -6    0.11    0.03
  -2   0   6    0.05    0.03
  -2   0   6    0.07    0.03
  -2   0   6    0.11    0.03
   1   0  -6    3.18    0.10
   1   0  -6    3.14    0.10
   1   0  -6    3.31    0.10
   1   0  -6    3.13    0.08
  -1   0   6    3.15    0.12
  -1   0   6    3.11    0.10
  -1   0   6    3.14    0.11
  -1   0   6    3.23    0.09
   0   0  -6    5.48    0.15
   0   0  -6    5.30    0.14
   0   0  -6    5.41    0.13
   0   0  -6    5.36    0.13
   0   0   6    5.52    0.14
   0   0   6    5.36    0.15
   0   0   6    5.38    0.15
  -1   0  -6   78.33    1.61
  -1   0  -6   76.81    1.62
  -1   0  -6   77.33    1.61
  -1   0  -6   75.94    1.62
   1   0   6   76.62    1.62
   1   0   6   75.76    1.63
   1   0   6   77.85    1.63
   1   0   6   74.17    1.63
  -2   0  -6    0.47    0.04
  -2   0  -6    0.50    0.04
  -2   0  -6    0.49    0.04
   2   0   6    0.42    0.05
   2   0   6    0.40    0.05
   2   0   6    0.49    0.05
   2   0   6    0.45    0.05
  -3   0  -6   -0.03    0.01
  -3   0  -6    0.00    0.01
  -3   0  -6   -0.02    0.01
   3   0   6   -0.01    0.02
   3   0   6   -0.01    0.02
   3   0   6    0.00    0.02
   3   0   6    0.02    0.01
  -4   0  -6    0.02    0.02
  -4   0  -6    0.04    0.02
  -4   0  -6    0.02    0.02
  -4   0  -6    0.02    0.02
   4   0   6    0.03    0.02
   4   0   6    0.03    0.02
   4   0   6    0.03    0.02
  -5   0  -6    0.02    0.02
  -5   0  -6   -0.02    0.02
  -5   0  -6    0.00    0.02
   5   0   6   -0.02    0.03
   5   0   6   -0.02    0.03
   5   0   6    0.02    0.03
  -6   0  -6    0.18    0.04
  -6   0  -6    0.22    0.03
  -6   0  -6    0.19    0.03
   6   0   6    0.19    0.04
   6   0   6    0.21    0.04
   6   0   6    0.17    0.04
   4  -1  -6    0.22    0.04
   4  -1  -6    0.22    0.04
   4  -1  -6    0.18    0.04
  -4   1   6    0.13    0.04
  -4   1   6    0.14    0.05
   3  -1  -6    0.36    0.06
   3  -1  -6    0.32    0.07
  -3   1   6    0.23    0.04
  -3   1   6    0.20    0.04
   2  -1  -6    1.41    0.07
   2  -1  -6    1.35    0.07
   2  -1  -6    1.35    0.07
  -2   1   6    1.44    0.08
  -2   1   6    1.40    0.07
  -2   1   6    1.41    0.09
   1  -1  -6    0.80    0.04
   1  -1  -6    0.80    0.06
   1  -1  -6    0.89    0.05
   1  -1  -6    0.86    0.05
   1  -1  -6    0.81    0.04
  -1   1   6    0.86    0.05
  -1   1   6    0.86    0.06
  -1   1   6    0.85    0.07
   0  -1  -6    8.97    0.20
   0  -1  -6    8.51    0.21
   0  -1  -6    8.89    0.20
   0  -1  -6    8.87    0.21
   0   1   6    8.82    0.21
   0   1   6    8.92    0.23
   0   1   6    8.64    0.22
   0   1   6    8.73    0.20
  -1  -1  -6   15.94    0.35
  -1  -1  -6   15.81    0.35
  -1  -1  -6   16.11    0.35
  -1  -1  -6   15.60    0.36
  -1  -1  -6   16.14    0.35
   1   1   6   15.88    0.37
   1   1   6   16.20    0.36
   1   1   6   15.44    0.37
   1   1   6   15.74    0.35
  -2  -1  -6    0.00    0.01
  -2  -1  -6   -0.02    0.01
  -2  -1  -6   -0.02    0.01
  -2  -1  -6   -0.02    0.01
   2   1   6   -0.02    0.01
  -3  -1  -6    3.38    0.10
  -3  -1  -6    3.36    0.10
  -3  -1  -6    3.50    0.09
  -3  -1  -6    3.34    0.09
   3   1   6    3.19    0.11
   3   1   6    3.27    0.11
   3   1   6    3.27    0.12
   3   1   6    3.38    0.11
  -4  -1  -6    5.87    0.15
  -4  -1  -6    5.82    0.16
  -4  -1  -6    5.88    0.15
  -4  -1  -6    5.60    0.14
   4   1   6    5.78    0.17
   4   1   6    5.87    0.16
   4   1   6    5.90    0.18
   4   1   6    5.91    0.18
  -5  -1  -6    2.92    0.09
  -5  -1  -6    2.92    0.11
  -5  -1  -6    2.87    0.09
   5   1   6    2.94    0.12
   5   1   6    2.98    0.11
   5   1   6    3.04    0.13
   5   1   6    3.02    0.14
  -6  -1  -6    0.84    0.05
  -6  -1  -6    0.80    0.06
  -6  -1  -6    0.93    0.07
  -6  -1  -6    0.81    0.07
   6   1   6    0.92    0.10
   6   1   6    0.88    0.08
   4  -2  -6    1.10    0.09
   4  -2  -6    1.16    0.09
  -4   2   6    1.11    0.09
  -4   2   6    1.05    0.12
   3  -2  -6    0.19    0.03
   3  -2  -6    0.19    0.03
  -3   2   6    0.17    0.03
  -3   2   6    0.15    0.04
  -3   2   6    0.30    0.06
   2  -2  -6   -0.02    0.02
   2  -2  -6   -0.03    0.02
   2  -2  -6   -0.01    0.02
  -2   2   6    0.03    0.02
  -2   2   6    0.01    0.02
  -2   2   6   -0.01    0.03
   1  -2  -6    0.24    0.02
   1  -2  -6    0.25    0.02
   1  -2  -6    0.19    0.03
   0  -2  -6    1.24    0.06
   0  -2  -6    1.20    0.05
   0  -2  -6    1.27    0.06
   0  -2  -6    1.25    0.05
   0   2   6    1.38    0.07
   0   2   6    1.36    0.05
   0   2   6    1.35    0.06
  -1  -2  -6    7.64    0.18
  -1  -2  -6    7.88    0.19
  -1  -2  -6    7.95    0.18
  -1  -2  -6    7.91    0.18
   1   2   6    7.71    0.19
   1   2   6    7.59    0.20
   1   2   6    7.53    0.20
   1   2   6    7.63    0.18
  -2  -2  -6    0.61    0.04
  -2  -2  -6    0.53    0.04
  -2  -2  -6    0.60    0.03
  -2  -2  -6    0.59    0.03
   2   2   6    0.48    0.05
   2   2   6    0.50    0.05
   2   2   6    0.46    0.04
  -3  -2  -6    4.63    0.12
  -3  -2  -6    4.61    0.13
  -3  -2  -6    4.58    0.12
  -3  -2  -6    4.67    0.12
   3   2   6    4.57    0.15
   3   2   6    4.49    0.13
   3   2   6    4.43    0.15
  -4  -2  -6    1.55    0.07
  -4  -2  -6    1.54    0.06
  -4  -2  -6    1.46    0.06
   4   2   6    1.48    0.09
   4   2   6    1.48    0.07
   4   2   6    1.51    0.09
  -5  -2  -6    1.05    0.05
  -5  -2  -6    1.06    0.07
  -5  -2  -6    1.05    0.05
  -5  -2  -6    1.10    0.07
   5   2   6    1.21    0.09
   5   2   6    1.09    0.09
   5   2   6    1.05    0.07
  -6  -2  -6    1.69    0.09
  -6  -2  -6    1.76    0.07
  -6  -2  -6    1.75    0.07
  -6  -2  -6    1.78    0.10
   6   2   6    1.78    0.12
   6   2   6    1.83    0.10
   6   2   6    1.81    0.12
   4  -3  -6    0.27    0.04
   4  -3  -6    0.43    0.08
  -4   3   6    0.37    0.08
  -4   3   6    0.27    0.05
   3  -3  -6   -0.03    0.02
   3  -3  -6   -0.03    0.02
   3  -3  -6    0.00    0.03
  -3   3   6   -0.01    0.03
   2  -3  -6    3.75    0.13
   2  -3  -6    3.70    0.12
   2  -3  -6    3.72    0.10
   2  -3  -6    3.71    0.11
  -2   3   6    3.84    0.12
  -2   3   6    4.09    0.15
   1  -3  -6    1.29    0.06
   1  -3  -6    1.28    0.07
   1  -3  -6    1.35    0.05
   1  -3  -6    1.34    0.05
  -1   3   6    1.35    0.06
  -1   3   6    1.43    0.06
  -1   3   6    1.35    0.08
   0  -3  -6   -0.01    0.01
   0  -3  -6   -0.01    0.01
   0  -3  -6   -0.01    0.01
   0   3   6    0.00    0.01
   0   3   6   -0.01    0.02
   0   3   6    0.00    0.02
  -1  -3  -6    1.68    0.06
  -1  -3  -6    1.68    0.06
  -1  -3  -6    1.68    0.06
  -1  -3  -6    1.59    0.06
   1   3   6    1.66    0.07
   1   3   6    1.67    0.06
   1   3   6    1.59    0.08
  -2  -3  -6    0.02    0.01
  -2  -3  -6    0.02    0.01
  -2  -3  -6    0.02    0.01
  -2  -3  -6    0.01    0.01
   2   3   6    0.02    0.01
   2   3   6    0.02    0.02
   2   3   6    0.01    0.02
   2   3   6    0.02    0.01
  -3  -3  -6    0.05    0.02
  -3  -3  -6    0.07    0.02
  -3  -3  -6    0.05    0.02
  -3  -3  -6    0.05    0.02
   3   3   6    0.03    0.02
   3   3   6    0.05    0.02
   3   3   6    0.04    0.02
  -4  -3  -6    2.38    0.08
  -4  -3  -6    2.51    0.10
  -4  -3  -6    2.52    0.09
  -4  -3  -6    2.50    0.08
   4   3   6    2.41    0.11
   4   3   6    2.46    0.10
   4   3   6    2.41    0.12
  -5  -3  -6   16.78    0.37
  -5  -3  -6   16.78    0.37
  -5  -3  -6   16.70    0.40
  -5  -3  -6   16.91    0.39
   5   3   6   16.51    0.44
   5   3   6   16.56    0.40
   5   3   6   16.55    0.43
  -6  -3  -6    0.51    0.07
  -6  -3  -6    0.53    0.05
   6   3   6    0.63    0.09
   6   3   6    0.47    0.07
   6   3   6    0.46    0.09
   4  -4  -6   -0.01    0.03
   4  -4  -6   -0.01    0.03
  -4   4   6   -0.05    0.03
  -4   4   6    0.00    0.04
   3  -4  -6    0.03    0.03
   3  -4  -6    0.04    0.02
   3  -4  -6    0.04    0.02
   3  -4  -6   -0.01    0.03
  -3   4   6    0.05    0.03
  -3   4   6    0.02    0.03
   2  -4  -6    3.17    0.12
   2  -4  -6    3.09    0.10
   2  -4  -6    2.96    0.11
   2  -4  -6    3.02    0.09
  -2   4   6    3.20    0.14
  -2   4   6    3.12    0.11
  -2   4   6    3.04    0.11
   1  -4  -6    1.20    0.06
   1  -4  -6    1.25    0.06
   1  -4  -6    1.27    0.05
   1  -4  -6    1.20    0.07
  -1   4   6    1.22    0.07
  -1   4   6    1.20    0.06
  -1   4   6    1.25    0.09
   0  -4  -6    1.74    0.06
   0  -4  -6    1.79    0.08
   0  -4  -6    1.73    0.06
   0   4   6    1.68    0.07
   0   4   6    1.67    0.09
   0   4   6    1.71    0.06
  -1  -4  -6   18.68    0.40
  -1  -4  -6   18.93    0.41
  -1  -4  -6   18.19    0.40
  -1  -4  -6   18.68    0.40
   1   4   6   17.80    0.43
   1   4   6   17.63    0.41
   1   4   6   18.04    0.42
  -2  -4  -6    0.56    0.04
  -2  -4  -6    0.59    0.04
  -2  -4  -6    0.60    0.04
  -2  -4  -6    0.56    0.04
   2   4   6    0.56    0.04
   2   4   6    0.55    0.06
   2   4   6    0.61    0.06
  -3  -4  -6    1.41    0.06
  -3  -4  -6    1.45    0.05
  -3  -4  -6    1.44    0.07
  -3  -4  -6    1.48    0.06
   3   4   6    1.40    0.08
   3   4   6    1.43    0.06
   3   4   6    1.44    0.09
  -4  -4  -6    2.17    0.07
  -4  -4  -6    2.20    0.09
  -4  -4  -6    2.22    0.07
  -4  -4  -6    2.14    0.09
   4   4   6    2.12    0.11
   4   4   6    2.28    0.12
  -5  -4  -6    7.28    0.20
  -5  -4  -6    7.15    0.18
  -5  -4  -6    7.12    0.20
   5   4   6    7.17    0.23
   5   4   6    7.23    0.25
   3  -5  -6   -0.01    0.02
   3  -5  -6    0.01    0.03
   3  -5  -6    0.00    0.03
   3  -5  -6    0.00    0.03
  -3   5   6   -0.02    0.04
  -3   5   6    0.02    0.03
   2  -5  -6    0.05    0.03
   2  -5  -6    0.03    0.03
   2  -5  -6    0.03    0.03
   2  -5  -6    0.03    0.02
  -2   5   6    0.03    0.03
  -2   5   6    0.07    0.03
  -2   5   6    0.04    0.03
   1  -5  -6    0.21    0.03
   1  -5  -6    0.18    0.03
   1  -5  -6    0.22    0.03
  -1   5   6    0.30    0.06
   0  -5  -6    6.58    0.17
   0  -5  -6    6.64    0.17
   0  -5  -6    6.74    0.18
   0   5   6    6.41    0.18
   0   5   6    6.68    0.20
  -1  -5  -6   21.84    0.48
  -1  -5  -6   21.63    0.48
  -1  -5  -6   21.48    0.48
   1   5   6   21.22    0.49
   1   5   6   22.01    0.52
  -2  -5  -6    0.84    0.06
  -2  -5  -6    0.83    0.05
  -2  -5  -6    0.83    0.05
   2   5   6    0.72    0.08
   2   5   6    0.83    0.06
  -3  -5  -6   -0.01    0.02
  -3  -5  -6   -0.02    0.02
  -3  -5  -6   -0.01    0.02
  -3  -5  -6    0.01    0.02
   3   5   6    0.03    0.02
   3   5   6    0.02    0.03
   3   5   6    0.00    0.02
  -4  -5  -6    0.11    0.03
  -4  -5  -6    0.11    0.03
  -4  -5  -6    0.11    0.02
  -4  -5  -6    0.10    0.03
   4   5   6    0.10    0.03
   4   5   6    0.17    0.04
  -5  -5  -6    0.10    0.03
   5   5   6    0.08    0.03
   5   5   6    0.11    0.04
   2  -6  -6    0.02    0.03
  -2   6   6    0.01    0.03
   1  -6  -6    0.03    0.03
   1  -6  -6    0.02    0.03
   1  -6  -6    0.07    0.03
  -1   6   6    0.08    0.02
  -1   6   6    0.09    0.04
   0  -6  -6    2.54    0.09
   0  -6  -6    2.58    0.09
   0   6   6    3.03    0.13
   0   6   6    2.51    0.11
  -1  -6  -6    0.90    0.06
  -1  -6  -6    0.86    0.06
  -1  -6  -6    0.75    0.06
   1   6   6    0.73    0.07
   1   6   6    0.88    0.09
  -2  -6  -6    0.56    0.05
  -2  -6  -6    0.61    0.05
  -2  -6  -6    0.44    0.06
   2   6   6    0.60    0.07
   2   6   6    0.58    0.09
  -3  -6  -6    2.72    0.09
  -3  -6  -6    2.65    0.09
  -3  -6  -6    2.55    0.10
   3   6   6    2.63    0.11
   3   6   6    2.76    0.15
  -4  -6  -6    0.87    0.07
   4   6   6    1.07    0.11
   4   6   6    1.01    0.08
   0  -7  -6   -0.05    0.03
   0   7   6    0.02    0.03
  -1  -7  -6    0.43    0.06
   1   7   6    0.61    0.08
   1   7   6    0.77    0.10
  -2  -7  -6    0.03    0.03
  -2  -7  -6    0.01    0.02
  -2  -7  -6   -0.02    0.03
   2   7   6    0.03    0.03
   2   7   6    0.03    0.03
   0   3  -7    5.64    0.18
   0   3  -7    5.58    0.18
   0  -3   7    6.25    0.19
   0  -3   7    5.80    0.18
  -1   3  -7    0.54    0.07
  -1   3  -7    0.64    0.06
   1  -3   7    0.59    0.08
  -2   3  -7    0.89    0.08
   2  -3   7    0.78    0.08
   2  -3   7    0.83    0.08
  -3   3  -7    1.80    0.08
  -3   3  -7    1.76    0.08
  -3   3  -7    1.76    0.10
   3  -3   7    1.59    0.10
   3  -3   7    1.62    0.11
   2   2  -7   -0.01    0.03
   2   2  -7   -0.03    0.02
  -2  -2   7   -0.02    0.03
   1   2  -7    1.20    0.08
   1   2  -7    1.20    0.08
  -1  -2   7    1.31    0.10
  -1  -2   7    1.36    0.07
   0   2  -7    1.00    0.07
   0   2  -7    0.93    0.07
   0  -2   7    1.01    0.08
   0  -2   7    0.93    0.07
  -1   2  -7    0.04    0.02
  -1   2  -7    0.02    0.02
   1  -2   7    0.03    0.02
   1  -2   7    0.04    0.02
  -2   2  -7    2.55    0.08
  -2   2  -7    2.59    0.10
  -2   2  -7    2.62    0.08
   2  -2   7    2.56    0.10
   2  -2   7    2.85    0.11
   2  -2   7    2.54    0.11
  -3   2  -7    1.16    0.08
  -3   2  -7    1.17    0.06
  -3   2  -7    1.16    0.06
   3  -2   7    1.17    0.08
   3  -2   7    1.38    0.09
   3  -2   7    1.20    0.08
  -4   2  -7    0.82    0.06
  -4   2  -7    0.83    0.07
  -4   2  -7    0.86    0.06
   4  -2   7    0.76    0.08
   4  -2   7    0.72    0.08
   4  -2   7    0.95    0.10
   3   1  -7    1.25    0.09
   3   1  -7    1.39    0.10
   2   1  -7    0.52    0.07
   2   1  -7    0.50    0.07
  -2  -1   7    0.34    0.09
  -2  -1   7    0.44    0.09
   1   1  -7    0.01    0.02
   1   1  -7    0.01    0.02
  -1  -1   7    0.00    0.03
   0   1  -7    1.66    0.08
   0   1  -7    1.57    0.08
   0  -1   7    1.66    0.08
   0  -1   7    1.60    0.09
  -1   1  -7    1.72    0.07
  -1   1  -7    1.73    0.06
  -1   1  -7    1.73    0.06
  -1   1  -7    1.78    0.08
   1  -1   7    1.78    0.08
   1  -1   7    1.77    0.09
  -2   1  -7    0.14    0.02
  -2   1  -7    0.16    0.02
  -2   1  -7    0.10    0.02
   2  -1   7    0.13    0.03
   2  -1   7    0.17    0.03
  -3   1  -7    1.74    0.07
  -3   1  -7    1.73    0.07
  -3   1  -7    1.63    0.08
   3  -1   7    1.69    0.09
   3  -1   7    1.80    0.09
   3  -1   7    1.88    0.10
  -4   1  -7   14.80    0.33
  -4   1  -7   14.53    0.34
  -4   1  -7   14.69    0.33
   4  -1   7   14.03    0.36
   4  -1   7   14.54    0.38
   4  -1   7   13.99    0.36
  -5   1  -7    1.22    0.07
  -5   1  -7    1.24    0.08
  -5   1  -7    1.36    0.08
   5  -1   7    1.48    0.11
   5  -1   7    1.33    0.10
   5  -1   7    1.29    0.09
   3   0  -7    1.92    0.10
   3   0  -7    1.87    0.10
   3   0  -7    1.74    0.10
  -3   0   7    1.69    0.13
  -3   0   7    1.78    0.12
  -3   0   7    1.92    0.10
   2   0  -7    1.94    0.09
   2   0  -7    1.86    0.09
   2   0  -7    1.70    0.09
  -2   0   7    1.80    0.10
  -2   0   7    1.67    0.11
  -2   0   7    1.75    0.10
   1   0  -7    0.40    0.05
   1   0  -7    0.43    0.06
  -1   0   7    0.34    0.07
   0   0  -7   11.44    0.27
   0   0  -7   11.53    0.28
   0   0  -7   11.36    0.26
   0   0   7   11.60    0.27
   0   0   7   11.41    0.29
   0   0   7   11.30    0.29
  -1   0  -7    1.42    0.05
  -1   0  -7    1.41    0.07
  -1   0  -7    1.45    0.05
   1   0   7    1.35    0.08
   1   0   7    1.33    0.07
   1   0   7    1.42    0.08
  -2   0  -7    0.84    0.04
  -2   0  -7    0.81    0.05
  -2   0  -7    0.78    0.06
   2   0   7    0.84    0.05
   2   0   7    0.87    0.06
   2   0   7    0.80    0.06
   2   0   7    0.85    0.07
  -3   0  -7    4.67    0.13
  -3   0  -7    4.67    0.14
  -3   0  -7    4.67    0.12
  -3   0  -7    4.71    0.12
   3   0   7    4.62    0.16
   3   0   7    4.47    0.14
   3   0   7    4.69    0.14
  -4   0  -7    9.67    0.23
  -4   0  -7    9.36    0.25
  -4   0  -7    9.82    0.23
  -4   0  -7    9.79    0.24
   4   0   7    9.67    0.27
   4   0   7    9.17    0.25
   4   0   7    9.25    0.25
  -5   0  -7    0.68    0.06
  -5   0  -7    0.86    0.07
  -5   0  -7    0.77    0.06
   5   0   7    0.74    0.08
   5   0   7    0.82    0.07
   5   0   7    0.94    0.10
   3  -1  -7    0.06    0.03
   3  -1  -7    0.02    0.03
   3  -1  -7    0.07    0.03
  -3   1   7    0.06    0.03
  -3   1   7   -0.01    0.04
  -3   1   7    0.02    0.03
   2  -1  -7    0.90    0.07
   2  -1  -7    1.00    0.07
   2  -1  -7    1.01    0.08
  -2   1   7    0.73    0.10
  -2   1   7    1.05    0.08
  -2   1   7    0.95    0.07
   1  -1  -7    5.24    0.15
   1  -1  -7    5.12    0.15
   1  -1  -7    4.92    0.13
  -1   1   7    5.05    0.17
  -1   1   7    5.02    0.16
  -1   1   7    4.95    0.14
   0  -1  -7   34.59    0.74
   0  -1  -7   34.06    0.76
   0  -1  -7   35.30    0.74
   0  -1  -7   35.04    0.76
   0   1   7   35.71    0.78
   0   1   7   34.16    0.77
   1   1   7    0.08    0.02
   1   1   7    0.10    0.02
   1   1   7    0.10    0.03
  -2  -1  -7    0.01    0.01
  -2  -1  -7    0.01    0.01
  -2  -1  -7    0.01    0.01
  -2  -1  -7    0.01    0.02
   2   1   7    0.01    0.02
   2   1   7    0.01    0.02
   2   1   7   -0.01    0.02
   2   1   7   -0.01    0.02
  -3  -1  -7    0.09    0.02
  -3  -1  -7    0.10    0.02
  -3  -1  -7    0.09    0.02
  -3  -1  -7    0.11    0.02
   3   1   7    0.08    0.02
   3   1   7    0.10    0.02
   3   1   7    0.10    0.02
  -4  -1  -7    0.69    0.05
  -4  -1  -7    0.61    0.05
  -4  -1  -7    0.63    0.06
  -4  -1  -7    0.60    0.05
   4   1   7    0.64    0.07
   4   1   7    0.72    0.07
   4   1   7    0.57    0.06
   4   1   7    0.50    0.06
  -5  -1  -7    0.61    0.06
  -5  -1  -7    0.63    0.05
  -5  -1  -7    0.61    0.05
   5   1   7    0.61    0.07
   5   1   7    0.65    0.07
   5   1   7    0.66    0.09
  -6  -1  -7    4.48    0.13
   6   1   7    4.77    0.19
   6   1   7    4.61    0.17
   3  -2  -7    0.02    0.03
   3  -2  -7    0.04    0.03
  -3   2   7   -0.03    0.04
  -3   2   7    0.03    0.03
  -3   2   7    0.07    0.03
   2  -2  -7    0.03    0.02
   2  -2  -7    0.06    0.03
   2  -2  -7    0.05    0.03
  -2   2   7    0.01    0.04
  -2   2   7    0.08    0.03
   1  -2  -7    4.89    0.13
   1  -2  -7    5.06    0.13
   1  -2  -7    5.14    0.16
   1  -2  -7    5.22    0.15
  -1   2   7    5.38    0.17
  -1   2   7    5.64    0.16
  -1   2   7    5.08    0.14
   0  -2  -7    4.53    0.13
   0  -2  -7    4.37    0.12
   0  -2  -7    4.59    0.11
   0  -2  -7    4.53    0.12
   0   2   7    4.54    0.15
   0   2   7    4.48    0.14
   0   2   7    4.14    0.12
  -1  -2  -7    0.02    0.01
  -1  -2  -7    0.00    0.01
  -1  -2  -7    0.01    0.01
   1   2   7   -0.02    0.02
   1   2   7   -0.02    0.02
  -2  -2  -7    4.05    0.11
  -2  -2  -7    4.13    0.11
  -2  -2  -7    4.07    0.11
  -2  -2  -7    4.12    0.11
   2   2   7    3.97    0.12
   2   2   7    3.85    0.13
   2   2   7    3.85    0.13
  -3  -2  -7    4.59    0.13
  -3  -2  -7    4.44    0.12
  -3  -2  -7    4.57    0.12
  -3  -2  -7    4.46    0.12
   3   2   7    4.38    0.15
   3   2   7    4.37    0.15
   3   2   7    4.45    0.14
  -4  -2  -7    3.00    0.10
  -4  -2  -7    2.92    0.09
  -4  -2  -7    2.87    0.09
   4   2   7    2.90    0.11
   4   2   7    3.03    0.13
   4   2   7    2.97    0.13
  -5  -2  -7    1.25    0.08
  -5  -2  -7    1.37    0.08
  -5  -2  -7    1.29    0.06
  -5  -2  -7    1.23    0.06
   5   2   7    1.39    0.10
   5   2   7    1.29    0.10
   5   2   7    1.24    0.08
  -6  -2  -7    1.17    0.06
  -6  -2  -7    1.29    0.09
  -6  -2  -7    1.37    0.09
   6   2   7    1.29    0.09
   6   2   7    1.24    0.16
   6   2   7    1.35    0.12
   3  -3  -7    0.00    0.03
   3  -3  -7    0.03    0.03
  -3   3   7    0.04    0.03
   2  -3  -7    0.05    0.02
   2  -3  -7    0.08    0.03
   2  -3  -7    0.07    0.03
  -2   3   7    0.14    0.03
  -2   3   7    0.07    0.04
   1  -3  -7    0.37    0.04
   1  -3  -7    0.33    0.06
   1  -3  -7    0.37    0.04
  -1   3   7    0.34    0.05
  -1   3   7    0.31    0.08
   0  -3  -7    2.04    0.07
   0  -3  -7    2.04    0.07
   0  -3  -7    2.01    0.08
   0   3   7    1.97    0.10
   0   3   7    2.08    0.08
   0   3   7    1.87    0.08
  -2  -3  -7    3.72    0.10
  -2  -3  -7    3.75    0.10
  -2  -3  -7    3.71    0.11
  -2  -3  -7    3.61    0.12
  -2  -3  -7    3.73    0.11
   2   3   7    3.72    0.13
   2   3   7    3.65    0.11
   2   3   7    3.64    0.13
  -3  -3  -7    0.27    0.04
  -3  -3  -7    0.34    0.05
  -3  -3  -7    0.24    0.03
  -3  -3  -7    0.22    0.04
   3   3   7    0.26    0.06
   3   3   7    0.28    0.04
  -4  -3  -7    3.29    0.10
  -4  -3  -7    3.36    0.11
  -4  -3  -7    3.33    0.12
  -4  -3  -7    3.29    0.10
   4   3   7    3.23    0.14
   4   3   7    3.42    0.15
   4   3   7    3.28    0.12
  -5  -3  -7    1.36    0.08
  -5  -3  -7    1.32    0.08
  -5  -3  -7    1.31    0.06
  -5  -3  -7    1.33    0.06
   5   3   7    1.34    0.08
   5   3   7    1.39    0.10
   5   3   7    1.44    0.11
   3  -4  -7    0.84    0.08
   3  -4  -7    0.83    0.06
   3  -4  -7    0.78    0.09
  -3   4   7    0.78    0.09
  -3   4   7    0.68    0.12
   2  -4  -7    0.57    0.05
   2  -4  -7    0.50    0.08
   2  -4  -7    0.69    0.05
   2  -4  -7    0.46    0.07
  -2   4   7    0.58    0.10
  -2   4   7    0.69    0.06
  -2   4   7    0.63    0.07
   1  -4  -7   -0.01    0.02
   1  -4  -7   -0.01    0.02
   1  -4  -7   -0.01    0.02
  -1   4   7   -0.03    0.02
  -1   4   7    0.00    0.02
  -1   4   7   -0.01    0.03
   0  -4  -7    0.01    0.02
   0  -4  -7    0.01    0.02
   0  -4  -7    0.02    0.02
   0   4   7    0.03    0.02
   0   4   7    0.00    0.02
  -1  -4  -7    0.25    0.04
  -1  -4  -7    0.25    0.05
  -1  -4  -7    0.24    0.04
   1   4   7    0.30    0.06
   1   4   7    0.31    0.05
   1   4   7    0.21    0.04
  -2  -4  -7    0.01    0.02
  -2  -4  -7    0.02    0.02
  -2  -4  -7    0.00    0.02
   2   4   7    0.01    0.02
   2   4   7    0.02    0.02
   2   4   7    0.01    0.02
  -3  -4  -7    1.64    0.07
  -3  -4  -7    1.64    0.06
  -3  -4  -7    1.73    0.08
  -3  -4  -7    1.64    0.06
   3   4   7    1.71    0.10
   3   4   7    1.76    0.11
   3   4   7    1.67    0.08
  -4  -4  -7   16.76    0.40
  -4  -4  -7   17.27    0.40
  -4  -4  -7   17.05    0.38
  -4  -4  -7   17.21    0.38
   4   4   7   16.97    0.43
   4   4   7   16.85    0.41
   4   4   7   17.20    0.45
  -5  -4  -7    0.12    0.03
  -5  -4  -7    0.13    0.03
  -5  -4  -7    0.09    0.03
  -5  -4  -7    0.11    0.02
   5   4   7    0.13    0.04
   5   4   7    0.12    0.04
   2  -5  -7    0.24    0.03
   2  -5  -7    0.21    0.04
   2  -5  -7    0.22    0.03
   2  -5  -7    0.20    0.04
  -2   5   7    0.24    0.04
   1  -5  -7    1.25    0.07
   1  -5  -7    1.30    0.07
   1  -5  -7    1.29    0.09
   1  -5  -7    1.21    0.11
  -1   5   7    1.52    0.11
  -1   5   7    1.14    0.08
   0  -5  -7    8.27    0.22
   0  -5  -7    8.02    0.20
   0  -5  -7    8.11    0.20
   0   5   7    8.26    0.24
   0   5   7    7.93    0.22
  -1  -5  -7    0.13    0.03
  -1  -5  -7    0.12    0.02
   1   5   7    0.14    0.04
   1   5   7    0.16    0.03
  -2  -5  -7    0.90    0.05
  -2  -5  -7    0.94    0.05
  -2  -5  -7    0.85    0.06
   2   5   7    1.02    0.06
   2   5   7    1.07    0.09
  -3  -5  -7    0.27    0.03
  -3  -5  -7    0.25    0.03
  -3  -5  -7    0.21    0.03
  -4  -5  -7    3.83    0.13
  -4  -5  -7    3.96    0.11
  -4  -5  -7    3.90    0.13
  -4  -5  -7    3.92    0.11
   4   5   7    3.93    0.18
   4   5   7    3.80    0.16
   1  -6  -7    2.56    0.14
   1  -6  -7    3.16    0.13
   1  -6  -7    2.93    0.11
  -1   6   7    2.83    0.13
   0  -6  -7    5.97    0.17
   0  -6  -7    6.12    0.17
   0   6   7    5.72    0.18
   0   6   7    6.82    0.22
  -1  -6  -7    0.15    0.03
  -1  -6  -7    0.15    0.03
   1   6   7    0.13    0.03
   1   6   7    0.16    0.04
  -2  -6  -7    0.02    0.02
  -2  -6  -7   -0.03    0.02
  -2  -6  -7    0.04    0.02
   2   6   7    0.10    0.04
   2   6   7    0.09    0.03
  -3  -6  -7    0.33    0.05
  -3  -6  -7    0.33    0.05
   3   6   7    0.42    0.10
   3   6   7    0.47    0.06
   0   2  -8    0.36    0.06
   0   2  -8    0.36    0.07
   0  -2   8    0.42    0.08
   0  -2   8    0.43    0.07
  -1   2  -8    1.19    0.08
   1  -2   8    1.20    0.08
   1  -2   8    1.31    0.10
  -2   2  -8    1.95    0.10
  -2   2  -8    1.91    0.08
   2  -2   8    1.83    0.10
   2  -2   8    2.27    0.11
  -3   2  -8    0.73    0.06
  -3   2  -8    0.83    0.06
  -3   2  -8    0.80    0.08
   3  -2   8    0.73    0.08
   3  -2   8    0.70    0.08
   1   1  -8    0.42    0.07
   1   1  -8    0.36    0.07
  -1  -1   8    0.58    0.09
   0   1  -8    0.11    0.03
   0   1  -8    0.12    0.03
   0  -1   8    0.09    0.03
  -1   1  -8    2.07    0.10
  -1   1  -8    2.14    0.08
   1  -1   8    2.11    0.10
   1  -1   8    2.25    0.11
  -2   1  -8    0.50    0.06
  -2   1  -8    0.43    0.05
  -2   1  -8    0.44    0.05
   2  -1   8    0.50    0.06
  -3   1  -8    2.47    0.09
  -3   1  -8    2.58    0.10
  -3   1  -8    2.41    0.09
   3  -1   8    2.64    0.13
   3  -1   8    2.35    0.11
   3  -1   8    2.37    0.10
  -4   1  -8    0.31    0.05
  -4   1  -8    0.20    0.03
  -4   1  -8    0.42    0.06
   4  -1   8    0.32    0.07
   4  -1   8    0.33    0.07
   2   0  -8   -0.05    0.03
   2   0  -8   -0.03    0.02
  -2   0   8    0.01    0.03
   1   0  -8    0.09    0.03
   1   0  -8    0.10    0.03
  -1   0   8    0.14    0.03
   0   0  -8    1.58    0.08
   0   0  -8    1.58    0.11
   0   0   8    1.38    0.10
   0   0   8    1.54    0.09
  -1   0  -8   -0.02    0.02
  -1   0  -8    0.02    0.02
  -1   0  -8    0.00    0.02
   1   0   8    0.01    0.02
   1   0   8    0.02    0.02
  -2   0  -8    1.63    0.08
  -2   0  -8    1.70    0.07
  -2   0  -8    1.69    0.07
   2   0   8    1.79    0.10
   2   0   8    1.63    0.08
  -3   0  -8   18.13    0.40
  -3   0  -8   18.24    0.40
  -3   0  -8   18.00    0.42
  -3   0  -8   17.73    0.42
   3   0   8   17.40    0.42
   3   0   8   17.89    0.44
   3   0   8   17.04    0.43
  -4   0  -8    0.97    0.06
  -4   0  -8    0.99    0.07
  -4   0  -8    0.98    0.06
  -4   0  -8    1.05    0.08
   4   0   8    1.08    0.08
   4   0   8    1.04    0.08
   4   0   8    1.20    0.10
  -5   0  -8    0.44    0.05
   5   0   8    0.46    0.08
   2  -1  -8    0.52    0.08
   2  -1  -8    0.43    0.07
  -2   1   8    0.59    0.09
   1  -1  -8    6.29    0.18
   1  -1  -8    5.92    0.18
  -1   1   8    6.35    0.19
  -1   1   8    5.84    0.20
   0  -1  -8    0.64    0.06
   0  -1  -8    0.59    0.04
   0   1   8    0.51    0.08
   0   1   8    0.60    0.07
  -1  -1  -8    0.78    0.05
  -1  -1  -8    0.76    0.06
  -1  -1  -8    0.78    0.05
   1   1   8    0.82    0.07
   1   1   8    0.79    0.07
  -2  -1  -8    1.80    0.07
  -2  -1  -8    1.78    0.07
  -2  -1  -8    1.79    0.08
   2   1   8    1.77    0.08
   2   1   8    1.88    0.09
   2   1   8    1.85    0.10
  -3  -1  -8    6.42    0.16
  -3  -1  -8    6.39    0.17
  -3  -1  -8    6.49    0.16
  -3  -1  -8    6.33    0.17
   3   1   8    6.17    0.18
   3   1   8    6.29    0.20
   3   1   8    6.18    0.17
   3   1   8    5.95    0.19
  -4  -1  -8    0.82    0.07
  -4  -1  -8    0.79    0.06
  -4  -1  -8    0.79    0.06
   4   1   8    0.77    0.08
   4   1   8    0.90    0.09
   4   1   8    0.82    0.07
  -5  -1  -8    4.72    0.14
  -5  -1  -8    4.70    0.16
   5   1   8    5.02    0.19
   5   1   8    4.66    0.17
   2  -2  -8    3.05    0.13
   2  -2  -8    2.93    0.12
  -2   2   8    2.89    0.16
  -2   2   8    3.32    0.13
  -2   2   8    2.82    0.11
   1  -2  -8   10.99    0.28
   1  -2  -8   10.91    0.26
   1  -2  -8   11.46    0.29
  -1   2   8   11.34    0.29
  -1   2   8   11.38    0.31
   0  -2  -8    0.01    0.02
   0  -2  -8    0.03    0.02
   0  -2  -8    0.01    0.02
   0   2   8   -0.01    0.03
   0   2   8    0.01    0.02
  -1  -2  -8    0.06    0.02
  -1  -2  -8    0.03    0.02
  -1  -2  -8    0.05    0.02
   1   2   8    0.03    0.02
   1   2   8    0.04    0.02
  -2  -2  -8    0.33    0.04
  -2  -2  -8    0.30    0.04
  -2  -2  -8    0.38    0.05
   2   2   8    0.35    0.06
   2   2   8    0.42    0.06
  -3  -2  -8    1.04    0.06
  -3  -2  -8    1.14    0.06
  -3  -2  -8    1.02    0.05
  -3  -2  -8    1.06    0.06
   3   2   8    1.07    0.07
   3   2   8    1.09    0.08
   3   2   8    1.17    0.08
  -4  -2  -8    0.82    0.05
  -4  -2  -8    0.78    0.07
  -4  -2  -8    0.79    0.05
   4   2   8    0.90    0.09
   4   2   8    0.81    0.09
   4   2   8    0.79    0.07
  -5  -2  -8    6.68    0.19
  -5  -2  -8    6.59    0.17
  -5  -2  -8    6.68    0.18
   5   2   8    6.48    0.20
   5   2   8    6.82    0.23
   2  -3  -8    1.89    0.08
   2  -3  -8    1.79    0.10
   2  -3  -8    2.11    0.11
  -2   3   8    2.14    0.15
  -2   3   8    1.95    0.10
   1  -3  -8    1.35    0.09
   1  -3  -8    1.27    0.06
   1  -3  -8    1.19    0.06
  -1   3   8    1.02    0.07
  -1   3   8    1.24    0.11
  -1   3   8    1.40    0.08
   0  -3  -8    0.03    0.02
   0  -3  -8    0.01    0.02
   0  -3  -8    0.00    0.02
   0   3   8    0.04    0.02
   0   3   8    0.02    0.03
  -1  -3  -8    3.04    0.09
  -1  -3  -8    3.01    0.09
  -1  -3  -8    3.09    0.11
   1   3   8    3.05    0.12
   1   3   8    2.99    0.13
  -2  -3  -8    1.67    0.07
  -2  -3  -8    1.53    0.06
  -2  -3  -8    1.56    0.06
   2   3   8    1.56    0.09
   2   3   8    1.56    0.10
  -3  -3  -8    0.90    0.05
  -3  -3  -8    0.82    0.06
  -3  -3  -8    0.92    0.05
  -3  -3  -8    1.13    0.07
   3   3   8    0.93    0.08
   3   3   8    1.04    0.09
   3   3   8    0.88    0.06
  -4  -3  -8    0.96    0.07
  -4  -3  -8    1.13    0.07
  -4  -3  -8    0.93    0.06
  -4  -3  -8    0.98    0.06
   4   3   8    0.97    0.07
   4   3   8    1.08    0.10
   4   3   8    1.00    0.09
  -5  -3  -8    1.40    0.08
  -5  -3  -8    1.43    0.09
  -5  -3  -8    1.49    0.09
  -5  -3  -8    1.39    0.07
   5   3   8    1.29    0.09
   5   3   8    1.22    0.11
   5   3   8    1.51    0.12
   2  -4  -8    0.09    0.03
   2  -4  -8    0.02    0.03
   2  -4  -8    0.06    0.03
  -2   4   8    0.03    0.03
  -2   4   8    0.06    0.04
  -2   4   8    0.11    0.03
   1  -4  -8    0.16    0.03
   1  -4  -8    0.14    0.02
   1  -4  -8    0.10    0.03
  -1   4   8    0.17    0.04
  -1   4   8    0.10    0.03
   0  -4  -8    0.17    0.03
   0  -4  -8    0.14    0.03
   0  -4  -8    0.19    0.03
   0   4   8    0.10    0.03
  -1  -4  -8    1.66    0.08
  -1  -4  -8    1.61    0.07
  -1  -4  -8    1.63    0.07
   1   4   8    1.78    0.11
   1   4   8    1.79    0.09
  -2  -4  -8   -0.01    0.02
  -2  -4  -8    0.00    0.02
   2   4   8    0.02    0.03
   2   4   8    0.02    0.02
  -3  -4  -8    4.38    0.13
  -3  -4  -8    4.52    0.13
  -3  -4  -8    4.61    0.13
   3   4   8    4.57    0.18
   3   4   8    4.48    0.17
  -4  -4  -8    0.61    0.05
  -4  -4  -8    0.60    0.05
  -4  -4  -8    0.67    0.06
  -4  -4  -8    0.57    0.06
   4   4   8    0.65    0.09
   4   4   8    0.75    0.10
   4   4   8    0.52    0.06
   1  -5  -8    0.12    0.03
   1  -5  -8    0.15    0.03
   1  -5  -8    0.15    0.03
  -1   5   8    0.11    0.04
   0  -5  -8    0.14    0.03
   0  -5  -8    0.13    0.03
   0  -5  -8    0.07    0.03
   0   5   8    0.11    0.04
  -1  -5  -8    0.06    0.02
   1   5   8    0.06    0.03
  -2  -5  -8    0.37    0.05
  -2  -5  -8    0.38    0.05
  -3  -5  -8    9.74    0.24
  -3  -5  -8    9.88    0.24
  -3  -5  -8    9.74    0.25
   3   5   8   10.34    0.30
   3   5   8   10.55    0.31
  -4  -5  -8    0.00    0.03
  -4  -5  -8    0.02    0.02
   4   5   8    0.05    0.04
   4   5   8    0.04    0.03
   0  -6  -8   -0.02    0.03
   0   6   8    0.03    0.03
   1   6   8    0.35    0.06
  -2  -6  -8   -0.02    0.02
  -2   1  -9    0.33    0.07
   2  -1   9    0.38    0.07
   0   0  -9    1.09    0.09
   0   0   9    1.37    0.10
  -2   0  -9    3.56    0.11
  -2   0  -9    3.66    0.13
  -2   0  -9    3.52    0.11
   2   0   9    3.47    0.13
   2   0   9    3.87    0.15
  -3   0  -9    0.10    0.03
  -3   0  -9    0.09    0.03
  -3   0  -9    0.07    0.03
   3   0   9    0.11    0.03
   1  -1  -9    0.73    0.08
  -1   1   9    0.51    0.11
   0  -1  -9    0.02    0.02
   0   1   9    0.04    0.03
   0   1   9    0.00    0.03
  -1  -1  -9    0.54    0.05
  -1  -1  -9    0.63    0.05
  -1  -1  -9    0.64    0.07
   1   1   9    0.81    0.08
  -2  -1  -9   12.67    0.30
  -2  -1  -9   13.01    0.30
  -2  -1  -9   12.51    0.31
   2   1   9   12.65    0.34
  -3  -1  -9    0.69    0.05
  -3  -1  -9    0.76    0.07
  -3  -1  -9    0.69    0.06
   3   1   9    0.73    0.07
   3   1   9    0.85    0.09
  -4  -1  -9    0.67    0.06
  -4  -1  -9    0.78    0.07
   4   1   9    0.59    0.08
   4   1   9    0.79    0.09
   0  -2  -9    0.18    0.03
   0  -2  -9    0.22    0.03
   0   2   9    0.31    0.08
  -1  -2  -9    0.13    0.03
  -1  -2  -9    0.14    0.03
  -1  -2  -9    0.14    0.03
  -2  -2  -9    2.74    0.11
  -2  -2  -9    2.59    0.09
  -2  -2  -9    2.68    0.09
   2   2   9    2.77    0.13
   2   2   9    2.88    0.12
  -3  -2  -9    0.82    0.07
  -3  -2  -9    0.74    0.05
  -3  -2  -9    0.72    0.06
   3   2   9    0.75    0.09
   3   2   9    0.82    0.08
  -4  -2  -9    5.96    0.18
  -4  -2  -9    6.03    0.16
   4   2   9    6.04    0.21
   4   2   9    5.84    0.19
   1  -3  -9    0.02    0.02
   1  -3  -9    0.00    0.03
  -1   3   9    0.00    0.04
   0  -3  -9    0.04    0.02
   0  -3  -9    0.06    0.03
   0  -3  -9    0.04    0.03
   0   3   9    0.08    0.04
  -1  -3  -9    0.09    0.02
  -1  -3  -9    0.12    0.03
  -1  -3  -9    0.11    0.03
  -2  -3  -9    0.51    0.06
  -2  -3  -9    0.44    0.05
  -2  -3  -9    0.40    0.05
   2   3   9    0.59    0.08
  -3  -3  -9    0.46    0.05
  -3  -3  -9    0.46    0.05
   3   3   9    0.66    0.08
   3   3   9    0.55    0.08
  -4  -3  -9    7.07    0.18
  -4  -3  -9    7.16    0.20
   4   3   9    7.08    0.24
   4   3   9    7.26    0.22
   4   3   9    7.01    0.24
   0  -4  -9    1.35    0.09
   0  -4  -9    1.30    0.07
   0  -4  -9    1.31    0.07
   0   4   9    1.66    0.12
  -1  -4  -9    0.32    0.06
  -1  -4  -9    0.18    0.03
  -1  -4  -9    0.20    0.03
   1   4   9    0.19    0.05
  -2  -4  -9    0.02    0.02
  -2  -4  -9    0.01    0.02
   2   4   9    0.08    0.03
   2   4   9    0.05    0.02
   3   4   9    0.66    0.09
   3   4   9    0.51    0.08
  -1  -5  -9    0.00    0.02
  -2  -5  -9    3.12    0.11
   2   5   9    3.62    0.17
   0   0   0    0.00    0.00
;
_shelx_hkl_checksum              79627
_shelx_shelxl_version_number     2014/7
_olex2_submission_special_instructions 'No special instructions were received'
loop_
_space_group_symop_operation_xyz
'x, y, z'
'-x, -y, -z'
loop_
_atom_site_label
_atom_site_type_symbol
_atom_site_fract_x
_atom_site_fract_y
_atom_site_fract_z
_atom_site_U_iso_or_equiv
_atom_site_adp_type
_atom_site_occupancy
_atom_site_site_symmetry_order
_atom_site_calc_flag
_atom_site_refinement_flags_posn
O2 O 0.7805(2) 0.8036(2) 0.95758(15) 0.0400(4) Uani 1 1 d .
O1 O 0.9303(2) 1.2116(2) 0.77363(15) 0.0404(4) Uani 1 1 d .
C3 C 0.6617(3) 1.2183(3) 0.4709(2) 0.0287(4) Uani 1 1 d .
H3 H 0.7697 1.3637 0.4520 0.034 Uiso 1 1 calc R
C2 C 0.6406(2) 1.0027(2) 0.64631(17) 0.0247(4) Uani 1 1 d .
C4 C 0.4794(3) 0.7844(3) 0.6762(2) 0.0291(4) Uani 1 1 d .
H4 H 0.4661 0.6409 0.7941 0.035 Uiso 1 1 calc R
C1 C 0.7923(2) 1.0034(2) 0.80417(18) 0.0276(4) Uani 1 1 d .
H1 H 1.048(7) 1.216(6) 0.892(5) 0.149(14) Uiso 1 1 d .
loop_
_atom_site_aniso_label
_atom_site_aniso_U_11
_atom_site_aniso_U_22
_atom_site_aniso_U_33
_atom_site_aniso_U_23
_atom_site_aniso_U_13
_atom_site_aniso_U_12
O2 0.0487(7) 0.0408(6) 0.0304(6) 0.0009(4) -0.0221(5) -0.0118(5)
O1 0.0503(7) 0.0377(6) 0.0383(6) -0.0058(5) -0.0249(5) -0.0125(5)
C3 0.0326(6) 0.0272(6) 0.0285(7) -0.0061(5) -0.0131(5) -0.0055(5)
C2 0.0238(6) 0.0293(7) 0.0238(7) -0.0097(5) -0.0087(5) 0.0010(5)
C4 0.0350(7) 0.0279(6) 0.0241(7) -0.0021(5) -0.0135(5) -0.0039(5)
C1 0.0275(6) 0.0327(7) 0.0249(7) -0.0086(5) -0.0101(5) -0.0014(5)
loop_
_atom_type_symbol
_atom_type_description
_atom_type_scat_dispersion_real
_atom_type_scat_dispersion_imag
_atom_type_scat_source
C C 0.0033 0.0016 'International Tables Vol C Tables 4.2.6.8 and 6.1.1.4'
O O 0.0106 0.0060 'International Tables Vol C Tables 4.2.6.8 and 6.1.1.4'
H H 0.0000 0.0000 'International Tables Vol C Tables 4.2.6.8 and 6.1.1.4'
loop_
_geom_angle_atom_site_label_1
_geom_angle_atom_site_label_2
_geom_angle_atom_site_label_3
_geom_angle
_geom_angle_site_symmetry_1
C1 O1 H1 118.3(16) .
C2 C3 H3 120.2 .
C4 C3 H3 120.2 2_676
C4 C3 C2 119.68(12) 2_676
C3 C2 C4 120.64(12) .
C3 C2 C1 120.03(12) .
C4 C2 C1 119.33(12) .
C3 C4 C2 119.68(13) 2_676
C3 C4 H4 120.2 2_676
C2 C4 H4 120.2 .
O2 C1 O1 123.47(11) .
O2 C1 C2 119.42(11) .
O1 C1 C2 117.11(11) .
loop_
_geom_bond_atom_site_label_1
_geom_bond_atom_site_label_2
_geom_bond_distance
_geom_bond_site_symmetry_2
O2 C1 1.2531(16) .
O1 C1 1.2781(16) .
O1 H1 1.13(4) .
C3 H3 0.9300 .
C3 C2 1.3896(19) .
C3 C4 1.3890(19) 2_676
C2 C4 1.3904(18) .
C2 C1 1.4887(16) .
C4 C3 1.3890(19) 2_676
C4 H4 0.9300 .
loop_
_geom_torsion_atom_site_label_1
_geom_torsion_atom_site_label_2
_geom_torsion_atom_site_label_3
_geom_torsion_atom_site_label_4
_geom_torsion
_geom_torsion_site_symmetry_1
_geom_torsion_site_symmetry_4
C3 C2 C4 C3 0.1(2) . 2_676
C3 C2 C1 O2 -177.13(11) . .
C3 C2 C1 O1 2.57(19) . .
C4 C3 C2 C4 -0.1(2) 2_676 .
C4 C3 C2 C1 179.68(10) 2_676 .
C4 C2 C1 O2 2.63(19) . .
C4 C2 C1 O1 -177.66(10) . .
C1 C2 C4 C3 -179.69(10) . 2_676
