#------------------------------------------------------------------------------
#$Date: 2019-11-25 11:09:29 +0200 (Mon, 25 Nov 2019) $
#$Revision: 240726 $
#$URL: file:///home/coder/svn-repositories/cod/cif/4/13/01/4130191.cif $
#------------------------------------------------------------------------------
#
# This file is available in the Crystallography Open Database (COD),
# http://www.crystallography.net/
#
# All data on this site have been placed in the public domain by the
# contributors.
#
data_4130191
loop_
_publ_author_name
'White, Paul B.'
'Jaworski, Jonathan N.'
'Fry, Charles G.'
'Dolinar, Brian S.'
'Guzei, Ilia A.'
'Stahl, Shannon S.'
_publ_section_title
;
 Structurally Diverse Diazafluorene-Ligated Palladium(II) Complexes and
 Their Implications for Aerobic Oxidation Reactions.
;
_journal_issue                   14
_journal_name_full               'Journal of the American Chemical Society'
_journal_page_first              4869
_journal_page_last               4880
_journal_paper_doi               10.1021/jacs.6b01188
_journal_volume                  138
_journal_year                    2016
_chemical_formula_moiety         'C26 H18 N4 O6 Pd, 2(C H Cl3)'
_chemical_formula_sum            'C28 H20 Cl6 N4 O6 Pd'
_chemical_formula_weight         827.58
_space_group_crystal_system      triclinic
_space_group_IT_number           2
_space_group_name_Hall           '-P 1'
_space_group_name_H-M_alt        'P -1'
_atom_sites_solution_hydrogens   geom
_audit_creation_date             2012-10-12
_audit_creation_method
;
  Olex2 1.2-dev
  (compiled Oct  2 2012 15:48:42, GUI svn.r4353)
;
_cell_angle_alpha                73.333(5)
_cell_angle_beta                 88.112(7)
_cell_angle_gamma                88.791(6)
_cell_formula_units_Z            1
_cell_length_a                   5.9835(5)
_cell_length_b                   10.4400(9)
_cell_length_c                   12.697(2)
_cell_measurement_reflns_used    6660
_cell_measurement_temperature    100(2)
_cell_measurement_theta_max      71.566
_cell_measurement_theta_min      3.635
_cell_volume                     759.36(15)
_computing_cell_refinement       'SAINT+ Ver. 7.68A (Bruker-AXS, 2009)'
_computing_data_collection       'APEX2 Ver. 2012.14-3 (Bruker-AXS, 2012)'
_computing_data_reduction        'SAINT+ Ver. 7.68A'
_computing_molecular_graphics
;
O. V. Dolomanov, L. J. Bourhis, R. J. Gildea, J. A. K. Howard and H. Puschmann,
OLEX2: a complete structure solution, refinement and analysis program.
J. Appl. Cryst. (2009). 42, 339-341.
;
_computing_publication_material
;
O. V. Dolomanov, L. J. Bourhis, R. J. Gildea, J. A. K. Howard and H. Puschmann,
OLEX2: a complete structure solution, refinement and analysis program.
J. Appl. Cryst. (2009). 42, 339-341.
;
_computing_structure_refinement  SHELXTL
_computing_structure_solution    'SHELXTL (Sheldrick, 2008-2012)'
_diffrn_ambient_temperature      100.03
_diffrn_detector_area_resol_mean 7.9
_diffrn_detector_type            'CCD area detector'
_diffrn_measured_fraction_theta_full 0.967
_diffrn_measured_fraction_theta_max 0.942
_diffrn_measurement_device       'three-circle diffractometer'
_diffrn_measurement_device_type  'Bruker SMART APEX2 area detector'
_diffrn_measurement_method       '0.60\% \w and 0.6\% \f scans'
_diffrn_radiation_collimation    '0.5 mm double-pinhole'
_diffrn_radiation_monochromator  'equatorially mounted graphite'
_diffrn_radiation_probe          x-ray
_diffrn_radiation_type           'Cu K\a'
_diffrn_radiation_wavelength     1.54178
_diffrn_radiation_xray_symbol    K-L~3~
_diffrn_reflns_av_R_equivalents  0.0242
_diffrn_reflns_Laue_measured_fraction_full 0.967
_diffrn_reflns_Laue_measured_fraction_max 0.942
_diffrn_reflns_limit_h_max       7
_diffrn_reflns_limit_h_min       -7
_diffrn_reflns_limit_k_max       12
_diffrn_reflns_limit_k_min       -12
_diffrn_reflns_limit_l_max       13
_diffrn_reflns_limit_l_min       -15
_diffrn_reflns_number            12291
_diffrn_reflns_point_group_measured_fraction_full 0.967
_diffrn_reflns_point_group_measured_fraction_max 0.942
_diffrn_reflns_theta_full        67.000
_diffrn_reflns_theta_max         72.085
_diffrn_reflns_theta_min         3.635
_diffrn_source                   'sealed X-ray tube'
_diffrn_source_type              'Siemens, K FFCU 2K 90'
_diffrn_standards_number         0
_exptl_absorpt_coefficient_mu    10.231
_exptl_absorpt_correction_T_max  0.7660
_exptl_absorpt_correction_T_min  0.4588
_exptl_absorpt_correction_type   analytical
_exptl_absorpt_process_details
;
? was used for absorption correction.
wR2(int) was 0.0586 before and 0.0345 after correction.
The Ratio of minimum to maximum transmission is 0.5990.
The \l/2 correction factor is 0.0015.
;
_exptl_crystal_colour            'light yellow'
_exptl_crystal_colour_modifier   light
_exptl_crystal_colour_primary    yellow
_exptl_crystal_density_diffrn    1.810
_exptl_crystal_density_method    'not measured'
_exptl_crystal_description       block
_exptl_crystal_F_000             412
_exptl_crystal_size_max          0.153
_exptl_crystal_size_mid          0.054
_exptl_crystal_size_min          0.046
_refine_diff_density_max         0.497
_refine_diff_density_min         -0.316
_refine_diff_density_rms         0.069
_refine_ls_extinction_method     none
_refine_ls_goodness_of_fit_ref   1.068
_refine_ls_hydrogen_treatment    constr
_refine_ls_matrix_type           full
_refine_ls_number_parameters     206
_refine_ls_number_reflns         2820
_refine_ls_number_restraints     0
_refine_ls_restrained_S_all      1.068
_refine_ls_R_factor_all          0.0245
_refine_ls_R_factor_gt           0.0226
_refine_ls_shift/su_max          0.000
_refine_ls_shift/su_mean         0.000
_refine_ls_structure_factor_coef Fsqd
_refine_ls_weighting_details
;
 w=1/[\s^2^(Fo^2^)+(0.0306P)^2^+0.4722P]
 where P=(Fo^2^+2Fc^2^)/3
;
_refine_ls_weighting_scheme      calc
_refine_ls_wR_factor_gt          0.0543
_refine_ls_wR_factor_ref         0.0551
_reflns_Friedel_coverage         0.000
_reflns_number_gt                2686
_reflns_number_total             2820
_reflns_threshold_expression     'I > 2\s(I)'
_cod_data_source_file            ja6b01188_si_002.cif
_cod_data_source_block           Structure-E
_cod_original_cell_volume        759.35(15)
_cod_database_code               4130191
_diffrn_reflns_sigmai/neti       0.0194
_olex2_refinement_description
;
1. Fixed Uiso
 At 1.2 times of:
  H8 of C8, H9 of C9, H14 of C14, H3 of C3, H7 of C7, H1 of C1, H2 of C2
 At 1.5 times of:
  {H13A,H13B,H13C} of C13
2.a Ternary CH refined with riding coordinates:
 C14(H14)
2.b Aromatic/amide H refined with riding coordinates:
 C1(H1), C2(H2), C3(H3), C7(H7), C8(H8), C9(H9)
2.c Idealised Me refined as rotating group:
 C13(H13A,H13B,H13C)
;
_shelx_estimated_absorpt_t_max   0.650
_shelx_estimated_absorpt_t_min   0.304
_shelx_hkl_checksum              46192
_shelx_hkl_file
;
  -1   0   0 2451.43 38.2634   7
  -1   0   0 2432.22 40.2004   4
  -1   0   0 2436.87 38.6735   6
   1   0   0 2424.83 37.5140   5
   1   0   0 2395.28 38.3150   7
   1   0   0 2505.91 41.0342   2
   1   0   0 2499.77 39.6923   3
  -2   0   0 1251.16 22.1794   6
  -2   0   0 1209.92 20.7539   7
  -2   0   0 1271.83 24.7390   9
  -2   0   0 1282.71 22.7588   4
   2   0   0 1286.33 23.3474   2
   2   0   0 1257.84 21.4819   7
   2   0   0 1264.39 21.8229   5
   2   0   0 1283.66 22.6285   3
  -3   0   0 307.094 8.85299   6
  -3   0   0 310.326 10.2467   9
   3   0   0 308.119 7.91309   7
   3   0   0 298.066 8.69655  10
   3   0   0 296.166 8.55504   3
   3   0   0 320.933 9.13700   2
   3   0   0 306.675 8.89976   5
   3   0   0 315.141 8.94426   8
  -4   0   0 49.9756 4.90331   6
  -4   0   0 53.4902 6.22878   9
  -4   0   0 58.4009 4.25839  12
   4   0   0 52.6308 4.60705   8
   4   0   0 51.8883 5.14088   5
   4   0   0 60.1074 4.66851  10
   4   0   0 57.2504 4.35252   7
  -5   0   0 331.060 10.0956  12
  -5   0   0 324.733 9.51915  17
  -5   0   0 320.161 8.02756  18
   5   0   0 308.290 10.3456  15
   5   0   0 324.230 11.1166   8
   5   0   0 329.651 11.3833  10
  -6   0   0 12.4486 2.93462  17
  -6   0   0 10.7520 3.09773  12
   6   0   0 14.3492 4.07111  10
   6   0   0 9.01844 3.12628  15
  -7   0   0 89.3148 4.18823  17
   7   0   0 87.9903 4.25781  18
   7   0   0 87.4406 4.85473  15
   7  -1   0 10.8320 2.37428  18
   7  -1   0 10.5932 2.55623  15
   6  -1   0 111.581 6.31480  15
  -6   1   0 112.290 5.78527  17
  -6   1   0 110.748 6.04058  12
   5  -1   0 35.9331 4.59142  10
   5  -1   0 47.6828 5.06698   8
   5  -1   0 46.2089 4.31113  15
  -5   1   0 45.3093 4.30090  12
  -5   1   0 38.1481 3.81346  17
  -5   1   0 36.7418 2.96590  18
   4  -1   0 6.73453 2.61770  10
   4  -1   0 0.61034 2.83591   2
   4  -1   0 3.01784 2.42115   8
   4  -1   0 2.55477 2.79982   5
   4  -1   0 7.84082 2.68665   7
  -4   1   0 -0.1454 1.98504  12
  -4   1   0 -1.3829 2.36282   6
   3  -1   0 311.506 9.22634   5
   3  -1   0 316.697 9.00307   8
   3  -1   0 288.520 8.65170  10
   3  -1   0 308.512 9.30902   3
   3  -1   0 307.417 9.54384   2
   3  -1   0 313.269 8.09359   7
  -3   1   0 312.055 8.69071   6
  -3   1   0 295.377 9.89560   9
   2  -1   0 3.06079 1.95655   5
   2  -1   0 3.34816 1.63077   7
   2  -1   0 4.15184 1.98807   3
   2  -1   0 5.32002 2.17831   2
  -2   1   0 4.27383 1.69245   6
  -2   1   0 4.77506 1.38384   7
  -2   1   0 5.19306 1.31366   4
   1  -1   0 105.729 3.99321   2
   1  -1   0 106.563 3.71301   5
   1  -1   0 106.236 3.96037   3
   1  -1   0 102.733 3.04010   7
  -1   1   0 107.629 2.63100   4
  -1   1   0 104.549 2.90656   7
  -1   1   0 103.192 3.24021   6
   0  -1   0 665.728 11.5890   7
   0  -1   0 700.903 12.0134   6
   0  -1   0 697.608 11.4860   5
   0  -1   0 697.566 12.2913   4
   0   1   0 701.239 11.4517   7
  -1  -1   0 237.720 5.87905   4
  -1  -1   0 242.444 5.60410   6
  -1  -1   0 230.999 4.80873   7
   1   1   0 234.115 4.77381   3
   1   1   0 243.081 5.09156   7
   1   1   0 232.460 4.93578   2
   1   1   0 233.342 5.01645   5
  -2  -1   0 42.0577 2.45525   7
  -2  -1   0 40.5553 3.25185   4
  -2  -1   0 37.1261 2.99918   6
  -2  -1   0 38.1961 3.65638   9
   2   1   0 36.9950 2.61278   2
   2   1   0 38.2913 2.60572   3
   2   1   0 37.7756 2.50768   7
   2   1   0 36.9659 2.72993   5
  -3  -1   0 15.1779 2.74371   6
  -3  -1   0 18.2460 2.60831  10
  -3  -1   0 16.1118 3.38913   9
  -3  -1   0 16.5663 3.14852   4
   3   1   0 17.1859 2.82629   8
   3   1   0 18.3211 2.48172   3
   3   1   0 16.7513 2.50306   2
   3   1   0 19.0139 2.90455   5
   3   1   0 16.6961 2.44802   7
  -4  -1   0 241.181 7.91139  12
  -4  -1   0 241.682 11.2129   9
  -4  -1   0 251.495 9.58881   6
   4   1   0 242.391 8.22639   7
   4   1   0 251.892 9.47105   5
   4   1   0 240.055 8.70779   8
   4   1   0 252.248 8.71122  10
  -5  -1   0 225.496 12.6743   9
  -5  -1   0 217.571 6.25768  18
  -5  -1   0 207.366 7.76057  17
  -5  -1   0 216.403 8.14984  12
   5   1   0 217.334 9.21297  10
   5   1   0 220.295 9.23882   8
   5   1   0 216.082 8.60944  15
  -6  -1   0 49.5798 4.59332  12
  -6  -1   0 55.5368 4.31332  17
   6   1   0 55.9215 5.10899  15
  -7  -1   0 48.4430 3.25771  17
   7   1   0 48.6048 3.58024  18
   7   1   0 36.9678 3.67973  15
   7  -2   0 159.102 5.40354  18
   6  -2   0 155.860 7.00347  15
   6  -2   0 155.153 8.16987  10
  -6   2   0 160.430 7.12806  12
   5  -2   0 222.823 8.49468  15
   5  -2   0 224.841 9.33492   8
   5  -2   0 220.988 9.43904  10
  -5   2   0 222.433 8.17493  12
  -5   2   0 214.901 6.25218  18
   4  -2   0 44.1218 4.49509  10
   4  -2   0 39.0779 5.03200   3
   4  -2   0 31.0110 4.46413   5
   4  -2   0 36.7471 5.14438   2
   4  -2   0 50.4853 4.66378   8
   4  -2   0 41.8670 4.23977   7
  -4   2   0 38.2696 3.65908  12
   3  -2   0 45.6334 3.74987   8
   3  -2   0 43.1968 3.73874  10
   3  -2   0 40.8401 3.94947   5
   3  -2   0 47.5590 4.68205   2
   3  -2   0 49.2832 3.42172   7
   3  -2   0 42.4329 4.27475   3
  -3   2   0 39.7568 3.65421   6
   2  -2   0 1683.85 28.9047   7
   2  -2   0 1728.27 29.4481   5
   2  -2   0 1752.21 31.6529   3
   2  -2   0 1728.99 32.5991   2
  -2   2   0 1726.43 29.3585   6
   1  -2   0 149.646 4.83897   5
   1  -2   0 149.188 5.38153   3
   1  -2   0 145.732 4.22568   7
   1  -2   0 147.426 4.80937   1
   1  -2   0 144.764 5.45261   2
   1  -2   0 143.864 3.59500   4
   1  -2   0 144.907 4.27762   6
  -1   2   0 137.776 4.03581   7
   0  -2   0 904.770 16.6033   4
   0  -2   0 896.021 15.6404   7
   0  -2   0 894.302 16.0814   3
   0  -2   0 887.576 16.6200   2
   0  -2   0 897.701 16.3246   6
   0  -2   0 875.151 17.4058   1
   0  -2   0 910.027 15.4796   5
   0   2   0 912.027 15.3007   7
  -1  -2   0 1602.64 27.9682   6
  -1  -2   0 1659.78 26.2736   5
  -1  -2   0 1683.37 30.2662   1
  -1  -2   0 1668.13 29.6849   4
  -1  -2   0 1646.35 26.8525   7
   1   2   0 1678.08 27.2158   3
   1   2   0 1674.28 28.1631   2
   1   2   0 1657.63 27.1800   7
  -2  -2   0 70.4690 4.14968   1
  -2  -2   0 67.5529 4.00739   6
  -2  -2   0 65.4509 4.61914   9
  -2  -2   0 72.1909 4.39534   4
   2   2   0 68.1364 3.49943   5
   2   2   0 74.1573 3.14694   2
   2   2   0 71.5367 2.86567   3
   2   2   0 69.6825 3.39842   7
  -3  -2   0 452.337 11.3126  10
  -3  -2   0 456.401 13.8093   9
  -3  -2   0 436.791 11.8726   6
  -3  -2   0 452.164 13.0029   4
   3   2   0 462.062 11.9880   8
   3   2   0 447.525 11.2023   5
   3   2   0 454.429 10.7425   7
  -4  -2   0 57.3575 6.71314   9
  -4  -2   0 53.9928 5.36273   6
  -4  -2   0 53.5632 4.21588  12
   4   2   0 52.5086 4.57530  10
   4   2   0 62.8974 5.83706   5
   4   2   0 57.6717 5.08341   8
  -5  -2   0 150.012 6.62281  17
  -5  -2   0 149.781 7.08997  12
  -5  -2   0 142.901 10.7197   9
  -5  -2   0 161.512 5.38305  18
   5   2   0 159.833 8.05368   8
  -6  -2   0 74.0824 5.00714  17
  -6  -2   0 72.2006 5.37876  12
   6   2   0 88.0469 6.29306  15
  -7  -2   0 13.5326 2.54212  17
   7   2   0 14.2681 2.58890  18
   7   2   0 9.68378 2.83764  15
   7  -3   0 54.1527 3.44355  18
  -6   3   0 190.743 7.61583  12
   5  -3   0 229.678 9.72373   8
   5  -3   0 249.415 10.0727  10
  -5   3   0 239.314 6.35484  18
  -5   3   0 233.226 9.35340  13
  -5   3   0 243.234 8.62377  12
   4  -3   0 113.240 6.42895   8
   4  -3   0 119.243 6.77606  10
   4  -3   0 115.583 7.91017   2
  -4   3   0 118.857 5.82859  12
   3  -3   0 686.208 16.2457   8
   3  -3   0 673.790 17.9276   2
   3  -3   0 677.358 16.1251   5
   3  -3   0 675.013 17.5424   3
   3  -3   0 676.642 16.3288  10
   3  -3   0 679.202 14.7835   7
  -3   3   0 660.424 13.5340  11
  -3   3   0 691.399 15.5690   6
   2  -3   0 406.390 9.86833   1
   2  -3   0 387.789 10.0932   5
   2  -3   0 389.259 10.2699   8
   2  -3   0 408.525 11.8640   2
   2  -3   0 386.582 10.2402  10
   2  -3   0 396.259 9.26463   7
   2  -3   0 401.351 11.3858   3
   2  -3   0 393.711 9.50009   6
   1  -3   0 1514.16 27.8264   3
   1  -3   0 1506.94 26.2310   4
   1  -3   0 1480.46 28.3015   1
   1  -3   0 1501.75 28.6416   2
   1  -3   0 1496.72 25.5791   7
   1  -3   0 1513.18 26.1423   6
   1  -3   0 1484.82 25.6798   5
  -1   3   0 1474.74 24.9681   7
   0  -3   0 263.498 7.44019   6
   0  -3   0 275.052 7.53561   4
   0  -3   0 263.534 8.13974   1
   0  -3   0 280.872 7.12477   3
   0  -3   0 277.432 7.46847   2
   0  -3   0 273.107 6.98123   5
   0  -3   0 278.030 6.75639   7
   0   3   0 264.796 6.31102   7
  -1  -3   0 3.97080 1.53884   2
  -1  -3   0 2.19518 1.45664   3
  -1  -3   0 4.30084 1.78363   5
  -1  -3   0 0.59677 2.15626   4
  -1  -3   0 3.60917 2.44464   9
  -1  -3   0 1.25017 2.33624   1
  -1  -3   0 2.88792 1.74878   7
  -1  -3   0 -0.0052 2.16495   6
   1   3   0 3.15584 1.70580   7
  -2  -3   0 627.082 15.7329   9
  -2  -3   0 605.468 15.1406   4
  -2  -3   0 609.639 14.1272   6
  -2  -3   0 590.021 12.8185   8
  -2  -3   0 628.913 14.7959   1
   2   3   0 613.101 14.2670   8
   2   3   0 623.821 12.5745   5
   2   3   0 627.151 12.8190   7
  -3  -3   0 99.1714 5.92226   6
  -3  -3   0 104.830 7.01154   9
  -3  -3   0 110.734 6.60673   4
  -3  -3   0 97.2027 4.19075  11
   3   3   0 94.7919 5.16674   5
   3   3   0 98.3346 5.78239   8
   3   3   0 97.7458 4.94790   7
  -4  -3   0 91.5567 8.12946   9
  -4  -3   0 101.464 5.58858  12
  -4  -3   0 87.3844 7.07906   6
   4   3   0 100.751 6.39026   8
  -5  -3   0 60.8812 7.97240   9
  -5  -3   0 58.4250 5.38949  15
  -5  -3   0 60.8442 4.84277  17
  -5  -3   0 69.4217 4.01608  18
  -5  -3   0 66.3956 5.45308  12
   5   3   0 65.7527 6.04025   8
  -6  -3   0 13.3157 3.08947  17
  -6  -3   0 16.7792 3.46665  12
   6   3   0 18.0961 4.03382  15
  -7  -3   0 113.557 4.81344  17
   7   3   0 117.901 5.17904  15
   7   3   0 112.483 4.37488  18
   6  -4   0 11.6928 3.27970  18
   5  -4   0 35.8967 4.99180  10
   5  -4   0 42.2623 5.23516   8
  -5   4   0 37.2692 4.53818  13
   4  -4   0 166.332 8.20246   8
   4  -4   0 167.709 8.07572  10
   4  -4   0 148.067 9.71255   2
   3  -4   0 8.40877 3.03682   5
   3  -4   0 3.14125 3.04825   2
   3  -4   0 5.36066 2.39280   7
   3  -4   0 5.55313 2.61854  10
   3  -4   0 4.29826 2.54395   8
   3  -4   0 4.39798 3.06334   3
  -3   4   0 7.89511 2.39698  11
   2  -4   0 587.517 16.1828   2
   2  -4   0 583.213 15.6745   3
   2  -4   0 612.548 13.4750   7
   2  -4   0 610.082 14.5301   5
   2  -4   0 614.756 13.9512   6
   2  -4   0 614.837 14.9047   8
   2  -4   0 619.905 14.8170  10
   2  -4   0 626.988 15.0072   1
   1  -4   0 209.083 7.76056   2
   1  -4   0 194.181 7.28665   8
   1  -4   0 199.461 7.45521   3
   1  -4   0 196.678 7.09611   5
   1  -4   0 207.832 6.62349   4
   1  -4   0 205.836 7.51425   1
   1  -4   0 201.073 7.18503   6
   1  -4   0 202.179 6.62449   7
  -1   4   0 198.747 6.28116   8
   0  -4   0 95.2293 4.91107   4
   0  -4   0 95.1214 4.42239   5
   0  -4   0 93.9601 4.94964   6
   0  -4   0 97.3369 4.60748   3
   0  -4   0 104.025 4.98820   2
   0  -4   0 87.4727 5.39824   1
   0  -4   0 89.6014 4.66724   8
   0  -4   0 90.2943 4.25617   7
   0   4   0 86.1190 4.55253   8
   0   4   0 91.5720 3.78134   7
  -1  -4   0 1343.11 25.9540   6
  -1  -4   0 1379.26 27.1765   4
  -1  -4   0 1386.03 27.7789   1
  -1  -4   0 1365.01 23.7467   7
  -1  -4   0 1300.23 23.5395   5
  -1  -4   0 1379.39 27.5979   9
  -1  -4   0 1333.37 26.2105   8
  -1  -4   0 1360.88 24.0911   3
  -1  -4   0 1387.76 25.0006   2
   1   4   0 1297.35 26.4226   8
   1   4   0 1384.85 24.0021   7
  -2  -4   0 236.683 6.97360   8
  -2  -4   0 260.080 9.20494   1
  -2  -4   0 249.058 8.85365   6
  -2  -4   0 251.407 9.28195   4
  -2  -4   0 243.206 9.57568   9
   2   4   0 248.460 8.28193   8
   2   4   0 246.111 7.24817   5
   2   4   0 238.647 7.27215   7
  -3  -4   0 827.359 21.6381   9
  -3  -4   0 765.018 17.1749  12
  -3  -4   0 778.394 20.5235   4
  -3  -4   0 798.345 15.9383  11
  -3  -4   0 801.660 19.7763   6
   3   4   0 823.363 19.0912   8
  -4  -4   0 313.303 13.9195   9
  -4  -4   0 319.869 10.1194  12
   4   4   0 329.172 11.0923   8
  -5  -4   0 189.363 11.6729   9
  -5  -4   0 197.795 8.28273  17
  -5  -4   0 203.350 6.18717  18
  -5  -4   0 215.106 8.54460  12
   5   4   0 199.982 8.65906   8
  -6  -4   0 318.148 10.0994  12
  -6  -4   0 309.873 9.63355  17
   6   4   0 320.373 9.81467  18
   6   4   0 326.493 10.1759  15
  -7  -4   0 188.773 5.61787  17
   7   4   0 190.862 4.91344  18
   6  -5   0 50.7559 4.51637  18
  -6   5   0 47.2541 3.77084  13
   5  -5   0 294.799 11.8055  10
  -5   5   0 322.791 10.4762  16
  -5   5   0 319.425 10.3643  13
   4  -5   0 323.053 11.9635   8
   4  -5   0 316.868 11.6904  10
  -4   5   0 328.961 8.40643  18
  -4   5   0 314.755 10.6406  13
  -4   5   0 305.056 10.9150  16
   3  -5   0 365.404 13.8900   3
   3  -5   0 381.038 14.4254   2
   3  -5   0 408.879 12.4558  10
   3  -5   0 405.366 13.5251   5
   3  -5   0 395.227 12.7456   8
   2  -5   0 34.8628 4.60231   2
   2  -5   0 45.9684 4.26915  10
   2  -5   0 46.8622 4.34713   7
   2  -5   0 44.2735 5.03379   3
   2  -5   0 45.0248 4.85232   1
   2  -5   0 42.1514 4.64590   8
   2  -5   0 41.7290 3.83900  11
   2  -5   0 47.0930 5.14294   5
   1  -5   0 25.0464 3.19668  10
   1  -5   0 28.7100 3.81096   8
   1  -5   0 33.2688 4.25567   1
   1  -5   0 28.5322 3.54253   7
   1  -5   0 24.8285 3.18101  11
   1  -5   0 30.5476 4.11427   2
   1  -5   0 27.3366 3.57194   3
   1  -5   0 24.1819 3.58156   6
   1  -5   0 29.5180 3.72929   5
  -1   5   0 27.2581 2.86173   8
   0  -5   0 0.23803 1.96865   7
   0  -5   0 3.64192 2.71321   1
   0  -5   0 1.65209 2.28805   8
   0  -5   0 4.93211 2.36868   2
   0  -5   0 1.99130 1.99756   5
   0  -5   0 1.29413 2.08382   4
   0  -5   0 -1.8227 2.10197   6
   0  -5   0 3.12824 2.03250   3
   0   5   0 6.07277 2.31030   8
  -1  -5   0 74.7691 5.62832   1
  -1  -5   0 78.2462 4.50367  11
  -1  -5   0 68.0284 5.19410   9
  -1  -5   0 69.4730 5.55690   4
  -1  -5   0 77.8629 4.55992   8
  -1  -5   0 72.9253 4.91006   6
   1   5   0 78.5053 4.79111   8
   1   5   0 74.0964 4.05354   7
  -2  -5   0 299.415 10.5647   6
  -2  -5   0 284.699 10.8690   4
  -2  -5   0 291.524 8.34336  11
  -2  -5   0 309.261 10.7646   1
  -2  -5   0 302.414 11.4427   9
   2   5   0 287.844 9.36878   8
  -3  -5   0 0.34188 3.35303   9
  -3  -5   0 -1.5183 2.83984   4
  -3  -5   0 -1.1564 2.80235   6
  -3  -5   0 1.19394 2.27366  11
  -3  -5   0 -0.2370 2.48082  12
   3   5   0 0.90807 2.47127   8
  -4  -5   0 57.8789 4.81256  15
  -4  -5   0 64.3685 5.14542  12
  -4  -5   0 58.4424 4.50906  11
  -4  -5   0 59.1161 7.49403   9
  -4  -5   0 51.4083 4.77381  17
  -4  -5   0 59.1214 4.27242  18
   4   5   0 55.9605 5.11906   8
  -5  -5   0 58.2520 5.12381  12
  -5  -5   0 63.0851 3.33678  18
  -5  -5   0 69.3735 5.37970  17
  -6  -5   0 0.46027 2.40053  17
  -6  -5   0 1.71843 2.47615  12
   6   5   0 0.47629 2.51443  15
   6   5   0 1.94732 2.59175  18
   6  -6   0 141.418 5.22551  18
  -6   6   0 132.867 5.11255  13
   5  -6   0 133.817 6.40229  16
   5  -6   0 115.616 7.58561  10
  -5   6   0 132.088 6.60969  13
   4  -6   0 675.397 17.9911   8
   4  -6   0 676.958 19.1810  10
  -4   6   0 690.577 17.0075  16
  -4   6   0 689.299 13.9821  18
  -4   6   0 650.255 16.5813  13
   3  -6   0 178.965 10.1502   2
   3  -6   0 167.563 7.38461  11
   3  -6   0 176.901 8.63250   8
   3  -6   0 170.778 8.63759  10
   2  -6   0 112.011 6.67930   8
   2  -6   0 109.298 6.45469  10
   2  -6   0 97.4805 5.48219  11
   2  -6   0 85.4610 7.07374   3
   2  -6   0 102.000 7.55812   5
   2  -6   0 109.661 7.21735   2
   1  -6   0 1455.52 28.7119   6
   1  -6   0 1453.42 30.1016   3
   1  -6   0 1432.63 30.0649  10
   1  -6   0 1457.96 28.0527   5
   1  -6   0 1437.01 31.4406   1
   1  -6   0 1425.13 30.6567   2
   1  -6   0 1484.28 26.4415  11
   1  -6   0 1460.25 29.4847   8
   0  -6   0 278.250 8.54488   8
   0  -6   0 266.744 9.37977   6
   0  -6   0 279.623 7.68766  11
   0  -6   0 283.148 10.6541   1
   0  -6   0 272.548 9.70467   4
   0   6   0 273.032 8.11767   8
  -1  -6   0 1443.98 31.2548   4
  -1  -6   0 1481.85 28.6575   8
  -1  -6   0 1421.96 31.7257   1
  -1  -6   0 1488.28 26.7696  11
   1   6   0 1478.22 29.0284   8
  -2  -6   0 429.482 11.1986  11
  -2  -6   0 421.440 13.8616   6
  -2  -6   0 436.476 14.6015   9
  -2  -6   0 427.794 14.5991   4
  -2  -6   0 449.978 14.5122   1
   2   6   0 444.247 12.1307   8
  -3  -6   0 149.064 6.73372  11
  -3  -6   0 138.666 9.11693   9
   3   6   0 151.349 6.83225   8
  -4  -6   0 362.079 11.0216  12
  -4  -6   0 370.463 9.61931  18
  -4  -6   0 359.733 11.1300  11
  -4  -6   0 350.844 15.1391   9
  -4  -6   0 360.142 10.8097  17
  -5  -6   0 50.7895 4.54030  12
  -5  -6   0 45.7167 4.36622  17
   5   6   0 56.5421 5.15330  18
  -6  -6   0 192.651 6.30382  17
   6   6   0 192.368 6.05337  18
   6  -7   0 7.58865 1.46897  18
   5  -7   0 126.319 5.94198  18
   5  -7   0 130.064 5.76641  16
  -5   7   0 127.400 6.03441  13
   4  -7   0 16.2311 3.67916  16
   4  -7   0 18.1006 4.35944  10
  -4   7   0 20.3274 3.60627  13
   3  -7   0 5.12270 3.24678   8
   3  -7   0 7.04161 3.07134  11
   3  -7   0 8.19062 3.71668  10
   3  -7   0 4.04132 3.07298  16
  -3   7   0 9.21054 3.16703  13
  -3   7   0 8.68789 2.83299  18
   2  -7   0 63.0165 6.72892   2
   2  -7   0 56.5634 4.48131  11
   2  -7   0 68.4211 5.57103  10
   2  -7   0 58.8777 5.06478   8
   1  -7   0 109.028 5.32537  11
   1  -7   0 106.926 7.12076   2
   1  -7   0 98.6117 6.96612   3
   1  -7   0 100.922 5.90025   8
   1  -7   0 102.366 7.08090   1
   0  -7   0 559.623 12.8572  11
   0  -7   0 548.551 15.2915   6
   0  -7   0 555.510 13.6454   8
   0  -7   0 547.091 16.8285   1
  -1  -7   0 229.318 10.5263   1
  -1  -7   0 216.138 10.1517   4
  -1  -7   0 215.965 9.45563   6
  -1  -7   0 237.215 7.63881  11
   1   7   0 237.802 7.66607   8
  -2  -7   0 46.5531 6.09137   1
  -2  -7   0 44.1500 4.16249  11
   2   7   0 39.6843 3.99372   8
  -3  -7   0 38.5826 3.77910  18
  -3  -7   0 47.7075 4.67721  11
  -3  -7   0 32.5145 5.96986   9
  -3  -7   0 43.8536 4.26693  17
   3   7   0 40.6580 4.26014  14
  -4  -7   0 26.6279 5.82024   9
  -4  -7   0 19.2721 2.86227  18
  -4  -7   0 20.1468 3.43155  17
  -4  -7   0 14.5284 3.71572  11
   4   7   0 21.5025 3.87200  18
  -5  -7   0 24.7078 3.19246  17
   5   7   0 42.8433 3.92832  18
  -6  -7   0 33.6016 2.38455  17
   6   7   0 35.3740 2.04512  18
   5  -8   0 7.27794 1.97031  18
   5  -8   0 5.45542 2.17983  16
  -5   8   0 0.99580 2.02708  13
   4  -8   0 56.5063 4.54901  18
   4  -8   0 45.7160 4.31945  16
  -4   8   0 44.7715 4.30312  13
   3  -8   0 23.3295 3.85717  16
  -3   8   0 28.1748 2.91626  18
  -3   8   0 26.9010 3.75399  13
   2  -8   0 43.6804 4.56899  16
   2  -8   0 39.1017 4.05895  11
  -2   8   0 42.1444 3.82913  18
  -2   8   0 40.2213 4.28034  13
   1  -8   0 123.521 8.38103   1
   1  -8   0 112.495 5.60867  11
   1  -8   0 106.821 6.06886  16
  -1   8   0 111.084 5.52648  18
   0  -8   0 153.548 9.02547   1
   0  -8   0 150.749 6.74704  16
   0  -8   0 143.201 6.26527  11
   0   8   0 144.711 6.31490  18
   0   8   0 142.373 6.98520  14
  -1  -8   0 3.73188 2.52640  11
  -1  -8   0 10.0007 2.96193  18
  -1  -8   0 6.30211 2.91173  16
  -1  -8   0 10.1015 3.84469   1
   1   8   0 7.91775 3.36227  14
   1   8   0 5.70348 2.88161  18
  -2  -8   0 155.979 6.62524  11
  -2  -8   0 144.241 9.23039   1
  -2  -8   0 148.316 5.97682  18
   2   8   0 135.663 6.54979  18
   2   8   0 146.724 6.82342  14
  -3  -8   0 7.35128 2.90055  11
  -3  -8   0 6.94316 2.40156  18
   3   8   0 3.65681 2.92535  18
   3   8   0 -0.3468 2.77298  14
  -4  -8   0 153.233 6.17016  17
   4   8   0 140.966 6.06760  18
   4   8   0 149.050 6.56050  14
  -5  -8   0 46.8770 3.21816  17
   5   8   0 42.3889 3.03452  18
   4  -9   0 291.755 8.29538  16
   4  -9   0 285.691 7.68642  18
  -4   9   0 289.963 8.43728  13
   3  -9   0 96.3186 5.09513  18
   3  -9   0 103.260 5.67614  16
  -3   9   0 97.2210 5.65214  13
   2  -9   0 439.642 12.0592  16
   2  -9   0 430.823 11.5476  18
   2  -9   0 445.704 11.4734  11
  -2   9   0 438.339 11.9032  13
  -2   9   0 446.335 10.1264  18
   1  -9   0 197.583 7.74159  16
   1  -9   0 192.228 7.25149  11
   1  -9   0 191.501 7.27729  18
  -1   9   0 197.433 6.67963  18
   0  -9   0 182.184 6.95394  11
   0  -9   0 169.488 6.77533  18
   0  -9   0 174.084 7.35364  16
   0   9   0 182.258 6.63035  18
   0   9   0 183.015 7.46865  14
  -1  -9   0 264.948 8.06163  18
  -1  -9   0 264.867 8.54470  11
  -1  -9   0 271.993 8.80621  16
   1   9   0 267.214 9.13237  14
   1   9   0 262.170 8.28665  18
  -2  -9   0 23.4139 3.43203  11
  -2  -9   0 28.3988 3.09859  18
   2   9   0 26.4734 3.75315  14
   2   9   0 30.1422 3.63403  18
  -3  -9   0 51.0906 3.07045  18
  -3  -9   0 48.0183 4.09412  11
   3   9   0 52.4964 3.98542  18
   3   9   0 45.6507 4.13423  14
   4   9   0 18.8541 2.53592  18
   4   9   0 14.2635 2.76198  14
   4 -10   0 5.14789 1.40531  18
   4 -10   0 6.96497 1.81207  16
  -4  10   0 2.30032 1.61607  13
   3 -10   0 73.0909 4.42275  16
   3 -10   0 71.4997 3.78452  18
  -3  10   0 75.0732 4.32984  13
   2 -10   0 10.4381 2.59434  18
   2 -10   0 2.71462 2.29995  11
   2 -10   0 7.51458 2.70932  16
   1 -10   0 33.3351 3.57369  18
   1 -10   0 25.7148 3.29336  11
   1 -10   0 29.7317 3.80510  16
  -1  10   0 21.0623 2.59141  18
   0 -10   0 166.617 6.18889  18
   0 -10   0 168.876 6.72409  16
   0 -10   0 162.452 6.66279  11
   0  10   0 168.642 5.85581  18
   0  10   0 168.472 6.96569  14
  -1 -10   0 109.988 4.81930  18
  -1 -10   0 102.529 5.39927  11
  -1 -10   0 98.2395 5.39143  16
   1  10   0 99.3684 4.80624  18
   1  10   0 103.292 5.79689  14
  -2 -10   0 357.633 9.61775  11
  -2 -10   0 341.863 8.08621  18
   2  10   0 358.061 10.0231  14
   2  10   0 354.156 8.92361  18
   3  10   0 154.696 5.06608  18
   3  10   0 156.501 6.11548  14
   3 -11   0 11.4986 1.89698  16
   3 -11   0 11.2510 1.26097  18
   2 -11   0 31.1509 2.46869  18
   2 -11   0 31.0968 3.05704  16
   1 -11   0 120.441 5.23564  16
   1 -11   0 124.738 4.45024  18
   0 -11   0 2.41912 2.10735  11
   0 -11   0 0.01849 2.25400  16
   0 -11   0 3.24340 1.76775  18
   0  11   0 2.63147 2.44009  14
  -1 -11   0 20.2821 1.98772  18
   1  11   0 26.1104 2.06473  18
   1  11   0 31.9078 3.29482  14
   2  11   0 7.59379 1.50651  18
   2  11   0 11.6760 2.45067  14
   3  11   0 2.34150 1.76023  14
   1  12   0 9.10367 1.78265  14
   3  11  -1 32.9155 2.36586  14
   2  11  -1 101.989 4.33147  14
   1  11  -1 0.68049 2.07980  14
  -1 -11   1 1.83412 1.49608  18
   0  11  -1 23.9704 2.84730  14
   0 -11   1 24.7149 2.53260  18
   0 -11   1 21.5606 2.77018  16
   1 -11   1 2.19776 1.71642  18
   1 -11   1 2.83250 2.14804  16
   2 -11   1 37.2829 2.57117  18
   2 -11   1 36.8571 2.97891  16
   3  10  -1 380.190 9.35629  14
   2  10  -1 200.589 5.45057  18
   2  10  -1 195.098 7.01846  14
  -2 -10   1 193.152 5.67274  18
  -2 -10   1 188.523 6.61471  11
   1  10  -1 219.925 6.02229  18
   1  10  -1 214.985 7.64189  14
  -1 -10   1 217.391 6.77515  18
  -1 -10   1 223.632 7.47016  11
   0  10  -1 262.758 8.40189  14
   0  10  -1 252.228 6.29014  18
   0 -10   1 255.995 7.80853  18
   0 -10   1 255.849 8.13414  11
   0 -10   1 268.584 8.24647  16
   1 -10   1 84.5012 5.07275  16
   1 -10   1 79.0241 4.67168  11
   1 -10   1 84.6235 4.68543  18
   2 -10   1 353.080 9.35804  18
   2 -10   1 354.979 9.34503  11
   2 -10   1 366.497 9.91843  16
  -3  10  -1 111.881 4.69249  13
   3 -10   1 101.095 4.32160  18
   3 -10   1 116.885 5.01744  16
   4 -10   1 215.083 5.09096  18
   4 -10   1 229.439 5.81649  16
   4   9  -1 17.1327 2.00188  18
   4   9  -1 13.7526 2.62719  14
  -4  -9   1 15.8353 2.42288  17
   3   9  -1 3.49491 2.06226  18
   3   9  -1 0.78103 2.51775  14
  -3  -9   1 1.18974 1.72122  18
  -3  -9   1 0.40884 2.28441  11
   2   9  -1 115.276 5.14295  18
   2   9  -1 116.759 6.21730  14
  -2  -9   1 115.446 5.16346  18
  -2  -9   1 120.421 5.71728  11
   1   9  -1 -1.3107 2.19761  18
   1   9  -1 -0.1835 2.78589  14
  -1  -9   1 1.95703 2.51312  18
  -1  -9   1 2.12403 2.40229  11
   0   9  -1 65.5139 3.97843  18
   0   9  -1 67.5984 4.87526  14
   0  -9   1 52.0535 4.36061  11
   0  -9   1 63.9616 4.84854  16
   0  -9   1 63.3902 4.84901  18
  -1   9  -1 106.336 4.31597  18
   1  -9   1 96.3498 5.62921  16
   1  -9   1 86.0211 5.22996  11
  -2   9  -1 52.3111 4.34488  13
   2  -9   1 53.6711 4.58225  16
   2  -9   1 51.6244 4.25487  11
  -3   9  -1 35.2703 3.77381  13
   3  -9   1 42.2427 3.68350  11
   3  -9   1 32.2242 3.66834  18
   3  -9   1 38.2158 3.99636  16
  -4   9  -1 80.2672 4.34464  13
   4  -9   1 74.6686 4.29727  16
   4  -9   1 76.2813 4.00057  18
   5   8  -1 194.555 4.89079  18
  -5  -8   1 202.691 5.85515  17
   4   8  -1 16.8040 3.20804  14
   4   8  -1 18.5597 2.84955  18
  -4  -8   1 16.2213 2.84075  17
  -4  -8   1 18.0113 2.35260  18
   3   8  -1 134.112 6.50288  14
   3   8  -1 137.373 5.89534  18
  -3  -8   1 125.166 6.14220  11
  -3  -8   1 134.959 6.14135  17
  -3  -8   1 134.201 5.57715  18
   2   8  -1 47.6714 4.45964  14
   2   8  -1 53.7243 4.29759  18
  -2  -8   1 42.9192 6.18534   1
  -2  -8   1 42.7968 4.22662  11
  -2  -8   1 51.7229 4.25914  18
   1   8  -1 1.28143 2.61626  18
   1   8  -1 3.95631 3.02087  14
  -1  -8   1 -0.1885 2.18102  11
  -1  -8   1 6.95435 3.88373   1
  -1  -8   1 1.87267 2.82173  18
   0   8  -1 65.8444 4.25912  18
   0   8  -1 66.8312 5.06644  14
   0  -8   1 70.2025 7.39935   1
   0  -8   1 64.5429 5.00578   8
   0  -8   1 70.5748 4.81267  11
   0  -8   1 68.7152 5.01287  16
  -1   8  -1 24.0932 2.96672  18
   1  -8   1 32.0322 4.05191  16
   1  -8   1 22.4164 3.88626   8
   1  -8   1 32.1986 5.27216   1
   1  -8   1 27.5543 3.59090  11
  -2   8  -1 248.223 6.80916  18
  -2   8  -1 248.132 8.83878  13
   2  -8   1 257.920 9.16869   8
   2  -8   1 245.618 8.25112  11
   2  -8   1 237.581 8.81861  16
  -3   8  -1 172.531 7.36867  13
   3  -8   1 179.637 6.91559  11
   3  -8   1 173.265 7.49180  16
  -4   8  -1 13.5675 3.12325  13
   4  -8   1 11.3179 3.09108  16
  -5   8  -1 112.036 4.66489  13
   5  -8   1 115.210 4.59193  16
   5  -8   1 106.325 4.13500  18
   5   7  -1 149.865 5.42231  18
  -5  -7   1 153.731 5.95832  17
   4   7  -1 353.223 10.4744  14
   4   7  -1 348.545 10.0450  18
  -4  -7   1 352.310 10.1237  17
  -4  -7   1 345.440 9.05535  18
   3   7  -1 180.572 7.28243  18
   3   7  -1 173.711 7.54539  14
  -3  -7   1 176.281 6.90687  18
  -3  -7   1 175.769 7.18961  17
  -3  -7   1 160.464 10.2609   9
  -3  -7   1 163.622 7.16320  11
   2   7  -1 87.3417 5.66070  14
  -2  -7   1 97.8447 5.39612  11
  -2  -7   1 84.6836 7.81543   1
  -1  -7   1 785.823 16.6396  11
  -1  -7   1 778.892 21.5925   1
  -1  -7   1 769.234 17.7317   8
   0  -7   1 207.073 10.1564   1
   0  -7   1 214.614 9.44762   6
   0  -7   1 230.402 7.50440  11
   0  -7   1 241.747 8.46641   8
   1  -7   1 318.049 10.4142   8
   1  -7   1 309.249 11.9496   2
   1  -7   1 313.447 9.18834  11
   1  -7   1 298.006 12.0051   1
  -2   7  -1 204.968 6.70841  18
  -2   7  -1 208.763 8.16108  13
   2  -7   1 209.227 10.4898   2
   2  -7   1 187.688 7.72012  16
   2  -7   1 207.045 7.56247  11
   2  -7   1 209.309 8.59512   8
  -3   7  -1 1.59729 1.88215  18
  -3   7  -1 0.41810 2.59823  13
   3  -7   1 -0.1839 2.77009  11
   3  -7   1 3.36537 3.13085   8
  -4   7  -1 39.1325 4.37852  13
   4  -7   1 45.7335 4.57097  16
   4  -7   1 43.4604 5.18065  10
  -5   7  -1 5.47032 2.51474  13
   5  -7   1 2.81704 2.56566  16
   5  -7   1 3.18274 2.63572  18
   6   6  -1 21.5886 2.09890  18
  -6  -6   1 23.6376 2.66173  17
   5   6  -1 40.7697 4.09949  18
  -5  -6   1 44.7174 4.22790  12
  -5  -6   1 47.3767 4.46763  17
  -5  -6   1 43.4811 2.92991  18
   4   6  -1 -1.1488 2.81762  18
  -4  -6   1 1.82330 2.92751  12
  -4  -6   1 1.17580 2.65232  17
  -4  -6   1 1.99558 2.49186  18
  -4  -6   1 -1.8950 4.02919   9
   3   6  -1 -0.2731 2.83950  14
  -3  -6   1 4.50517 4.00887   9
  -3  -6   1 6.03597 2.97320  12
  -3  -6   1 2.68770 2.86163  17
  -3  -6   1 0.67486 2.75723  18
  -3  -6   1 -0.2336 2.53093  11
  -2  -6   1 105.518 7.30890   1
  -2  -6   1 103.785 5.63287  11
  -2  -6   1 106.548 5.37981   8
  -2  -6   1 101.155 7.79338   6
  -2  -6   1 107.635 7.83186   9
  -2  -6   1 85.8098 7.52234   4
  -1  -6   1 24.5943 3.50172   8
  -1  -6   1 28.5519 4.48663   1
  -1  -6   1 24.2290 3.10113  11
  -1  -6   1 28.3600 4.09852   6
  -1  -6   1 26.7191 4.02310   4
   0  -6   1 615.922 16.1377   4
   0  -6   1 620.793 17.3734   1
   0  -6   1 593.916 13.1474  11
   0  -6   1 597.083 15.0983   8
   0  -6   1 595.280 15.6888   6
   0  -6   1 628.957 16.3815   2
   0  -6   1 624.747 15.8683   3
   1  -6   1 545.037 15.3298   3
   1  -6   1 539.974 15.7961   1
   1  -6   1 509.257 15.4822   2
   1  -6   1 527.905 12.4480  11
   1  -6   1 556.620 13.3588   7
   1  -6   1 544.885 14.3436   8
   1  -6   1 524.913 14.7384   6
   2  -6   1 58.9827 4.68928  11
   2  -6   1 55.9435 6.04267   2
   2  -6   1 63.0828 5.86829   8
   2  -6   1 61.8693 5.06155  10
   2  -6   1 62.2964 6.31735   3
  -3   6  -1 329.591 8.41020  18
  -3   6  -1 313.757 10.2640  13
  -3   6  -1 319.628 10.6882  16
   3  -6   1 310.623 13.6251   2
   3  -6   1 310.668 10.0184  11
   3  -6   1 321.574 11.9410   8
   3  -6   1 351.566 11.9826  10
  -4   6  -1 107.347 6.99138  16
  -4   6  -1 101.888 6.50903  13
   4  -6   1 102.009 7.23475   8
   4  -6   1 104.417 7.55859  10
  -5   6  -1 337.809 10.2649  13
  -6   6  -1 144.196 5.00362  13
   6  -6   1 140.254 5.24001  18
   6   5  -1 328.978 8.67917  18
   6   5  -1 333.268 9.11951  15
  -6  -5   1 322.879 9.39722  12
  -6  -5   1 332.377 9.35667  17
   5   5  -1 106.133 6.11033  18
   5   5  -1 95.4531 6.37426  15
  -5  -5   1 90.5607 4.71047  18
  -5  -5   1 97.9089 6.20495  12
  -5  -5   1 98.6424 6.29774  17
  -4  -5   1 59.7946 5.05201  17
  -4  -5   1 68.8694 8.12591   9
  -4  -5   1 64.7607 4.67904  18
  -4  -5   1 62.7878 5.36212  12
   3   5  -1 174.384 6.97404   8
  -3  -5   1 176.745 6.78298  11
  -3  -5   1 152.157 9.00588   6
  -3  -5   1 179.902 9.96930   9
  -3  -5   1 178.260 7.40937  12
   2   5  -1 45.6146 3.72294   8
  -2  -5   1 42.2889 5.04781   4
  -2  -5   1 40.0112 3.92620   8
  -2  -5   1 43.3760 3.90469  11
  -2  -5   1 43.2256 5.32883   9
  -2  -5   1 40.9474 5.06125   6
  -2  -5   1 45.9600 5.41112   1
   1   5  -1 249.723 7.42843   8
  -1  -5   1 241.603 9.37315   4
  -1  -5   1 254.894 9.08268   9
  -1  -5   1 253.119 7.41977  11
  -1  -5   1 250.005 9.19815   6
  -1  -5   1 227.124 9.37508   1
  -1  -5   1 237.717 8.15132   8
  -1  -5   1 256.032 7.51553   7
   0  -5   1 161.868 7.44993   1
   0  -5   1 149.621 5.60328  11
   0  -5   1 155.281 5.92004   7
   0  -5   1 166.919 6.89428   4
   0  -5   1 161.553 6.68751   3
   0  -5   1 172.623 7.15031   2
   0  -5   1 154.372 6.94645   6
   0  -5   1 160.286 6.56763   8
   1  -5   1 34.9649 4.20930   8
   1  -5   1 29.3939 4.09975   2
   1  -5   1 33.4492 4.17320   6
   1  -5   1 29.2808 3.61025   5
   1  -5   1 33.3554 3.39128  11
   1  -5   1 32.8132 4.22890   1
   1  -5   1 33.3176 3.87324   7
   1  -5   1 32.8557 3.94914   3
   2  -5   1 67.1568 6.11908   3
   2  -5   1 63.0680 5.95091   2
   2  -5   1 70.9105 5.90891   5
   2  -5   1 58.8610 4.54667  10
   2  -5   1 55.7600 5.44533   6
   2  -5   1 72.2284 5.28841   7
   2  -5   1 68.3180 5.47051   8
  -3   5  -1 45.0715 4.23063  11
   3  -5   1 45.2951 6.29130   2
   3  -5   1 41.2809 5.57801   5
   3  -5   1 41.8426 4.70887   7
   3  -5   1 38.0265 4.81775   8
   3  -5   1 42.0798 4.60432  10
  -4   5  -1 8.01863 3.49114  13
  -4   5  -1 12.2561 4.08504  16
  -4   5  -1 7.84896 2.00233  18
   4  -5   1 7.56096 3.85642   8
   4  -5   1 13.0195 3.83253  10
  -5   5  -1 28.8617 4.53790  16
  -5   5  -1 25.6828 3.88601  13
   5  -5   1 34.0899 5.18605   8
   5  -5   1 35.2491 5.14612  10
  -6   5  -1 14.4895 2.80617  13
   6   4  -1 60.7526 4.78927  15
   6   4  -1 58.9059 4.48418  18
  -6  -4   1 54.3511 4.65538  17
  -6  -4   1 65.0419 5.05502  12
   5   4  -1 86.6828 6.05839  15
   5   4  -1 87.6059 5.92915  18
  -5  -4   1 77.7643 6.09586  12
  -5  -4   1 78.3814 5.69675  17
  -5  -4   1 92.8003 9.25247   9
  -5  -4   1 89.7799 5.10228  18
   4   4  -1 137.528 6.71140   8
  -4  -4   1 142.594 9.47645   9
  -4  -4   1 147.209 6.18107  18
  -4  -4   1 133.701 6.81312  12
  -4  -4   1 125.593 6.51002  17
   3   4  -1 64.1983 4.85171   8
  -3  -4   1 71.0218 6.95910   9
  -3  -4   1 74.1377 6.46034   6
  -3  -4   1 64.8365 4.04552  11
  -3  -4   1 60.0671 4.55126  12
  -3  -4   1 55.5854 6.02520   4
   2   4  -1 694.749 15.7498   8
  -2  -4   1 699.882 16.0866   8
  -2  -4   1 695.295 17.6476   1
  -2  -4   1 662.646 16.9764   6
  -2  -4   1 709.120 17.9328   9
  -2  -4   1 683.842 17.8023   4
   1   4  -1 1027.51 20.5532   8
  -1  -4   1 1007.03 22.0020   4
  -1  -4   1 1013.88 21.3754   8
  -1  -4   1 1041.02 20.1870   3
  -1  -4   1 1036.18 22.0316   9
  -1  -4   1 993.103 19.1772   7
  -1  -4   1 1048.67 20.8450   2
  -1  -4   1 1029.60 22.7169   1
  -1  -4   1 1025.48 21.3720   6
   0  -4   1 415.387 10.9728   6
   0  -4   1 410.690 10.9195   2
   0  -4   1 411.588 10.5521   3
   0  -4   1 405.131 9.49885   7
   0  -4   1 410.606 10.7141   4
   0  -4   1 427.293 11.8026   1
   0  -4   1 405.138 8.98974   5
   0  -4   1 384.622 10.5250   8
   1  -4   1 1209.17 22.8640   5
   1  -4   1 1224.17 24.8754   3
   1  -4   1 1240.98 23.2808   4
   1  -4   1 1189.40 25.3055   8
   1  -4   1 1245.14 23.0342   7
   1  -4   1 1257.27 25.5752   1
   1  -4   1 1254.71 25.8941   2
   1  -4   1 1255.00 24.5391   6
  -2   4  -1 477.567 10.8241  11
   2  -4   1 470.987 11.3167   7
   2  -4   1 460.138 12.0227  10
   2  -4   1 471.061 12.1809   5
   2  -4   1 453.387 12.3669   8
   2  -4   1 483.618 14.2484   2
   2  -4   1 487.713 12.4202   6
   2  -4   1 460.937 13.6005   3
  -3   4  -1 279.461 7.95961  11
   3  -4   1 229.340 10.7106   2
   3  -4   1 272.808 9.98898   5
   3  -4   1 258.969 10.9309   3
   3  -4   1 268.347 8.72534   7
   3  -4   1 261.630 9.55848   8
   3  -4   1 276.979 9.31929  10
  -4   4  -1 244.492 8.55173  12
  -4   4  -1 230.831 9.21079  16
  -4   4  -1 216.623 8.98029  13
  -4   4  -1 231.566 8.00465  11
   4  -4   1 230.984 12.1357   2
   4  -4   1 246.462 9.61130  10
   4  -4   1 260.152 10.0392   8
  -5   4  -1 131.592 7.08112  13
  -5   4  -1 143.121 6.91220  12
  -5   4  -1 132.451 7.46541  16
   5  -4   1 128.983 7.88926  10
   5  -4   1 130.412 7.83818   8
   7   3  -1 114.300 3.83417  18
   7   3  -1 126.181 4.99881  15
  -7  -3   1 124.822 4.87571  17
   6   3  -1 60.8300 4.71009  18
   6   3  -1 68.6067 5.51539  15
  -6  -3   1 60.6356 5.16752  12
  -6  -3   1 74.1555 5.18322  17
   5   3  -1 86.2340 6.27096  15
  -5  -3   1 91.7600 5.15387  18
  -5  -3   1 99.1539 5.95238  17
  -5  -3   1 79.9187 9.01544   9
  -5  -3   1 97.9279 6.15589  12
   4   3  -1 5.48077 2.94550   8
  -4  -3   1 5.96920 3.80086   9
  -4  -3   1 10.2038 2.90142  12
   3   3  -1 399.351 11.0713   8
  -3  -3   1 378.342 9.80949   8
  -3  -3   1 398.977 13.4417   9
  -3  -3   1 375.684 11.7370   6
  -3  -3   1 380.241 12.7973   4
   2   3  -1 300.821 7.35470   5
   2   3  -1 312.540 7.92046   7
   2   3  -1 317.802 7.76599   3
   2   3  -1 310.685 8.82247   8
  -2  -3   1 330.902 10.5160   9
  -2  -3   1 320.324 9.86813   1
  -2  -3   1 313.051 9.56033   6
  -2  -3   1 314.041 7.96133   7
  -2  -3   1 305.327 10.0686   4
  -2  -3   1 318.813 8.99622   8
   1   3  -1 13.5877 2.16669   2
   1   3  -1 11.2655 1.91199   7
  -1  -3   1 13.5498 2.31556   7
  -1  -3   1 13.6543 2.83764   6
  -1  -3   1 8.56881 2.53853   1
  -1  -3   1 12.4995 2.76051   4
  -1  -3   1 9.56257 1.57908   5
  -1  -3   1 11.9870 2.06305   3
  -1  -3   1 18.2485 2.75402   9
   0   3  -1 2328.97 37.5632   7
   0  -3   1 2363.02 42.9863   1
   0  -3   1 2413.73 41.1711   4
   0  -3   1 2360.16 37.1726   5
   0  -3   1 2356.65 40.5484   3
   0  -3   1 2332.98 40.2755   6
   0  -3   1 2338.68 41.9324   2
   0  -3   1 2383.23 38.9655   7
   1  -3   1 100.545 5.07123   3
   1  -3   1 113.423 5.18911   1
   1  -3   1 99.6805 4.13692   7
   1  -3   1 103.378 4.54606   5
   1  -3   1 104.366 3.88150   4
   1  -3   1 106.904 4.71275   6
   1  -3   1 112.394 5.69872   2
   2  -3   1 1246.67 22.2701   7
   2  -3   1 1217.49 25.5357   3
   2  -3   1 1263.38 26.5723   2
   2  -3   1 1212.87 24.7125   8
   2  -3   1 1248.35 22.9434   5
   2  -3   1 1230.03 25.2766  10
   2  -3   1 1250.03 23.4380   6
  -3   3  -1 120.210 4.98717  11
  -3   3  -1 130.331 6.28990   6
   3  -3   1 123.070 5.97213  10
   3  -3   1 134.313 7.71905   2
   3  -3   1 131.185 5.39488   7
   3  -3   1 128.342 5.99796   8
   3  -3   1 122.294 6.20242   5
   3  -3   1 117.847 6.97169   3
  -4   3  -1 9.94463 2.70083  11
  -4   3  -1 12.6469 2.97568  12
   4  -3   1 12.6221 4.36181   2
   4  -3   1 14.5800 3.59862   8
   4  -3   1 11.7204 3.22995   7
   4  -3   1 10.5074 3.12410  10
  -5   3  -1 221.283 8.86906  16
  -5   3  -1 213.822 8.21950  12
   5  -3   1 193.585 9.02738  10
   5  -3   1 207.557 9.44557   8
  -6   3  -1 10.4111 3.26433  12
   7  -3   1 70.1654 3.82055  18
   7   2  -1 58.6303 4.32698  15
   7   2  -1 63.9938 3.46550  18
  -7  -2   1 60.9137 3.79655  17
   6   2  -1 98.7913 5.52966  18
   6   2  -1 98.8268 6.63679  15
  -6  -2   1 98.3673 5.45498  17
  -6  -2   1 94.9518 5.95932  12
   5   2  -1 8.50134 3.49923  15
   5   2  -1 10.9186 3.79026   8
  -5  -2   1 7.18492 2.73815  17
  -5  -2   1 13.2757 5.00189   9
  -5  -2   1 12.5444 3.14824  12
  -5  -2   1 12.4925 2.76163  18
   4   2  -1 270.835 9.39647   8
  -4  -2   1 268.496 12.0690   9
  -4  -2   1 291.202 10.5221   6
  -4  -2   1 267.952 8.62731  12
   3   2  -1 6.58533 2.16755   7
   3   2  -1 6.22990 2.12578   5
   3   2  -1 6.08174 2.36794   8
  -3  -2   1 12.9420 3.14587   4
  -3  -2   1 7.61931 3.15905   9
  -3  -2   1 8.42152 2.24285   8
  -3  -2   1 7.44054 2.50313   6
   2   2  -1 2.26044 1.73759   7
   2   2  -1 1.54478 1.95824   8
   2   2  -1 1.54277 1.47721   5
   2   2  -1 5.41132 1.75565   2
   2   2  -1 1.42700 1.43752   3
  -2  -2   1 4.81898 2.35009   4
  -2  -2   1 0.79721 2.01655   6
  -2  -2   1 0.29184 1.98272   8
  -2  -2   1 2.29863 2.39327   9
  -2  -2   1 1.24991 1.66812   7
  -2  -2   1 2.54860 2.10265   1
   1   2  -1 425.269 8.39598   7
   1   2  -1 438.122 9.27326   2
   1   2  -1 435.461 8.94595   3
   1   2  -1 415.874 7.65216   5
  -1  -2   1 424.734 10.2897   1
  -1  -2   1 435.208 8.84795   7
  -1  -2   1 423.005 10.0493   4
  -1  -2   1 424.941 9.92903   6
   0   2  -1 197.814 4.28708   7
   0  -2   1 210.014 6.12613   2
   0  -2   1 209.846 5.99695   3
   0  -2   1 214.318 5.49900   7
   0  -2   1 211.730 5.55733   4
   0  -2   1 213.646 5.01755   5
   0  -2   1 202.849 6.32166   6
   0  -2   1 209.058 6.36621   1
   1  -2   1 9.93924 2.32941   3
   1  -2   1 11.1702 1.94874   5
   1  -2   1 11.0713 1.63959   7
   1  -2   1 6.31422 1.80278   6
   1  -2   1 10.2378 1.20413   4
   1  -2   1 7.13196 2.43888   2
   1  -2   1 8.63586 2.13347   1
  -2   2  -1 126.729 4.96318   6
   2  -2   1 131.619 6.32466   2
   2  -2   1 135.533 5.95428   3
   2  -2   1 136.881 5.19354   5
   2  -2   1 132.503 4.43935   7
  -3   2  -1 151.740 6.21100   6
   3  -2   1 134.687 6.69721   3
   3  -2   1 141.328 5.32807   7
   3  -2   1 141.596 5.78505  10
   3  -2   1 134.646 6.00450   8
   3  -2   1 137.426 7.04770   2
   3  -2   1 136.099 6.32050   5
  -4   2  -1 235.064 7.13684  11
  -4   2  -1 241.971 7.97599  12
   4  -2   1 230.691 8.21094   7
   4  -2   1 225.040 9.83839   3
   4  -2   1 237.993 9.66396   5
   4  -2   1 252.583 8.94963  10
   4  -2   1 235.289 8.89533   8
   4  -2   1 225.891 9.91699   2
  -5   2  -1 160.383 7.18950  12
  -5   2  -1 153.740 6.61521  17
   5  -2   1 148.467 7.84722   8
   5  -2   1 159.691 7.92941  10
  -6   2  -1 317.227 10.1125  12
  -6   2  -1 329.236 9.47214  17
   7  -2   1 79.5913 4.09399  18
   7   1  -1 180.054 6.75859  15
   7   1  -1 184.786 5.75042  18
  -7  -1   1 188.143 5.68387  17
   6   1  -1 483.730 12.5208  18
   6   1  -1 507.100 13.8974  15
  -6  -1   1 491.208 13.0851  12
  -6  -1   1 500.275 12.2318  17
   5   1  -1 908.039 21.1815  15
   5   1  -1 964.020 21.9158   8
  -5  -1   1 933.746 20.5493  12
  -5  -1   1 937.459 19.5457  17
  -5  -1   1 948.074 18.3625  18
  -5  -1   1 883.788 26.7195   9
   4   1  -1 869.958 20.2587   8
   4   1  -1 896.076 20.5918  10
   4   1  -1 910.161 20.4112   5
  -4  -1   1 881.314 23.5667   9
  -4  -1   1 866.287 18.7046  12
  -4  -1   1 889.169 20.6521   6
   3   1  -1 821.119 16.6418   5
   3   1  -1 803.114 16.0823   7
   3   1  -1 824.233 16.8482   3
   3   1  -1 806.204 17.6474   8
   3   1  -1 781.562 17.1520   2
   3   1  -1 791.981 17.5446  10
  -3  -1   1 833.650 18.5466   4
  -3  -1   1 806.496 17.2349   6
  -3  -1   1 781.311 16.5755   8
  -3  -1   1 795.668 19.4878   9
   2   1  -1 2141.82 35.5266   7
   2   1  -1 2230.49 36.7510   3
   2   1  -1 2135.51 34.7241   5
   2   1  -1 2151.65 37.9140   2
  -2  -1   1 2097.89 40.2103   9
  -2  -1   1 2190.95 38.3919   4
  -2  -1   1 2213.47 38.4724   1
  -2  -1   1 2172.68 36.4171   6
   1   1  -1 30.1754 2.06305   2
   1   1  -1 32.3800 2.20136   3
   1   1  -1 27.5449 1.88932   7
   1   1  -1 27.5160 1.83135   5
  -1  -1   1 27.0550 2.37035   4
  -1  -1   1 28.5862 1.89887   7
  -1  -1   1 26.9767 2.25851   1
  -1  -1   1 27.7812 2.28762   6
   0   1  -1 474.250 9.40776   2
   0   1  -1 473.020 9.13460   3
   0  -1   1 484.326 8.94360   4
   0  -1   1 486.155 7.80131   5
   0  -1   1 483.564 9.25694   6
   0  -1   1 469.800 8.08264   7
  -1   1  -1 1464.82 24.6102   6
   1  -1   1 1448.42 25.8048   3
   1  -1   1 1514.87 23.5936   7
   1  -1   1 1515.62 23.8018   5
   1  -1   1 1457.77 26.7409   2
  -2   1  -1 434.053 9.93955   6
   2  -1   1 443.405 10.8843   2
   2  -1   1 439.004 8.81293   7
   2  -1   1 438.535 9.87453   5
   2  -1   1 441.766 10.5501   3
  -3   1  -1 906.890 18.7374   6
   3  -1   1 913.685 19.9041   2
   3  -1   1 867.290 18.4301   5
   3  -1   1 883.822 19.1852   3
   3  -1   1 896.090 19.2996   8
   3  -1   1 907.600 17.4043   7
   3  -1   1 899.933 19.6530  10
  -4   1  -1 4.10148 2.35557  12
  -4   1  -1 1.57039 2.73629   6
  -4   1  -1 1.44711 1.99163  11
   4  -1   1 3.84084 2.43768  10
   4  -1   1 5.26407 2.46788   8
   4  -1   1 0.73535 2.49776   5
   4  -1   1 2.21221 2.15915   7
  -5   1  -1 279.561 8.89703  17
  -5   1  -1 282.066 9.29546  12
   5  -1   1 287.235 10.4138   8
   5  -1   1 277.043 10.4131  10
   5  -1   1 264.260 9.46571  15
  -6   1  -1 178.522 7.45788  12
  -6   1  -1 181.330 6.94373  17
   6  -1   1 178.844 7.58434  15
   6  -1   1 171.893 8.31770   8
   6  -1   1 165.053 8.32840  10
   7  -1   1 5.03626 2.26600  18
   7  -1   1 6.86247 2.31854  15
   7   0  -1 57.1816 4.32340  15
   7   0  -1 55.3940 3.46463  18
   6   0  -1 27.9827 3.47378  18
   6   0  -1 25.9522 3.90433  15
  -6   0   1 30.2805 3.90428  12
  -6   0   1 28.6716 3.51491  17
   5   0  -1 2.23097 2.72955  15
   5   0  -1 1.35641 3.23147   8
   5   0  -1 -2.2620 3.04575  10
  -5   0   1 1.18633 2.35451  17
  -5   0   1 -3.2311 1.86865  18
  -5   0   1 0.66815 2.55172  12
  -5   0   1 2.46799 4.86137   9
   4   0  -1 20.0424 3.30502   8
   4   0  -1 17.6033 3.20498  10
   4   0  -1 11.2384 3.51946   5
  -4   0   1 12.7924 4.04920   9
  -4   0   1 20.3787 3.00506  12
   3   0  -1 155.983 5.47553   7
   3   0  -1 156.666 5.95844  10
   3   0  -1 151.851 5.98460   8
   3   0  -1 170.249 6.46285   5
   3   0  -1 155.375 6.38296   2
   3   0  -1 160.970 6.20216   3
  -3   0   1 165.109 7.58769   9
  -3   0   1 156.928 5.43176   8
  -3   0   1 164.473 6.15406   6
  -3   0   1 158.746 6.34072   4
   2   0  -1 59.7080 3.42843   3
   2   0  -1 56.5009 2.97651   1
   2   0  -1 56.2769 3.55882   2
   2   0  -1 53.3647 3.25534   5
   2   0  -1 58.7281 3.00517   7
  -2   0   1 61.9087 3.20924   7
  -2   0   1 64.1173 3.31153   6
  -2   0   1 56.7532 4.33548   9
  -2   0   1 63.3217 3.34808   4
   1   0  -1 701.985 12.5825   3
   1   0  -1 676.914 11.7147   7
   1   0  -1 706.203 11.7173   5
   1   0  -1 693.150 13.0332   2
  -1   0   1 679.549 11.7994   7
  -1   0   1 680.721 11.9622   6
  -1   0   1 704.869 12.8432   4
   0   0  -1 246.262 4.87121   2
   0   0  -1 237.654 4.63160   4
   0   0  -1 243.008 4.12976   5
   0   0  -1 243.111 4.68310   3
   0   0   1 240.958 4.13316   5
  -1   0  -1 256.024 4.92890   4
  -1   0  -1 243.195 5.56223   6
   1   0   1 246.890 5.66459   3
   1   0   1 238.916 5.34332   5
   1   0   1 254.499 5.84794   2
   1   0   1 244.193 4.43145   7
  -2   0  -1 620.913 12.7718   6
  -2   0  -1 611.707 11.9025   4
   2   0   1 633.452 12.5981   3
   2   0   1 630.013 11.5191   7
   2   0   1 621.897 13.0499   2
   2   0   1 614.283 12.4516   5
  -3   0  -1 117.863 5.50114   6
  -3   0  -1 112.713 6.45813   9
  -3   0  -1 120.616 5.43378  10
   3   0   1 116.087 4.50531   7
   3   0   1 122.577 5.18881   3
   3   0   1 120.935 5.41424   2
   3   0   1 121.054 5.42315   8
   3   0   1 121.744 5.61585   5
  -4   0  -1 384.368 11.8832   6
  -4   0  -1 382.640 9.29920  11
  -4   0  -1 387.773 13.6434   9
  -4   0  -1 376.229 10.2911  12
   4   0   1 381.355 11.9186   5
   4   0   1 365.897 10.3695   7
   4   0   1 386.124 11.4492   8
   4   0   1 384.026 11.2910  10
  -5   0  -1 161.876 6.66859  17
  -5   0  -1 178.232 7.29809  12
   5   0   1 163.187 7.47897  15
   5   0   1 174.296 8.20381   8
   5   0   1 177.087 8.19951  10
  -6   0  -1 293.845 8.88747  17
  -6   0  -1 268.458 9.31095  12
   6   0   1 275.264 10.8920  10
   6   0   1 298.542 9.74384  15
   6   0   1 278.986 10.5274   8
  -7   0  -1 335.343 8.35090  17
   7   0   1 336.528 9.03316  15
   7   0   1 346.719 8.83251  18
   7  -1  -1 197.369 5.90650  18
   7  -1  -1 186.133 6.56049  15
   6  -1  -1 13.2810 3.25767  15
   6  -1  -1 15.1465 2.97712  18
   6  -1  -1 8.53990 3.95534  10
  -6   1   1 19.3517 3.46267  12
   5  -1  -1 372.571 11.7946   8
   5  -1  -1 366.775 12.3564  10
   5  -1  -1 345.344 11.0854  15
  -5   1   1 365.525 9.22429  18
  -5   1   1 365.970 10.0902  17
  -5   1   1 368.798 10.7305  12
   4  -1  -1 473.592 12.8863   8
   4  -1  -1 467.557 13.8285   3
   4  -1  -1 487.304 13.3777  10
   4  -1  -1 472.816 13.7605   5
   4  -1  -1 497.042 14.5078   2
  -4   1   1 463.836 15.2928   9
  -4   1   1 469.981 11.7614  12
   3  -1  -1 5.05319 2.03771   7
   3  -1  -1 5.77340 2.42628   2
   3  -1  -1 3.20472 2.07465  10
   3  -1  -1 5.42276 2.45957   5
   3  -1  -1 2.57823 2.11629   3
   3  -1  -1 5.01659 2.12090   8
  -3   1   1 4.94511 1.86468   6
  -3   1   1 5.93407 2.75064   9
  -3   1   1 3.97473 2.14158   8
   2  -1  -1 424.343 10.4426   2
   2  -1  -1 420.525 9.58523   5
   2  -1  -1 408.203 8.74644   7
   2  -1  -1 431.651 10.1353   3
   2  -1  -1 419.563 9.03382   1
  -2   1   1 423.275 8.78222   7
  -2   1   1 425.704 9.01329   6
  -2   1   1 425.009 10.6735   9
  -2   1   1 426.290 9.20010   4
   1  -1  -1 64.7896 3.31868   5
   1  -1  -1 64.9135 3.21840   3
   1  -1  -1 63.3474 2.60756   7
   1  -1  -1 65.4386 3.26676   2
  -1   1   1 63.9363 2.79296   7
  -1   1   1 66.1343 2.25853   6
  -1   1   1 69.9978 2.61325   4
   0  -1  -1 429.061 7.20759   6
   0  -1  -1 424.761 8.06366   4
   0  -1  -1 441.444 7.61068   3
   0  -1  -1 436.262 7.95741   5
   0  -1  -1 427.723 7.83197   2
   0   1   1 420.046 6.98930   7
  -1  -1  -1 596.780 11.1959   6
  -1  -1  -1 592.602 10.7786   5
  -1  -1  -1 603.411 11.7443   4
   1   1   1 610.364 10.1729   3
   1   1   1 598.684 10.2534   7
  -2  -1  -1 32.4674 3.58646   9
  -2  -1  -1 28.8902 2.93423   6
  -2  -1  -1 24.0508 2.84938   4
   2   1   1 30.1533 2.28552   7
   2   1   1 28.0992 2.18084   2
   2   1   1 29.5515 2.82360   5
   2   1   1 30.4044 2.19082   3
  -3  -1  -1 665.882 14.9983   6
  -3  -1  -1 647.295 16.9397   9
  -3  -1  -1 619.717 14.7153  10
   3   1   1 638.116 14.9997   8
   3   1   1 640.387 13.2982   7
   3   1   1 652.528 14.3107   5
  -4  -1  -1 12.5549 2.79555  12
  -4  -1  -1 12.1871 3.35825   6
  -4  -1  -1 13.4011 4.12238   9
  -4  -1  -1 12.7905 2.37033  11
   4   1   1 12.5288 3.13105   8
   4   1   1 16.5488 3.02879  10
   4   1   1 15.8761 3.34292   5
   4   1   1 16.5418 2.89651   7
  -5  -1  -1 4.00138 2.92266  15
  -5  -1  -1 4.14920 2.51794  17
  -5  -1  -1 7.53977 2.84147  12
   5   1   1 6.87262 3.10493  10
   5   1   1 3.95182 3.18957   8
  -6  -1  -1 53.4265 4.32512  17
  -6  -1  -1 46.6013 4.51990  12
   6   1   1 58.0126 5.87591  10
   6   1   1 58.5561 5.81097   8
   6   1   1 54.6772 4.91151  15
  -7  -1  -1 0.57154 2.03757  17
   7   1   1 2.53053 2.53598  15
   7   1   1 2.26459 2.31058  18
   7  -2  -1 76.6284 4.23958  15
   7  -2  -1 70.7657 3.69857  18
   6  -2  -1 76.0794 6.47776  10
   6  -2  -1 84.6888 5.47857  15
   6  -2  -1 88.3988 5.20458  18
  -6   2   1 84.7913 5.41126  12
   5  -2  -1 114.783 6.81960   8
   5  -2  -1 104.663 6.18151  15
   5  -2  -1 107.257 6.84836  10
  -5   2   1 101.793 4.82666  18
  -5   2   1 110.136 5.83302  12
   4  -2  -1 117.352 7.35143   2
   4  -2  -1 123.629 7.31956   5
   4  -2  -1 121.154 7.07375   3
   4  -2  -1 130.270 6.54222   8
   4  -2  -1 145.341 6.89185  10
  -4   2   1 130.150 5.90089  12
   3  -2  -1 528.380 11.8284   7
   3  -2  -1 507.502 12.6591   8
   3  -2  -1 513.286 13.0058   5
   3  -2  -1 522.174 13.7500   3
   3  -2  -1 520.609 13.0169  10
   3  -2  -1 501.471 13.9278   2
  -3   2   1 477.392 13.5911   9
  -3   2   1 535.897 11.9949   6
  -3   2   1 509.130 11.7837   8
   2  -2  -1 72.0131 4.32145   3
   2  -2  -1 78.2430 4.90058   2
   2  -2  -1 72.6797 3.81698   8
   2  -2  -1 73.0677 4.13980   5
   2  -2  -1 78.8836 3.60293   7
   2  -2  -1 77.6326 3.57736   1
  -2   2   1 74.0434 3.37912   7
  -2   2   1 78.3586 3.30689   4
  -2   2   1 80.9006 3.46125   6
   1  -2  -1 6.93586 1.75272   7
   1  -2  -1 2.55217 1.72979   3
   1  -2  -1 1.71242 2.01455   2
   1  -2  -1 3.92577 1.37795   4
   1  -2  -1 2.84856 1.63551   1
   1  -2  -1 3.43273 2.06353   5
   1  -2  -1 4.27567 1.37587   6
  -1   2   1 4.68599 1.59006   7
   0  -2  -1 898.480 15.3314   6
   0  -2  -1 864.409 14.7554   7
   0  -2  -1 927.242 15.7357   3
   0  -2  -1 927.586 16.7492   4
   0  -2  -1 895.675 17.2070   1
   0  -2  -1 919.372 16.2279   2
   0  -2  -1 900.566 16.0249   5
   0   2   1 916.486 15.1625   7
  -1  -2  -1 1329.94 24.8679   1
  -1  -2  -1 1373.44 23.3345   6
  -1  -2  -1 1349.16 22.4277   5
  -1  -2  -1 1371.21 25.0159   4
   1   2   1 1390.36 22.6276   7
  -2  -2  -1 103.113 4.17196   1
  -2  -2  -1 110.344 5.78841   9
  -2  -2  -1 118.649 5.09908   6
  -2  -2  -1 102.777 5.00203   4
   2   2   1 109.679 2.88099   3
   2   2   1 113.303 4.55233   5
   2   2   1 109.570 4.22545   7
  -3  -2  -1 287.388 9.57947   4
  -3  -2  -1 284.267 8.41308  10
  -3  -2  -1 290.022 10.6157   9
  -3  -2  -1 294.695 9.29666   6
   3   2   1 287.584 9.30958   8
   3   2   1 299.738 8.85542   5
   3   2   1 291.609 8.01950   7
  -4  -2  -1 40.0071 4.78184   6
  -4  -2  -1 47.1940 6.28848   9
  -4  -2  -1 37.5624 3.73859  12
  -4  -2  -1 42.9754 3.31968  11
   4   2   1 36.8887 3.85808   7
   4   2   1 39.7635 4.53409   8
   4   2   1 35.1010 4.60760   5
  -5  -2  -1 187.597 7.77042  12
  -5  -2  -1 187.224 7.34847  17
  -5  -2  -1 170.818 11.3043   9
  -5  -2  -1 182.580 8.36618  15
   5   2   1 189.385 8.72624   8
   5   2   1 202.007 8.83530  10
  -6  -2  -1 -3.8549 2.43187  12
  -6  -2  -1 -2.3813 2.29654  17
   6   2   1 -0.9858 3.66331   8
   6   2   1 1.19812 3.18165  15
  -7  -2  -1 160.942 5.69936  17
   7   2   1 165.932 5.82929  18
   7   2   1 163.924 6.64785  15
   7  -3  -1 120.369 4.39792  18
   6  -3  -1 120.515 6.31505  15
   6  -3  -1 127.965 6.05695  18
   5  -3  -1 0.32731 2.99147  10
   5  -3  -1 5.86622 3.79818   8
   5  -3  -1 0.37140 2.43660  15
  -5   3   1 -0.0539 2.09093  18
  -5   3   1 3.12021 3.56030  13
  -5   3   1 1.58353 2.69479  12
   4  -3  -1 460.804 13.3405   8
   4  -3  -1 470.860 13.8076  10
   4  -3  -1 440.790 15.3645   2
  -4   3   1 468.800 11.7489  12
   3  -3  -1 195.659 6.64674   7
   3  -3  -1 190.520 8.48900   2
   3  -3  -1 182.012 7.71626   5
   3  -3  -1 197.172 8.36219   3
   3  -3  -1 183.390 7.12061   8
   3  -3  -1 172.814 7.00425  10
   2  -3  -1 123.118 6.19359   2
   2  -3  -1 116.849 5.17384   8
   2  -3  -1 121.285 5.81015   3
   2  -3  -1 114.877 4.75658   7
   2  -3  -1 125.501 5.70644   5
   2  -3  -1 122.076 4.93026   1
   2  -3  -1 119.165 5.14770  10
   2  -3  -1 125.214 4.44680   6
  -2   3   1 118.834 4.44314   7
  -2   3   1 120.910 5.18861   8
   1  -3  -1 1425.79 26.7227   3
   1  -3  -1 1468.42 25.1097   7
   1  -3  -1 1480.98 25.9421   4
   1  -3  -1 1486.40 27.7187   2
   1  -3  -1 1490.05 27.5666   1
   1  -3  -1 1436.25 24.7940   6
   1  -3  -1 1459.58 25.6011   5
  -1   3   1 1431.17 24.6727   7
   0  -3  -1 245.039 7.18247   4
   0  -3  -1 263.206 6.73554   2
   0  -3  -1 253.071 7.63732   1
   0  -3  -1 259.721 6.66877   6
   0  -3  -1 264.984 7.22790   5
   0  -3  -1 263.675 6.49361   3
   0  -3  -1 250.523 5.87236   7
   0   3   1 261.713 6.30878   7
  -1  -3  -1 9813.75 160.104   4
  -1  -3  -1 9599.50 166.984   9
  -1  -3  -1 9999.99 147.290   5
  -1  -3  -1 9792.60 164.149   1
  -1  -3  -1 9865.79 152.231   6
   1   3   1 9879.65 151.801   7
  -2  -3  -1 1280.18 25.4829   4
  -2  -3  -1 1248.93 23.6667   6
  -2  -3  -1 1209.19 26.2485   9
  -2  -3  -1 1244.21 24.6197   1
   2   3   1 1266.06 22.4696   7
   2   3   1 1220.22 25.1945   8
   2   3   1 1247.42 22.3318   5
  -3  -3  -1 684.874 17.5755   4
  -3  -3  -1 703.215 16.7234   6
  -3  -3  -1 683.345 16.0698  10
  -3  -3  -1 670.541 13.6184  11
  -3  -3  -1 692.392 18.7483   9
   3   3   1 700.550 15.6496   5
   3   3   1 696.846 15.1239   7
   3   3   1 686.434 17.0206   8
  -4  -3  -1 284.986 9.82248  10
  -4  -3  -1 292.677 9.14825  12
  -4  -3  -1 296.998 13.0937   9
  -4  -3  -1 279.648 11.0200   6
  -4  -3  -1 280.861 7.91459  11
   4   3   1 296.413 10.7232   8
   4   3   1 264.780 9.53495   7
  -5  -3  -1 4.87043 3.23995  15
  -5  -3  -1 7.17279 3.20593  12
  -5  -3  -1 3.49842 2.80240  17
  -5  -3  -1 4.22983 4.77851   9
   5   3   1 6.22487 3.52685   8
  -6  -3  -1 115.826 5.89715  17
  -6  -3  -1 117.170 6.40001  12
   6   3   1 103.752 6.86434  15
  -7  -3  -1 29.0426 3.00482  17
   7   3   1 26.6160 2.91779  18
   7   3   1 19.4797 3.09361  15
   6  -4  -1 -2.2551 2.41722  18
  -6   4   1 0.43205 2.68483  13
   5  -4  -1 25.3261 4.48010  10
  -5   4   1 27.3438 4.29632  13
  -5   4   1 30.0057 3.07805  18
   4  -4  -1 207.865 9.13763  10
   4  -4  -1 213.569 8.97952   8
   4  -4  -1 198.547 11.0620   2
   3  -4  -1 8.86226 3.11361   8
   3  -4  -1 6.59987 3.23223   2
   3  -4  -1 8.60763 3.24161   5
   3  -4  -1 6.27242 2.75725  10
   3  -4  -1 7.16328 3.13386   3
   2  -4  -1 75.2995 5.97374   2
   2  -4  -1 70.3026 4.87519  10
   2  -4  -1 72.4293 5.17944   3
   2  -4  -1 74.2626 4.75589   1
   2  -4  -1 66.0866 5.20200   5
   2  -4  -1 65.6058 4.71380   8
   2  -4  -1 82.2937 4.59110   7
  -2   4   1 79.9154 4.62632   8
   1  -4  -1 71.7373 4.29416   6
   1  -4  -1 76.5888 4.20274   7
   1  -4  -1 84.2933 4.90163   3
   1  -4  -1 73.5410 4.95784   1
   1  -4  -1 74.5289 4.76902   5
   1  -4  -1 66.5414 4.64218   2
   1  -4  -1 66.2827 4.45651   8
   1  -4  -1 75.4134 4.38009   4
  -1   4   1 70.9502 4.46218   8
  -1   4   1 79.4368 3.97402   7
   0  -4  -1 2.16257 1.83952   3
   0  -4  -1 2.23223 1.84400   2
   0  -4  -1 3.07557 2.29821   1
   0  -4  -1 0.87529 2.31000   9
   0  -4  -1 5.61085 2.28879   5
   0  -4  -1 2.94913 2.20139   4
   0  -4  -1 -0.3115 1.93611   6
   0  -4  -1 0.49096 1.63995   7
   0   4   1 1.15473 1.94547   7
  -1  -4  -1 935.352 18.6968   5
  -1  -4  -1 981.609 21.2379   9
  -1  -4  -1 998.073 21.1565   1
  -1  -4  -1 971.594 19.3532   6
  -1  -4  -1 987.681 20.7709   4
   1   4   1 953.896 20.1419   8
   1   4   1 981.696 18.0283   7
  -2  -4  -1 673.911 14.5348   5
  -2  -4  -1 667.166 17.2042   9
  -2  -4  -1 644.971 14.9957  10
  -2  -4  -1 658.493 16.1148   1
  -2  -4  -1 666.143 16.6550   4
  -2  -4  -1 633.912 15.3172   6
   2   4   1 652.456 15.7475   8
   2   4   1 642.154 13.9428   7
  -3  -4  -1 15.6901 3.53645   6
  -3  -4  -1 17.9560 4.30798   9
  -3  -4  -1 18.9615 3.69475   4
  -3  -4  -1 14.8393 2.94009  10
  -3  -4  -1 12.8636 2.29449  11
   3   4   1 13.9836 2.83009   7
   3   4   1 10.5086 3.24524   8
   3   4   1 11.1216 3.21545   5
  -4  -4  -1 91.6140 5.68611  12
  -4  -4  -1 86.6507 4.88162  11
  -4  -4  -1 114.115 9.52309   9
   4   4   1 89.4474 6.52144   8
  -5  -4  -1 5.55610 3.35427  12
  -5  -4  -1 7.48269 3.02303  17
  -5  -4  -1 7.05486 4.80166   9
  -5  -4  -1 5.71006 3.37528  15
   5   4   1 -0.6312 3.07473   8
  -6  -4  -1 45.0032 4.32586  17
  -6  -4  -1 47.6056 4.63169  12
   6   4   1 49.3741 5.01893  15
  -7  -4  -1 3.74435 1.92343  17
   7   4   1 2.99517 1.80063  18
   7   4   1 1.34478 2.04094  15
   6  -5  -1 330.921 9.56409  18
  -6   5   1 332.516 9.18473  13
   5  -5  -1 289.803 11.6955  10
   5  -5  -1 295.275 9.96326  18
  -5   5   1 285.598 9.99072  13
   4  -5  -1 546.480 16.2978  10
   4  -5  -1 547.734 15.4869   8
  -4   5   1 542.769 14.5173  16
  -4   5   1 525.141 12.5711  18
  -4   5   1 520.578 14.4288  13
   3  -5  -1 634.424 16.8059  10
   3  -5  -1 622.297 16.5249   8
   3  -5  -1 614.922 18.4439   3
   3  -5  -1 603.179 17.4788   5
   3  -5  -1 599.136 18.6273   2
   2  -5  -1 61.7889 5.42135   1
   2  -5  -1 60.2498 5.72774   5
   2  -5  -1 55.2013 4.74590   8
   2  -5  -1 55.3829 5.49035   2
   2  -5  -1 60.7185 4.83144  10
   2  -5  -1 69.4895 5.92535   3
   2  -5  -1 49.5654 3.83636  11
  -2   5   1 56.8763 4.10398   8
   1  -5  -1 796.035 17.1439   8
   1  -5  -1 807.106 19.1467   1
   1  -5  -1 773.571 18.0703  10
   1  -5  -1 786.639 17.5156   5
   1  -5  -1 809.791 17.9297   4
   1  -5  -1 807.297 16.5401   6
   1  -5  -1 797.450 18.6820   2
   1  -5  -1 774.117 18.0283   3
  -1   5   1 758.815 17.1310   8
   0  -5  -1 530.540 13.5027   4
   0  -5  -1 523.999 13.3414   9
   0  -5  -1 548.806 12.7922   2
   0  -5  -1 498.691 12.3055  10
   0  -5  -1 511.740 11.9004   8
   0  -5  -1 508.112 12.1900   3
   0  -5  -1 518.754 12.1171   5
   0  -5  -1 537.390 12.5033   6
   0  -5  -1 529.275 14.2018   1
   0   5   1 501.603 11.3256   7
   0   5   1 513.078 12.7145   8
  -1  -5  -1 732.745 18.1066   1
  -1  -5  -1 753.290 18.0571   9
  -1  -5  -1 752.647 16.1691   5
  -1  -5  -1 732.207 16.7392  10
  -1  -5  -1 737.338 17.9381   4
  -1  -5  -1 767.577 16.9826   6
   1   5   1 747.129 15.1880   7
   1   5   1 738.282 16.9368   8
  -2  -5  -1 1713.38 31.3269   5
  -2  -5  -1 1752.59 35.1088   1
  -2  -5  -1 1673.13 30.2400  11
  -2  -5  -1 1724.54 33.4077   6
  -2  -5  -1 1729.14 36.3818   9
  -2  -5  -1 1664.00 34.9444   4
   2   5   1 1706.56 34.1470   8
   2   5   1 1740.23 31.0942   7
  -3  -5  -1 18.7353 4.14225   6
  -3  -5  -1 25.9082 4.61304   4
  -3  -5  -1 29.3193 5.15032   9
  -3  -5  -1 26.7807 3.25781  11
  -3  -5  -1 26.2755 3.37106  12
   3   5   1 27.6521 4.27135   8
   3   5   1 27.1017 3.69929   7
  -4  -5  -1 380.082 9.02302  18
  -4  -5  -1 356.437 10.6151  17
  -4  -5  -1 370.165 10.3641  11
  -4  -5  -1 361.163 11.2830  15
  -4  -5  -1 353.343 11.0455  12
  -4  -5  -1 347.254 14.8581   9
   4   5   1 381.760 12.4918   8
  -5  -5  -1 57.0191 7.53748   9
  -5  -5  -1 72.5821 5.56806  12
  -5  -5  -1 71.8576 5.34756  17
  -5  -5  -1 65.1797 5.43439  15
   5   5   1 65.9294 5.71083   8
  -6  -5  -1 84.4667 5.07519  17
  -6  -5  -1 89.3930 5.31212  12
   6   5   1 88.1968 5.53136  15
   6   5   1 84.3720 5.66761  18
   6  -6  -1 4.10853 2.14789  18
  -6   6   1 7.53167 2.23937  13
   5  -6  -1 93.7048 6.99084  10
   5  -6  -1 88.9036 6.08347  18
  -5   6   1 94.1306 6.00288  13
   4  -6  -1 233.544 10.4711  10
  -4   6   1 225.993 9.15804  13
  -4   6   1 212.409 7.01460  18
   3  -6  -1 2.23052 3.19473  10
   3  -6  -1 6.44068 3.99067   2
   3  -6  -1 7.09853 3.46295   8
   2  -6  -1 107.684 7.39810   1
   2  -6  -1 100.452 7.05649   2
   2  -6  -1 103.786 5.94970   8
   2  -6  -1 103.726 6.43817  10
   2  -6  -1 114.646 5.20733  11
   2  -6  -1 102.670 6.97481   3
   2  -6  -1 111.374 7.30662   5
   1  -6  -1 55.8651 3.76087  11
   1  -6  -1 65.2555 5.36199   5
   1  -6  -1 55.4718 4.40841  10
   1  -6  -1 57.6211 5.43689   2
   1  -6  -1 63.9201 5.31891   3
   1  -6  -1 61.2562 4.19523   8
   1  -6  -1 55.9574 5.47184   1
  -1   6   1 65.3504 4.64873   8
   0  -6  -1 386.496 11.9051   4
   0  -6  -1 393.985 10.5875   5
   0  -6  -1 390.311 9.71456   8
   0  -6  -1 394.569 11.0585   6
   0  -6  -1 377.552 10.3175  10
   0  -6  -1 371.211 9.36215  11
   0  -6  -1 372.735 12.4481   1
   0   6   1 382.158 10.7311   8
  -1  -6  -1 155.898 7.18291   6
  -1  -6  -1 151.631 5.95038  11
  -1  -6  -1 148.203 7.63363   9
  -1  -6  -1 151.257 7.65858   4
  -1  -6  -1 156.796 7.99787   1
   1   6   1 157.723 5.95735   7
   1   6   1 149.895 6.69384   8
  -2  -6  -1 36.8878 4.93646   4
  -2  -6  -1 37.1854 4.94628   1
  -2  -6  -1 34.0433 4.66829   6
  -2  -6  -1 40.0173 5.23234   9
  -2  -6  -1 37.6929 3.75291  11
   2   6   1 38.9740 4.33630   8
  -3  -6  -1 158.070 6.80288  11
  -3  -6  -1 150.197 9.34997   9
   3   6   1 147.432 7.32666   8
  -4  -6  -1 28.2565 2.94484  18
  -4  -6  -1 24.4469 3.85957  17
  -4  -6  -1 10.3915 4.67315   9
  -4  -6  -1 26.2943 3.81521  15
  -4  -6  -1 21.8330 3.66351  11
   4   6   1 24.1977 4.03082   8
  -5  -6  -1 91.4577 5.74503  12
  -5  -6  -1 95.9184 5.73940  17
  -5  -6  -1 96.3480 6.15056  15
  -6  -6  -1 229.627 7.02088  17
   6   6   1 217.834 7.03972  15
   6   6   1 232.504 7.37044  18
   6  -7  -1 86.2509 2.82711  18
  -6   7   1 81.4406 3.59465  13
   5  -7  -1 15.7236 3.12859  18
  -5   7   1 18.2783 3.31749  13
   4  -7  -1 30.5539 4.37000  18
   4  -7  -1 33.7459 4.34933  16
   4  -7  -1 33.1246 4.92942  10
  -4   7   1 28.7545 4.17221  13
  -4   7   1 22.7707 3.20851  18
   3  -7  -1 232.602 9.94449  10
   3  -7  -1 220.385 8.45137  16
  -3   7   1 217.676 8.64478  13
   2  -7  -1 11.6784 3.26371  10
   2  -7  -1 9.21875 3.95445   2
   2  -7  -1 13.4919 3.05014   8
   2  -7  -1 9.14804 2.78407  11
   1  -7  -1 281.499 11.0169   2
   1  -7  -1 269.529 9.09507  10
   1  -7  -1 280.639 11.5262   1
   1  -7  -1 281.747 8.52445   8
   1  -7  -1 262.245 7.99684  11
   0  -7  -1 341.183 9.10088  11
   0  -7  -1 332.414 12.4445   1
   0  -7  -1 338.668 11.9906   4
   0   7   1 344.889 10.1517   8
  -1  -7  -1 39.7201 3.73524  11
  -1  -7  -1 45.4435 5.04551   6
  -1  -7  -1 36.2168 4.94857   1
  -1  -7  -1 38.8109 5.15810   4
   1   7   1 46.4966 4.42171   8
  -2  -7  -1 227.531 8.06206  11
  -2  -7  -1 236.934 11.0456   9
  -2  -7  -1 236.883 10.7874   1
   2   7   1 231.673 8.83846   8
  -3  -7  -1 8.32271 2.47592  18
  -3  -7  -1 7.02661 3.01762  11
  -3  -7  -1 4.73979 4.19029   9
   3   7   1 11.9645 3.35381   8
   3   7   1 6.50320 3.06062  14
  -4  -7  -1 149.059 7.27467  11
  -4  -7  -1 142.610 10.0797   9
  -4  -7  -1 161.913 4.63357  18
  -4  -7  -1 152.012 6.64234  17
  -5  -7  -1 134.709 5.96268  17
   5   7   1 149.023 6.57521  18
  -6  -7  -1 9.97619 1.88568  17
   6   7   1 3.56545 1.68100  18
   5  -8  -1 33.6246 2.98190  16
   5  -8  -1 33.3727 2.67673  18
  -5   8   1 27.7244 3.00808  13
   4  -8  -1 243.609 8.03445  18
   4  -8  -1 244.028 8.45447  16
  -4   8   1 256.706 8.76786  13
   3  -8  -1 162.665 7.07883  18
   3  -8  -1 174.598 7.54158  16
   3  -8  -1 160.701 8.01323  10
  -3   8   1 179.718 7.63371  13
  -3   8   1 169.163 6.48446  18
   2  -8  -1 145.588 6.29703  11
   2  -8  -1 156.805 6.49699  18
   2  -8  -1 142.786 6.92138  16
   2  -8  -1 155.278 7.39088  10
  -2   8   1 149.892 6.54784  18
  -2   8   1 145.068 7.00324  13
   1  -8  -1 183.882 6.93673  11
   1  -8  -1 177.666 9.64939   1
   1  -8  -1 183.303 7.48063  16
   0  -8  -1 38.5861 5.69323   1
   0  -8  -1 29.7623 3.51893  11
  -1  -8  -1 29.3035 5.07520   1
  -1  -8  -1 28.1188 3.43102  18
  -1  -8  -1 31.0468 3.70516  11
   1   8   1 32.2283 3.82539   8
   1   8   1 28.6814 4.28558  14
  -2  -8  -1 -0.6545 2.31302  11
  -2  -8  -1 3.21161 2.35880  18
  -2  -8  -1 0.54177 2.92775  16
  -2  -8  -1 -3.5725 3.16358   1
   2   8   1 4.73380 2.97510   8
   2   8   1 1.29520 2.87020  14
  -3  -8  -1 2.83921 2.05462  18
  -3  -8  -1 -0.0492 4.26242   9
  -3  -8  -1 2.77016 2.65682  11
   3   8   1 -0.6123 2.68096  14
  -4  -8  -1 67.8965 5.03917  11
  -4  -8  -1 67.0279 4.55549  17
   4   8   1 70.6714 5.16750  18
  -5  -8  -1 7.84595 2.25149  17
   5   8   1 10.4039 2.43466  18
  -5   9   1 128.982 4.42181  13
   4  -9  -1 55.9990 4.00080  16
   4  -9  -1 59.3605 3.67055  18
  -4   9   1 55.2936 4.03030  13
   3  -9  -1 491.972 11.7896  18
   3  -9  -1 475.564 12.5214  16
  -3   9   1 495.934 10.5736  18
  -3   9   1 480.642 12.5500  13
   2  -9  -1 421.915 11.1697  18
   2  -9  -1 424.291 11.0570  11
   2  -9  -1 425.067 11.9460  16
  -2   9   1 420.502 10.7834  18
  -2   9   1 425.953 11.5751  13
   1  -9  -1 93.2883 5.81413  16
   1  -9  -1 107.260 5.43574  18
   1  -9  -1 93.3717 5.22367  11
  -1   9   1 113.267 5.55873  18
   0  -9  -1 465.788 11.8937  11
   0  -9  -1 437.096 12.2285  16
   0  -9  -1 452.719 16.7064   1
   0  -9  -1 460.402 11.4479  18
   0   9   1 479.051 12.5273  14
   0   9   1 457.639 12.0766  18
  -1  -9  -1 40.3625 6.12382   1
  -1  -9  -1 49.1425 3.79038  18
  -1  -9  -1 42.7006 4.27912  16
  -1  -9  -1 43.0371 4.08834  11
   1   9   1 49.5839 4.69468  14
   1   9   1 42.1287 4.32385  18
  -2  -9  -1 424.463 11.6533  16
  -2  -9  -1 433.278 11.4928  11
  -2  -9  -1 439.886 10.0614  18
   2   9   1 436.261 11.8654  14
   2   9   1 430.533 11.6614  18
  -3  -9  -1 316.940 6.75625  18
  -3  -9  -1 318.873 9.32359  11
   3   9   1 313.657 9.58132  14
   3   9   1 299.990 9.19501  18
   4   9   1 70.1404 4.29136  18
   5   9   1 291.281 6.54619  18
   4 -10  -1 32.5849 2.67304  16
   4 -10  -1 28.4181 2.01643  18
  -4  10   1 28.0272 2.45763  13
   3 -10  -1 49.8419 3.91222  16
   3 -10  -1 57.3648 3.53536  18
  -3  10   1 54.5395 3.87289  13
   2 -10  -1 0.32575 2.50425  16
   2 -10  -1 3.38179 2.37981  18
  -2  10   1 2.45626 1.99021  18
   1 -10  -1 3.07733 2.47989  18
   1 -10  -1 7.16111 2.92922  16
   1 -10  -1 4.01835 2.42207  11
  -1  10   1 1.37300 2.28548  18
   0 -10  -1 0.69803 2.39734  11
   0 -10  -1 -1.0425 2.18844  18
   0 -10  -1 5.13192 2.66231  16
   0  10   1 -1.3923 2.20748  18
   0  10   1 0.51550 3.06325  14
  -1 -10  -1 89.4273 5.37446  16
  -1 -10  -1 88.7914 4.25033  18
  -1 -10  -1 96.9017 5.26588  11
   1  10   1 88.9616 4.90457  18
   1  10   1 89.4279 5.70739  14
  -2 -10  -1 39.8246 3.79789  11
  -2 -10  -1 46.1864 2.76379  18
   2  10   1 43.3898 4.06718  14
   2  10   1 55.1212 4.07193  18
  -3 -10  -1 1.26892 2.26495  11
   3  10   1 2.33758 2.38207  14
   3  10   1 4.81458 2.17219  18
   4  10   1 3.37139 1.64693  18
   3 -11  -1 107.874 4.25586  16
   2 -11  -1 138.583 4.24548  18
   2 -11  -1 127.187 5.33292  16
   1 -11  -1 7.95298 1.97560  18
   1 -11  -1 10.2444 2.53064  16
  -1  11   1 8.50765 1.88178  18
   0 -11  -1 152.167 6.03401  11
   0 -11  -1 168.673 6.40446  16
   0 -11  -1 152.730 4.79642  18
   0  11   1 157.374 6.20730  14
   0  11   1 168.031 5.28680  18
  -1 -11  -1 292.785 8.35313  11
  -1 -11  -1 300.454 8.46421  16
   1  11   1 293.109 7.56007  18
   1  11   1 312.099 8.66303  14
   2  11   1 72.1577 4.51364  14
   2  11   1 75.6829 3.56765  18
   3  11   1 222.113 5.35280  18
   3  11   1 219.834 6.25204  14
   1 -12  -1 49.5286 3.21231  16
   0 -12  -1 53.7281 3.29929  16
   0  12   1 51.3375 3.23420  14
   1  12   1 98.9718 4.10308  14
   2  12   1 166.598 4.83895  14
   2  11  -2 207.964 5.75649  14
   1  11  -2 107.522 4.35291  14
  -1 -11   2 96.4546 3.45969  18
   0 -11   2 363.753 8.12284  18
   1 -11   2 30.9537 2.70035  16
   1 -11   2 33.8742 2.59224  18
   2 -11   2 124.823 4.27687  16
   2 -11   2 126.162 3.87754  18
   3  10  -2 -0.7594 1.95105  14
   2  10  -2 28.2774 3.18895  14
  -2 -10   2 31.0996 2.68403  18
   1  10  -2 132.385 5.87689  14
  -1 -10   2 125.343 5.54401  11
  -1 -10   2 131.344 5.16809  18
   0  10  -2 36.7807 3.62267  14
   0 -10   2 34.5683 3.53126  11
   0 -10   2 49.8568 3.84834  18
   1 -10   2 76.8779 4.51844  18
   1 -10   2 83.3865 4.57261  11
   1 -10   2 82.6111 4.83773  16
   2 -10   2 3.61417 2.42147  16
   2 -10   2 3.14437 2.26423  18
  -3  10  -2 29.9721 2.63242  13
   3 -10   2 40.8937 3.15998  16
   3 -10   2 29.7454 2.66930  18
   4   9  -2 70.0711 3.96731  14
  -4  -9   2 75.2390 3.69855  17
   3   9  -2 105.526 5.23104  14
   3   9  -2 99.7716 3.62570  18
  -3  -9   2 99.6521 4.22476  18
  -3  -9   2 104.717 4.77712  17
   2   9  -2 199.961 7.57140  14
   2   9  -2 191.140 5.71059  18
  -2  -9   2 195.050 6.96737  11
  -2  -9   2 196.662 6.75808  18
   1   9  -2 19.9601 3.54948  14
   1   9  -2 20.1328 2.52963  18
  -1  -9   2 22.3128 3.42752  18
  -1  -9   2 23.1423 3.35824  11
   0   9  -2 125.552 4.23729  18
   0   9  -2 123.678 6.29234  14
   0  -9   2 119.691 5.77048  11
   1  -9   2 46.2230 4.15945  11
   1  -9   2 61.9560 4.70226  16
  -2   9  -2 1.80199 2.46794  13
   2  -9   2 1.86140 2.32722  11
   2  -9   2 5.53464 2.85021  16
  -3   9  -2 64.1646 4.47085  13
   3  -9   2 60.6502 4.44021  16
   3  -9   2 57.0281 4.02385  11
  -4   9  -2 0.71814 1.83857  13
   4  -9   2 2.52702 2.06337  16
   4  -9   2 2.63529 1.94508  18
  -5  -8   2 75.6031 3.46571  17
   4   8  -2 89.3313 5.11543  14
   4   8  -2 87.2638 3.67836  18
  -4  -8   2 87.5062 4.54048  17
  -4  -8   2 83.0981 3.74741  18
   3   8  -2 143.476 5.52329  18
   3   8  -2 150.891 6.88176  14
  -3  -8   2 145.048 6.13045  17
  -3  -8   2 142.473 5.86249  18
   2   8  -2 6.85078 3.01782  14
   2   8  -2 6.17451 2.47550  18
  -2  -8   2 9.10634 2.92765  18
  -2  -8   2 10.7392 2.80750  11
  -2  -8   2 13.5611 3.09768  17
   1   8  -2 98.5259 6.08351  14
   1   8  -2 101.113 4.85102  18
  -1  -8   2 101.196 5.35964  11
  -1  -8   2 113.675 9.36095   1
   0   8  -2 43.2061 3.31508  18
   0   8  -2 44.3579 4.36826  14
   0  -8   2 45.9641 4.78012   8
   0  -8   2 37.9885 3.95625  11
   0  -8   2 45.2286 6.29427   1
   0  -8   2 44.9830 4.36332  16
  -1   8  -2 162.043 5.10291  18
   1  -8   2 176.202 6.86017  11
   1  -8   2 154.254 7.46889   8
   1  -8   2 148.697 9.49565   1
   1  -8   2 167.544 7.17023  16
  -2   8  -2 107.641 6.09893  13
   2  -8   2 116.584 6.73591   8
   2  -8   2 116.940 6.37716  16
   2  -8   2 117.202 5.81952  11
  -3   8  -2 -2.3949 2.48040  13
   3  -8   2 -0.3546 2.38557  11
   3  -8   2 -3.6211 2.84954   8
   3  -8   2 -2.6324 2.69018  16
  -4   8  -2 115.160 5.74778  13
   4  -8   2 114.865 5.67517  16
  -5   8  -2 99.1376 4.12305  13
   5  -8   2 101.640 4.20331  16
   5  -8   2 103.067 3.89518  18
   5   7  -2 137.770 4.33572  18
  -5  -7   2 144.910 5.53373  17
   4   7  -2 165.971 6.06020  18
   4   7  -2 170.857 7.26054  14
  -4  -7   2 158.369 6.56797  17
  -4  -7   2 168.048 6.82492  12
  -4  -7   2 174.012 6.06766  18
   3   7  -2 31.0489 3.93615  14
   3   7  -2 29.2730 3.53174  18
  -3  -7   2 22.8625 3.56911  17
  -3  -7   2 30.4321 3.94380  18
  -3  -7   2 30.5151 4.10886  12
   2   7  -2 553.024 12.6746  18
   2   7  -2 517.202 13.5753  14
  -2  -7   2 538.251 13.0343  11
  -2  -7   2 538.321 17.9429   1
  -1  -7   2 421.991 10.9104  11
  -1  -7   2 419.404 12.1162   8
  -1  -7   2 403.114 15.0124   1
   0  -7   2 217.228 8.69874   8
   0  -7   2 224.828 10.7641   1
   0  -7   2 223.692 7.54288  11
   1  -7   2 445.391 15.3012   2
   1  -7   2 448.814 13.3845   8
   1  -7   2 445.337 11.5971  11
   1  -7   2 444.082 15.3090   1
  -2   7  -2 44.6935 4.38483  13
  -2   7  -2 49.2146 2.93611  18
   2  -7   2 55.0735 4.72900  16
   2  -7   2 47.7839 5.26048   8
   2  -7   2 44.7892 4.40636  11
  -3   7  -2 231.381 8.60693  13
   3  -7   2 229.957 8.32976  11
   3  -7   2 212.859 9.39951   8
  -4   7  -2 57.0223 4.77801  13
   4  -7   2 62.9468 4.69465  11
   4  -7   2 51.9985 4.93147   8
   4  -7   2 55.5435 4.75729  16
  -5   7  -2 218.911 7.18155  13
   5  -7   2 219.703 7.18783  16
  -6  -6   2 84.2388 3.80325  17
   5   6  -2 142.261 5.48181  18
  -5  -6   2 134.426 4.87145  18
  -5  -6   2 135.311 6.21184  12
  -5  -6   2 136.756 6.27921  17
   4   6  -2 3.64138 2.55744  18
  -4  -6   2 -0.0575 2.73258  18
  -4  -6   2 1.05906 2.76915  12
  -4  -6   2 -0.9796 4.23981   9
  -4  -6   2 -3.1321 2.53553  17
   3   6  -2 2.04404 2.83195  14
   3   6  -2 3.00237 2.72419  18
  -3  -6   2 6.62956 2.93770  12
  -3  -6   2 0.94997 3.32662  18
  -3  -6   2 5.41168 4.13415   1
  -3  -6   2 -0.9543 2.74079  17
  -3  -6   2 1.99079 4.05939   9
  -2  -6   2 -0.3408 2.56676   8
  -2  -6   2 6.24977 2.84001  12
  -2  -6   2 -1.8766 2.43801  11
  -2  -6   2 -3.6804 2.76393   1
   1   6  -2 82.8561 4.91947  12
  -1  -6   2 80.7101 5.42253   8
  -1  -6   2 74.3463 6.87205   1
  -1  -6   2 73.2595 6.10043   6
  -1  -6   2 85.1726 4.54135  11
  -1  -6   2 80.8113 6.91454   4
   0  -6   2 22.1893 4.06481   2
   0  -6   2 10.5058 3.47089   3
   0  -6   2 14.0721 3.51168   6
   0  -6   2 12.2526 2.67509  11
   0  -6   2 19.4835 4.08325   1
   0  -6   2 11.6241 3.15167   8
   0  -6   2 6.25635 2.61960   7
   1  -6   2 130.260 7.67578   1
   1  -6   2 127.736 6.32746   7
   1  -6   2 121.384 7.36904   6
   1  -6   2 127.952 7.01838   8
   1  -6   2 117.773 7.08894   3
   1  -6   2 133.875 7.79445   2
   1  -6   2 122.289 5.84826  11
   2  -6   2 30.8575 3.93419  11
   2  -6   2 32.5138 4.46616   7
   2  -6   2 15.6015 4.11299   2
   2  -6   2 18.0535 4.35088   8
  -3   6  -2 -3.7527 3.27700  16
  -3   6  -2 1.28640 2.56669  13
   3  -6   2 -2.3257 2.84086  11
   3  -6   2 5.41077 4.03290   8
  -4   6  -2 3.83005 3.54830  16
  -4   6  -2 1.94740 2.75817  13
   4  -6   2 5.04628 3.86684   8
   4  -6   2 4.03544 3.27880  11
   4  -6   2 5.37840 3.52753  10
  -5   6  -2 100.032 5.54191  13
   6  -6   2 2.91841 2.05984  18
   6   5  -2 203.926 5.53369  18
  -6  -5   2 206.256 7.00851  17
   5   5  -2 125.396 5.82228  18
  -5  -5   2 113.577 6.46947  17
  -5  -5   2 129.468 6.85115  12
  -5  -5   2 134.890 5.89207  18
   4   5  -2 700.808 16.3312  18
  -4  -5   2 696.711 16.3971  18
  -4  -5   2 690.697 16.7188  17
  -4  -5   2 715.802 17.2454  12
  -4  -5   2 684.742 22.0311   9
  -3  -5   2 131.456 6.44611  12
  -3  -5   2 118.514 8.44303   9
  -3  -5   2 117.699 8.31108   1
  -2  -5   2 367.015 10.2767  12
  -2  -5   2 383.016 11.3512   8
  -2  -5   2 349.196 9.98616  11
  -2  -5   2 382.026 12.9244   6
  -2  -5   2 386.641 13.5028   1
  -2  -5   2 393.869 13.1630   9
  -2  -5   2 365.069 13.2178   4
  -1  -5   2 992.299 19.2355  11
  -1  -5   2 1010.74 19.9465   7
  -1  -5   2 992.326 24.0487   1
  -1  -5   2 1002.18 22.3809   6
  -1  -5   2 997.779 23.2977   4
  -1  -5   2 1018.69 22.0277   8
   0  -5   2 245.874 8.92262   6
   0  -5   2 238.399 8.66212   4
   0  -5   2 234.592 8.37521   8
   0  -5   2 237.483 7.50974   7
   0  -5   2 229.565 8.69571   3
   0  -5   2 232.866 6.92463  11
   0  -5   2 238.850 9.16918   2
   0  -5   2 246.783 9.85481   1
   1  -5   2 228.278 7.64042  11
   1  -5   2 220.430 9.18989   2
   1  -5   2 222.046 9.04105   3
   1  -5   2 243.899 9.28511   8
   1  -5   2 231.002 9.48616   6
   1  -5   2 248.054 8.33173   7
   1  -5   2 246.422 9.48651   1
  -2   5  -2 125.267 5.95081  11
   2  -5   2 136.116 7.85422   6
   2  -5   2 130.656 7.61951   3
   2  -5   2 142.451 8.14080   2
   2  -5   2 122.531 6.89063   8
   2  -5   2 106.765 5.92475   7
  -3   5  -2 542.332 14.3488  12
  -3   5  -2 565.094 13.4847  11
   3  -5   2 511.527 17.6258   2
   3  -5   2 531.390 14.6825   7
   3  -5   2 558.381 16.1069   8
   3  -5   2 558.806 15.3905  10
  -4   5  -2 656.594 16.6036  13
  -4   5  -2 671.001 17.0543  16
  -4   5  -2 689.454 16.0710  11
   4  -5   2 690.579 18.6035  10
   4  -5   2 704.610 19.2782   8
  -5   5  -2 33.7425 4.58919  16
  -5   5  -2 37.5507 4.17038  13
   5  -5   2 36.4139 4.97186  10
   5  -5   2 24.7763 4.93682   8
   6  -5   2 153.526 5.63411  16
   6   4  -2 101.494 5.59777  15
   6   4  -2 97.6497 4.67468  18
  -6  -4   2 84.2540 5.54070  12
  -6  -4   2 96.6399 5.69900  17
   5   4  -2 133.984 7.26606  15
   5   4  -2 142.149 6.55913  18
  -5  -4   2 130.355 6.27514  18
  -5  -4   2 131.215 6.91560  17
  -5  -4   2 130.295 10.8498   9
  -5  -4   2 135.559 7.32957  12
   4   4  -2 103.677 5.78445  18
  -4  -4   2 107.830 6.37440  12
  -4  -4   2 113.825 9.70512   9
  -4  -4   2 108.802 5.78585  18
  -4  -4   2 108.874 6.31147  17
  -3  -4   2 107.301 7.70491   4
  -3  -4   2 122.090 8.04722   9
  -3  -4   2 115.146 5.92693   8
  -3  -4   2 105.164 5.89660  12
  -3  -4   2 119.353 7.65150   1
  -3  -4   2 116.595 7.64856   6
  -2  -4   2 194.592 8.72974   9
  -2  -4   2 200.099 7.72272   8
  -2  -4   2 195.388 8.61160   6
  -2  -4   2 204.472 8.99496   1
  -2  -4   2 193.468 7.04810   7
  -2  -4   2 187.790 8.69759   4
  -2  -4   2 199.847 6.81407  11
  -1  -4   2 4.12756 2.03693   3
  -1  -4   2 1.36213 2.06205   7
  -1  -4   2 11.3785 2.89869   9
  -1  -4   2 4.36886 2.73954   6
  -1  -4   2 1.76354 2.42371   4
  -1  -4   2 3.47979 2.59429   1
  -1  -4   2 3.46201 2.56473   8
  -1  -4   2 3.73940 2.20548   2
   0  -4   2 238.058 7.97748   4
   0  -4   2 240.452 8.63811   6
   0  -4   2 231.390 7.05905   7
   0  -4   2 221.526 8.12424   8
   0  -4   2 233.799 8.18630   3
   0  -4   2 233.676 8.82401   1
   0  -4   2 257.364 8.66737   2
   1  -4   2 0.88222 2.48108   2
   1  -4   2 0.07335 2.05877   3
   1  -4   2 1.19074 2.31507   1
   1  -4   2 3.87859 2.26197   7
   1  -4   2 3.62858 2.57273   8
   1  -4   2 1.48930 2.33159   6
   1  -4   2 1.74302 2.21565   5
  -2   4  -2 118.334 5.21405  11
   2  -4   2 101.965 5.63799   8
   2  -4   2 112.724 5.17932   7
   2  -4   2 107.794 6.80816   2
   2  -4   2 99.1646 5.88623   6
   2  -4   2 123.519 6.94329   3
   2  -4   2 108.730 5.52387  10
   2  -4   2 108.952 5.71032   5
  -3   4  -2 524.759 12.1322  11
  -3   4  -2 501.350 12.6866  12
   3  -4   2 528.078 14.0202  10
   3  -4   2 525.427 15.0025   6
   3  -4   2 518.295 16.7908   2
   3  -4   2 502.385 12.9545   7
   3  -4   2 490.565 16.4157   3
   3  -4   2 506.444 14.3139   5
   3  -4   2 519.203 14.4823   8
  -4   4  -2 44.9579 5.03432  16
  -4   4  -2 53.6446 4.97611  13
  -4   4  -2 43.8772 4.28058  11
  -4   4  -2 53.6255 4.74958  12
   4  -4   2 45.8124 5.45751   8
   4  -4   2 42.7573 4.88222  10
  -5   4  -2 123.036 6.81092  13
  -5   4  -2 129.585 7.20061  16
  -5   4  -2 123.093 6.84948  12
   5  -4   2 122.668 7.51112  10
   5  -4   2 112.893 7.56222   8
  -6   4  -2 35.4826 4.00640  16
   6   3  -2 103.700 6.23433  15
   6   3  -2 93.7026 4.98846  18
  -6  -3   2 94.0403 5.70610  17
  -6  -3   2 102.506 6.11617  12
   5   3  -2 70.3164 5.84941  15
   5   3  -2 66.0343 5.01111  18
  -5  -3   2 60.0995 5.53869  12
  -5  -3   2 61.2725 4.95123  17
  -5  -3   2 54.8318 4.64976  18
  -5  -3   2 57.9875 7.65999   9
  -4  -3   2 41.9802 4.42370  12
  -4  -3   2 29.9204 5.61282   9
   3   3  -2 340.159 9.56881   8
  -3  -3   2 347.440 9.95302  12
  -3  -3   2 347.564 10.2871   8
  -3  -3   2 351.722 12.3848   4
  -3  -3   2 358.185 11.6307   6
  -3  -3   2 362.441 12.7163   9
   2   3  -2 82.2828 4.24585   3
   2   3  -2 73.5647 4.28813   2
   2   3  -2 76.2858 4.06641   8
  -2  -3   2 80.5206 5.45126   1
  -2  -3   2 79.2908 4.53694   7
  -2  -3   2 73.7606 5.15424   4
  -2  -3   2 89.8534 5.19055   8
  -2  -3   2 80.7702 5.72191   9
  -2  -3   2 89.3605 5.52402   6
   1   3  -2 365.151 9.41152   3
   1   3  -2 382.360 9.81718   2
  -1  -3   2 382.515 10.6738   6
  -1  -3   2 373.648 10.6838   1
  -1  -3   2 366.978 10.2076   4
  -1  -3   2 367.529 9.02587   7
  -1  -3   2 374.145 10.1389   9
  -1  -3   2 372.212 10.2426   8
   0  -3   2 120.877 4.80492   7
   0  -3   2 122.871 5.07413   4
   0  -3   2 111.043 5.65590   2
   0  -3   2 122.582 5.90624   1
   0  -3   2 115.155 5.72674   6
   0  -3   2 112.639 5.47976   3
   0  -3   2 121.540 3.65970   5
   1  -3   2 819.098 18.0903   3
   1  -3   2 843.454 18.9331   2
   1  -3   2 834.472 18.1386   1
   1  -3   2 855.417 15.8373   4
   1  -3   2 838.535 17.4538   6
   1  -3   2 827.764 15.5078   7
   1  -3   2 833.432 15.5764   5
   2  -3   2 707.764 17.9653   2
   2  -3   2 686.088 15.5503  10
   2  -3   2 704.350 17.2488   3
   2  -3   2 689.786 13.9816   7
   2  -3   2 703.160 15.8290   6
   2  -3   2 672.977 15.5305   8
   2  -3   2 702.729 14.8779   5
  -3   3  -2 2.35705 1.99104  11
   3  -3   2 5.28380 2.13804   7
   3  -3   2 2.41931 3.14581   3
   3  -3   2 2.30152 2.23605   8
   3  -3   2 2.20120 2.44771   5
   3  -3   2 5.51384 2.11758   6
   3  -3   2 7.65193 3.47687   2
   3  -3   2 3.08230 2.20816  10
  -4   3  -2 149.648 6.21754  11
  -4   3  -2 150.811 6.80281  12
   4  -3   2 140.958 6.79265   7
   4  -3   2 140.724 9.46615   2
   4  -3   2 156.978 7.70122   8
   4  -3   2 166.508 7.64646  10
  -5   3  -2 1.19593 3.23860  16
  -5   3  -2 3.36491 2.86759  12
  -5   3  -2 3.27671 2.59824  17
   5  -3   2 0.85867 3.34468   8
   5  -3   2 0.39538 3.11500  10
  -6   3  -2 28.8584 4.20543  16
  -6   3  -2 26.1665 3.88097  12
   6   2  -2 141.171 6.03373  18
   6   2  -2 142.563 7.37372  15
  -6  -2   2 140.887 4.65899  18
  -6  -2   2 145.155 7.02666  12
  -6  -2   2 148.579 6.42552  17
   5   2  -2 500.852 12.8417  18
   5   2  -2 489.857 14.0705  15
  -5  -2   2 511.729 12.3909  18
  -5  -2   2 491.592 13.5224  12
  -5  -2   2 482.694 18.2507   9
  -5  -2   2 471.789 12.4505  17
   4   2  -2 456.549 12.1372   8
  -4  -2   2 450.291 13.7682   6
  -4  -2   2 441.664 15.7591   9
  -4  -2   2 443.733 11.9005  12
   3   2  -2 266.352 8.12163   8
  -3  -2   2 264.785 9.03889   6
  -3  -2   2 269.817 10.3150   9
  -3  -2   2 263.036 8.27914   8
  -3  -2   2 258.501 9.73017   4
   2   2  -2 330.050 8.57004   3
   2   2  -2 320.286 8.25841   8
   2   2  -2 319.502 8.69211   2
  -2  -2   2 337.627 9.33805   8
  -2  -2   2 354.772 9.52444   6
  -2  -2   2 325.082 8.20893   7
  -2  -2   2 326.930 9.88134   4
  -2  -2   2 344.506 10.3389   9
  -2  -2   2 326.228 9.66379   1
   1   2  -2 62.1660 3.62554   2
   1   2  -2 56.6229 3.48097   3
  -1  -2   2 67.0516 4.05111   9
  -1  -2   2 61.8177 3.91449   4
  -1  -2   2 60.0417 3.56514   7
  -1  -2   2 57.1904 3.89159   1
  -1  -2   2 55.2618 4.19785   6
   0   2  -2 192.156 6.25723   2
   0  -2   2 188.216 6.17352   1
   0  -2   2 189.593 5.55924   4
   0  -2   2 178.267 5.84134   3
   0  -2   2 193.723 4.94785   7
   0  -2   2 177.796 6.34031   6
   0  -2   2 185.874 4.24393   5
   1  -2   2 565.083 10.3549   7
   1  -2   2 583.038 10.6729   4
   1  -2   2 560.399 13.6284   2
   1  -2   2 570.440 12.6306   1
   1  -2   2 571.800 12.3458   6
   1  -2   2 575.881 10.9870   5
   1  -2   2 581.534 13.2916   3
  -2   2  -2 381.076 9.75161   6
   2  -2   2 358.907 7.98312   7
   2  -2   2 359.279 11.0780   2
   2  -2   2 371.628 10.8933   3
   2  -2   2 356.895 9.24714  10
   2  -2   2 372.096 9.25054   5
  -3   2  -2 481.477 12.8734   6
  -3   2  -2 476.623 10.5790  11
   3  -2   2 457.282 12.2331  10
   3  -2   2 480.566 11.0151   7
   3  -2   2 476.300 12.4672   8
   3  -2   2 502.538 14.1856   3
   3  -2   2 462.281 12.4078   5
   3  -2   2 473.408 14.1567   2
  -4   2  -2 8.04486 3.31823   6
  -4   2  -2 4.67749 2.30855  11
  -4   2  -2 6.52312 2.58521  12
   4  -2   2 5.39623 3.58723   2
   4  -2   2 2.46954 3.30514   3
   4  -2   2 4.77162 2.74298   8
   4  -2   2 7.97923 2.55609   7
   4  -2   2 5.43933 2.75131  10
   4  -2   2 2.28528 3.03121   5
  -5   2  -2 0.65806 3.30366  16
  -5   2  -2 2.53788 2.78818  12
  -5   2  -2 3.17392 2.44807  17
   5  -2   2 3.60446 3.15515   8
   5  -2   2 -1.9091 2.69652  10
  -6   2  -2 105.311 5.54706  17
  -6   2  -2 102.255 6.17871  12
   7   1  -2 8.63963 1.87660  18
   7   1  -2 4.53218 2.47066  15
   6   1  -2 110.582 6.80207  15
   6   1  -2 116.111 5.46098  18
  -6  -1   2 119.480 6.25945  12
  -6  -1   2 124.193 5.71395  17
  -6  -1   2 116.827 4.48514  18
   5   1  -2 187.771 7.49293  18
   5   1  -2 189.622 8.48875  15
  -5  -1   2 195.862 7.71445  12
  -5  -1   2 184.510 6.83786  18
  -5  -1   2 185.962 7.21182  17
  -5  -1   2 180.474 11.4126   9
   4   1  -2 57.3994 4.54646   8
  -4  -1   2 59.3200 4.27450  12
  -4  -1   2 57.5629 6.58018   9
   3   1  -2 250.019 8.16672   2
   3   1  -2 253.141 7.77335   8
   3   1  -2 247.615 8.16673   3
   3   1  -2 248.840 7.82042   5
  -3  -1   2 239.560 9.55005   9
  -3  -1   2 247.593 8.17994   6
  -3  -1   2 247.827 7.81478   8
  -3  -1   2 260.120 9.16714   4
   2   1  -2 22.1458 2.07453   7
   2   1  -2 22.2614 2.67450   2
   2   1  -2 24.5642 2.67428   3
   2   1  -2 19.5860 2.33567   5
  -2  -1   2 20.6103 2.73660   8
  -2  -1   2 20.0119 2.56404   6
  -2  -1   2 21.9487 2.78152   1
  -2  -1   2 22.9781 3.28949   9
  -2  -1   2 22.7810 2.90703   4
  -2  -1   2 21.7608 2.39502   7
   1   1  -2 304.111 7.50782   2
   1   1  -2 297.802 7.10137   3
   1   1  -2 293.931 5.49194   5
  -1  -1   2 292.492 6.46689   7
  -1  -1   2 289.461 7.59179   1
  -1  -1   2 304.839 7.49245   6
  -1  -1   2 292.868 7.59247   4
   0   1  -2 1409.37 24.6207   3
   0   1  -2 1422.96 25.5454   2
   0  -1   2 1439.18 21.8641   5
   0  -1   2 1466.56 24.6177   4
   0  -1   2 1433.61 25.6610   1
   0  -1   2 1394.93 24.2866   6
  -1   1  -2 1727.37 29.0415   6
   1  -1   2 1739.79 31.6404   2
   1  -1   2 1728.17 28.3665   4
   1  -1   2 1689.98 27.3855   5
   1  -1   2 1739.76 26.9615   7
   1  -1   2 1703.30 30.5628   3
  -2   1  -2 2768.61 47.3754   6
   2  -1   2 2861.81 49.3240   3
   2  -1   2 2904.67 46.0135   5
   2  -1   2 2884.77 45.5488   7
   2  -1   2 2895.81 51.1228   2
  -3   1  -2 507.610 10.9226  11
  -3   1  -2 546.097 13.2837   6
   3  -1   2 529.267 11.4413   7
   3  -1   2 539.224 13.9215   2
   3  -1   2 521.944 13.3896   3
   3  -1   2 516.237 12.9142   5
   3  -1   2 525.505 13.0452   8
   3  -1   2 507.287 12.8176  10
  -4   1  -2 198.747 8.61719   6
  -4   1  -2 196.991 6.56190  11
  -4   1  -2 187.249 7.12397  12
   4  -1   2 193.510 7.82668  10
   4  -1   2 195.235 7.04395   7
   4  -1   2 192.050 7.97575   8
   4  -1   2 193.416 8.42939   5
  -5   1  -2 508.858 12.8715  17
  -5   1  -2 514.910 13.6501  12
  -5   1  -2 513.264 13.4776  16
   5  -1   2 514.464 15.2154   8
   5  -1   2 515.355 15.1215  10
   5  -1   2 513.286 13.6218  15
  -6   1  -2 201.186 8.06720  12
  -6   1  -2 190.537 7.24194  17
   6  -1   2 207.068 7.93691  15
  -7   1  -2 378.605 8.53564  17
  -7   1  -2 347.917 9.28415  19
   7   0  -2 83.6810 4.84572  15
   7   0  -2 82.4401 3.62408  18
   6   0  -2 193.699 6.87823  18
   6   0  -2 183.546 8.11651  15
  -6   0   2 201.335 7.63781  12
  -6   0   2 203.107 5.83243  18
  -6   0   2 196.507 6.97437  17
   5   0  -2 115.202 5.88880  18
   5   0  -2 108.969 6.63157  15
  -5   0   2 112.454 5.22238  18
  -5   0   2 117.931 10.4615   9
  -5   0   2 118.365 6.03871  12
  -5   0   2 119.288 5.71681  17
   4   0  -2 326.872 10.5503  10
   4   0  -2 334.437 10.0193   8
   4   0  -2 329.559 11.2688   5
  -4   0   2 334.852 9.43659  12
  -4   0   2 319.956 12.8060   9
   3   0  -2 15.6703 2.73788   3
   3   0  -2 13.6114 2.61917  10
   3   0  -2 15.4880 3.01827   5
   3   0  -2 16.2551 2.58450   8
   3   0  -2 15.3296 2.86254   2
  -3   0   2 17.2256 2.74280   8
  -3   0   2 14.3419 2.58599   6
  -3   0   2 16.0331 3.40676   9
  -3   0   2 12.8219 3.05163   4
   2   0  -2 4.35741 1.87951   3
   2   0  -2 3.13757 1.43049   7
   2   0  -2 1.89505 1.84536   5
   2   0  -2 0.81992 1.70663   1
   2   0  -2 4.07743 1.95522   2
  -2   0   2 3.27545 1.82243   4
  -2   0   2 0.64413 1.59494   6
  -2   0   2 4.46073 2.18605   9
   1   0  -2 87.4237 3.53469   3
   1   0  -2 81.3347 3.67406   1
   1   0  -2 86.3299 3.22422   5
   1   0  -2 88.8270 3.85912   2
  -1   0   2 88.1132 2.90322   7
  -1   0   2 87.6754 3.16920   6
  -1   0   2 90.9438 3.71928   4
   0   0  -2 63.5526 2.95729   2
   0   0  -2 63.5139 2.67699   3
   0   0  -2 59.3873 2.06811   5
   0   0   2 56.4268 2.39611   4
   0   0   2 58.7886 2.62218   6
  -1   0  -2 1337.43 22.9363   6
  -1   0  -2 1396.53 22.8048   4
   1   0   2 1353.83 24.8115   2
   1   0   2 1357.86 24.0166   3
   1   0   2 1358.56 22.0532   5
  -2   0  -2 467.334 8.73504   4
  -2   0  -2 451.803 10.4567   6
   2   0   2 468.475 10.4302   3
   2   0   2 463.843 10.2600   5
   2   0   2 459.947 8.76069   7
   2   0   2 462.781 10.7751   2
  -3   0  -2 31.7253 3.14785  10
  -3   0  -2 23.1831 3.12594   6
   3   0   2 31.0193 3.26476   3
   3   0   2 28.2984 2.66622   7
   3   0   2 28.1305 3.33558   5
   3   0   2 29.5289 3.37848   2
  -4   0  -2 15.2060 2.52520  11
  -4   0  -2 13.7109 3.44520   6
  -4   0  -2 12.8187 2.70153  12
   4   0   2 14.3604 3.06112  10
   4   0   2 13.8915 3.12216   8
   4   0   2 14.1113 3.29959   5
   4   0   2 12.2347 2.84497   7
  -5   0  -2 33.1039 3.95671  12
  -5   0  -2 31.4780 3.64517  17
   5   0   2 28.3722 4.14292  10
   5   0   2 29.0929 4.51610   8
  -6   0  -2 73.7501 5.42417  12
  -6   0  -2 71.9744 4.99314  17
   6   0   2 83.6859 6.21413  10
   6   0   2 71.0315 6.26005   8
   6   0   2 72.9066 5.13380  15
  -7   0  -2 9.64667 2.30494  17
   7   0   2 10.7718 2.47520  15
   7  -1  -2 28.9189 2.56150  18
   7  -1  -2 32.0394 3.19067  15
   6  -1  -2 110.151 6.13263  15
   6  -1  -2 110.059 5.44527  18
  -6   1   2 108.517 4.23545  18
  -6   1   2 102.880 5.73661  12
   5  -1  -2 524.266 15.5240  10
   5  -1  -2 500.891 12.7183  18
   5  -1  -2 486.968 13.6670  15
  -5   1   2 511.657 13.1897  12
  -5   1   2 504.831 11.8206  18
   4  -1  -2 5.93029 2.77999  10
   4  -1  -2 2.25327 3.24081   5
   4  -1  -2 3.75660 2.78682   3
   4  -1  -2 0.57378 2.56748   2
   4  -1  -2 1.82245 2.42598   8
  -4   1   2 6.82885 3.87816   9
  -4   1   2 0.46479 2.19617  12
   3  -1  -2 200.144 7.65859   2
   3  -1  -2 193.646 7.34336   3
   3  -1  -2 184.575 6.86643  10
   3  -1  -2 187.069 6.51606   8
   3  -1  -2 188.635 7.22513   5
  -3   1   2 194.645 6.94234   4
  -3   1   2 198.927 8.43230   9
  -3   1   2 188.735 6.50409   8
  -3   1   2 188.526 6.20062   6
   2  -1  -2 108.778 4.44897   1
   2  -1  -2 118.301 5.05808   3
   2  -1  -2 114.552 3.86244   7
   2  -1  -2 119.654 5.16324   2
   2  -1  -2 120.617 4.90425   5
  -2   1   2 108.470 5.33513   9
  -2   1   2 108.605 3.80973   6
  -2   1   2 114.286 4.24929   7
  -2   1   2 116.481 4.53774   4
   1  -1  -2 1711.66 29.3082   3
   1  -1  -2 1702.41 27.7559   5
   1  -1  -2 1716.64 30.3064   1
   1  -1  -2 1733.46 30.3788   2
  -1   1   2 1738.93 29.6091   4
  -1   1   2 1688.45 27.4797   7
  -1   1   2 1695.40 26.9498   6
   0  -1  -2 445.779 7.67227   6
   0  -1  -2 451.814 8.44005   3
   0  -1  -2 446.820 8.72952   2
   0  -1  -2 440.595 8.87143   4
   0  -1  -2 443.880 8.38666   5
  -1  -1  -2 230.618 5.78780   6
  -1  -1  -2 228.626 5.60999   5
   1   1   2 231.199 5.43936   2
   1   1   2 235.750 5.28811   3
  -2  -1  -2 525.371 10.8468   4
  -2  -1  -2 470.202 11.1288   6
  -2  -1  -2 475.190 12.6548   9
   2   1   2 506.053 9.49838   7
   2   1   2 512.048 9.97671   3
   2   1   2 494.305 10.8068   5
   2   1   2 499.274 10.2493   2
  -3  -1  -2 562.361 15.7829   9
  -3  -1  -2 590.712 14.1982   6
  -3  -1  -2 561.786 13.6626  10
   3   1   2 585.485 12.1034   7
   3   1   2 583.449 13.5685   5
  -4  -1  -2 209.723 10.4541   9
  -4  -1  -2 194.837 7.24752  12
  -4  -1  -2 193.672 8.65273   6
  -4  -1  -2 204.140 6.41908  11
   4   1   2 198.902 7.73243  10
   4   1   2 206.999 8.57766   5
   4   1   2 202.787 7.20077   7
   4   1   2 206.951 8.28543   8
  -5  -1  -2 309.773 9.82382  12
  -5  -1  -2 309.723 9.29224  17
  -5  -1  -2 304.125 10.3828  15
   5   1   2 295.998 10.7296  10
   5   1   2 310.615 11.1816   8
  -6  -1  -2 140.474 6.43094  17
  -6  -1  -2 147.858 6.89467  12
   6   1   2 140.999 7.08122  15
   6   1   2 139.227 7.70384   8
  -7  -1  -2 91.6578 4.46797  17
   7   1   2 89.2114 4.96838  15
   7  -2  -2 101.634 3.94172  18
   6  -2  -2 315.131 9.21921  18
   6  -2  -2 325.649 10.1039  15
  -6   2   2 319.296 7.23167  18
  -6   2   2 311.027 9.53147  12
   5  -2  -2 468.707 13.2011  15
   5  -2  -2 488.264 15.0741  10
   5  -2  -2 478.689 12.3261  18
  -5   2   2 476.036 12.4973  12
  -5   2   2 474.145 11.5126  18
   4  -2  -2 570.482 14.1796   8
   4  -2  -2 526.004 15.6991   3
   4  -2  -2 499.685 15.1298   5
   4  -2  -2 533.737 14.8166  10
   4  -2  -2 513.303 16.0294   2
  -4   2   2 523.772 17.0256   9
  -4   2   2 545.427 12.8088  12
   3  -2  -2 914.024 20.4087  10
   3  -2  -2 892.756 20.9955   2
   3  -2  -2 926.387 19.4021   8
   3  -2  -2 922.704 19.4492   5
   3  -2  -2 896.458 20.2653   3
  -3   2   2 915.132 21.4302   9
   2  -2  -2 735.188 16.3682   2
   2  -2  -2 721.933 14.9619   5
   2  -2  -2 726.639 13.7341   7
   2  -2  -2 740.355 15.1935   1
   2  -2  -2 700.963 15.0351   8
   2  -2  -2 726.958 15.7055   3
  -2   2   2 717.260 15.4475   8
  -2   2   2 717.193 13.8880   7
  -2   2   2 712.630 13.0399   6
  -2   2   2 722.738 16.3513   9
  -2   2   2 750.185 14.7726   4
   1  -2  -2 1576.59 27.6643   3
   1  -2  -2 1584.45 28.6073   1
   1  -2  -2 1558.38 26.7896   5
   1  -2  -2 1606.18 27.6746   4
   1  -2  -2 1576.05 25.0605   6
   1  -2  -2 1565.58 25.5118   7
   1  -2  -2 1593.84 28.5917   2
  -1   2   2 1545.40 25.8985   7
   0  -2  -2 354.800 8.01040   4
   0  -2  -2 355.239 7.17584   3
   0  -2  -2 343.050 8.18357   5
   0  -2  -2 349.831 6.45037   6
   0  -2  -2 359.656 7.46692   2
   0  -2  -2 340.861 8.20944   1
   0   2   2 341.046 6.27233   7
  -1  -2  -2 69.0411 3.67718   4
  -1  -2  -2 69.9478 3.60192   5
  -1  -2  -2 70.3037 3.51147   6
   1   2   2 69.8105 2.41194   7
  -2  -2  -2 316.606 8.78365   4
  -2  -2  -2 319.551 8.58573   6
  -2  -2  -2 311.151 10.0364   9
   2   2   2 304.259 7.22969   7
   2   2   2 313.294 8.04204   5
  -3  -2  -2 97.8024 5.21454   4
  -3  -2  -2 92.0612 4.91016  10
  -3  -2  -2 90.1351 6.33827   9
  -3  -2  -2 89.9189 5.37082   6
  -3  -2  -2 89.3889 4.09985  11
   3   2   2 95.1319 5.77692   8
   3   2   2 93.7056 4.35362   7
   3   2   2 108.040 5.47203   5
  -4  -2  -2 1322.84 28.4047  10
  -4  -2  -2 1313.74 31.5844   9
  -4  -2  -2 1289.17 25.7306  12
  -4  -2  -2 1309.97 28.0998   6
  -4  -2  -2 1291.84 23.8673  11
   4   2   2 1299.13 25.4797   7
   4   2   2 1286.68 28.4028   8
   4   2   2 1293.56 27.1237   5
  -5  -2  -2 124.215 6.87833  15
  -5  -2  -2 113.682 5.50670  11
  -5  -2  -2 111.256 5.81931  17
  -5  -2  -2 115.873 10.4187   9
  -5  -2  -2 133.149 6.57791  12
   5   2   2 120.209 7.43171   8
   5   2   2 132.681 7.28478  10
  -6  -2  -2 154.789 6.55622  17
  -6  -2  -2 142.485 6.96017  12
   6   2   2 159.270 7.56916  15
   6   2   2 138.140 7.87818   8
   6   2   2 133.256 8.06419  10
  -7  -2  -2 249.650 7.04305  17
   7   2   2 234.888 7.84624  15
   7  -3  -2 80.9589 3.08885  18
   6  -3  -2 56.7065 4.41310  18
   6  -3  -2 64.5301 4.81444  15
   5  -3  -2 24.4180 4.46284  10
   5  -3  -2 22.0839 3.54654  18
   5  -3  -2 21.7236 3.52404  15
  -5   3   2 22.4501 3.19246  18
  -5   3   2 20.2202 4.22031  13
   4  -3  -2 18.4595 3.72998   8
   4  -3  -2 31.3342 5.06677   2
   4  -3  -2 17.3164 3.77924  10
   3  -3  -2 2.28682 2.43053  10
   3  -3  -2 -2.3256 2.18423   2
   3  -3  -2 2.13426 2.45597   3
   3  -3  -2 3.42260 2.35566   8
   3  -3  -2 -2.8600 2.23001   5
  -3   3   2 2.63444 2.37557   8
   2  -3  -2 328.102 9.99885   3
   2  -3  -2 317.089 9.39134  10
   2  -3  -2 345.920 9.21264   1
   2  -3  -2 337.068 9.06369   8
   2  -3  -2 337.945 10.3715   2
   2  -3  -2 351.207 9.90321   5
  -2   3   2 355.965 8.73221   4
  -2   3   2 353.551 10.0646   9
  -2   3   2 355.692 8.51501   7
   1  -3  -2 39.6777 3.35592   1
   1  -3  -2 36.5711 2.39345   6
   1  -3  -2 41.9941 3.06089   4
   1  -3  -2 40.5376 3.54745   2
   1  -3  -2 38.2964 2.71236   7
   1  -3  -2 37.1960 3.22676   3
   1  -3  -2 41.4652 3.95350   5
  -1   3   2 38.5650 2.63339   7
   0  -3  -2 175.696 6.05984   5
   0  -3  -2 179.000 6.07379   1
   0  -3  -2 178.099 5.13653   2
   0  -3  -2 178.576 4.90181   3
   0  -3  -2 167.580 4.53580   6
   0  -3  -2 179.863 5.94162   4
   0   3   2 177.607 4.60853   7
  -1  -3  -2 233.320 6.83046   5
  -1  -3  -2 221.953 7.29779   4
  -1  -3  -2 214.506 7.65861   9
  -1  -3  -2 216.112 6.93595   1
  -1  -3  -2 217.851 6.26533   6
   1   3   2 220.882 5.61325   7
  -2  -3  -2 21.9697 2.97089   5
  -2  -3  -2 20.7074 3.04440   6
  -2  -3  -2 25.6388 3.89945   9
  -2  -3  -2 22.5582 2.65644  10
  -2  -3  -2 25.9915 2.72989   1
  -2  -3  -2 19.9392 3.14630   4
   2   3   2 22.8627 2.65421   7
  -3  -3  -2 711.413 16.7190  10
  -3  -3  -2 702.198 19.3752   9
  -3  -3  -2 720.979 16.9843   6
  -3  -3  -2 699.471 14.2074  11
  -3  -3  -2 703.167 17.6696   4
   3   3   2 726.194 17.6147   8
   3   3   2 712.660 15.4449   7
   3   3   2 740.720 16.4603   5
  -4  -3  -2 83.3630 5.20936  12
  -4  -3  -2 74.6812 7.78383   9
  -4  -3  -2 80.8734 5.60902  10
  -4  -3  -2 88.8702 4.54517  11
  -4  -3  -2 91.5607 7.19337   6
   4   3   2 87.8896 6.29295   8
   4   3   2 87.8255 7.10942   5
   4   3   2 85.1484 5.41079   7
  -5  -3  -2 48.1500 4.02540  11
  -5  -3  -2 44.3284 4.63864  12
  -5  -3  -2 41.1117 7.02962   9
  -5  -3  -2 37.0225 4.65072  15
  -5  -3  -2 36.3854 4.19100  17
   5   3   2 43.5035 5.21925  10
   5   3   2 46.8715 5.75263   8
  -6  -3  -2 68.2326 5.35072  12
  -6  -3  -2 79.8302 5.14449  17
   6   3   2 63.0058 5.55985  15
  -7  -3  -2 135.754 5.16344  17
   7   3   2 137.265 5.94534  15
   7   3   2 144.360 5.43693  18
   6  -4  -2 245.273 8.17477  18
   6  -4  -2 259.515 8.73448  15
  -6   4   2 279.345 8.69977  13
   5  -4  -2 52.4225 4.66402  18
   5  -4  -2 49.6535 5.82141  10
   5  -4  -2 56.2347 4.93493  15
  -5   4   2 58.6152 4.05823  18
  -5   4   2 55.4238 5.23286  13
   4  -4  -2 466.754 16.6766   2
   4  -4  -2 462.932 14.3891  10
   3  -4  -2 1261.06 28.6493   3
   3  -4  -2 1332.69 28.7289  10
   3  -4  -2 1301.18 27.1812   8
   3  -4  -2 1320.34 27.6533   5
   3  -4  -2 1318.18 29.7444   2
  -3   4   2 1296.39 26.3368   8
   2  -4  -2 461.368 12.0374   8
   2  -4  -2 496.318 13.3121   5
   2  -4  -2 488.487 13.4491   3
   2  -4  -2 470.395 12.5271   1
   2  -4  -2 476.037 12.6537  10
   2  -4  -2 498.025 13.9070   2
  -2   4   2 457.047 12.1896   8
  -2   4   2 503.994 11.3010   7
   1  -4  -2 753.842 16.3678   3
   1  -4  -2 765.464 16.5941   5
   1  -4  -2 719.778 16.8792  10
   1  -4  -2 752.770 13.9361   6
   1  -4  -2 774.249 16.1954   4
   1  -4  -2 751.016 17.0712   1
   1  -4  -2 751.595 17.5315   9
   1  -4  -2 746.367 16.8522   2
  -1   4   2 747.558 14.6635   7
  -1   4   2 720.079 16.3822   8
   0  -4  -2 105.526 5.03881   5
   0  -4  -2 104.026 4.51375   2
   0  -4  -2 98.9763 5.06043   4
   0  -4  -2 106.949 5.88733   9
   0  -4  -2 109.901 5.62897   1
   0  -4  -2 95.9977 4.09459   6
   0  -4  -2 105.452 4.28040   3
   0   4   2 103.929 4.23419   7
  -1  -4  -2 150.512 6.60319   1
  -1  -4  -2 155.725 5.77191   6
  -1  -4  -2 153.855 7.07163   9
  -1  -4  -2 151.420 6.46039   5
  -1  -4  -2 159.288 6.71315   4
   1   4   2 159.417 5.27827   7
  -2  -4  -2 856.462 19.1215   1
  -2  -4  -2 867.792 18.5391   6
  -2  -4  -2 862.959 20.0610   4
  -2  -4  -2 851.616 20.9366   9
  -2  -4  -2 877.674 18.2686   5
  -2  -4  -2 866.502 18.9961  10
   2   4   2 874.822 17.0547   7
   2   4   2 821.979 19.2727   8
  -3  -4  -2 5.72901 2.98065   4
  -3  -4  -2 11.4723 3.34619   6
  -3  -4  -2 4.25618 2.39931  10
  -3  -4  -2 5.67445 2.04281  11
  -3  -4  -2 7.26566 3.75343   9
   3   4   2 17.3042 3.61192   5
   3   4   2 5.93954 3.00309   8
   3   4   2 8.70275 2.52502   7
  -4  -4  -2 70.3541 7.63672   9
  -4  -4  -2 69.6579 4.40826  11
  -4  -4  -2 67.2161 5.51532  10
  -4  -4  -2 61.0010 4.65491  12
   4   4   2 70.4316 6.53741   8
   4   4   2 60.4259 5.65118   7
  -5  -4  -2 5.44355 2.92636  17
  -5  -4  -2 1.01822 3.07957  12
  -5  -4  -2 8.13796 2.72152  11
  -5  -4  -2 -0.4275 4.16959   9
  -5  -4  -2 -0.2830 3.03460  15
   5   4   2 2.31187 3.27939   8
  -6  -4  -2 35.5803 4.22755  12
  -6  -4  -2 31.0570 3.80951  17
   6   4   2 32.0236 4.47645  15
  -7  -4  -2 22.7014 2.43321  17
   7   4   2 29.0518 2.96600  15
   6  -5  -2 35.9991 3.72708  18
  -6   5   2 41.2173 3.67674  13
   5  -5  -2 5.94431 3.17612  18
   5  -5  -2 -0.3629 3.38701  10
  -5   5   2 0.12717 3.01448  13
  -5   5   2 4.67045 2.47383  18
   4  -5  -2 144.633 6.76208  18
   4  -5  -2 137.890 8.21132  10
  -4   5   2 136.523 6.02308  18
  -4   5   2 130.070 7.24602  13
   3  -5  -2 123.592 8.09768   5
   3  -5  -2 126.172 6.50263   8
   3  -5  -2 130.400 8.37409   2
   3  -5  -2 137.763 7.22745  10
   3  -5  -2 120.631 8.07584   3
   2  -5  -2 154.529 7.73607   5
   2  -5  -2 164.181 7.38606  10
   2  -5  -2 150.471 7.61005   3
   2  -5  -2 165.531 6.41096   8
   2  -5  -2 147.796 7.35869   1
   2  -5  -2 148.972 7.86242   2
  -2   5   2 149.452 6.51809   8
   1  -5  -2 13.8665 3.26113   1
   1  -5  -2 16.8393 2.39407   8
   1  -5  -2 15.8182 2.84559  10
   1  -5  -2 19.3039 3.21007   3
   1  -5  -2 13.8569 3.11626   2
   1  -5  -2 13.8939 3.04870   4
   1  -5  -2 17.4778 3.38622   5
  -1   5   2 17.8877 2.95260   8
  -1   5   2 17.3008 2.87411   7
   0  -5  -2 25.5676 3.54283   4
   0  -5  -2 23.1515 2.84008   3
   0  -5  -2 29.2347 3.45494   5
   0  -5  -2 31.9224 4.10581   9
   0  -5  -2 26.9612 2.99887   2
   0  -5  -2 21.0262 3.46793   1
   0  -5  -2 22.8887 2.88074   6
   0  -5  -2 29.8992 3.09482  10
   0   5   2 27.7834 3.06219   7
   0   5   2 25.4167 3.38714   8
  -1  -5  -2 1265.81 24.4986   5
  -1  -5  -2 1210.71 23.8935   6
  -1  -5  -2 1255.36 26.7724   9
  -1  -5  -2 1245.54 26.1952   4
  -1  -5  -2 1266.67 26.6996   1
  -1  -5  -2 1186.40 25.9248  10
   1   5   2 1208.50 25.3078   8
   1   5   2 1231.05 22.7177   7
  -2  -5  -2 1062.32 24.5267   9
  -2  -5  -2 960.326 22.2345  10
  -2  -5  -2 1043.55 23.2883   1
  -2  -5  -2 989.353 23.4943   4
  -2  -5  -2 974.665 21.3886   5
  -2  -5  -2 1051.68 22.1140   6
  -2  -5  -2 1007.56 19.3715  11
   2   5   2 1016.68 22.4322   8
   2   5   2 1024.03 20.0039   7
  -3  -5  -2 472.211 11.2937  11
  -3  -5  -2 468.865 14.4417   6
  -3  -5  -2 468.807 13.3106  10
  -3  -5  -2 441.734 14.9581   4
  -3  -5  -2 468.970 15.9095   9
   3   5   2 469.870 13.9854   8
   3   5   2 473.738 12.5624   7
  -4  -5  -2 590.261 15.4546  15
  -4  -5  -2 556.260 14.1131  17
  -4  -5  -2 584.267 14.5225  12
  -4  -5  -2 605.037 19.7375   9
  -4  -5  -2 588.363 13.7515  11
   4   5   2 573.901 16.9269   8
  -5  -5  -2 109.411 6.82030  15
  -5  -5  -2 82.9252 8.70159   9
  -5  -5  -2 113.633 6.41489  12
  -5  -5  -2 100.432 6.21353  17
  -5  -5  -2 107.275 5.86800  11
   5   5   2 104.155 6.93350   8
  -6  -5  -2 274.681 8.77755  12
  -6  -5  -2 266.489 8.42051  17
   6   5   2 263.033 8.90290  15
   6  -6  -2 59.6018 3.38446  18
  -6   6   2 61.8031 3.96215  13
   5  -6  -2 249.605 8.92333  18
   5  -6  -2 243.553 10.4794  10
  -5   6   2 278.618 9.40168  13
   4  -6  -2 14.8282 3.71834  18
   4  -6  -2 21.7534 4.43315  10
  -4   6   2 15.9028 3.23810  18
  -4   6   2 18.6987 3.79873  13
   3  -6  -2 274.220 12.4609   2
   3  -6  -2 292.625 10.9587  10
   2  -6  -2 86.6087 5.96462  10
   2  -6  -2 70.3677 6.44329   3
   2  -6  -2 59.0484 6.05294   5
   2  -6  -2 78.3878 6.78307   1
   2  -6  -2 66.2412 6.24046   2
  -2   6   2 74.1455 5.02547   8
   1  -6  -2 3.22744 2.63564   2
   1  -6  -2 -0.0470 2.05752  11
   1  -6  -2 4.58916 2.88772   4
   1  -6  -2 2.80978 2.32260  10
   1  -6  -2 0.78710 2.46788   5
   1  -6  -2 0.17836 2.59955   1
   1  -6  -2 0.47496 2.32145   3
  -1   6   2 1.62483 2.43763   8
   0  -6  -2 328.727 8.46895  11
   0  -6  -2 340.905 11.2018   4
   0  -6  -2 341.222 11.8267   1
   0  -6  -2 329.255 9.95050   5
   0  -6  -2 358.344 11.1503   9
   0  -6  -2 310.966 9.43293  10
   0   6   2 342.051 9.25115   7
   0   6   2 334.321 10.2067   8
  -1  -6  -2 16.9152 3.46079   4
  -1  -6  -2 25.8454 3.58781   6
  -1  -6  -2 27.4685 4.19248   9
  -1  -6  -2 18.6673 2.99329  10
  -1  -6  -2 22.3999 3.66595   5
  -1  -6  -2 23.3629 3.84455   1
  -1  -6  -2 20.8930 2.92007  11
   1   6   2 21.0381 3.45606   8
   1   6   2 21.7838 3.02122   7
  -2  -6  -2 1328.24 25.0887  11
  -2  -6  -2 1362.41 30.9300   9
  -2  -6  -2 1271.64 27.9103   6
  -2  -6  -2 1354.83 29.8593   1
   2   6   2 1340.06 25.7133   7
   2   6   2 1334.33 28.5261   8
  -3  -6  -2 102.364 5.58311  11
  -3  -6  -2 106.888 8.22062   9
   3   6   2 110.439 6.31947   7
   3   6   2 113.670 6.97334   8
  -4  -6  -2 -2.6703 2.40878  15
  -4  -6  -2 6.06853 2.85887  11
  -4  -6  -2 0.76330 3.95768   9
  -4  -6  -2 0.34659 2.66196  17
   4   6   2 2.30003 3.01196   8
  -5  -6  -2 99.9456 6.19493  15
  -5  -6  -2 94.6554 5.82767  17
  -5  -6  -2 107.526 6.33656  11
   5   6   2 102.032 6.22907   8
  -6  -6  -2 3.57062 2.13587  17
   6   6   2 0.40266 2.32093  15
  -6   7   2 170.068 5.15039  13
   5  -7  -2 40.4917 3.74550  18
  -5   7   2 35.8005 3.86399  13
   4  -7  -2 56.2662 4.96353  16
   4  -7  -2 55.9657 5.83794  10
   4  -7  -2 59.6130 4.96133  18
  -4   7   2 54.6716 5.00447  13
   3  -7  -2 53.7009 5.52940  10
   3  -7  -2 59.1683 5.15532  16
   3  -7  -2 56.0746 4.98009  18
  -3   7   2 60.3476 4.66901  18
  -3   7   2 53.9284 4.87953  13
   2  -7  -2 5.08024 3.59009   2
   2  -7  -2 3.37338 3.50810   1
   2  -7  -2 1.92898 2.82118  10
   1  -7  -2 26.1933 4.32170   5
   1  -7  -2 29.3228 3.69909  10
   1  -7  -2 28.9801 3.25485  11
   1  -7  -2 23.0921 4.57324   1
  -1   7   2 25.2018 3.79513   8
   0  -7  -2 19.6642 3.88900   4
   0  -7  -2 22.5593 4.07436   1
   0  -7  -2 22.0849 3.04239  11
   0  -7  -2 23.1131 3.71169   5
   0  -7  -2 21.5612 3.03261  10
   0   7   2 20.3700 3.50838   8
  -1  -7  -2 223.230 9.82850   9
  -1  -7  -2 193.592 9.35755   4
  -1  -7  -2 221.900 7.46565  11
  -1  -7  -2 202.588 9.69339   1
   1   7   2 222.798 8.50059   8
  -2  -7  -2 461.209 14.6719   6
  -2  -7  -2 445.244 15.0590   1
  -2  -7  -2 463.909 15.8479   9
  -2  -7  -2 458.964 11.7914  11
   2   7   2 453.715 13.3274   8
  -3  -7  -2 267.779 6.70254  18
  -3  -7  -2 268.663 9.05385  11
  -3  -7  -2 235.539 11.9773   9
   3   7   2 252.707 9.87721   8
   3   7   2 240.248 8.81872  14
  -4  -7  -2 43.6127 4.63402  11
  -4  -7  -2 44.3188 6.54128   9
  -4  -7  -2 44.9843 4.38180  15
  -4  -7  -2 46.5895 4.43822  17
   4   7   2 42.2760 4.73112   8
  -5  -7  -2 4.12133 2.62819  15
  -5  -7  -2 3.23700 2.46196  17
  -6  -7  -2 1.87549 1.66417  17
   6   7   2 4.86244 2.17101  18
   5  -8  -2 222.050 5.82684  18
  -5   8   2 218.823 7.13206  13
   4  -8  -2 170.537 7.96110  10
   4  -8  -2 166.790 6.31817  18
   4  -8  -2 160.119 6.81611  16
  -4   8   2 165.335 7.24225  13
  -4   8   2 164.830 5.88046  18
   3  -8  -2 168.221 7.41138  16
   3  -8  -2 162.480 6.57926  18
   3  -8  -2 165.578 8.12235  10
  -3   8   2 156.845 7.25976  13
   2  -8  -2 403.887 12.5275  10
   2  -8  -2 386.948 10.4103  18
   2  -8  -2 384.412 11.2300  16
  -2   8   2 397.517 11.4390  13
   1  -8  -2 178.556 7.50133  10
   1  -8  -2 165.876 6.48706  11
   1  -8  -2 153.475 6.91037  16
   1  -8  -2 159.720 9.52069   1
  -1   8   2 167.365 6.96010   8
   0  -8  -2 712.066 15.5065  11
   0  -8  -2 704.781 20.7356   1
   0   8   2 707.620 17.1810   8
  -1  -8  -2 343.335 9.72999  11
  -1  -8  -2 305.924 12.9221   1
   1   8   2 362.253 11.1152   8
  -2  -8  -2 145.778 5.33671  18
  -2  -8  -2 157.963 7.22774  16
  -2  -8  -2 163.300 9.73808   9
  -2  -8  -2 150.042 9.28348   1
  -2  -8  -2 152.374 6.68564  11
   2   8   2 150.221 7.36749   8
   2   8   2 136.111 6.82033  14
  -3  -8  -2 1111.63 29.7787   9
  -3  -8  -2 1177.18 23.5874  11
  -3  -8  -2 1196.15 20.0755  18
   3   8   2 1148.24 25.4788   8
   3   8   2 1131.45 23.3283  14
  -4  -8  -2 80.1715 5.58754  11
   5   8   2 148.948 5.94148  18
  -5   9   2 10.0435 2.02943  13
   4  -9  -2 1.51344 2.27108  16
   4  -9  -2 5.46052 2.10104  18
  -4   9   2 3.57827 2.48843  13
   3  -9  -2 69.0581 4.40205  18
   3  -9  -2 75.7987 5.70847  10
   3  -9  -2 72.9839 5.15787  16
  -3   9   2 67.3325 4.88632  13
  -3   9   2 72.5598 4.52568  18
   2  -9  -2 26.6573 3.40121  18
   2  -9  -2 26.4450 3.84087  16
  -2   9   2 24.9944 3.83997  18
   1  -9  -2 15.2203 2.94459  18
   1  -9  -2 19.3769 3.14365  11
   1  -9  -2 14.4809 3.30432  16
   1  -9  -2 10.5547 4.59470   1
  -1   9   2 16.9117 3.81948  18
   0  -9  -2 53.7905 4.41394  11
   0  -9  -2 47.9138 3.77309  18
   0  -9  -2 50.0213 6.52383   1
   0  -9  -2 48.9823 4.41945  16
   0   9   2 51.8564 4.87974  14
  -1  -9  -2 3.78114 2.42686  11
  -1  -9  -2 0.97332 3.58295   1
  -1  -9  -2 2.64477 2.70292  16
  -1  -9  -2 2.29105 2.02729  18
   1   9   2 2.08430 3.29093  14
  -2  -9  -2 36.2588 2.76212  18
  -2  -9  -2 39.2302 4.22683  16
  -2  -9  -2 37.4720 4.01464  11
   2   9   2 39.2092 4.28406  14
  -3  -9  -2 30.8220 3.80856  11
   3   9   2 32.3059 3.83121  14
  -4  -9  -2 98.2906 5.21548  11
   4   9   2 98.8194 5.02834  18
   5   9   2 44.6717 2.93809  18
   4 -10  -2 78.9914 3.85463  16
  -4  10   2 78.8086 3.90372  13
   3 -10  -2 161.812 6.31820  16
   3 -10  -2 162.662 5.16084  18
  -3  10   2 164.094 6.29682  13
  -3  10   2 156.547 4.62466  18
   2 -10  -2 462.579 10.6800  18
   2 -10  -2 465.017 12.1785  16
  -2  10   2 453.384 10.9389  18
   1 -10  -2 85.1586 5.47469  16
   1 -10  -2 72.2880 4.75014  11
   1 -10  -2 79.9643 4.26841  18
  -1  10   2 76.0362 4.73516  18
   0 -10  -2 127.875 5.85799  11
   0 -10  -2 121.256 4.86450  18
   0 -10  -2 119.744 6.13556  16
   0  10   2 112.172 6.32276  14
   0  10   2 123.061 5.84448  18
  -1 -10  -2 297.557 9.02854  11
  -1 -10  -2 286.254 7.19619  18
  -1 -10  -2 297.748 9.31178  16
   1  10   2 287.548 9.02618  18
   1  10   2 296.655 9.37466  14
  -2 -10  -2 20.5484 3.32604  16
  -2 -10  -2 16.8308 3.10954  11
   2  10   2 19.5164 3.36778  18
   2  10   2 14.6647 3.21395  14
  -3 -10  -2 90.7569 4.91030  11
   3  10   2 96.1408 4.87944  18
   3  10   2 98.1986 5.38241  14
   4  10   2 10.6352 2.20995  18
   3 -11  -2 136.208 4.83003  16
   2 -11  -2 105.636 4.97252  16
   2 -11  -2 104.445 3.40639  18
  -2  11   2 105.671 3.57901  18
   1 -11  -2 56.1365 4.16070  16
   1 -11  -2 54.5626 2.96377  18
   1 -11  -2 64.1083 4.34032  11
  -1  11   2 55.0613 3.56502  18
   0 -11  -2 142.761 5.79979  11
   0 -11  -2 134.627 3.97255  18
   0 -11  -2 127.747 5.95211  16
   0  11   2 136.633 6.05559  14
   0  11   2 125.516 5.19144  18
  -1 -11  -2 49.8686 3.95927  16
  -1 -11  -2 41.6558 3.67311  11
   1  11   2 37.8435 3.70610  14
   1  11   2 45.0577 3.54359  18
  -2 -11  -2 138.787 5.45116  16
   2  11   2 136.377 5.69296  14
   2  11   2 131.459 5.03478  18
   3  11   2 98.8002 3.89580  18
   3  11   2 102.623 4.46355  14
   1 -12  -2 145.514 5.12866  16
   0 -12  -2 8.45123 2.17946  16
   0  12   2 10.7060 2.28510  14
   0  12   2 5.32479 1.46148  18
  -1 -12  -2 217.417 6.23966  16
   1  12   2 213.438 5.30442  18
   1  12   2 219.850 6.33408  14
   2  12   2 21.9700 2.37910  14
   2  12   2 25.0185 1.69865  18
   1  11  -3 119.533 4.12622  14
  -1 -11   3 126.379 3.58818  18
   0 -11   3 62.1247 2.93831  18
   1 -11   3 217.498 5.45268  18
   3  10  -3 4.98980 1.88678  14
   2  10  -3 113.952 4.90876  14
  -2 -10   3 115.238 4.18616  18
   1  10  -3 22.6963 3.01154  14
  -1 -10   3 23.7816 2.83453  18
   0 -10   3 88.1590 4.59482  11
   0 -10   3 85.8646 4.42244  18
   1 -10   3 77.5896 4.34398  18
   2 -10   3 4.45957 2.20012  16
   2 -10   3 5.19318 2.22958  18
  -3  10  -3 49.1905 2.90732  13
   3 -10   3 53.1021 3.21965  16
   3 -10   3 47.2495 2.81658  18
  -4  -9   3 43.5713 2.84992  17
   3   9  -3 72.9761 4.50116  14
  -3  -9   3 73.9912 3.63970  18
  -3  -9   3 70.3636 3.97226  17
   2   9  -3 6.00910 2.77922  14
  -2  -9   3 8.37471 2.51430  18
  -2  -9   3 11.4633 2.68009  17
  -2  -9   3 8.93324 2.62829  11
   1   9  -3 93.9358 5.71226  14
  -1  -9   3 101.199 5.30342  18
  -1  -9   3 94.0700 5.10604  11
   0   9  -3 48.9096 4.29620  14
   0  -9   3 39.8897 3.93285  11
   1  -9   3 133.777 6.13520  16
   1  -9   3 149.769 6.21798  11
  -2   9  -3 274.728 8.31030  13
   2  -9   3 268.039 8.17194  11
   2  -9   3 259.485 8.41104  16
  -3   9  -3 92.3688 4.76992  13
   3  -9   3 98.4662 4.99826  16
  -4   9  -3 33.7206 2.56595  13
   4  -9   3 34.6090 2.76457  16
   4  -9   3 27.2878 2.44384  18
   4   8  -3 337.928 8.77657  14
  -4  -8   3 313.982 7.68178  18
  -4  -8   3 324.656 8.37909  17
   3   8  -3 106.665 5.82551  14
   3   8  -3 106.886 3.85522  18
  -3  -8   3 108.348 5.15553  18
  -3  -8   3 110.486 5.31121  17
   2   8  -3 68.8028 5.01311  14
   2   8  -3 75.1015 3.72049  18
  -2  -8   3 75.7189 4.96676  18
  -2  -8   3 74.0301 4.78078  11
  -2  -8   3 72.2957 4.76360  17
   1   8  -3 174.476 7.38908  14
   1   8  -3 168.295 5.06542  18
   1   8  -3 171.991 6.98777  17
  -1  -8   3 173.466 6.78115  11
   0   8  -3 83.0589 5.61977  14
   0  -8   3 79.8434 5.75096   8
   0  -8   3 86.8078 5.13091  11
  -1   8  -3 750.220 17.0515  13
   1  -8   3 747.850 16.5778  11
   1  -8   3 758.714 17.0378  16
   1  -8   3 750.367 18.8128   8
  -2   8  -3 128.794 6.32572  13
   2  -8   3 134.743 6.25074  11
   2  -8   3 136.193 6.62845  16
   2  -8   3 137.028 7.26233   8
  -3   8  -3 151.663 6.56493  13
   3  -8   3 146.877 6.24692  11
   3  -8   3 150.884 6.74112  16
  -4   8  -3 175.647 6.42807  13
   4  -8   3 182.526 6.57730  16
   5  -8   3 9.38570 1.82225  16
  -5  -7   3 17.3209 2.44374  17
   4   7  -3 13.1305 2.22085  18
   4   7  -3 15.2591 3.32838  14
  -4  -7   3 9.65983 2.65762  17
  -4  -7   3 8.41486 2.52994  18
  -4  -7   3 11.7974 2.77903  12
   3   7  -3 54.7056 4.64054  14
   3   7  -3 54.1241 3.79506  18
  -3  -7   3 55.3478 4.76635  12
  -3  -7   3 64.1133 5.03585  18
  -3  -7   3 58.3419 4.56902  17
   2   7  -3 43.5890 4.36978  14
   2   7  -3 45.0315 4.00965  17
   2   7  -3 41.5373 3.42173  18
  -2  -7   3 40.9828 5.86798   1
  -2  -7   3 46.4649 4.25264  11
  -2  -7   3 47.5576 4.57015  12
   1   7  -3 9.83354 2.32967  18
   1   7  -3 8.76694 3.27704  14
   1   7  -3 5.51064 2.72084  17
   1   7  -3 4.82888 2.80994  12
  -1  -7   3 10.4288 2.73079  11
  -1  -7   3 4.92283 3.75208   1
  -1  -7   3 8.29582 3.08065   8
   0   7  -3 109.906 4.29648  18
   0   7  -3 100.661 6.21772  14
   0  -7   3 112.426 5.54682  11
   0  -7   3 103.035 7.81490   1
   0  -7   3 111.084 6.72480   8
  -1   7  -3 15.2587 3.20393  13
   1  -7   3 8.68436 3.34672  16
   1  -7   3 12.8928 3.57875   8
   1  -7   3 8.33408 4.09926   1
   1  -7   3 13.0766 3.17790  11
  -2   7  -3 67.6263 5.02820  13
   2  -7   3 77.5915 5.27404  11
   2  -7   3 79.6778 5.49010  16
   2  -7   3 82.3071 6.55976   8
  -3   7  -3 1.81315 2.53654  13
   3  -7   3 1.28354 2.83165  11
   3  -7   3 3.65641 3.40738   8
  -4   7  -3 0.93280 2.56228  13
   4  -7   3 0.80630 2.52649  11
   4  -7   3 4.18160 2.95093  16
  -5   7  -3 61.6856 3.84041  19
  -5   7  -3 62.3173 3.90872  13
   5  -7   3 66.3587 4.26579  16
   5   6  -3 76.3681 3.38110  18
  -5  -6   3 82.7188 4.84814  12
  -5  -6   3 71.0981 3.91701  18
  -5  -6   3 81.8055 4.81857  17
   4   6  -3 407.015 10.1136  18
   4   6  -3 415.606 11.7539  14
  -4  -6   3 397.790 11.3341  18
  -4  -6   3 416.359 11.6371  12
  -4  -6   3 409.220 11.4550  17
   3   6  -3 352.796 10.7050  14
   3   6  -3 356.647 9.61648  18
  -3  -6   3 360.419 10.7696  12
  -3  -6   3 338.641 14.2437   1
  -3  -6   3 355.512 10.4394  17
  -2  -6   3 302.099 10.3563   8
  -2  -6   3 296.751 12.8818   1
  -2  -6   3 318.924 9.30612  11
  -2  -6   3 307.546 9.60139  12
   1   6  -3 721.607 16.0029  12
  -1  -6   3 708.699 20.6648   1
  -1  -6   3 706.889 19.9008   4
  -1  -6   3 701.768 17.7531   8
  -1  -6   3 732.704 15.4703  11
   0   6  -3 372.378 10.1844  12
   0  -6   3 387.313 12.9785   6
   0  -6   3 361.153 12.9199   2
   0  -6   3 369.021 9.88794  11
   0  -6   3 377.202 12.9403   3
   0  -6   3 383.741 11.8947   8
   0  -6   3 373.799 13.6096   1
   0  -6   3 354.899 10.6125   7
  -1   6  -3 619.577 14.7277  12
   1  -6   3 632.707 17.8838   6
   1  -6   3 608.537 18.3220   2
   1  -6   3 614.351 14.4411  11
   1  -6   3 626.759 18.1168   1
   1  -6   3 640.772 17.1738   8
   1  -6   3 626.935 15.4753   7
   1  -6   3 614.760 18.0481   3
   2  -6   3 256.306 9.91058   7
   2  -6   3 262.882 9.08672  11
   2  -6   3 266.986 11.0845   8
   2  -6   3 246.470 11.5458   2
  -3   6  -3 50.6404 4.59229  13
  -3   6  -3 44.8266 5.03808  16
   3  -6   3 55.4467 6.57556   8
   3  -6   3 55.5907 5.12712  11
  -4   6  -3 43.7840 5.10353  19
  -4   6  -3 53.9066 4.75304  13
  -4   6  -3 43.0376 4.97056  16
   4  -6   3 44.4983 5.61946   8
   4  -6   3 50.7242 4.91941  11
  -5   6  -3 6.81933 2.94999  19
  -5   6  -3 5.23207 2.46031  13
  -6  -5   3 18.3787 2.71609  17
   5   5  -3 136.878 5.38235  18
  -5  -5   3 126.519 6.65779  12
  -5  -5   3 136.310 6.60600  17
  -5  -5   3 132.864 6.20613  18
   4   5  -3 58.0037 4.34590  18
  -4  -5   3 69.6864 8.30607   9
  -4  -5   3 68.5595 5.56230  12
  -4  -5   3 61.3596 5.62483  18
  -4  -5   3 64.2878 5.49397  17
   3   5  -3 23.4595 3.90725  14
   3   5  -3 29.5201 3.59713  18
  -3  -5   3 17.5762 3.56428   8
  -3  -5   3 22.7228 3.78660  17
  -3  -5   3 25.4632 3.84599  12
  -3  -5   3 28.9097 5.58380   9
  -3  -5   3 24.5237 5.29064   1
  -2  -5   3 157.667 8.77622   1
  -2  -5   3 150.767 8.71859   4
  -2  -5   3 156.132 7.37315   8
  -2  -5   3 161.186 8.72337   6
  -2  -5   3 161.204 6.64110  12
  -2  -5   3 166.286 8.57430   9
  -2  -5   3 157.045 6.57334  11
   1   5  -3 13.4476 2.77417  12
  -1  -5   3 7.63956 2.96209   6
  -1  -5   3 9.46787 3.30699   4
  -1  -5   3 10.9074 2.45877  11
  -1  -5   3 10.3585 3.12057   8
  -1  -5   3 10.7265 2.63003   7
  -1  -5   3 18.3028 4.09147   1
  -1  -5   3 11.5076 3.24334   2
   0  -5   3 379.171 12.2097   6
   0  -5   3 390.671 12.5981   2
   0  -5   3 386.060 13.1855   1
   0  -5   3 383.488 10.3157   7
   0  -5   3 388.207 11.5339   8
   0  -5   3 398.251 12.3764   3
   0  -5   3 396.061 11.9170   4
   0  -5   3 381.567 9.74111  11
   1  -5   3 121.493 7.59243   6
   1  -5   3 121.869 7.07775   1
   1  -5   3 115.107 7.03925   2
   1  -5   3 121.958 5.89536  11
   1  -5   3 130.724 7.20915   3
   1  -5   3 120.788 6.05299   7
   1  -5   3 127.881 7.21951   8
  -2   5  -3 146.904 7.54358  12
  -2   5  -3 162.340 6.63442  11
   2  -5   3 168.199 7.34861   7
   2  -5   3 156.839 8.47958   3
   2  -5   3 170.819 8.32717   8
   2  -5   3 170.790 9.02548   2
   2  -5   3 164.688 9.00891   6
  -3   5  -3 391.838 12.1797  16
  -3   5  -3 411.769 11.3286  11
  -3   5  -3 397.907 11.6623  13
  -3   5  -3 419.185 12.4430  12
   3  -5   3 415.691 13.8061   8
   3  -5   3 388.122 12.3470   7
   3  -5   3 394.613 15.3308   2
  -4   5  -3 104.284 6.32710  11
  -4   5  -3 108.662 7.12534  16
  -4   5  -3 109.755 6.79991  19
  -4   5  -3 128.902 7.54901  12
  -4   5  -3 118.546 6.67711  13
   4  -5   3 108.723 6.99963  10
   4  -5   3 108.553 7.69621   8
  -5   5  -3 266.867 9.52972  16
  -5   5  -3 265.348 8.92561  13
  -5   5  -3 244.465 9.66565  19
  -6   5  -3 265.998 7.93254  19
   6   4  -3 125.804 3.97602  18
  -6  -4   3 130.442 6.31526  17
   5   4  -3 132.091 5.92705  18
  -5  -4   3 133.936 6.80783  18
  -5  -4   3 136.651 7.05177  17
  -5  -4   3 129.511 7.21038  12
   4   4  -3 102.178 5.39081  18
  -4  -4   3 96.9788 6.58352  12
  -4  -4   3 104.378 9.58765   9
  -4  -4   3 105.893 6.12048  18
  -4  -4   3 104.133 6.41224  17
  -3  -4   3 186.402 9.84395   1
  -3  -4   3 168.389 9.45645   6
  -3  -4   3 187.507 7.61843  12
  -3  -4   3 176.181 7.96925   8
  -3  -4   3 184.566 9.75124   9
   2   4  -3 14.5152 2.92510  12
  -2  -4   3 14.7506 3.60843   1
  -2  -4   3 22.8844 3.89506   8
  -2  -4   3 9.46915 3.58076   6
  -2  -4   3 14.0572 3.63143   9
  -2  -4   3 12.6549 3.34453   4
  -2  -4   3 20.2858 3.33366   7
  -1  -4   3 805.964 18.4249   8
  -1  -4   3 798.599 18.6408   6
  -1  -4   3 795.655 19.8859   1
  -1  -4   3 784.739 18.9148   4
  -1  -4   3 758.854 17.9499   3
   0  -4   3 327.503 10.7044   6
   0  -4   3 314.438 10.6101   2
   0  -4   3 305.800 8.72955   7
   0  -4   3 317.136 10.3636   3
   0  -4   3 305.091 10.0339   8
   0  -4   3 321.875 11.0343   1
   0  -4   3 329.534 9.88344   4
  -1   4  -3 4.87221 2.38942  11
   1  -4   3 4.02365 2.58877   2
   1  -4   3 2.69161 2.63240   8
   1  -4   3 2.98616 2.66939   1
   1  -4   3 5.10176 2.37517   7
   1  -4   3 2.54283 2.69808   6
   1  -4   3 5.87447 2.51479   3
  -2   4  -3 418.865 10.3340  11
   2  -4   3 392.053 12.4454   6
   2  -4   3 398.964 13.1471   3
   2  -4   3 414.242 12.0549   8
   2  -4   3 425.127 10.6491   7
   2  -4   3 411.341 13.7684   2
  -3   4  -3 17.8180 3.46941  12
  -3   4  -3 20.2850 3.19865  11
   3  -4   3 18.9699 4.25765   5
   3  -4   3 18.4277 4.58118   2
   3  -4   3 20.6187 4.45186   3
   3  -4   3 20.7522 3.35494   7
   3  -4   3 20.5018 3.78993   8
   3  -4   3 17.2690 4.07514   6
   3  -4   3 17.2696 3.22836  10
  -4   4  -3 60.5901 4.85082  11
  -4   4  -3 73.3722 5.48102  19
  -4   4  -3 62.6954 5.37465  12
  -4   4  -3 70.3507 5.25371  13
  -4   4  -3 62.6168 5.31501  16
  -4   4  -3 56.6090 4.80546  17
   4  -4   3 59.6724 6.01964   8
   4  -4   3 56.9395 5.34523  10
  -5   4  -3 32.8506 4.20488  13
  -5   4  -3 34.4157 4.47549  19
  -5   4  -3 32.6505 4.20021  11
  -5   4  -3 32.5396 4.04109  17
  -5   4  -3 35.1510 4.64654  16
  -5   4  -3 34.3055 4.65676  12
   5  -4   3 34.8314 4.98005  10
   5  -4   3 28.9142 4.98450   8
  -6   4  -3 33.4365 3.82457  16
  -6   4  -3 30.7303 3.86502  19
   6   3  -3 13.0149 3.14870  15
   6   3  -3 15.9089 2.46639  18
  -6  -3   3 13.3271 2.02283  18
  -6  -3   3 8.73581 3.33602  12
  -6  -3   3 16.4229 3.30353  17
   5   3  -3 68.0174 5.65002  15
   5   3  -3 66.2628 4.69197  18
  -5  -3   3 59.1930 4.93865  17
  -5  -3   3 57.4275 7.41373   9
  -5  -3   3 61.4124 5.08477  18
  -5  -3   3 52.7151 5.35357  12
   4   3  -3 278.393 8.59690  18
  -4  -3   3 288.432 9.98942  12
  -4  -3   3 282.039 12.9917   9
  -4  -3   3 275.759 9.34287  17
  -3  -3   3 127.382 7.46278   6
  -3  -3   3 124.972 7.90678   9
  -3  -3   3 123.664 6.60076   8
  -3  -3   3 122.623 6.13701  12
  -3  -3   3 114.147 7.41921   4
  -3  -3   3 128.382 7.77726   1
   2   3  -3 311.603 9.55455   2
   2   3  -3 302.854 9.12368   3
  -2  -3   3 301.668 10.5078   4
  -2  -3   3 297.759 8.98413   7
  -2  -3   3 316.419 10.7385   1
  -2  -3   3 317.592 10.4929   9
  -2  -3   3 282.002 9.86614   8
  -2  -3   3 312.542 10.7148   6
   1   3  -3 97.4189 5.09186   3
   1   3  -3 97.6817 5.22685   2
  -1  -3   3 98.5634 5.57835   1
  -1  -3   3 90.3862 5.18218   4
  -1  -3   3 97.8611 4.70801   7
  -1  -3   3 93.7889 5.92303   6
  -1  -3   3 100.121 5.15407   9
  -1  -3   3 103.109 5.68876   8
   0  -3   3 170.876 6.23739   4
   0  -3   3 156.103 7.17612   6
   0  -3   3 165.766 7.06099   2
   0  -3   3 160.576 6.61791   3
   0  -3   3 158.404 5.60364   7
   0  -3   3 162.740 6.81012   1
   1  -3   3 109.069 4.19319   7
   1  -3   3 109.940 4.38972   5
   1  -3   3 107.641 5.96027   3
   1  -3   3 106.905 5.62873   6
   1  -3   3 101.615 5.52272   1
   1  -3   3 96.5095 5.82862   2
  -2   3  -3 176.056 5.77427  11
   2  -3   3 188.137 8.43583   3
   2  -3   3 187.680 5.93718   7
   2  -3   3 177.261 8.31359   2
   2  -3   3 177.592 6.28721  10
   2  -3   3 190.976 6.75073   5
   2  -3   3 191.364 7.64275   6
  -3   3  -3 44.0477 4.02316  12
  -3   3  -3 38.8263 3.39706  11
   3  -3   3 46.9474 4.88457   6
   3  -3   3 48.8330 4.03785  10
   3  -3   3 51.2760 4.54566   8
   3  -3   3 45.7018 5.77203   3
   3  -3   3 35.7462 5.27789   2
   3  -3   3 40.5350 3.73662   7
   3  -3   3 47.7254 4.69494   5
  -4   3  -3 31.4000 3.56434  11
  -4   3  -3 26.1831 3.81515  12
  -4   3  -3 22.0325 3.88199  16
   4  -3   3 22.9356 4.12040   8
   4  -3   3 22.1809 3.77115  10
   4  -3   3 27.7552 5.85626   2
   4  -3   3 15.6638 3.17261   7
  -5   3  -3 5.34331 3.14639  12
  -5   3  -3 4.26545 2.82563  11
  -5   3  -3 2.18264 2.50242  17
  -5   3  -3 3.58368 3.36139  16
  -5   3  -3 8.13936 2.91264  19
   5  -3   3 4.66601 3.69818   8
   5  -3   3 1.67147 3.20985  10
  -6   3  -3 72.4226 5.03842  19
  -6   3  -3 70.2125 4.82285  17
  -6   3  -3 61.6392 4.93130  16
  -6   3  -3 78.1177 5.67663  12
   6   2  -3 43.5621 4.58546  15
   6   2  -3 41.9456 3.48255  18
  -6  -2   3 47.0694 4.57136  12
  -6  -2   3 42.4996 3.19671  18
  -6  -2   3 46.2408 4.01471  17
   5   2  -3 313.754 10.9709  15
   5   2  -3 326.637 9.54853  18
  -5  -2   3 316.162 10.6171  12
  -5  -2   3 311.735 9.71066  17
  -5  -2   3 304.041 14.2547   9
  -5  -2   3 347.707 10.0867  18
  -4  -2   3 251.219 8.66275  12
  -4  -2   3 241.014 11.6080   9
  -4  -2   3 251.647 8.90004   8
  -3  -2   3 1590.79 31.0276  12
  -3  -2   3 1644.70 34.3775   4
  -3  -2   3 1693.98 32.0232   6
  -3  -2   3 1651.55 33.0487   8
  -3  -2   3 1697.20 34.1375   1
  -3  -2   3 1652.27 35.5569   9
   2   2  -3 290.642 8.73931   2
   2   2  -3 270.299 8.30905   3
  -2  -2   3 298.162 9.57931   9
  -2  -2   3 277.901 9.25572   1
  -2  -2   3 289.560 7.96719   7
  -2  -2   3 284.538 9.56686   4
  -2  -2   3 281.377 8.92347   6
  -2  -2   3 281.857 9.01437   8
   1   2  -3 525.740 12.1293   3
   1   2  -3 521.290 12.3527   2
  -1  -2   3 531.265 12.4397   9
  -1  -2   3 522.437 12.4722   4
  -1  -2   3 507.756 12.7162   1
  -1  -2   3 527.769 13.0140   6
  -1  -2   3 536.334 11.3170   7
   0   2  -3 2923.71 51.2730   2
   0  -2   3 2902.00 49.6516   3
   0  -2   3 2858.08 48.9113   6
   0  -2   3 2838.21 51.4562   1
   0  -2   3 2923.48 46.1086   7
   0  -2   3 2959.56 49.3779   4
   1  -2   3 756.616 13.1434   7
   1  -2   3 770.210 14.1008   4
   1  -2   3 750.201 16.0887   1
   1  -2   3 756.959 13.8234   5
   1  -2   3 759.851 16.9296   3
   1  -2   3 756.211 17.4578   2
   1  -2   3 749.170 15.8404   6
  -2   2  -3 990.722 20.1623   6
   2  -2   3 967.130 20.2939  10
   2  -2   3 968.974 22.3428   2
   2  -2   3 955.363 21.5488   3
   2  -2   3 979.013 18.6983   5
   2  -2   3 995.037 17.4683   7
  -3   2  -3 793.798 15.5544  11
  -3   2  -3 766.340 18.2747   6
   3  -2   3 778.344 17.8229  10
   3  -2   3 746.335 19.7522   3
   3  -2   3 765.119 15.5878   7
   3  -2   3 771.072 17.4239   5
   3  -2   3 762.742 20.1945   2
  -4   2  -3 425.258 10.7019  11
  -4   2  -3 418.139 11.5884  12
   4  -2   3 421.832 12.5067  10
   4  -2   3 426.423 11.4757   7
   4  -2   3 410.343 12.7912   8
   4  -2   3 399.130 14.7320   2
  -5   2  -3 566.736 14.0534  19
  -5   2  -3 550.109 13.7359  17
  -5   2  -3 553.862 14.5135  16
  -5   2  -3 562.408 13.5337  11
  -5   2  -3 572.104 14.8188  12
   5  -2   3 542.852 16.0829  10
   5  -2   3 569.330 16.5297   8
  -6   2  -3 49.0481 4.64808  16
  -6   2  -3 53.7431 4.19401  17
  -6   2  -3 49.2964 4.66917  12
  -6   2  -3 56.7944 4.62989  19
   7   1  -3 7.98894 2.43158  15
   6   1  -3 14.8306 3.59130  15
   6   1  -3 11.7739 2.59366  18
  -6  -1   3 10.3709 3.07950  12
  -6  -1   3 7.90935 2.36022  18
  -6  -1   3 12.7977 2.85851  17
   5   1  -3 39.4271 4.88506  15
   5   1  -3 40.6628 3.96669  18
  -5  -1   3 32.7516 6.52757   9
  -5  -1   3 40.2568 4.34570  12
  -5  -1   3 33.4504 3.90921  18
  -5  -1   3 42.5334 3.99817  17
  -4  -1   3 72.5586 4.66402  12
  -4  -1   3 76.5306 7.27320   9
  -4  -1   3 91.0969 5.56265   8
   3   1  -3 108.182 5.61606   3
   3   1  -3 104.551 5.64104   2
  -3  -1   3 102.185 5.25040   8
  -3  -1   3 110.404 5.53759   6
  -3  -1   3 105.677 6.71833   9
  -3  -1   3 105.321 6.25139   4
  -3  -1   3 111.051 5.17437   7
   2   1  -3 6.56566 2.08343   2
   2   1  -3 4.86842 1.99234   3
  -2  -1   3 7.28609 2.32338   8
  -2  -1   3 5.77968 2.29362   4
  -2  -1   3 6.24210 2.33577   1
  -2  -1   3 3.47851 2.04455   6
  -2  -1   3 7.72791 2.46435   9
  -2  -1   3 6.76932 1.99052   7
   1   1  -3 60.9885 4.02005   1
   1   1  -3 62.5451 3.69364   2
   1   1  -3 58.1136 3.50128   3
  -1  -1   3 60.4139 3.32952   7
  -1  -1   3 51.4892 3.88093   6
  -1  -1   3 58.4236 3.65635   4
  -1  -1   3 55.6495 3.92698   9
   0   1  -3 1035.51 20.4492   1
   0   1  -3 1051.71 20.5570   2
   0   1  -3 1101.63 19.9317   3
   0  -1   3 1053.31 19.4132   4
   0  -1   3 1069.67 19.6341   6
   0  -1   3 1057.94 16.4789   5
  -1   1  -3 54.3300 3.87950   6
   1  -1   3 65.3053 4.81397   2
   1  -1   3 57.4457 2.96256   5
   1  -1   3 63.5491 4.40514   3
   1  -1   3 56.9042 3.28030   1
   1  -1   3 63.4924 2.46884   4
  -2   1  -3 22.4293 2.84545   6
  -2   1  -3 18.2390 2.36674  10
   2  -1   3 19.0526 2.47913   5
   2  -1   3 18.6921 1.68205   7
   2  -1   3 15.3339 3.15903   3
   2  -1   3 16.9520 3.38177   2
  -3   1  -3 84.5359 5.19440   6
  -3   1  -3 81.2701 3.88278  11
   3  -1   3 77.7622 4.88536   5
   3  -1   3 83.0664 3.80448   7
   3  -1   3 77.9420 4.57042  10
   3  -1   3 89.7068 5.73533   3
   3  -1   3 78.1294 5.47910   2
  -4   1  -3 216.861 7.08937  11
  -4   1  -3 229.957 7.97500  12
   4  -1   3 226.039 7.79196   7
   4  -1   3 204.211 9.10546   5
   4  -1   3 233.281 8.93745   8
   4  -1   3 227.847 8.57331  10
  -5   1  -3 82.1678 5.12307  11
  -5   1  -3 76.5905 5.24071  19
  -5   1  -3 71.9467 5.47568  12
  -5   1  -3 72.0994 5.35899  16
  -5   1  -3 76.0708 5.17505  17
   5  -1   3 75.8460 5.86729  10
   5  -1   3 84.6011 6.24701   8
  -6   1  -3 141.288 6.89953  16
  -6   1  -3 119.234 6.48751  12
  -6   1  -3 139.685 6.31948  17
  -6   1  -3 126.768 6.10915  19
   6  -1   3 124.248 7.13141  10
  -7   1  -3 67.9783 3.85025  19
  -7   1  -3 77.2260 3.89110  17
   7   0  -3 151.080 5.90954  15
   6   0  -3 10.3747 3.24611  15
   6   0  -3 9.17710 2.63470  18
  -6   0   3 6.06982 2.31220  18
  -6   0   3 9.03956 2.98793  12
   5   0  -3 543.771 14.7942  15
   5   0  -3 564.998 13.2708  18
  -5   0   3 552.119 13.8235  12
  -5   0   3 532.656 19.3998   9
  -5   0   3 534.812 13.2110  18
  -4   0   3 132.717 8.65084   9
  -4   0   3 143.231 6.38962   8
  -4   0   3 137.194 5.85017  12
   3   0  -3 454.932 12.2214   3
   3   0  -3 463.498 12.6547   2
   3   0  -3 456.819 11.6121   5
  -3   0   3 441.694 11.0590   7
  -3   0   3 443.504 11.7043   8
  -3   0   3 453.149 12.7282   4
  -3   0   3 460.207 13.7088   9
   2   0  -3 1338.63 26.0112   1
   2   0  -3 1345.95 26.1078   2
   2   0  -3 1358.73 23.2887   5
   2   0  -3 1357.05 25.3572   3
  -2   0   3 1334.19 27.1406   9
  -2   0   3 1338.24 25.8074   4
  -2   0   3 1328.30 26.1360   8
  -2   0   3 1345.08 23.4097   7
  -2   0   3 1332.78 23.4709   6
   1   0  -3 97.8836 4.22080   3
   1   0  -3 99.8737 4.46294   2
   1   0  -3 99.0570 3.75372   5
   1   0  -3 99.1996 4.36690   1
  -1   0   3 98.9015 4.35650   4
  -1   0   3 105.375 4.63483   9
  -1   0   3 98.2317 3.82065   6
  -1   0   3 101.317 3.17140   7
   0   0  -3 2489.59 42.5568   2
   0   0  -3 2458.28 42.8720   1
   0   0  -3 2478.02 37.6016   5
   0   0  -3 2509.80 41.1345   3
   0   0   3 2467.21 41.5009   4
   0   0   3 2391.63 39.6906   6
  -1   0  -3 1027.68 19.3586   1
  -1   0  -3 1089.08 18.6876   4
  -1   0  -3 1052.97 20.5858   2
  -1   0  -3 1046.19 19.0263   6
   1   0   3 1106.34 20.2185   3
   1   0   3 1049.87 18.0008   5
  -2   0  -3 334.037 9.08331   6
   2   0   3 327.858 8.52500   5
   2   0   3 346.216 9.51154   2
   2   0   3 351.248 6.54649   7
   2   0   3 359.778 9.26265   3
  -3   0  -3 473.903 12.5149   6
  -3   0  -3 456.525 11.9713  10
  -3   0  -3 442.480 10.0041  11
   3   0   3 467.411 12.0397   5
   3   0   3 464.883 11.8239   3
   3   0   3 481.402 10.2342   7
   3   0   3 475.028 12.2445   2
  -4   0  -3 0.91398 2.44231   6
  -4   0  -3 4.63298 2.42615  12
  -4   0  -3 5.92160 2.27349  11
   4   0   3 4.46356 2.43811  10
   4   0   3 7.91067 2.43149   7
   4   0   3 7.14991 2.93482   8
   4   0   3 7.95009 3.05767   5
  -5   0  -3 90.5591 5.09844  11
  -5   0  -3 101.675 5.91585  16
  -5   0  -3 96.7494 5.22561  19
  -5   0  -3 79.9666 5.31908  17
  -5   0  -3 91.7005 5.97977  12
   5   0   3 95.7968 6.64187   8
   5   0   3 82.9124 6.13380  10
  -6   0  -3 -0.5666 2.77162  12
  -6   0  -3 1.80902 2.28146  19
  -6   0  -3 2.84666 2.41509  17
   6   0   3 1.33202 2.95348  10
   6   0   3 -2.4994 3.22065   8
   6   0   3 1.95401 2.79881  15
  -7   0  -3 1.14502 1.91924  19
  -7   0  -3 1.58619 1.92847  17
   7  -1  -3 25.6561 2.99737  15
   6  -1  -3 81.7767 4.58188  18
   6  -1  -3 86.5320 5.68990  15
  -6   1   3 92.8003 5.36373  12
  -6   1   3 81.8940 4.08009  18
   5  -1  -3 74.0467 5.48735  15
   5  -1  -3 74.8666 4.51963  18
  -5   1   3 70.6263 5.02434  12
  -5   1   3 68.6290 4.56752  18
  -5   1   3 62.4685 8.54756   9
   4  -1  -3 241.079 10.0589   3
   4  -1  -3 246.947 10.5043   2
   4  -1  -3 248.464 9.55271  10
  -4   1   3 247.238 11.5832   9
  -4   1   3 250.694 8.05258  12
   3  -1  -3 132.206 6.00089  10
   3  -1  -3 137.336 6.65799   5
   3  -1  -3 131.077 6.51759   2
   3  -1  -3 129.448 6.43982   3
  -3   1   3 129.307 6.32090   4
  -3   1   3 134.641 5.74294   8
  -3   1   3 137.123 5.47629   7
  -3   1   3 132.098 7.13516   9
   2  -1  -3 228.081 7.13786   1
   2  -1  -3 233.507 7.15770   5
   2  -1  -3 235.424 7.61551   2
   2  -1  -3 235.618 7.49282   3
  -2   1   3 220.778 7.84138   9
  -2   1   3 242.832 7.20552   4
  -2   1   3 217.239 6.73441   8
  -2   1   3 224.293 5.49036   6
   1  -1  -3 1771.86 30.3836   3
   1  -1  -3 1731.05 32.3789   9
   1  -1  -3 1685.59 28.9285   5
   1  -1  -3 1733.03 31.4220   1
   1  -1  -3 1742.74 31.3111   2
  -1   1   3 1709.13 27.4337   6
  -1   1   3 1732.58 27.8375   7
  -1   1   3 1775.88 30.7846   4
   0  -1  -3 334.996 7.76608   4
   0  -1  -3 347.656 7.90390   2
   0  -1  -3 327.539 7.06214   5
   0  -1  -3 326.238 7.98123   1
   0  -1  -3 348.898 7.54471   3
   0  -1  -3 337.226 6.69770   6
  -1  -1  -3 148.692 4.71499   5
  -1  -1  -3 161.596 5.20312   2
  -1  -1  -3 153.847 4.84523   6
  -1  -1  -3 152.922 4.51664   1
   1   1   3 159.988 4.94852   3
  -2  -1  -3 935.811 20.5981   9
  -2  -1  -3 939.829 18.6567   6
  -2  -1  -3 987.117 17.9259   4
   2   1   3 967.434 17.6098   3
   2   1   3 940.510 17.9753   5
   2   1   3 924.533 18.1329   2
   2   1   3 957.879 15.9609   7
  -3  -1  -3 236.408 9.46883   9
  -3  -1  -3 221.929 6.36807  11
  -3  -1  -3 234.794 7.60556  10
  -3  -1  -3 245.244 8.49559   6
   3   1   3 231.640 6.43742   7
   3   1   3 220.897 7.74453   5
  -4  -1  -3 316.581 9.49120  12
  -4  -1  -3 321.983 11.4971   6
  -4  -1  -3 342.467 10.6309  10
  -4  -1  -3 343.417 8.82352  11
   4   1   3 328.057 9.57549   7
   4   1   3 292.944 10.7785   5
   4   1   3 326.049 10.8417   8
  -5  -1  -3 70.9883 5.16714  16
  -5  -1  -3 71.8311 4.97031  19
  -5  -1  -3 79.2606 5.53041  15
  -5  -1  -3 74.0761 4.84794  11
  -5  -1  -3 63.9923 5.18102  12
  -5  -1  -3 68.8092 4.87268  17
   5   1   3 66.3193 5.47057  10
   5   1   3 68.0267 6.25075   8
  -6  -1  -3 13.5805 2.92513  19
  -6  -1  -3 15.6913 3.22469  17
  -6  -1  -3 6.81789 3.04815  12
   6   1   3 15.8948 3.84409  10
   6   1   3 14.7096 4.16617   8
   6   1   3 19.8756 3.58451  15
  -7  -1  -3 108.865 4.74590  19
  -7  -1  -3 121.997 4.89420  17
   7   1   3 115.603 5.09776  15
   7  -2  -3 32.5878 2.99207  15
   6  -2  -3 8.21047 2.61603  18
   6  -2  -3 12.0841 3.09986  15
  -6   2   3 11.4526 2.33651  18
   5  -2  -3 82.4917 4.91273  18
   5  -2  -3 76.5225 6.70222  10
   5  -2  -3 98.9479 5.92033  15
  -5   2   3 94.3897 5.01746  18
  -5   2   3 92.2362 6.26970  13
  -5   2   3 93.8459 5.50782  12
   4  -2  -3 233.502 9.37386  10
   4  -2  -3 227.890 10.2663   2
   4  -2  -3 210.344 9.73672   3
   4  -2  -3 234.906 10.4716   5
  -4   2   3 232.905 11.2811   9
  -4   2   3 232.679 8.48503   8
  -4   2   3 229.048 7.45616  12
   3  -2  -3 0.92715 2.41546  10
   3  -2  -3 2.62757 2.47284   3
   3  -2  -3 -1.5451 2.43183   5
   3  -2  -3 0.87887 2.17951   2
  -3   2   3 0.04751 1.78563   7
  -3   2   3 -1.8775 2.58777   9
  -3   2   3 -0.0050 2.04879   8
   2  -2  -3 279.268 8.13797   1
   2  -2  -3 275.244 8.41645   3
   2  -2  -3 289.604 8.98752   2
   2  -2  -3 267.659 8.49910   5
   2  -2  -3 259.173 8.17214  10
  -2   2   3 284.980 7.33782   7
  -2   2   3 288.076 9.11985   9
  -2   2   3 270.161 7.81781   8
  -2   2   3 279.115 8.05935   4
   1  -2  -3 24.1309 3.30214   5
   1  -2  -3 20.8454 2.64766   3
   1  -2  -3 24.8396 2.79017   1
   1  -2  -3 21.3380 2.64976   2
   1  -2  -3 21.5919 2.88826   9
   1  -2  -3 17.7665 2.36294   4
   0  -2  -3 17.7971 1.34581   6
   0  -2  -3 20.1098 2.48406   4
   0  -2  -3 17.1494 2.39220   1
   0  -2  -3 17.2568 2.54542   5
  -1  -2  -3 803.794 17.8357   9
  -1  -2  -3 816.494 15.1482   6
  -1  -2  -3 815.860 14.9095   2
  -1  -2  -3 804.604 15.2254   5
  -1  -2  -3 820.308 16.1511   4
  -2  -2  -3 358.121 11.3732   9
  -2  -2  -3 377.388 9.48370   4
  -2  -2  -3 352.624 9.20049  10
  -2  -2  -3 365.280 9.50263   6
   2   2   3 380.709 9.33147   5
   2   2   3 364.285 7.82959   7
  -3  -2  -3 1335.49 24.1387  11
  -3  -2  -3 1388.96 30.5464   9
  -3  -2  -3 1372.07 27.3573   6
  -3  -2  -3 1338.51 28.3178  10
   3   2   3 1417.86 24.8742   7
   3   2   3 1368.94 26.1371   5
  -4  -2  -3 783.237 19.8625   6
  -4  -2  -3 746.714 17.0286  12
  -4  -2  -3 764.854 22.0915   9
  -4  -2  -3 781.716 18.9599  10
  -4  -2  -3 778.040 15.9198  11
   4   2   3 787.020 19.1450   5
   4   2   3 789.901 19.4760   8
   4   2   3 755.894 17.0647   7
  -5  -2  -3 130.289 6.79585  12
  -5  -2  -3 139.306 6.41378  17
  -5  -2  -3 143.133 6.02219  11
  -5  -2  -3 137.343 6.20825  19
  -5  -2  -3 134.647 6.44694  16
  -5  -2  -3 134.460 7.17302  15
   5   2   3 144.354 7.66081  10
   5   2   3 139.929 8.04775   8
  -6  -2  -3 186.742 7.21389  17
  -6  -2  -3 177.052 6.90961  19
  -6  -2  -3 198.218 7.91499  12
   6   2   3 185.996 9.00896  10
   6   2   3 187.878 7.98925  15
   6   2   3 177.379 8.77486   8
  -7  -2  -3 21.9217 2.76686  17
  -7  -2  -3 23.2777 2.74625  19
   7   2   3 27.1304 3.34182  15
   6  -3  -3 154.953 6.91131  15
   6  -3  -3 146.500 5.87189  18
  -6   3   3 138.322 4.76762  18
   5  -3  -3 250.812 9.22331  15
   5  -3  -3 236.754 10.6154  10
   5  -3  -3 248.644 8.22930  18
  -5   3   3 238.960 9.34376  13
  -5   3   3 260.029 7.97102  18
   4  -3  -3 164.943 8.14050  10
   4  -3  -3 168.798 9.29173   2
   3  -3  -3 568.111 15.7387   3
   3  -3  -3 594.251 15.6762   5
   3  -3  -3 598.199 15.3336  10
   3  -3  -3 574.973 16.3558   2
  -3   3   3 590.515 16.6284   9
   2  -3  -3 27.9634 3.72894   2
   2  -3  -3 16.5580 2.92340   3
   2  -3  -3 29.2185 3.46796  10
   2  -3  -3 23.8047 3.80930   5
   2  -3  -3 29.6832 3.33576   1
  -2   3   3 27.1467 2.78570   7
  -2   3   3 19.3552 2.49318   4
  -2   3   3 21.1040 2.85058   8
  -2   3   3 26.8472 3.78583   9
   1  -3  -3 9.26572 2.31730   1
   1  -3  -3 9.43073 2.36348   2
   1  -3  -3 11.8603 3.00096   5
   1  -3  -3 9.60832 2.24540   3
   1  -3  -3 11.6421 2.25973   4
   1  -3  -3 10.9050 2.89337   9
  -1   3   3 12.6134 1.89725   7
   0  -3  -3 222.736 4.99869   6
   0  -3  -3 219.680 6.82328   4
   0  -3  -3 212.604 6.89619   5
   0  -3  -3 228.280 5.82351   3
   0  -3  -3 232.122 7.08124   1
   0  -3  -3 215.692 7.75225   9
   0  -3  -3 227.915 6.09344   2
   0   3   3 217.473 5.03000   7
  -1  -3  -3 703.154 13.6966   6
  -1  -3  -3 680.492 16.5299   9
  -1  -3  -3 695.568 14.9466   1
  -1  -3  -3 687.241 14.3280   5
  -1  -3  -3 701.687 15.3216   4
   1   3   3 683.003 12.0979   7
  -2  -3  -3 250.219 8.01814   5
  -2  -3  -3 252.804 7.87012   6
  -2  -3  -3 274.036 9.81835   9
  -2  -3  -3 248.767 7.63605  10
  -2  -3  -3 273.794 8.73900   4
   2   3   3 264.827 6.91254   7
  -3  -3  -3 19.4456 2.43351  11
  -3  -3  -3 18.1003 2.94202  10
  -3  -3  -3 27.8707 3.63224   6
  -3  -3  -3 27.3472 4.48080   9
  -3  -3  -3 26.8644 3.80764   4
   3   3   3 21.9543 3.09990   7
   3   3   3 24.1459 3.71303   5
  -4  -3  -3 4.74980 2.66854  10
  -4  -3  -3 5.98495 2.52831  12
  -4  -3  -3 4.21297 2.16836  11
  -4  -3  -3 0.60670 3.79775   9
   4   3   3 4.15981 3.39267   8
   4   3   3 4.07612 3.47286   5
   4   3   3 5.24786 2.63265   7
  -5  -3  -3 2.02653 2.34379  11
  -5  -3  -3 5.20154 2.53099  17
  -5  -3  -3 3.82107 2.81835  12
  -5  -3  -3 -0.8666 2.82657  15
  -5  -3  -3 2.22503 2.29561  19
  -5  -3  -3 10.7889 5.15726   9
   5   3   3 1.77082 2.87242  10
   5   3   3 -2.1137 3.33356   8
  -6  -3  -3 56.6431 4.63077  17
  -6  -3  -3 60.0686 4.62384  19
  -6  -3  -3 62.0692 5.14458  12
   6   3   3 47.6872 5.17461  15
  -7  -3  -3 35.7791 3.10743  17
   7   3   3 36.6333 3.58730  15
   6  -4  -3 44.8089 4.16922  15
   6  -4  -3 42.6851 3.80647  18
  -6   4   3 39.7375 4.04928  13
   5  -4  -3 58.1806 6.32644  10
   5  -4  -3 72.7135 4.93650  18
   5  -4  -3 73.8067 5.32743  15
  -5   4   3 74.4498 4.72154  18
  -5   4   3 79.0181 5.79262  13
   4  -4  -3 789.765 20.3776  10
   4  -4  -3 724.211 21.5297   2
  -4   4   3 727.159 17.5100  13
   3  -4  -3 110.856 7.06833   2
   3  -4  -3 108.173 6.53337  10
   3  -4  -3 120.415 7.65438   5
   3  -4  -3 105.699 6.89570   3
  -3   4   3 116.283 6.44655   8
   2  -4  -3 800.802 18.6686   3
   2  -4  -3 786.256 19.2642   2
   2  -4  -3 779.016 18.7027   5
   2  -4  -3 835.603 17.7334   4
   2  -4  -3 787.233 18.1671   1
   2  -4  -3 761.255 18.6771  10
  -2   4   3 804.726 16.1496   7
  -2   4   3 808.074 18.2592   8
  -2   4   3 772.047 19.3102   9
   1  -4  -3 806.235 18.8551   9
   1  -4  -3 765.940 16.6060   3
   1  -4  -3 754.406 17.4924  10
   1  -4  -3 762.128 16.7636   4
   1  -4  -3 795.939 17.2934   2
   1  -4  -3 781.241 17.6023   1
   1  -4  -3 771.206 17.0183   5
  -1   4   3 732.888 14.8150   7
   0  -4  -3 749.053 18.2202   9
   0  -4  -3 772.770 14.0721   6
   0  -4  -3 785.769 15.0538   3
   0  -4  -3 749.349 16.8989   4
   0  -4  -3 763.881 16.2201   5
   0  -4  -3 771.834 15.6219   2
   0  -4  -3 779.385 17.4528   1
   0   4   3 755.179 14.2930   7
  -1  -4  -3 1272.80 23.4209   6
  -1  -4  -3 1295.15 24.8290   5
  -1  -4  -3 1295.91 27.3804   9
  -1  -4  -3 1293.43 26.1624   1
  -1  -4  -3 1305.74 26.2430   4
  -1  -4  -3 1262.51 26.7709  10
   1   4   3 1308.61 22.6229   7
  -2  -4  -3 1471.98 28.8338   1
  -2  -4  -3 1470.14 30.0238  10
  -2  -4  -3 1394.39 25.3461  11
  -2  -4  -3 1502.64 27.8850   5
  -2  -4  -3 1439.87 29.8237   4
  -2  -4  -3 1467.92 31.4879   9
  -2  -4  -3 1434.75 27.6737   6
   2   4   3 1473.24 26.0350   7
  -3  -4  -3 653.922 17.8805   4
  -3  -4  -3 673.655 17.0894   6
  -3  -4  -3 688.231 19.5301   9
  -3  -4  -3 697.655 16.9153  10
  -3  -4  -3 674.196 14.1290  11
   3   4   3 671.158 17.8489   8
   3   4   3 696.852 17.1391   5
   3   4   3 657.166 15.5291   7
  -4  -4  -3 497.499 17.6859   9
  -4  -4  -3 543.589 15.1772  10
  -4  -4  -3 514.799 13.2795  12
  -4  -4  -3 513.192 12.3201  11
   4   4   3 510.760 14.3645   7
   4   4   3 549.025 16.5898   8
  -5  -4  -3 189.186 11.5966   9
  -5  -4  -3 198.631 8.02108  19
  -5  -4  -3 218.874 7.58036  11
  -5  -4  -3 212.409 8.06096  17
  -5  -4  -3 217.083 8.48859  12
  -5  -4  -3 208.818 9.19897  15
   5   4   3 207.259 10.2152   8
   5   4   3 203.373 9.30667  10
  -6  -4  -3 247.109 8.83880  12
  -6  -4  -3 240.448 8.28919  17
  -6  -4  -3 256.332 8.59837  19
  -7  -4  -3 144.566 4.90425  17
   6  -5  -3 18.9603 2.73985  18
  -6   5   3 19.0356 2.96417  13
   5  -5  -3 73.2665 5.36286  15
   5  -5  -3 75.6135 6.65978  10
   5  -5  -3 82.9150 5.45681  18
  -5   5   3 64.6155 5.49709  13
  -5   5   3 74.0987 4.63284  18
   4  -5  -3 194.057 9.52168  10
   4  -5  -3 206.880 7.84476  18
  -4   5   3 196.742 8.63752  13
  -4   5   3 200.364 7.47494  18
   3  -5  -3 144.386 8.86886   5
   3  -5  -3 153.639 7.99222  10
   3  -5  -3 151.185 9.09765   2
  -3   5   3 159.205 7.20239   8
   2  -5  -3 125.550 7.40389   5
   2  -5  -3 142.414 7.27210   1
   2  -5  -3 142.505 6.85173  10
   2  -5  -3 139.992 7.42684   3
   2  -5  -3 143.436 7.51538   2
  -2   5   3 151.363 6.25687   7
  -2   5   3 142.542 6.70342   8
   1  -5  -3 27.4987 4.29011   9
   1  -5  -3 25.8410 3.71867   1
   1  -5  -3 29.4243 3.89632   5
   1  -5  -3 29.5882 3.61624   3
   1  -5  -3 28.5035 3.48529  10
   1  -5  -3 26.8070 3.82239   4
   1  -5  -3 28.1661 3.73167   2
  -1   5   3 25.1959 3.44695   8
  -1   5   3 27.5737 3.06727   7
   0  -5  -3 335.800 9.04617   2
   0  -5  -3 339.626 11.0129   9
   0  -5  -3 320.504 9.37822  10
   0  -5  -3 329.473 10.7376   1
   0  -5  -3 323.871 8.58826   3
   0  -5  -3 321.934 10.2666   4
   0  -5  -3 331.986 9.84500   5
   0   5   3 318.087 9.51170   8
   0   5   3 327.504 8.49703   7
  -1  -5  -3 7.67660 2.94259   9
  -1  -5  -3 3.55170 2.22802   6
  -1  -5  -3 6.54899 2.94103   5
  -1  -5  -3 2.85999 2.32960  10
  -1  -5  -3 4.67037 2.72744   1
  -1  -5  -3 4.50934 2.51945   4
   1   5   3 5.94397 2.15141   7
   1   5   3 3.43746 2.54612   8
  -2  -5  -3 214.355 8.18007  10
  -2  -5  -3 204.970 8.47925   1
  -2  -5  -3 206.542 9.05071   4
  -2  -5  -3 204.879 8.11638   6
  -2  -5  -3 210.150 9.53754   9
  -2  -5  -3 199.004 8.75463   5
  -2  -5  -3 204.188 6.43569  11
   2   5   3 219.689 8.50186   8
   2   5   3 219.302 7.02512   7
  -3  -5  -3 77.7740 7.34521   9
  -3  -5  -3 93.7853 7.10749   6
  -3  -5  -3 71.9804 6.64259   4
  -3  -5  -3 84.4946 4.72681  11
  -3  -5  -3 77.9676 5.58934  10
   3   5   3 79.3544 6.40082   8
   3   5   3 79.0433 5.18254   7
   3   5   3 80.0170 6.86249   5
  -4  -5  -3 0.22276 2.88402  16
  -4  -5  -3 5.57719 3.15850  15
  -4  -5  -3 8.24687 2.98723  17
  -4  -5  -3 4.53736 2.52293  11
  -4  -5  -3 8.62179 4.24701   9
  -4  -5  -3 3.99984 3.19573  10
   4   5   3 3.66134 3.76107   8
  -5  -5  -3 307.615 9.56616  11
  -5  -5  -3 312.065 9.86783  17
  -5  -5  -3 299.461 9.94517  12
  -5  -5  -3 324.226 11.3057  15
  -5  -5  -3 300.085 14.2687   9
   5   5   3 307.462 12.1075   8
  -6  -5  -3 65.3320 4.59888  17
  -6  -5  -3 61.0422 5.00295  19
  -6  -5  -3 69.7980 5.05749  12
   6   5   3 69.0064 5.13815  15
  -6   6   3 125.192 5.12066  13
   5  -6  -3 14.4441 3.28433  18
   5  -6  -3 11.6866 3.85416  10
  -5   6   3 17.7940 3.65030  13
  -5   6   3 11.6954 2.57656  18
   4  -6  -3 316.818 12.1527  10
   4  -6  -3 315.847 10.2851  18
  -4   6   3 328.143 10.7873  13
  -4   6   3 319.210 9.61426  18
   3  -6  -3 347.721 14.3000   2
   3  -6  -3 342.380 12.2554  10
  -3   6   3 354.136 10.5465   8
   2  -6  -3 0.92475 2.74423  10
   2  -6  -3 2.56334 3.06530   5
   2  -6  -3 0.42823 2.66642   3
   2  -6  -3 2.34961 3.05480   1
   2  -6  -3 8.02089 3.11474   2
  -2   6   3 1.42683 2.50499   8
   1  -6  -3 508.577 14.2660   2
   1  -6  -3 479.099 13.6994   3
   1  -6  -3 501.009 15.2413   1
   1  -6  -3 476.503 14.4891   4
   1  -6  -3 505.166 13.8969   5
   1  -6  -3 487.050 10.9602  11
   1  -6  -3 506.024 13.3692  10
  -1   6   3 490.770 13.4356   8
  -1   6   3 519.181 12.4871   7
   0  -6  -3 8.91786 2.86536   5
   0  -6  -3 18.0693 3.72628   1
   0  -6  -3 11.5633 3.15310   4
   0  -6  -3 16.0794 3.66876   9
   0  -6  -3 10.7286 2.50019  10
   0  -6  -3 11.3945 2.46483  11
   0   6   3 14.8191 2.81872   7
   0   6   3 13.3380 3.15410   8
  -1  -6  -3 48.8298 5.32597   4
  -1  -6  -3 57.2164 5.74700   9
  -1  -6  -3 59.6475 4.72349  10
  -1  -6  -3 53.2053 5.11853   5
  -1  -6  -3 56.6871 3.85192  11
  -1  -6  -3 54.2413 4.56824   6
  -1  -6  -3 42.5484 5.07505   1
   1   6   3 51.0704 4.08663   7
   1   6   3 62.0117 4.93807   8
  -2  -6  -3 9.54106 3.97474   9
  -2  -6  -3 16.9270 3.77956   1
  -2  -6  -3 12.1465 3.41750   6
  -2  -6  -3 11.3419 3.56029   4
  -2  -6  -3 13.1007 3.30534  10
  -2  -6  -3 17.9559 4.07446   5
  -2  -6  -3 14.6975 2.84843  11
   2   6   3 12.2319 3.34283   8
   2   6   3 13.7592 2.80729   7
  -3  -6  -3 1.54828 2.59990  10
  -3  -6  -3 -3.1829 3.30911   9
  -3  -6  -3 2.15796 2.27817  11
   3   6   3 -0.4133 2.76638   7
   3   6   3 -0.3772 2.97880   8
  -4  -6  -3 211.919 8.48485  15
  -4  -6  -3 204.602 11.5274   9
  -4  -6  -3 212.029 9.05535  16
  -4  -6  -3 214.921 8.07230  11
  -4  -6  -3 217.860 8.05789  17
   4   6   3 214.232 9.90027   8
  -5  -6  -3 131.438 6.67545  11
  -5  -6  -3 142.038 7.11503  15
  -5  -6  -3 132.107 6.45010  17
   5   6   3 121.634 7.23712   8
  -6  -6  -3 90.7269 4.64226  17
   6   6   3 91.4095 4.96175  15
  -6   7   3 92.0013 3.84772  13
   5  -7  -3 294.585 7.82039  18
  -5   7   3 278.218 9.00306  13
  -5   7   3 282.500 7.26286  18
   4  -7  -3 57.4793 4.60160  18
   4  -7  -3 54.9299 5.69854  10
  -4   7   3 53.4309 5.00357  13
  -4   7   3 58.0544 4.53410  18
   3  -7  -3 240.793 8.86386  16
   3  -7  -3 251.291 10.1228  10
   3  -7  -3 232.313 8.22943  18
  -3   7   3 243.427 9.34123  13
  -3   7   3 255.568 8.93794  18
   2  -7  -3 898.351 24.3533   2
   2  -7  -3 935.931 25.0630   1
   2  -7  -3 948.599 22.7146  10
  -2   7   3 956.207 21.3482   8
   1  -7  -3 549.499 12.2943  11
   1  -7  -3 524.584 16.8557   1
   1  -7  -3 554.216 14.6387  10
   1  -7  -3 524.413 15.0717   5
  -1   7   3 544.042 14.6953   8
   0  -7  -3 554.333 17.0219   1
   0  -7  -3 573.806 14.9873   5
   0  -7  -3 563.731 12.7279  11
   0  -7  -3 579.650 14.6343  10
   0  -7  -3 557.485 16.5939   4
   0   7   3 562.662 13.8098   7
   0   7   3 584.468 15.2393   8
  -1  -7  -3 538.818 14.6731   5
  -1  -7  -3 540.948 16.3740   9
  -1  -7  -3 529.353 16.6818   1
  -1  -7  -3 519.668 12.4378  11
  -1  -7  -3 519.267 13.9686  10
  -1  -7  -3 516.104 16.3047   4
   1   7   3 517.400 13.2302   7
   1   7   3 560.648 14.8701   8
  -2  -7  -3 20.6234 4.77397   9
  -2  -7  -3 18.4089 4.24348   1
  -2  -7  -3 19.9371 4.36332   6
  -2  -7  -3 18.9884 3.13126  11
  -2  -7  -3 16.9210 3.44001  10
   2   7   3 14.3250 3.60854   8
   2   7   3 14.2214 3.36857   7
  -3  -7  -3 133.091 7.39727  16
  -3  -7  -3 128.536 9.14557   9
  -3  -7  -3 128.776 6.44399  11
  -3  -7  -3 134.521 6.68794  15
   3   7   3 133.463 7.53145   8
  -4  -7  -3 32.8390 5.94794   9
  -4  -7  -3 42.8758 4.33947  15
  -4  -7  -3 37.7992 4.40939  11
   4   7   3 41.1078 4.82977   8
  -5  -7  -3 67.8730 4.59291  17
  -5  -7  -3 61.1098 5.05243  11
  -5  -7  -3 59.9157 4.60100  15
  -6  -7  -3 29.7719 2.45656  17
   6   7   3 25.6101 2.62308  15
   5  -8  -3 13.3872 1.81425  18
  -5   8   3 13.3026 2.74334  13
   4  -8  -3 41.6708 3.48869  18
   4  -8  -3 45.8748 4.84865  10
  -4   8   3 41.3795 4.32131  13
  -4   8   3 32.1118 3.75982  18
   3  -8  -3 49.5495 3.93982  18
   3  -8  -3 45.3941 4.41231  16
   3  -8  -3 33.6429 4.60376  10
  -3   8   3 41.1182 4.54311  13
   2  -8  -3 35.2236 4.27429  16
   2  -8  -3 31.7489 6.14959   1
   2  -8  -3 39.6983 3.69507  18
   2  -8  -3 38.7520 4.60087  10
   1  -8  -3 96.5673 8.36018   1
   1  -8  -3 116.686 6.36095  10
   1  -8  -3 115.390 5.53974  11
  -1   8   3 110.393 6.33001   8
   0  -8  -3 61.2638 4.87439  10
   0  -8  -3 71.3062 7.15623   1
   0  -8  -3 69.4272 4.59230  11
   0   8   3 71.2071 5.55033   8
  -1  -8  -3 1.24928 2.41677  11
  -1  -8  -3 -5.3711 2.67436   1
   1   8   3 3.51373 2.85385   8
  -2  -8  -3 217.015 10.9159   1
  -2  -8  -3 206.971 8.24997  16
  -2  -8  -3 225.002 5.74407  18
  -2  -8  -3 211.748 10.9969   9
  -2  -8  -3 239.570 8.25280  11
   2   8   3 222.114 9.09347   8
   2   8   3 220.682 8.22037  14
  -3  -8  -3 421.623 11.6612  11
  -3  -8  -3 424.871 12.2725  16
  -3  -8  -3 395.005 15.7718   9
   3   8   3 394.845 12.8489   8
   3   8   3 411.269 11.3822  14
  -4  -8  -3 300.468 9.47266  11
   4   8   3 270.975 9.63584   8
  -5   9   3 107.796 4.20208  13
   4  -9  -3 256.970 7.79472  16
   4  -9  -3 264.061 6.56241  18
  -4   9   3 266.036 8.26192  13
  -4   9   3 264.848 6.78402  18
   3  -9  -3 3.66163 3.04864  10
   3  -9  -3 0.59582 2.61730  16
   3  -9  -3 1.12799 2.17713  18
  -3   9   3 -5.7080 2.56162  18
  -3   9   3 6.05617 2.94283  13
   2  -9  -3 187.407 6.32982  18
   2  -9  -3 179.761 8.02073  10
   2  -9  -3 176.017 7.44333  16
   1  -9  -3 138.829 9.32288   1
   1  -9  -3 139.861 6.70155  14
   1  -9  -3 125.303 6.56109  16
   1  -9  -3 137.121 7.03720  10
   1  -9  -3 144.807 5.60853  18
   1  -9  -3 145.982 5.97497  11
   0  -9  -3 54.6138 6.82785   1
   0  -9  -3 76.6104 5.16208  14
   0  -9  -3 70.2059 4.60106  11
   0  -9  -3 61.6305 3.76924  18
   0  -9  -3 65.5816 4.81632  16
   0   9   3 62.2460 5.47474   8
  -1  -9  -3 17.3897 3.08374  11
  -1  -9  -3 14.8314 4.13156   1
  -1  -9  -3 16.4634 2.30289  18
  -1  -9  -3 16.4060 3.40795  16
   1   9   3 18.7210 3.99077  14
   1   9   3 18.0265 3.62688   8
  -2  -9  -3 13.7368 3.21115  11
  -2  -9  -3 9.74115 3.16914  16
   2   9   3 13.0783 3.57689  14
   2   9   3 12.8979 3.58100   8
  -3  -9  -3 222.369 8.04128  16
  -3  -9  -3 230.020 8.02186  11
   3   9   3 211.470 8.39658   8
   3   9   3 220.514 7.93561  14
  -4  -9  -3 41.0238 3.94609  11
   5   9   3 18.8308 2.47553  18
  -4  10   3 47.7870 3.40027  13
   3 -10  -3 198.202 5.31105  18
   3 -10  -3 189.094 6.86193  16
  -3  10   3 198.720 6.16407  18
  -3  10   3 204.418 6.95049  13
   2 -10  -3 59.0551 3.58873  18
   2 -10  -3 58.1076 4.62825  16
  -2  10   3 50.3702 4.35807  18
   1 -10  -3 44.6503 3.89168  11
   1 -10  -3 42.2610 4.28658  16
   1 -10  -3 37.0510 3.01902  18
  -1  10   3 40.8053 4.40693  18
  -1  10   3 45.1525 4.69193  14
   0 -10  -3 92.3399 5.24265  11
   0 -10  -3 95.9573 3.95199  18
   0 -10  -3 96.4486 5.76134  16
   0  10   3 90.6647 6.06722  14
  -1 -10  -3 82.8816 5.04038  11
  -1 -10  -3 82.8229 5.31568  16
   1  10   3 82.8725 5.97283  14
  -2 -10  -3 181.562 6.98441  11
  -2 -10  -3 179.174 7.13348  16
   2  10   3 187.578 7.35969  14
  -3 -10  -3 411.570 10.4312  16
   3  10   3 408.169 10.5124  14
   4  10   3 324.586 8.29519  18
   3 -11  -3 57.4618 3.46198  16
   2 -11  -3 0.61493 2.09224  16
  -2  11   3 0.40438 1.83285  18
   1 -11  -3 79.2405 4.87168  16
  -1  11   3 84.9802 4.52424  18
   0 -11  -3 31.0832 3.68954  16
   0 -11  -3 34.2442 3.50583  11
   0  11   3 32.8606 3.51505  18
   0  11   3 34.7130 3.92825  14
  -1 -11  -3 143.461 6.09796  16
  -1 -11  -3 145.594 5.94023  11
   1  11   3 140.675 5.81411  18
   1  11   3 131.588 6.11021  14
  -2 -11  -3 228.445 7.28000  16
  -2 -11  -3 226.382 7.08887  11
   2  11   3 246.367 7.45582  14
   2  11   3 237.331 7.21180  18
   3  11   3 43.2436 3.13002  18
   3  11   3 45.3916 3.27430  14
   1 -12  -3 10.6612 2.30842  16
  -1  12   3 20.3290 1.95239  18
   0 -12  -3 4.25238 2.06712  16
   0  12   3 4.74819 1.84931  18
   0  12   3 3.82275 2.16793  14
  -1 -12  -3 -0.2130 1.95132  16
   1  12   3 3.28242 2.13516  14
   1  12   3 5.39879 1.80974  18
  -2 -12  -3 0.83075 1.73857  16
   2  12   3 0.68982 1.41025  18
   2  12   3 -1.5849 1.73456  14
   2  10  -4 51.9030 3.35187  14
  -2 -10   4 42.1900 2.67471  18
   1  10  -4 156.901 5.46034  14
  -1 -10   4 156.782 5.25256  18
   0 -10   4 68.1902 3.86335  18
   1 -10   4 5.97698 2.19852  18
   2 -10   4 117.730 4.42087  18
   3   9  -4 83.7945 4.35946  14
  -3  -9   4 95.0919 4.03763  17
  -3  -9   4 87.0147 3.73461  18
   2   9  -4 75.9121 4.70284  14
  -2  -9   4 84.6018 4.34781  18
  -2  -9   4 84.8888 4.40572  17
   1   9  -4 202.676 7.19129  14
  -1  -9   4 203.733 6.83572  11
   0  -9   4 77.9438 4.63828  11
   1  -9   4 197.100 6.93257  11
  -2   9  -4 312.571 8.74937  13
   2  -9   4 318.459 8.69616  16
   2  -9   4 301.794 8.60233  11
  -3   9  -4 34.9796 3.01316  13
  -3   9  -4 32.5335 3.08383  19
   3  -9   4 35.8604 3.21894  16
   4   8  -4 0.50970 2.08836  14
  -4  -8   4 4.97932 1.74056  18
  -4  -8   4 3.42177 1.86699  17
   3   8  -4 7.90038 2.80087  14
  -3  -8   4 5.62256 2.36656  17
  -3  -8   4 13.1414 2.80180  18
   2   8  -4 15.0963 3.22735  14
  -2  -8   4 8.71549 2.78130  17
   1   8  -4 42.0585 3.98132  17
   1   8  -4 41.6618 4.21027  14
  -1  -8   4 41.9559 3.95686  11
   0   8  -4 141.693 6.61209  14
   0   8  -4 155.278 6.48875  17
   0  -8   4 146.273 7.30496   8
   0  -8   4 144.367 6.34295  11
  -1   8  -4 95.7686 5.64806  13
   1  -8   4 81.2226 6.11672   8
   1  -8   4 93.6041 5.31686  11
  -2   8  -4 213.224 7.80433  13
   2  -8   4 220.253 7.67112  11
   2  -8   4 208.897 7.85623  16
   2  -8   4 194.268 8.52909   8
  -3   8  -4 199.768 7.17920  19
  -3   8  -4 212.962 7.45980  13
   3  -8   4 209.394 7.15084  11
   3  -8   4 208.399 7.55867  16
  -4   8  -4 56.6745 3.72197  13
  -4   8  -4 53.6134 3.46480  19
   4  -8   4 54.3920 3.99166  16
  -5  -7   4 54.9349 3.24108  17
   4   7  -4 154.694 6.28832  14
  -4  -7   4 149.131 5.56891  18
  -4  -7   4 145.530 5.89476  12
  -4  -7   4 145.984 5.71622  17
   3   7  -4 96.0667 5.79179  14
  -3  -7   4 101.291 5.79028  18
  -3  -7   4 99.7807 5.53043  12
  -3  -7   4 96.1884 5.35240  17
   2   7  -4 9.91475 3.17146  14
   2   7  -4 10.8851 2.76368  17
   2   7  -4 3.24420 1.63579  18
  -2  -7   4 7.95475 3.15575   8
  -2  -7   4 8.69689 3.08772  12
   1   7  -4 110.923 6.08134  12
   1   7  -4 113.285 5.77595  17
   1   7  -4 102.526 6.21707  14
  -1  -7   4 110.785 6.53662   8
  -1  -7   4 99.8679 8.74514   1
  -1  -7   4 100.460 5.30375  11
   0   7  -4 53.7753 4.64342  14
   0   7  -4 55.1788 4.38356  17
   0   7  -4 51.7462 4.55727  12
   0  -7   4 50.9322 5.46942   8
   0  -7   4 50.4744 4.34348  11
   0  -7   4 54.3515 6.69110   1
  -1   7  -4 52.1158 4.48975  13
  -1   7  -4 44.5619 4.37002  17
   1  -7   4 48.9421 4.52920  11
   1  -7   4 51.4391 5.43798   8
  -2   7  -4 192.912 7.68264  13
  -2   7  -4 185.989 7.48195  19
   2  -7   4 178.893 8.70412   8
   2  -7   4 177.503 7.60079  16
   2  -7   4 184.425 7.52202  11
  -3   7  -4 0.52818 2.53368  19
  -3   7  -4 5.59473 2.70652  13
   3  -7   4 4.48130 3.42429   8
   3  -7   4 0.26555 2.72806  16
   3  -7   4 3.44618 2.75954  11
  -4   7  -4 16.4284 2.85827  13
  -4   7  -4 24.6259 3.31973  19
   4  -7   4 19.3800 3.36434  16
   4  -7   4 15.9074 2.95086  11
  -5   7  -4 -3.8213 1.50887  13
  -5   7  -4 0.75098 1.50151  19
   5  -7   4 -0.7361 1.93005  16
  -5  -6   4 51.2099 3.69262  17
  -5  -6   4 40.6397 3.62678  12
  -5  -6   4 45.8592 3.31437  18
   4   6  -4 53.7740 3.13397  18
   4   6  -4 60.9547 4.69550  14
  -4  -6   4 65.0916 5.04628  18
  -4  -6   4 45.6069 4.26277  12
  -4  -6   4 55.6824 4.63221  17
   3   6  -4 71.7681 5.19907  14
   3   6  -4 79.5060 3.99365  18
  -3  -6   4 82.1126 5.41625  12
  -3  -6   4 77.8192 5.17375  17
   2   6  -4 351.761 8.48245  18
   2   6  -4 341.557 10.7402  14
   2   6  -4 348.039 10.2047  17
  -2  -6   4 367.471 14.6198   1
  -2  -6   4 350.905 11.5549   8
  -2  -6   4 362.324 10.4863  12
   1   6  -4 158.114 6.62620  12
  -1  -6   4 161.477 6.34756  11
  -1  -6   4 152.241 9.37989   1
  -1  -6   4 165.131 7.86438   8
   0   6  -4 451.921 11.7575  12
   0  -6   4 449.210 15.6022   1
   0  -6   4 418.103 12.0768   7
   0  -6   4 441.217 13.5628   8
   0  -6   4 432.149 15.0632   2
   0  -6   4 436.342 11.1390  11
  -1   6  -4 445.081 11.9783  12
   1  -6   4 453.826 15.3515   1
   1  -6   4 429.938 12.5160   7
   1  -6   4 472.750 14.3544   8
   1  -6   4 455.157 11.8999  11
   1  -6   4 439.809 15.6458   2
  -2   6  -4 246.105 8.58900  19
  -2   6  -4 256.392 8.96956  12
  -2   6  -4 246.007 8.78133  17
  -2   6  -4 256.072 9.27424  16
  -2   6  -4 253.773 8.81711  13
   2  -6   4 257.369 11.1323   8
   2  -6   4 250.396 9.05327  11
  -3   6  -4 331.202 10.5544  17
  -3   6  -4 338.263 11.0302  12
  -3   6  -4 339.803 11.2523  16
  -3   6  -4 336.626 10.4565  19
  -3   6  -4 348.519 10.8297  13
   3  -6   4 338.436 10.7756  11
   3  -6   4 330.450 13.1572   8
  -4   6  -4 214.417 8.08721  13
  -4   6  -4 212.483 8.74667  16
  -4   6  -4 217.408 8.14963  19
   4  -6   4 211.642 8.19733  11
   4  -6   4 192.309 9.80733   8
  -5   6  -4 137.145 5.80203  19
  -5   6  -4 143.302 5.69674  13
  -6  -5   4 111.836 4.39586  17
  -5  -5   4 59.4334 4.86658  12
  -5  -5   4 57.8614 4.58705  17
  -5  -5   4 56.5370 4.62208  18
   4   5  -4 -3.0563 2.76950  14
   4   5  -4 1.83477 2.11288  18
  -4  -5   4 0.72369 2.87827  12
  -4  -5   4 -1.4186 2.78816  17
  -4  -5   4 -1.6987 4.75734   9
  -4  -5   4 4.05235 3.75002  18
   3   5  -4 258.955 7.39932  18
   3   5  -4 243.564 8.87303  14
  -3  -5   4 250.435 9.63090   8
  -3  -5   4 254.563 12.3632   1
  -3  -5   4 262.841 12.4764   9
  -3  -5   4 278.746 9.35604  12
  -3  -5   4 247.701 8.86357  17
  -2  -5   4 15.7880 3.92004   8
  -2  -5   4 18.9656 3.24506  12
  -2  -5   4 18.0178 4.60142   1
   1   5  -4 5.02132 2.43892  12
  -1  -5   4 -3.7137 2.62993   1
  -1  -5   4 6.42617 3.24165   2
  -1  -5   4 7.37522 3.34528   3
  -1  -5   4 2.23244 3.08874   4
  -1  -5   4 5.05564 2.92926   8
  -1  -5   4 -0.4856 2.16376   7
  -1  -5   4 4.42856 2.35999  11
  -1  -5   4 5.94558 3.29874   6
   0   5  -4 209.427 7.43566  12
   0  -5   4 204.205 9.47544   2
   0  -5   4 191.852 9.67134   1
   0  -5   4 214.514 7.05133  11
   0  -5   4 216.452 9.49330   6
   0  -5   4 210.043 7.45625   7
   0  -5   4 192.015 8.94408   3
   0  -5   4 210.568 8.52155   8
  -1   5  -4 3.63755 2.70811  12
   1  -5   4 -3.0985 2.72491   1
   1  -5   4 0.14917 2.83700   2
   1  -5   4 4.58140 3.05158   3
   1  -5   4 2.22588 3.50871   6
   1  -5   4 3.42795 3.19922   8
   1  -5   4 5.62642 2.76739  11
   1  -5   4 0.64145 2.47325   7
  -2   5  -4 419.775 12.1156  12
  -2   5  -4 409.861 11.3897  11
   2  -5   4 395.026 14.5756   2
   2  -5   4 424.053 13.9169   8
   2  -5   4 393.077 12.0994   7
  -3   5  -4 203.180 8.67393  19
  -3   5  -4 206.489 8.15760  11
  -3   5  -4 213.483 8.60287  17
  -3   5  -4 213.091 9.26943  12
  -3   5  -4 205.905 8.25024  13
  -3   5  -4 207.964 8.98643  16
   3  -5   4 206.292 9.85013   8
  -4   5  -4 127.117 7.24130  19
  -4   5  -4 120.316 7.75609  12
  -4   5  -4 130.175 7.51620  16
  -4   5  -4 123.115 6.71580  13
  -4   5  -4 123.018 6.72489  11
  -4   5  -4 127.992 6.88642  17
   4  -5   4 125.113 8.35936   8
  -5   5  -4 197.642 7.13840  13
  -5   5  -4 167.612 7.58543  19
  -5   5  -4 190.526 7.93215  16
  -5   5  -4 179.358 8.15234  12
   5  -5   4 197.338 7.60329  11
  -6   5  -4 7.32119 1.93871  19
   6  -5   4 6.39682 2.11929  16
  -6  -4   4 11.0088 2.72306  17
   5   4  -4 -0.8109 1.98532  18
  -5  -4   4 3.56877 3.15358  12
  -5  -4   4 -4.1784 2.74789  17
  -5  -4   4 4.15728 3.58545  18
   4   4  -4 28.0774 3.21133  18
  -4  -4   4 30.5084 4.66211  12
  -4  -4   4 33.3002 4.56389  17
  -4  -4   4 31.0034 6.25854   9
  -3  -4   4 27.0963 4.32402   8
  -3  -4   4 24.2376 3.94068  12
  -3  -4   4 28.3729 5.42957   1
  -3  -4   4 30.7016 5.57465   9
   2   4  -4 304.679 9.63839  12
  -2  -4   4 322.795 11.7447   9
  -2  -4   4 323.710 12.2857   6
  -2  -4   4 330.620 10.2821   7
  -2  -4   4 315.801 12.0863   4
  -2  -4   4 319.645 12.2978   1
  -2  -4   4 313.037 11.0131   8
   1   4  -4 27.8787 4.07666   2
  -1  -4   4 27.4394 3.92066   8
  -1  -4   4 23.6692 4.13729   6
  -1  -4   4 29.5290 3.16246  11
  -1  -4   4 25.8154 4.00795   4
  -1  -4   4 28.1536 3.89232   3
  -1  -4   4 23.0200 3.98486   1
  -1  -4   4 21.5917 3.09284   7
   0  -4   4 73.3273 6.22447   1
   0  -4   4 76.0308 6.18117   6
   0  -4   4 80.9417 4.80068  11
   0  -4   4 76.6255 5.75484   8
   0  -4   4 82.3232 4.64893   7
   0  -4   4 74.3707 6.22290   2
   0  -4   4 86.3558 6.08862   3
   0  -4   4 81.2509 5.25859   4
  -1   4  -4 106.193 5.38385  11
   1  -4   4 102.367 7.14568   6
   1  -4   4 113.347 6.79102   1
   1  -4   4 107.488 6.54744   3
   1  -4   4 93.0967 6.46969   2
   1  -4   4 98.7914 5.14069   7
  -2   4  -4 68.1026 5.21298  12
  -2   4  -4 68.5576 4.42761  11
   2  -4   4 70.9518 6.71566   2
   2  -4   4 66.9252 6.16342   6
   2  -4   4 63.1717 4.33378   7
   2  -4   4 65.3268 6.03859   3
  -3   4  -4 209.314 7.68106  11
  -3   4  -4 227.942 9.08247  12
   3  -4   4 225.104 9.52481   8
   3  -4   4 206.660 10.9958   2
   3  -4   4 211.664 8.23688   7
  -4   4  -4 28.0360 4.53349  12
  -4   4  -4 35.4844 4.25593  17
  -4   4  -4 35.0153 4.53403  16
  -4   4  -4 24.8278 3.85159  19
  -4   4  -4 39.0228 4.45283  13
  -4   4  -4 27.3044 3.75802  11
   4  -4   4 25.3272 4.31189  10
   4  -4   4 29.2367 4.94666   8
  -5   4  -4 4.89582 3.07313  13
  -5   4  -4 0.23305 3.33042  16
  -5   4  -4 1.21064 2.72491  17
  -5   4  -4 2.60414 3.38088  12
  -5   4  -4 0.17980 2.69499  19
  -5   4  -4 0.47356 2.93126  11
   5  -4   4 -0.3482 3.62512   8
   5  -4   4 0.95003 3.39607  10
  -6   4  -4 44.7595 3.95823  19
  -6   4  -4 44.3310 3.92562  16
   6   3  -4 34.3415 3.59041  15
  -6  -3   4 30.5596 2.71286  18
  -6  -3   4 29.4009 4.22381  12
  -6  -3   4 27.2812 3.47093  17
   5   3  -4 388.660 9.79475  18
   5   3  -4 383.998 11.7580  15
  -5  -3   4 377.990 12.1281  12
  -5  -3   4 391.735 11.3750  17
  -5  -3   4 380.119 11.5972  18
   4   3  -4 107.128 5.16649  18
  -4  -3   4 130.667 6.98605   8
  -4  -3   4 125.935 6.90002  17
  -4  -3   4 119.392 6.94868  12
  -4  -3   4 105.322 9.26545   9
  -3  -3   4 1172.72 27.2971   1
  -3  -3   4 1077.08 23.5690  12
  -3  -3   4 1069.65 26.9041   4
  -3  -3   4 1182.47 26.4871   6
  -3  -3   4 1088.29 27.0403   9
  -3  -3   4 1085.80 25.8392   8
   2   3  -4 1696.10 34.1297   2
   2   3  -4 1728.80 33.0190   3
  -2  -3   4 1648.35 35.2532   8
  -2  -3   4 1719.70 35.6384   1
  -2  -3   4 1683.08 32.0101   7
  -2  -3   4 1741.99 35.3372   9
  -2  -3   4 1717.66 34.6472   6
  -2  -3   4 1670.10 34.8842   4
   1   3  -4 429.770 11.9242   3
   1   3  -4 430.078 12.2521   2
  -1  -3   4 420.900 12.3019   6
  -1  -3   4 415.180 11.9396   8
  -1  -3   4 418.325 12.5063   1
  -1  -3   4 410.820 10.3154   7
  -1  -3   4 409.170 11.3544   9
  -1  -3   4 433.335 12.1513   4
   0   3  -4 702.487 17.4314   2
   0  -3   4 706.211 16.0538   4
   0  -3   4 714.888 17.3750   6
   0  -3   4 727.915 14.6503   7
   0  -3   4 715.023 17.3705   1
   0  -3   4 691.309 16.9427   3
  -1   3  -4 692.519 14.3832  11
   1  -3   4 745.866 17.6633   1
   1  -3   4 712.352 18.2682   2
   1  -3   4 748.788 17.5181   6
   1  -3   4 736.872 18.0499   3
   1  -3   4 751.021 14.3342   7
  -2   3  -4 790.500 15.9132  11
   2  -3   4 793.999 20.5054   2
   2  -3   4 797.441 19.8941   3
   2  -3   4 794.193 18.8065   6
   2  -3   4 779.700 15.7417   7
  -3   3  -4 761.616 17.4762  12
  -3   3  -4 793.155 16.2996  11
   3  -3   4 799.894 18.4517  10
   3  -3   4 754.351 18.0787   5
   3  -3   4 737.605 16.4797   7
   3  -3   4 739.976 21.8800   2
   3  -3   4 742.567 21.3638   3
  -4   3  -4 8.29213 2.79538  17
  -4   3  -4 14.1143 3.03704  19
  -4   3  -4 8.86622 3.35906  16
  -4   3  -4 12.8084 3.36413  12
  -4   3  -4 13.9898 3.04268  11
  -4   3  -4 12.8721 3.56957  13
   4  -3   4 6.21917 3.48019   8
   4  -3   4 10.3338 3.28606  10
  -5   3  -4 50.1548 5.13699  16
  -5   3  -4 53.1857 4.80928  19
  -5   3  -4 40.9582 4.23511  17
  -5   3  -4 53.5449 4.66856  11
  -5   3  -4 41.6611 4.90919  12
   5  -3   4 53.0008 5.99363   8
   5  -3   4 51.7725 5.37510  10
  -6   3  -4 1.41380 2.98209  16
  -6   3  -4 4.20543 2.57748  17
  -6   3  -4 6.80233 3.25748  12
  -6   3  -4 5.24141 2.64753  19
   6   2  -4 78.5232 5.43872  15
   6   2  -4 79.3031 3.64201  18
  -6  -2   4 79.6741 4.27802  18
  -6  -2   4 79.8637 4.79470  17
  -6  -2   4 85.9865 5.71384  12
   5   2  -4 43.6151 5.14700  15
   5   2  -4 50.7698 3.92415  18
  -5  -2   4 46.0658 7.07584   9
  -5  -2   4 53.3375 4.91434  18
  -5  -2   4 54.6843 5.18155  12
  -5  -2   4 49.6620 4.35227  17
   4   2  -4 31.4630 3.43062  18
  -4  -2   4 34.5291 5.80229   9
  -4  -2   4 37.1603 4.20309  12
  -4  -2   4 35.9088 4.60111   8
  -4  -2   4 35.9397 4.06624  17
   3   2  -4 30.6502 4.13268   2
  -3  -2   4 43.3071 4.33631   7
  -3  -2   4 44.5486 4.79349   6
  -3  -2   4 37.9898 5.26140   9
  -3  -2   4 48.5031 5.57167   4
  -3  -2   4 48.3098 5.35431   1
  -3  -2   4 39.6078 4.60839   8
  -3  -2   4 38.9697 3.87391  12
   2   2  -4 9.16535 2.62498   2
   2   2  -4 8.01465 2.21987   3
  -2  -2   4 15.4784 3.30934   6
  -2  -2   4 10.8082 2.98234   4
  -2  -2   4 7.82881 2.78303   1
  -2  -2   4 10.8126 3.04354   9
  -2  -2   4 12.6277 2.66865   7
  -2  -2   4 10.8569 3.08558   8
   1   2  -4 199.111 7.24769   3
   1   2  -4 208.529 7.46746   2
  -1  -2   4 210.238 7.69069   1
  -1  -2   4 194.493 7.13306   9
  -1  -2   4 216.967 6.70064   7
  -1  -2   4 209.550 7.32288   4
  -1  -2   4 213.373 8.33408   6
   0   2  -4 2.81452 2.15726   2
   0  -2   4 5.36301 2.76362   6
   0  -2   4 6.38269 2.21584   1
   0  -2   4 2.66622 1.58281   7
   0  -2   4 1.40681 1.77817   4
   1  -2   4 464.691 8.80974   7
   1  -2   4 465.080 12.8582   3
   1  -2   4 472.067 12.0090   6
   1  -2   4 468.557 9.66443   5
   1  -2   4 484.003 13.4036   2
   1  -2   4 470.300 11.9135   1
  -2   2  -4 546.262 11.8638  11
   2  -2   4 585.279 16.1810   2
   2  -2   4 571.420 11.1851   7
   2  -2   4 562.783 13.1357  10
   2  -2   4 569.566 15.3789   3
   2  -2   4 569.436 12.7153   5
  -3   2  -4 249.092 8.31652  12
  -3   2  -4 270.984 7.83486  11
  -3   2  -4 281.361 10.3059   6
   3  -2   4 269.658 7.60729   7
   3  -2   4 268.775 8.65401  10
   3  -2   4 260.094 9.15292   5
   3  -2   4 259.326 11.1042   3
   3  -2   4 259.735 11.4765   2
  -4   2  -4 199.088 8.02770  12
  -4   2  -4 211.100 7.29112  11
   4  -2   4 217.699 8.56960  10
   4  -2   4 210.994 7.82265   7
  -5   2  -4 10.5701 3.52343  16
  -5   2  -4 15.0899 3.67968  12
  -5   2  -4 18.2617 3.34329  11
  -5   2  -4 18.1441 3.22459  19
  -5   2  -4 8.40752 2.92068  17
   5  -2   4 10.7827 3.67831  10
   5  -2   4 14.9409 4.09657   8
  -6   2  -4 160.345 6.57560  17
  -6   2  -4 167.996 6.72082  19
  -6   2  -4 160.168 7.36334  12
  -6   2  -4 171.640 7.15792  16
   6   1  -4 10.1604 2.36326  18
   6   1  -4 1.35993 2.90981  15
  -6  -1   4 11.6100 3.12163  12
  -6  -1   4 10.3351 2.53753  18
   5   1  -4 418.975 12.9960  15
   5   1  -4 411.161 10.4654  18
  -5  -1   4 411.959 11.9151  12
  -5  -1   4 390.164 16.2453   9
  -5  -1   4 417.758 10.9773  17
  -5  -1   4 410.652 11.5173  18
  -4  -1   4 796.157 17.9530  12
  -4  -1   4 802.227 22.8547   9
  -4  -1   4 828.922 19.6117   8
   3   1  -4 263.923 9.60379   2
   3   1  -4 243.583 9.00133   3
  -3  -1   4 246.540 9.95406   4
  -3  -1   4 261.801 8.82662   8
  -3  -1   4 243.901 10.2905   9
  -3  -1   4 248.803 7.84611  12
  -3  -1   4 276.445 9.85271   1
   2   1  -4 502.635 12.5256   3
   2   1  -4 494.979 12.9274   2
  -2  -1   4 486.628 11.0275   7
  -2  -1   4 482.671 12.9200   1
  -2  -1   4 495.322 11.8238   6
  -2  -1   4 473.325 12.5074   8
  -2  -1   4 504.499 13.5846   9
  -2  -1   4 505.534 13.3561   4
   1   1  -4 49.2468 4.03918   1
   1   1  -4 51.2153 4.07594   2
   1   1  -4 62.3357 4.14716   3
  -1  -1   4 54.3449 3.72275   4
  -1  -1   4 61.8104 3.72850   7
  -1  -1   4 54.7665 4.60666   6
  -1  -1   4 55.6225 4.07204   9
   0   1  -4 140.000 5.50973   3
   0   1  -4 132.356 5.36541   1
   0   1  -4 133.944 5.77078   2
   0  -1   4 137.069 4.95343   4
   0  -1   4 138.970 3.09425   5
   0  -1   4 125.025 5.32710   6
   1  -1   4 621.427 12.1508   4
   1  -1   4 621.811 14.5810   3
   1  -1   4 627.375 15.0926   2
   1  -1   4 614.113 13.4903   1
   1  -1   4 610.252 13.4591   6
   1  -1   4 615.995 11.7406   5
  -2   1  -4 0.32654 1.72336  10
  -2   1  -4 -1.1545 1.96994   6
   2  -1   4 2.33145 1.79285   5
   2  -1   4 2.89835 1.08536   7
   2  -1   4 2.55825 2.71789   3
   2  -1   4 1.11001 2.68647   2
  -3   1  -4 180.411 6.85620  12
  -3   1  -4 190.789 8.06881   6
  -3   1  -4 195.270 6.29216  11
   3  -1   4 209.840 8.93629   3
   3  -1   4 199.483 5.91526   7
   3  -1   4 195.687 7.62520   5
   3  -1   4 201.703 7.14278  10
   3  -1   4 189.231 9.12598   2
  -4   1  -4 3.15017 2.53646  12
  -4   1  -4 2.06483 2.11125  11
   4  -1   4 1.74338 2.24223   7
   4  -1   4 3.31020 2.51476  10
  -5   1  -4 14.0093 3.49562  12
  -5   1  -4 6.84955 2.74890  17
  -5   1  -4 12.4427 3.01333  11
  -5   1  -4 11.5349 2.57559  19
  -5   1  -4 9.78000 3.20908  16
   5  -1   4 6.23845 3.46870   8
   5  -1   4 5.28965 3.21722  10
  -6   1  -4 52.4271 4.77178  16
  -6   1  -4 51.4879 4.80046  12
  -6   1  -4 49.7306 4.27646  17
  -6   1  -4 52.9166 4.30898  19
  -7   1  -4 -0.5479 1.65165  19
   7   0  -4 19.0780 2.73765  15
   6   0  -4 47.5047 4.71938  15
   6   0  -4 54.6656 3.62801  18
  -6   0   4 50.9322 3.68152  18
  -6   0   4 59.4938 4.43731  12
   5   0  -4 21.0598 2.92017  18
   5   0  -4 21.9802 4.09414  15
  -5   0   4 18.5794 5.74971   9
  -5   0   4 17.8416 3.25669  12
  -5   0   4 17.3620 3.39421  18
   4   0  -4 132.026 7.71595   2
  -4   0   4 129.860 8.78544   9
  -4   0   4 136.375 6.06885  12
  -4   0   4 130.845 6.80053   8
   3   0  -4 626.094 15.9459   3
   3   0  -4 605.062 16.1290   2
  -3   0   4 648.960 16.0128   1
  -3   0   4 622.609 17.3486   9
  -3   0   4 619.304 16.2343   4
  -3   0   4 632.628 15.2000   8
   2   0  -4 107.941 5.44462   1
   2   0  -4 106.244 5.58406   2
   2   0  -4 101.002 5.12577   3
  -2   0   4 107.569 4.15918   7
  -2   0   4 105.090 4.34649   6
  -2   0   4 92.7865 5.10231   4
  -2   0   4 102.235 5.57364   9
  -2   0   4 100.469 5.16039   8
   1   0  -4 343.685 9.61405   1
   1   0  -4 345.416 9.55141   2
   1   0  -4 360.327 9.26181   3
   1   0  -4 357.232 7.14669   5
  -1   0   4 357.559 9.67459   9
  -1   0   4 369.613 7.38145   7
  -1   0   4 353.286 9.30551   4
  -1   0   4 354.235 8.57501   6
   0   0  -4 1838.92 32.4621   3
   0   0  -4 1845.94 33.5732   2
   0   0  -4 1840.48 28.8616   5
   0   0  -4 1842.62 33.7056   1
   0   0   4 1819.04 31.2026   6
   0   0   4 1875.26 32.5556   4
  -1   0  -4 1156.95 22.1431   1
  -1   0  -4 1161.90 21.5629   6
  -1   0  -4 1185.55 23.3874   2
   1   0   4 1184.41 21.2321   4
   1   0   4 1190.93 22.7383   3
   1   0   4 1178.65 20.1011   5
  -2   0  -4 338.823 8.83791  10
  -2   0  -4 330.276 9.27474   6
   2   0   4 331.659 10.3385   2
   2   0   4 335.518 8.75984   5
   2   0   4 331.321 9.91504   3
  -3   0  -4 48.9761 3.83912  10
  -3   0  -4 49.9791 3.26928  11
  -3   0  -4 47.2005 4.55215   6
   3   0   4 44.4076 2.86010   7
   3   0   4 58.9915 4.71162   5
  -4   0  -4 135.033 6.46420  12
  -4   0  -4 151.912 5.89430  11
   4   0   4 146.147 6.85097  10
   4   0   4 141.052 6.01248   7
  -5   0  -4 199.062 7.36418  11
  -5   0  -4 185.455 7.57553  16
  -5   0  -4 187.777 8.14028  12
  -5   0  -4 186.315 7.51874  17
  -5   0  -4 195.661 7.07604  19
   5   0   4 192.007 8.56954  10
   5   0   4 182.735 9.13855   8
  -6   0  -4 20.3862 3.31812  17
  -6   0  -4 18.8252 3.57219  16
  -6   0  -4 18.1844 3.59333  12
  -6   0  -4 25.3547 3.31224  19
  -7   0  -4 148.735 5.08730  19
  -7   0  -4 165.029 5.31613  17
   7  -1  -4 69.1012 4.11593  15
   6  -1  -4 27.9774 3.09839  18
   6  -1  -4 28.9336 4.00097  15
  -6   1   4 31.9870 3.09977  18
   5  -1  -4 12.7902 2.76004  18
   5  -1  -4 11.9658 3.33119  15
  -5   1   4 20.1166 6.13831   9
  -5   1   4 9.59745 2.94230  18
  -5   1   4 6.75474 2.79505  12
   4  -1  -4 370.164 13.3158   2
  -4   1   4 405.361 10.7484  12
  -4   1   4 403.351 14.7772   9
  -4   1   4 397.746 11.6420   8
   3  -1  -4 83.2745 5.97173   5
   3  -1  -4 74.3961 5.45736   2
   3  -1  -4 74.0911 5.12295   3
   3  -1  -4 80.8118 5.23657   1
  -3   1   4 85.7612 4.75403   7
  -3   1   4 74.3428 5.28139   4
  -3   1   4 74.6182 6.39614   9
  -3   1   4 90.2206 5.15904   8
   2  -1  -4 1607.83 29.3043   5
   2  -1  -4 1691.28 32.0894   2
   2  -1  -4 1623.11 31.5822   1
   2  -1  -4 1651.39 30.9431   3
  -2   1   4 1640.57 31.0992   4
  -2   1   4 1632.86 28.2265   7
  -2   1   4 1667.77 31.5927   8
  -2   1   4 1615.58 32.7814   9
   1  -1  -4 1270.93 25.3221   9
   1  -1  -4 1252.44 24.4088   2
   1  -1  -4 1261.48 21.9774   5
   1  -1  -4 1292.24 23.8562   3
   1  -1  -4 1269.54 24.6209   1
  -1   1   4 1263.02 20.8447   6
  -1   1   4 1248.84 20.7732   7
  -1   1   4 1269.68 24.1267   4
   0  -1  -4 471.341 10.3842   3
   0  -1  -4 466.028 9.36473   5
   0  -1  -4 478.938 10.8105   2
   0  -1  -4 471.175 11.3092   9
   0  -1  -4 479.128 11.0083   1
   0  -1  -4 463.424 10.5686   4
   0   1   4 462.672 9.34396   6
  -1  -1  -4 1547.28 26.8678   6
  -1  -1  -4 1532.77 29.5921   9
  -1  -1  -4 1578.21 26.1887   5
  -1  -1  -4 1571.06 28.3086   1
  -1  -1  -4 1540.97 27.7558   3
  -1  -1  -4 1546.01 28.7760   2
  -1  -1  -4 1576.91 27.6731   4
  -2  -1  -4 185.153 7.29877   9
  -2  -1  -4 181.244 6.02206  10
  -2  -1  -4 196.482 6.83175   6
  -2  -1  -4 193.669 5.64263   4
   2   1   4 208.927 6.65707   2
   2   1   4 205.081 6.39248   3
   2   1   4 186.563 6.48723   5
  -3  -1  -4 144.461 5.05597  11
  -3  -1  -4 149.949 6.12810  10
  -3  -1  -4 141.118 7.26519   9
  -3  -1  -4 162.523 7.19419   6
   3   1   4 146.470 4.86967   7
   3   1   4 148.894 6.50342   5
  -4  -1  -4 381.797 9.86246  11
  -4  -1  -4 372.066 10.8163  12
  -4  -1  -4 382.581 12.9253   6
  -4  -1  -4 379.106 11.5981  10
   4   1   4 383.624 10.3445   7
  -5  -1  -4 152.640 7.12860  15
  -5  -1  -4 155.055 6.42540  19
  -5  -1  -4 162.259 6.80748  17
  -5  -1  -4 161.644 6.56617  11
  -5  -1  -4 150.431 6.97738  16
  -5  -1  -4 152.778 7.21848  12
   5   1   4 146.896 7.66915  10
   5   1   4 175.982 8.54560   8
  -6  -1  -4 357.082 9.89493  19
  -6  -1  -4 361.156 10.0514  17
  -6  -1  -4 354.321 10.8534  12
  -6  -1  -4 353.486 10.3999  16
   6   1   4 326.457 11.7722  10
   6   1   4 363.265 10.6555  15
  -7  -1  -4 12.5851 2.26200  17
  -7  -1  -4 10.4572 1.98742  19
   7  -2  -4 27.1042 2.82407  15
   6  -2  -4 79.1597 5.48225  15
   6  -2  -4 75.6821 4.17261  18
  -6   2   4 72.0002 4.03912  18
   5  -2  -4 11.5689 3.26699  15
   5  -2  -4 11.5638 2.73158  18
  -5   2   4 20.7971 4.28348  13
  -5   2   4 12.6411 2.89106  18
  -5   2   4 13.8827 6.39018   9
   4  -2  -4 8.68715 3.48826   2
   4  -2  -4 5.33012 3.44763  10
  -4   2   4 7.15842 4.27194   9
   3  -2  -4 7.65989 2.77760   3
   3  -2  -4 0.71266 2.60744  10
   3  -2  -4 5.08338 2.62933   2
   3  -2  -4 2.14576 2.98848   5
  -3   2   4 3.78136 2.28171   8
  -3   2   4 -0.5457 2.29162   4
  -3   2   4 2.75641 2.23994   7
  -3   2   4 0.04630 2.77353   9
   2  -2  -4 277.053 8.69239   1
   2  -2  -4 262.483 8.70435  10
   2  -2  -4 281.585 9.17104   5
   2  -2  -4 278.294 8.85006   3
   2  -2  -4 277.297 9.15514   2
  -2   2   4 266.935 9.37546   9
  -2   2   4 265.715 8.02496   8
  -2   2   4 275.228 7.41385   7
  -2   2   4 272.475 8.55624   4
   1  -2  -4 30.1428 3.49271   9
   1  -2  -4 32.5487 3.17478   3
   1  -2  -4 33.2098 3.43705   1
   1  -2  -4 30.5790 3.16326   4
   1  -2  -4 32.2492 3.36530   5
   1  -2  -4 38.0947 3.52700   2
  -1   2   4 33.9589 2.25464   7
   0  -2  -4 72.2285 4.85197   9
   0  -2  -4 73.4167 3.91077   4
   0  -2  -4 72.7053 3.78486   5
   0  -2  -4 70.7287 3.60277   3
   0  -2  -4 75.8160 3.93171   2
   0  -2  -4 70.2608 4.33712   1
   0  -2  -4 70.6441 2.70360   6
  -1  -2  -4 477.628 10.3531   6
  -1  -2  -4 477.172 11.0088   1
  -1  -2  -4 486.485 10.3079   3
  -1  -2  -4 486.597 12.5513   9
  -1  -2  -4 493.865 10.7369   2
  -1  -2  -4 489.036 11.1930   4
  -1  -2  -4 466.151 10.5470   5
  -2  -2  -4 6.41120 2.11399   6
  -2  -2  -4 8.66780 1.94883   4
  -2  -2  -4 3.20352 1.84088  10
  -2  -2  -4 2.11964 2.77645   9
   2   2   4 4.43739 1.16883   7
   2   2   4 6.25465 2.26398   5
  -3  -2  -4 6.68501 1.98975  11
  -3  -2  -4 5.38942 2.35401   6
  -3  -2  -4 1.98668 1.97452  10
  -3  -2  -4 6.39310 3.33739   9
   3   2   4 6.04113 1.91529   7
   3   2   4 5.48166 2.32578   5
  -4  -2  -4 2.58881 4.18681   9
  -4  -2  -4 6.89554 2.68100  12
  -4  -2  -4 4.05238 2.69005  10
  -4  -2  -4 5.73501 2.28822  11
   4   2   4 5.29246 2.32403   7
  -5  -2  -4 201.670 8.11733  12
  -5  -2  -4 190.536 8.20819  15
  -5  -2  -4 198.347 7.28438  11
  -5  -2  -4 197.923 7.62633  17
  -5  -2  -4 176.742 7.37259  16
  -5  -2  -4 197.960 7.16650  19
   5   2   4 199.586 9.63577   8
   5   2   4 197.322 8.73946  10
  -6  -2  -4 14.4027 3.39160  16
  -6  -2  -4 14.1575 3.13336  17
  -6  -2  -4 12.1034 3.42656  12
  -6  -2  -4 12.7083 2.69864  19
   6   2   4 11.4050 3.43898  15
  -7  -2  -4 6.72218 1.90836  19
  -7  -2  -4 9.10096 2.18849  17
   7   2   4 11.5577 2.59338  15
   6  -3  -4 354.068 10.6942  15
   6  -3  -4 368.414 9.07715  18
  -6   3   4 363.775 8.63676  18
   5  -3  -4 27.8269 3.43637  18
   5  -3  -4 18.1964 3.67055  15
   5  -3  -4 21.0748 4.69493  10
  -5   3   4 19.9626 3.37424  18
  -5   3   4 22.8192 4.03625  13
   4  -3  -4 950.921 23.9524  10
   4  -3  -4 938.950 24.6998   2
  -4   3   4 953.589 26.2622   9
   3  -3  -4 1094.32 24.5323   5
   3  -3  -4 1038.22 24.5656  10
   3  -3  -4 1076.15 25.3457   2
   3  -3  -4 1058.71 24.4848   3
  -3   3   4 1082.25 21.4727   7
  -3   3   4 1101.36 25.8736   9
  -3   3   4 1061.27 23.2112   8
   2  -3  -4 1342.52 27.5735   2
   2  -3  -4 1350.09 26.9381   1
   2  -3  -4 1354.07 26.5694   5
   2  -3  -4 1274.44 27.8882  10
   2  -3  -4 1286.19 26.4586   3
  -2   3   4 1321.07 23.9499   7
  -2   3   4 1351.02 28.3957   9
  -2   3   4 1249.64 26.1353   8
  -2   3   4 1308.72 26.2076   4
   1  -3  -4 3670.51 64.5558   1
   1  -3  -4 3643.69 61.5709   3
   1  -3  -4 3619.71 63.6876   2
   1  -3  -4 3647.06 62.7400   4
   1  -3  -4 3600.37 59.3469   5
   1  -3  -4 3747.70 66.4243   9
   0  -3  -4 253.836 6.97099   2
   0  -3  -4 247.859 6.69493   3
   0  -3  -4 255.275 7.95242   1
   0  -3  -4 239.974 7.69618   5
   0  -3  -4 243.970 5.25290   6
   0  -3  -4 239.764 7.58407   4
   0  -3  -4 243.634 8.60390   9
  -1  -3  -4 586.667 12.9338   5
  -1  -3  -4 579.037 13.2692   1
  -1  -3  -4 581.872 12.0353   6
  -1  -3  -4 562.839 13.3761   4
  -1  -3  -4 570.904 14.9033   9
  -1  -3  -4 545.805 13.0493  10
  -2  -3  -4 687.811 15.9304   4
  -2  -3  -4 667.628 15.7176  10
  -2  -3  -4 692.159 15.4474   6
  -2  -3  -4 694.256 15.3647   5
  -2  -3  -4 689.060 17.9974   9
   2   3   4 699.831 13.1570   7
  -3  -3  -4 492.086 13.7661   6
  -3  -3  -4 485.484 12.9978  10
  -3  -3  -4 512.815 16.0122   9
  -3  -3  -4 475.340 10.9569  11
   3   3   4 508.118 13.4584   5
   3   3   4 493.957 11.8676   7
  -4  -3  -4 571.762 14.1332  12
  -4  -3  -4 573.722 13.1684  11
  -4  -3  -4 575.364 15.6894  10
  -4  -3  -4 588.858 19.0542   9
   4   3   4 585.330 14.5260   7
  -5  -3  -4 18.7540 3.07489  19
  -5  -3  -4 21.0398 3.85791  15
  -5  -3  -4 26.2289 3.41692  11
  -5  -3  -4 18.7165 3.48447  16
  -5  -3  -4 18.6289 3.40861  17
  -5  -3  -4 20.7517 3.85644  12
   5   3   4 20.4493 4.05538  10
   5   3   4 23.5247 4.90065   8
  -6  -3  -4 73.1313 4.99525  17
  -6  -3  -4 68.8726 4.52533  19
  -6  -3  -4 70.1434 5.34431  12
  -7  -3  -4 47.9747 3.05207  19
  -7  -3  -4 54.0881 3.51163  17
   7   3   4 50.5407 3.76845  15
   6  -4  -4 7.58295 2.29460  18
   6  -4  -4 4.62870 2.75719  15
  -6   4   4 11.9880 3.06696  13
  -6   4   4 4.90422 1.88667  18
   5  -4  -4 5.42940 3.00371  15
   5  -4  -4 0.32668 3.57707  10
   5  -4  -4 3.23523 2.61922  18
  -5   4   4 4.73130 3.30663  13
  -5   4   4 3.07264 2.58766  18
   4  -4  -4 7.09814 3.89814   2
   4  -4  -4 5.74211 2.84705  15
   4  -4  -4 7.22287 2.69965  18
   4  -4  -4 8.39752 3.92235  10
  -4   4   4 6.79612 3.24964  13
  -4   4   4 6.46884 3.09417   8
   3  -4  -4 28.5645 4.45330   3
   3  -4  -4 46.2567 5.64970   5
   3  -4  -4 27.6406 4.25439  10
   3  -4  -4 22.6939 4.20895   2
  -3   4   4 26.3496 5.02156   9
  -3   4   4 24.4725 3.88145   8
   2  -4  -4 65.6872 5.74752   5
   2  -4  -4 71.5205 5.13410   1
   2  -4  -4 64.9675 5.50624   2
   2  -4  -4 72.9656 5.50668  10
   2  -4  -4 64.6180 5.40101   3
  -2   4   4 72.5723 4.75141   8
  -2   4   4 72.4228 4.15116   7
  -2   4   4 73.4522 4.93623   4
   1  -4  -4 48.6720 5.16060   9
   1  -4  -4 44.4738 4.02728   2
   1  -4  -4 44.3713 4.33569   1
   1  -4  -4 42.0851 3.89593   4
   1  -4  -4 42.2698 3.72873  10
   1  -4  -4 49.5407 3.97234   3
   1  -4  -4 43.1617 4.46605   5
  -1   4   4 41.5186 2.91195   7
  -1   4   4 40.7283 3.35291   8
   0  -4  -4 99.4244 5.55960   1
   0  -4  -4 91.1822 6.10246   9
   0  -4  -4 90.8954 5.04263  10
   0  -4  -4 87.5587 4.97820   4
   0  -4  -4 97.6494 5.53465   5
   0  -4  -4 105.782 4.41336   3
   0  -4  -4 96.0554 4.27762   2
   0   4   4 101.680 3.63094   7
  -1  -4  -4 235.926 8.10055  10
  -1  -4  -4 251.387 8.39949   1
  -1  -4  -4 256.163 8.62443   4
  -1  -4  -4 238.408 8.39073   5
  -1  -4  -4 250.233 9.42314   9
  -1  -4  -4 247.796 7.14794   6
   1   4   4 252.346 6.16442   7
  -2  -4  -4 309.223 7.92008  11
  -2  -4  -4 332.040 10.7500   4
  -2  -4  -4 331.043 9.76660   1
  -2  -4  -4 303.144 10.0648   5
  -2  -4  -4 316.249 9.74907  10
  -2  -4  -4 331.643 9.67526   6
  -2  -4  -4 335.964 11.9857   9
   2   4   4 329.354 8.29080   7
  -3  -4  -4 582.642 12.8442  11
  -3  -4  -4 595.300 16.0442   6
  -3  -4  -4 604.805 18.3755   9
  -3  -4  -4 579.268 16.4138   4
  -3  -4  -4 626.387 15.5902  10
   3   4   4 596.338 15.9112   5
   3   4   4 571.808 14.0839   7
  -4  -4  -4 36.7822 6.23451   9
  -4  -4  -4 35.0726 4.11949  12
  -4  -4  -4 40.8910 4.77629  10
  -4  -4  -4 37.0016 3.61323  11
   4   4   4 32.4738 4.54105   7
   4   4   4 39.9323 5.72991   8
  -5  -4  -4 72.3827 4.83383  19
  -5  -4  -4 72.9420 5.63119  12
  -5  -4  -4 73.1447 4.93686  11
  -5  -4  -4 69.6958 5.00834  17
  -5  -4  -4 64.3728 4.93715  16
  -5  -4  -4 70.0608 8.57912   9
  -5  -4  -4 67.3305 5.81269  15
   5   4   4 72.2102 7.16249   8
  -6  -4  -4 84.6941 4.84083  19
  -6  -4  -4 87.6772 5.70387  12
  -6  -4  -4 76.6114 5.04793  17
   6  -5  -4 52.1340 4.12767  15
  -6   5   4 48.3549 3.77287  13
   5  -5  -4 31.0021 4.94289  10
   5  -5  -4 32.9315 4.20414  15
   5  -5  -4 28.1637 3.85774  18
  -5   5   4 35.7785 3.84736  18
  -5   5   4 35.3779 4.48206  13
   4  -5  -4 86.5570 6.92210  10
   4  -5  -4 82.3345 5.26786  18
   4  -5  -4 82.1584 5.80926  15
  -4   5   4 86.3987 5.87241  13
   3  -5  -4 759.496 21.6612   2
   3  -5  -4 769.678 20.1804  10
   3  -5  -4 752.612 20.8872   5
  -3   5   4 795.041 19.2260   8
   2  -5  -4 14.7340 4.22547   9
   2  -5  -4 20.9073 3.76756   1
   2  -5  -4 25.0878 3.72351  10
   2  -5  -4 20.4033 4.01517   5
   2  -5  -4 26.3520 4.11947   3
   2  -5  -4 13.6041 3.58644   2
  -2   5   4 14.8041 2.84131   7
  -2   5   4 19.9375 3.51259   8
   1  -5  -4 90.1510 5.32138   3
   1  -5  -4 85.5258 5.58583   2
   1  -5  -4 81.1728 4.96343  10
   1  -5  -4 81.5244 5.44237   4
   1  -5  -4 89.1687 5.82049   5
   1  -5  -4 83.3249 6.80333   9
   1  -5  -4 86.3769 5.77577   1
  -1   5   4 85.1006 4.25917   7
  -1   5   4 82.9025 5.43134   8
   0  -5  -4 62.2669 5.16864   5
   0  -5  -4 53.3096 4.13131  10
   0  -5  -4 60.6711 5.25442   1
   0  -5  -4 55.6748 4.94518   4
   0  -5  -4 54.9514 5.58592   9
   0   5   4 54.8490 3.50581   7
   0   5   4 48.2368 4.20883   8
  -1  -5  -4 44.2803 4.17261  10
  -1  -5  -4 40.7818 4.58162   4
  -1  -5  -4 37.3884 3.06035  11
  -1  -5  -4 35.5420 4.17952   1
  -1  -5  -4 49.3205 5.38352   9
  -1  -5  -4 47.6372 3.76351   6
  -1  -5  -4 46.6060 5.03627   5
   1   5   4 47.6010 3.52659   7
  -2  -5  -4 394.772 13.4636   9
  -2  -5  -4 374.070 9.43398  11
  -2  -5  -4 374.529 12.7734   4
  -2  -5  -4 392.687 12.8054   5
  -2  -5  -4 382.800 11.8867   1
  -2  -5  -4 384.209 11.9351  10
  -2  -5  -4 385.394 11.4011   6
   2   5   4 400.094 10.0168   7
  -3  -5  -4 61.8083 4.20766  11
  -3  -5  -4 43.4030 5.58827   4
  -3  -5  -4 52.5823 5.47855   6
  -3  -5  -4 56.4526 6.63230   9
  -3  -5  -4 45.3454 4.72458  10
   3   5   4 59.5845 6.43693   5
   3   5   4 54.0003 4.73874   7
   3   5   4 61.8088 6.22070   8
  -4  -5  -4 221.650 8.09418  19
  -4  -5  -4 223.916 8.05074  17
  -4  -5  -4 234.718 12.0207   9
  -4  -5  -4 226.884 7.81549  11
  -4  -5  -4 218.515 8.16745  16
  -4  -5  -4 217.185 9.38696  15
  -4  -5  -4 203.596 9.53015  10
   4   5   4 236.179 11.2998   8
  -5  -5  -4 199.657 7.80004  17
  -5  -5  -4 206.679 8.42380  16
  -5  -5  -4 199.283 7.53433  11
  -5  -5  -4 207.627 8.05720  19
  -5  -5  -4 207.269 9.07827  15
  -5  -5  -4 187.593 9.40475  10
   5   5   4 176.081 9.75707   8
  -6  -5  -4 11.7514 2.92543  19
  -6  -5  -4 9.38426 2.82527  17
  -6   6   4 80.2295 4.22162  13
   5  -6  -4 224.648 7.05856  18
  -5   6   4 217.097 8.49725  13
  -5   6   4 221.804 7.30676  18
   4  -6  -4 539.442 16.7048  10
   4  -6  -4 563.442 13.5910  18
  -4   6   4 560.019 14.7323  13
  -4   6   4 545.823 13.7288  18
   3  -6  -4 150.107 7.98690  10
   3  -6  -4 141.531 9.17230   2
  -3   6   4 142.608 7.34694   8
   2  -6  -4 145.277 8.41371   2
   2  -6  -4 148.377 7.11696  10
   2  -6  -4 157.280 8.44272   5
   2  -6  -4 167.604 8.60478   3
   2  -6  -4 152.067 8.46403   1
  -2   6   4 162.730 7.58177   8
   1  -6  -4 24.3412 3.43446  10
   1  -6  -4 24.5683 4.15948   1
   1  -6  -4 22.5733 4.03718   4
   1  -6  -4 21.5270 4.37666   9
   1  -6  -4 33.8340 4.53602   2
   1  -6  -4 19.3726 3.60327   5
   1  -6  -4 25.4875 3.72033   3
  -1   6   4 29.3824 3.90350   8
  -1   6   4 25.2230 3.36810   7
   0  -6  -4 14.6742 3.53554   4
   0  -6  -4 11.9894 2.43965  11
   0  -6  -4 14.3481 2.86902  10
   0  -6  -4 11.1359 3.62940   9
   0  -6  -4 11.5094 3.51906   1
   0  -6  -4 13.9466 3.26600   5
   0   6   4 11.0597 2.45418   7
   0   6   4 11.9914 3.10205   8
  -1  -6  -4 257.086 9.10721  10
  -1  -6  -4 252.845 10.3149   4
  -1  -6  -4 254.077 9.89884   5
  -1  -6  -4 252.709 7.41604  11
  -1  -6  -4 259.912 10.4824   1
  -1  -6  -4 266.123 10.5820   9
   1   6   4 240.998 9.15493   8
   1   6   4 241.042 7.86627   7
  -2  -6  -4 5.77539 3.27659   4
  -2  -6  -4 8.53717 3.10730   6
  -2  -6  -4 16.5775 3.82499   1
  -2  -6  -4 12.0104 4.10272   9
  -2  -6  -4 13.6494 2.80443  11
  -2  -6  -4 18.9221 3.76405  10
  -2  -6  -4 7.56689 3.99292   5
   2   6   4 8.58099 2.45874   7
   2   6   4 9.04861 3.35463   8
  -3  -6  -4 207.942 9.17190  10
  -3  -6  -4 225.095 7.74990  11
  -3  -6  -4 210.806 10.9303   9
   3   6   4 211.209 8.32346   7
   3   6   4 206.534 9.61914   8
  -4  -6  -4 32.5598 4.56388  16
  -4  -6  -4 24.0896 4.49273  10
  -4  -6  -4 24.1240 4.15929  19
  -4  -6  -4 23.2938 3.56447  11
  -4  -6  -4 17.4647 4.87742   9
  -4  -6  -4 22.4995 3.85604  15
   4   6   4 27.8829 5.13611   8
  -5  -6  -4 14.0816 3.37609  11
  -5  -6  -4 22.3533 3.87999  15
  -5  -6  -4 19.3937 3.36007  17
  -5  -6  -4 21.5834 3.93734  19
   5   6   4 17.9593 4.39765   8
  -6  -6  -4 95.2626 5.01636  19
  -6  -6  -4 106.623 4.73019  17
  -6   7   4 10.8456 1.83937  13
   5  -7  -4 81.3963 3.50429  18
  -5   7   4 90.0403 5.49117  13
   4  -7  -4 21.8940 3.12942  18
   4  -7  -4 23.7997 4.19577  10
  -4   7   4 24.2494 3.68913  18
  -4   7   4 23.8482 3.96711  13
   3  -7  -4 488.221 14.9086  10
   3  -7  -4 469.751 11.5395  18
  -3   7   4 481.926 13.2747  13
   2  -7  -4 186.334 10.0191   2
   2  -7  -4 198.469 8.51405  10
   2  -7  -4 177.225 9.92761   1
  -2   7   4 195.485 8.57163   8
   1  -7  -4 495.352 14.6213   5
   1  -7  -4 464.702 15.6053   4
   1  -7  -4 485.702 13.7980  10
   1  -7  -4 492.920 16.1748   1
  -1   7   4 505.222 14.2959   8
  -1   7   4 505.720 13.1898   7
   0  -7  -4 759.000 18.3860  10
   0  -7  -4 769.957 18.6038   5
   0  -7  -4 759.415 20.2824   9
   0  -7  -4 740.370 20.3435   4
   0  -7  -4 770.478 21.2611   1
   0  -7  -4 756.415 15.7442  11
   0   7   4 779.953 17.3611   7
   0   7   4 769.804 19.0501   8
  -1  -7  -4 508.056 13.7263  10
  -1  -7  -4 486.138 15.9137   1
  -1  -7  -4 462.867 15.6347   9
  -1  -7  -4 468.555 11.6343  11
  -1  -7  -4 457.451 15.2784   4
  -1  -7  -4 499.340 14.3956   5
   1   7   4 493.312 14.2969   8
   1   7   4 484.041 12.5328   7
  -2  -7  -4 342.014 13.5908   9
  -2  -7  -4 364.237 11.6645  10
  -2  -7  -4 321.426 13.0063   1
  -2  -7  -4 340.936 10.0057  11
   2   7   4 344.732 12.0264   8
   2   7   4 339.573 10.4310   7
  -3  -7  -4 261.320 9.83682  10
  -3  -7  -4 245.897 8.89354  15
  -3  -7  -4 252.736 12.2507   9
  -3  -7  -4 246.151 9.40448  19
  -3  -7  -4 253.515 8.72349  11
  -3  -7  -4 237.344 9.29045  16
   3   7   4 247.414 10.2900   8
  -4  -7  -4 195.915 11.4316   9
  -4  -7  -4 206.099 8.97453  19
  -4  -7  -4 210.822 8.38244  15
  -4  -7  -4 216.459 8.38214  11
  -4  -7  -4 198.964 8.87943  16
   4   7   4 213.410 9.49316   8
  -5  -7  -4 390.702 11.6821  19
  -5  -7  -4 371.477 10.8068  11
  -5  -7  -4 399.526 11.2868  15
  -6  -7  -4 119.537 4.80049  19
   6   7   4 141.399 4.93062  15
  -5   8   4 3.46365 2.35220  13
   4  -8  -4 23.1503 2.61197  18
   4  -8  -4 18.1725 3.69360  10
  -4   8   4 19.3417 3.51891  13
   3  -8  -4 70.0152 5.02651  16
   3  -8  -4 72.6804 4.15237  18
   3  -8  -4 73.2582 5.77228  10
  -3   8   4 56.1758 5.01221  13
  -3   8   4 75.9847 5.45554  18
   2  -8  -4 0.08768 2.63757  16
   2  -8  -4 4.01607 2.87941  10
   2  -8  -4 6.17518 4.27764   1
   2  -8  -4 5.15686 2.24858  18
  -2   8   4 0.48082 2.91987   8
   1  -8  -4 42.1874 3.27552  18
   1  -8  -4 49.1715 4.49311  16
   1  -8  -4 44.5117 5.99294   1
   1  -8  -4 48.0658 4.73552  10
  -1   8   4 45.3614 5.04031   8
   0  -8  -4 0.43253 2.90807   1
   0  -8  -4 5.79299 2.44410  11
   0  -8  -4 3.73097 2.58191  10
   0   8   4 4.05043 2.93256   8
  -1  -8  -4 13.9801 4.20022   9
  -1  -8  -4 14.7969 3.24467  10
  -1  -8  -4 21.4660 3.23551  11
  -1  -8  -4 13.9863 4.30016   1
   1   8   4 14.6508 3.88484   7
   1   8   4 20.7938 4.05953   8
  -2  -8  -4 30.0575 3.90383  11
  -2  -8  -4 27.4328 5.54820   1
  -2  -8  -4 22.1231 3.93531  16
  -2  -8  -4 25.9793 3.58894  14
  -2  -8  -4 26.9933 3.82591  10
  -2  -8  -4 21.1502 5.28157   9
   2   8   4 27.4891 4.65202   8
  -3  -8  -4 125.624 9.17225   9
  -3  -8  -4 150.241 6.84994  11
  -3  -8  -4 134.185 6.65212  15
  -3  -8  -4 131.454 6.98612  16
   3   8   4 134.413 7.61051   8
   3   8   4 125.350 6.56927  14
  -4  -8  -4 72.5913 5.34269  11
  -4  -8  -4 73.0742 5.54359  16
  -4  -8  -4 67.8021 5.07186  15
   4   8   4 57.0883 5.28288   8
  -5  -8  -4 24.6514 3.08488  15
  -5  -8  -4 25.6595 3.31816  19
  -4   9   4 59.9367 4.22129  13
  -4   9   4 59.1697 3.94489  18
   3  -9  -4 282.136 7.14133  18
   3  -9  -4 282.711 9.02274  16
   3  -9  -4 273.819 10.1222  10
  -3   9   4 280.436 9.23291  13
   2  -9  -4 877.427 16.4970  18
   2  -9  -4 824.344 18.8568  16
   2  -9  -4 848.752 21.2167  10
   1  -9  -4 193.186 5.77398  18
   1  -9  -4 193.514 7.76774  14
   1  -9  -4 176.016 7.50202  16
   1  -9  -4 187.759 8.16144  10
   1  -9  -4 164.465 10.1701   1
  -1   9   4 186.775 8.18577   8
   0  -9  -4 499.795 12.3872  11
   0  -9  -4 490.491 10.0256  18
   0  -9  -4 474.103 17.2027   1
   0  -9  -4 484.555 12.9958  16
   0  -9  -4 490.543 13.1548  14
   0  -9  -4 524.237 14.3908  10
   0   9   4 511.932 14.5543   8
  -1  -9  -4 50.2538 6.41870   1
  -1  -9  -4 47.5787 4.39519  14
  -1  -9  -4 62.3491 4.63966  11
  -1  -9  -4 64.3788 5.05481  16
   1   9   4 59.1735 5.57087   8
  -2  -9  -4 140.692 6.69139  11
  -2  -9  -4 131.058 9.24029   9
  -2  -9  -4 146.523 6.99883  16
   2   9   4 133.429 7.27541   8
   2   9   4 129.755 6.85540  14
  -3  -9  -4 55.3679 4.64630  11
  -3  -9  -4 53.2064 4.83073  16
   3   9   4 56.6847 4.65532  14
   3   9   4 44.4402 4.78688   8
  -4  -9  -4 13.2621 3.01895  11
  -4  -9  -4 21.2423 3.39704  16
  -5  -9  -4 143.072 5.03712  19
  -4  10   4 81.1428 3.98232  13
   3 -10  -4 68.4125 4.40830  16
  -3  10   4 74.7471 4.46598  18
   2 -10  -4 171.705 6.79954  16
   2 -10  -4 156.020 7.28864  10
  -2  10   4 147.123 6.78236  18
   1 -10  -4 183.397 7.32502  16
   0 -10  -4 71.6707 4.68588  11
   0 -10  -4 73.7864 5.15198  16
  -1 -10  -4 61.9038 4.93624  16
  -1 -10  -4 71.4524 4.80807  11
   1  10   4 76.5606 5.31767  14
   1  10   4 74.0460 5.42352   8
  -2 -10  -4 178.649 7.18934  16
  -2 -10  -4 179.654 6.85099  11
   2  10   4 172.178 7.65254   8
   2  10   4 182.451 7.29741  14
  -3 -10  -4 3.43155 2.49614  16
  -3 -10  -4 5.63846 2.43774  11
   3  10   4 1.00693 2.54510  14
   3 -11  -4 17.9352 2.36639  16
  -3  11   4 18.6983 1.76574  18
   2 -11  -4 25.1342 3.10063  16
  -2  11   4 25.8655 2.99977  18
   1 -11  -4 54.1825 4.25942  16
  -1  11   4 61.9564 4.41396  14
  -1  11   4 57.7630 4.30865  18
   0 -11  -4 87.2033 5.06495  16
   0 -11  -4 79.5315 4.70678  11
   0  11   4 76.7931 4.80547  18
   0  11   4 74.5054 5.27458  14
  -1 -11  -4 106.381 5.52778  16
  -1 -11  -4 110.311 5.36794  11
   1  11   4 103.310 5.57986  14
  -2 -11  -4 13.1348 2.55326  11
  -2 -11  -4 9.04494 2.68747  16
   2  11   4 13.2029 2.90555  14
  -3 -11  -4 98.1230 4.38427  16
   3  11   4 90.0997 4.32443  18
   3  11   4 89.8709 4.52292  14
   2 -12  -4 14.5389 2.10079  16
   1 -12  -4 62.4916 3.80280  16
  -1  12   4 74.9429 3.49286  18
   0 -12  -4 88.6575 4.42358  16
   0  12   4 94.4941 4.54229  14
   0  12   4 96.0826 4.22114  18
  -1 -12  -4 2.47109 2.09048  16
   1  12   4 3.28774 2.18691  14
   1  12   4 4.71569 1.97929  18
  -2 -12  -4 35.6237 2.70160  16
   2  12   4 33.6799 2.78585  14
   2  12   4 35.6237 2.63793  18
  -2 -10   5 60.7487 2.53948  18
   1  10  -5 100.982 3.90624  14
  -1 -10   5 110.927 3.94982  18
   0 -10   5 2.77247 1.77762  18
   3   9  -5 60.2522 3.41280  14
  -3  -9   5 54.9912 2.74450  18
  -3  -9   5 61.0687 3.03793  17
   2   9  -5 292.333 7.96603  14
  -2  -9   5 296.854 7.70735  18
  -2  -9   5 291.141 7.48388  17
   1   9  -5 109.923 5.16912  14
  -1  -9   5 116.030 4.88516  17
   0   9  -5 41.4309 3.37720  17
  -1   9  -5 19.3460 2.79468  13
  -2   9  -5 113.417 4.81648  13
  -2   9  -5 106.884 4.73130  19
  -3   9  -5 208.755 5.76008  19
   3  -9   5 201.848 5.63680  16
   4   8  -5 30.4243 2.45605  14
  -4  -8   5 18.2165 1.79214  18
   3   8  -5 105.195 5.06744  14
  -3  -8   5 101.558 4.67144  17
  -3  -8   5 104.943 4.83544  12
  -3  -8   5 106.792 4.73484  18
   2   8  -5 -0.7710 2.50790  14
  -2  -8   5 1.66868 2.39229  12
  -2  -8   5 -1.6812 2.20674  17
   1   8  -5 0.52954 2.36912  17
   1   8  -5 1.72236 2.69841  14
  -1  -8   5 -0.7365 2.82544   8
  -1  -8   5 1.54438 2.38350  11
   0   8  -5 3.34979 2.43516  17
   0  -8   5 4.76030 3.12102   8
   0  -8   5 5.28591 2.62337  11
  -1   8  -5 91.8426 5.45638  13
  -1   8  -5 79.1065 4.84920  17
  -1   8  -5 76.3519 5.02680  19
   1  -8   5 92.1395 5.10679  11
   1  -8   5 75.0473 5.66866   8
  -2   8  -5 122.897 5.53977  19
  -2   8  -5 119.570 5.86488  13
   2  -8   5 115.366 5.64647  16
   2  -8   5 113.197 5.67964  11
  -3   8  -5 6.52634 2.41374  13
  -3   8  -5 6.10034 2.22906  19
   3  -8   5 11.8847 2.92679  16
  -4   8  -5 41.7493 2.61478  19
  -4   8  -5 35.5373 2.74004  13
   4  -8   5 43.2610 3.01286  16
   4   7  -5 371.444 9.34940  14
  -4  -7   5 377.900 9.04575  17
  -4  -7   5 367.204 9.38828  12
  -4  -7   5 338.269 8.94806  18
   3   7  -5 127.665 6.28821  14
  -3  -7   5 129.756 5.83557  12
  -3  -7   5 119.412 5.55179  17
   2   7  -5 452.437 11.7128  17
   2   7  -5 450.714 12.1830  14
  -2  -7   5 442.862 11.9857  12
   1   7  -5 243.852 8.19169  17
   1   7  -5 247.762 8.61893  12
   1   7  -5 240.711 8.56025  14
  -1  -7   5 240.458 7.84817  11
  -1  -7   5 233.489 9.48428   8
   0   7  -5 421.405 11.5612  12
   0   7  -5 407.274 11.3498  13
   0   7  -5 395.564 11.0191  17
   0  -7   5 403.278 13.1199   8
   0  -7   5 421.534 11.0480  11
  -1   7  -5 314.149 9.99207  13
  -1   7  -5 326.417 9.78615  17
  -1   7  -5 329.706 9.75533  19
  -1   7  -5 327.561 9.86149  12
   1  -7   5 304.487 11.5242   8
   1  -7   5 340.949 9.80834  11
  -2   7  -5 64.8461 4.97848  12
  -2   7  -5 55.2876 4.51056  13
  -2   7  -5 63.3623 4.57406  17
  -2   7  -5 60.4517 4.60930  19
   2  -7   5 62.6943 6.11660   8
   2  -7   5 62.8831 4.89824  16
   2  -7   5 59.1378 4.86107  11
  -3   7  -5 290.179 8.63387  19
  -3   7  -5 278.182 9.02314  13
  -3   7  -5 287.435 8.69225  17
   3  -7   5 281.607 8.97204  11
   3  -7   5 291.964 9.24047  16
  -4   7  -5 64.9139 4.17706  13
  -4   7  -5 58.8863 3.71415  19
   4  -7   5 61.2491 4.50231  16
  -5  -6   5 50.4708 3.48154  17
  -5  -6   5 48.1377 2.97617  18
   4   6  -5 10.8449 3.09938  14
  -4  -6   5 9.11387 2.73809  17
  -4  -6   5 9.62901 3.15352  18
  -4  -6   5 10.3564 2.81764  12
   3   6  -5 83.7545 5.83881  14
  -3  -6   5 86.9533 5.32838  17
  -3  -6   5 86.4390 5.48489   8
  -3  -6   5 86.2395 5.51541  12
   2   6  -5 81.3350 5.28260  17
   2   6  -5 92.0606 5.95435  14
  -2  -6   5 95.2612 6.38723   8
  -2  -6   5 89.6226 5.46137  12
  -2  -6   5 86.7666 8.32470   1
   1   6  -5 16.8539 3.40853  14
   1   6  -5 19.3274 3.30230  17
   1   6  -5 19.5593 3.34126  12
  -1  -6   5 27.1074 4.52018   8
  -1  -6   5 19.1029 4.79164   1
  -1  -6   5 16.3553 3.08832  11
   0   6  -5 181.932 7.29557  14
   0   6  -5 177.561 7.27709  12
   0   6  -5 165.472 7.15144  13
   0   6  -5 161.098 6.77974  19
   0   6  -5 170.539 7.05854  17
   0  -6   5 165.874 9.83104   1
   0  -6   5 160.274 6.56024  11
   0  -6   5 169.388 8.41844   8
   0  -6   5 162.033 9.66464   2
  -1   6  -5 59.6077 4.75904  17
  -1   6  -5 63.0703 4.70010  13
  -1   6  -5 54.8892 4.51644  19
  -1   6  -5 63.4518 5.01655  12
   1  -6   5 69.7418 6.30137   8
   1  -6   5 59.5595 4.82330  11
  -2   6  -5 31.2794 3.78677  19
  -2   6  -5 27.5615 4.45522  16
  -2   6  -5 32.9983 3.95813  13
  -2   6  -5 35.3671 4.11911  17
  -2   6  -5 41.6025 4.53370  12
   2  -6   5 23.3580 4.12057  11
   2  -6   5 22.0230 5.17361   8
  -3   6  -5 167.467 6.81161  19
  -3   6  -5 177.141 7.37769  13
  -3   6  -5 171.136 8.00497  16
  -3   6  -5 167.392 7.33361  17
  -3   6  -5 181.653 7.78526  12
   3  -6   5 162.566 9.52827   8
   3  -6   5 179.551 7.91721  11
  -4   6  -5 2.44107 2.92839  12
  -4   6  -5 5.57963 2.69183  13
  -4   6  -5 2.51697 3.33724  16
  -4   6  -5 3.30104 2.71468  17
  -4   6  -5 3.00590 2.33277  19
   4  -6   5 4.69690 2.99384  11
  -5   6  -5 224.689 6.38114  19
  -5  -5   5 11.3292 2.72264  17
  -5  -5   5 7.10214 2.85990  18
  -5  -5   5 9.46107 2.81871  12
   4   5  -5 30.8980 3.92466  14
  -4  -5   5 31.9511 4.08647  17
  -4  -5   5 32.6425 4.67114  18
  -4  -5   5 33.5531 4.17732  12
   3   5  -5 26.4205 3.88258  14
   3   5  -5 25.5288 2.16980  18
  -3  -5   5 31.7290 4.12360  12
  -3  -5   5 28.9260 6.02907   1
  -3  -5   5 20.0979 3.92246   8
  -3  -5   5 27.5539 3.85177  17
   2   5  -5 -0.3650 2.34045  17
   2   5  -5 1.49812 1.49431  18
   2   5  -5 -5.2382 2.43103  14
  -2  -5   5 6.45733 3.50947   8
  -2  -5   5 3.60110 3.68117   1
   1   5  -5 195.915 7.52272  12
  -1  -5   5 202.732 10.4085   1
  -1  -5   5 194.735 9.99466   2
  -1  -5   5 196.695 7.72922   7
  -1  -5   5 206.397 8.80091   8
   0   5  -5 6.80463 2.47603  12
   0  -5   5 -1.4278 2.89459   2
   0  -5   5 3.86473 3.24215   1
   0  -5   5 -1.2506 2.53941   7
   0  -5   5 2.15097 3.38713   3
   0  -5   5 -1.2979 2.27908  11
   0  -5   5 4.01933 2.94892   8
  -1   5  -5 286.048 9.36040  12
   1  -5   5 308.838 11.7391   8
   1  -5   5 276.110 9.78176   7
   1  -5   5 298.003 12.1119   1
   1  -5   5 290.160 12.3222   2
   1  -5   5 289.765 9.35093  11
  -2   5  -5 66.2757 4.85197  19
  -2   5  -5 62.9401 4.90734  17
  -2   5  -5 50.7391 4.42972  13
  -2   5  -5 67.0568 5.35306  12
   2  -5   5 58.6665 5.12256  11
   2  -5   5 62.4001 6.94058   2
   2  -5   5 62.6300 6.69313   8
  -3   5  -5 117.238 7.12333  17
  -3   5  -5 148.517 7.86527  12
  -3   5  -5 137.795 7.00952  11
  -3   5  -5 145.980 7.80314  16
  -3   5  -5 130.790 6.80732  13
  -3   5  -5 123.422 6.41337  19
   3  -5   5 144.649 8.83584   8
  -4   5  -5 288.088 10.2465  16
  -4   5  -5 279.699 9.35938  13
  -4   5  -5 301.337 10.0563  17
  -4   5  -5 292.616 9.54482  19
  -4   5  -5 291.477 10.6879  12
   4  -5   5 272.410 11.8643   8
  -5   5  -5 12.3102 2.99075  17
  -5   5  -5 11.3124 3.40352  16
  -5   5  -5 14.3233 3.42011  12
  -5   5  -5 12.8841 2.67404  13
  -5   5  -5 10.1244 2.61561  19
  -6  -4   5 144.621 5.06558  17
  -5  -4   5 491.709 12.8295  17
  -5  -4   5 453.334 12.8192  18
  -5  -4   5 516.385 13.6076  12
   4   4  -5 137.924 4.70466  18
   4   4  -5 132.999 6.66948  14
  -4  -4   5 135.750 7.48369  17
  -4  -4   5 133.070 7.62595  12
  -4  -4   5 129.992 9.69774   9
   3   4  -5 109.682 4.40396  18
   3   4  -5 110.920 6.32942  14
  -3  -4   5 109.542 6.80410  17
  -3  -4   5 110.400 8.40510   9
  -3  -4   5 117.496 7.52615   8
  -3  -4   5 104.213 9.01336   1
  -3  -4   5 108.695 6.61929  12
   2   4  -5 321.268 10.1200  12
  -2  -4   5 336.936 12.8758   6
  -2  -4   5 333.807 11.7699   8
  -2  -4   5 303.164 12.5836   1
  -2  -4   5 314.657 10.5947   7
   1   4  -5 14.6682 3.06026  12
   1   4  -5 24.6843 4.43293   2
  -1  -4   5 18.2545 2.99037   7
  -1  -4   5 16.3394 3.54936   8
  -1  -4   5 24.2720 4.02717   3
  -1  -4   5 17.6571 4.04660   6
  -1  -4   5 16.7406 3.79212   4
  -1  -4   5 23.3793 4.14535   1
   0   4  -5 59.1449 4.25848  12
   0  -4   5 47.5605 5.39670   1
   0  -4   5 61.9472 6.15779   3
   0  -4   5 62.5954 4.32694  11
   0  -4   5 50.7683 4.25995   7
   0  -4   5 50.2038 5.58297   2
   0  -4   5 48.8682 5.79742   6
  -1   4  -5 31.7184 3.85981  12
  -1   4  -5 30.2697 3.57937  11
   1  -4   5 32.4285 4.62427   3
   1  -4   5 33.1437 5.28363   6
   1  -4   5 37.0229 5.10588   2
   1  -4   5 25.4556 3.56403   7
   1  -4   5 33.8739 4.77349   1
  -2   4  -5 34.9996 3.81807  11
  -2   4  -5 42.4725 4.72161  12
   2  -4   5 44.0742 5.62841   6
   2  -4   5 32.5533 5.18668   2
   2  -4   5 40.2129 4.12169   7
  -3   4  -5 534.275 13.9956  13
  -3   4  -5 521.663 14.1904  16
  -3   4  -5 547.731 15.1559  12
  -3   4  -5 520.641 13.9458  17
  -3   4  -5 539.352 13.4832  11
  -3   4  -5 536.328 13.9588  19
  -4   4  -5 53.3532 4.83123  11
  -4   4  -5 60.1847 5.10580  17
  -4   4  -5 50.7070 4.62918  13
  -4   4  -5 42.3390 4.98935  16
  -4   4  -5 58.5721 5.18248  19
  -4   4  -5 52.8855 5.72240  12
   4  -4   5 54.6060 6.04069   8
  -5   4  -5 87.3603 6.07398  16
  -5   4  -5 93.8798 5.83278  17
  -5   4  -5 86.3910 5.75636  19
  -5   4  -5 92.1732 6.55266  12
  -5   4  -5 91.1700 5.79696  11
  -6   4  -5 49.5388 3.28290  19
  -6   4  -5 48.1613 3.68313  16
  -6  -3   5 71.3773 3.50410  18
  -6  -3   5 75.8913 4.42104  17
   5   3  -5 4.37064 1.67721  18
  -5  -3   5 -1.1064 3.07285  12
  -5  -3   5 8.45292 3.55579  18
  -5  -3   5 7.28437 2.98688  17
   4   3  -5 0.96709 2.03583  18
  -4  -3   5 -0.6132 3.99983   9
  -4  -3   5 3.25806 3.55167   8
  -4  -3   5 -0.0392 3.07729  17
  -4  -3   5 1.49080 3.40172  12
  -3  -3   5 118.649 8.02730   8
  -3  -3   5 144.822 8.96531   9
  -3  -3   5 136.088 8.58894   1
  -3  -3   5 119.173 7.07383  12
   2   3  -5 213.747 8.86992   3
   2   3  -5 217.777 9.13336   2
   2   3  -5 213.034 8.53622  12
  -2  -3   5 216.449 10.3338   6
  -2  -3   5 217.468 9.53325   9
  -2  -3   5 221.661 8.87850   7
  -2  -3   5 220.743 9.77491   1
  -2  -3   5 215.784 9.92768   8
  -2  -3   5 209.940 9.65717   4
   1   3  -5 414.137 12.5188   3
   1   3  -5 425.744 13.1436   2
  -1  -3   5 419.887 12.8854   6
  -1  -3   5 428.094 10.7340   7
  -1  -3   5 414.078 13.3378   1
  -1  -3   5 423.326 12.6958   4
   0   3  -5 171.018 8.03208   2
   0  -3   5 159.812 8.05522   6
   0  -3   5 169.849 8.00273   3
   0  -3   5 160.599 7.55903   1
   0  -3   5 174.821 6.18428   7
   0  -3   5 164.539 6.13034  11
   0  -3   5 163.002 7.01685   4
  -1   3  -5 393.550 9.91006  11
   1  -3   5 420.730 12.6754   1
   1  -3   5 413.172 13.2695   3
   1  -3   5 407.023 13.5006   2
   1  -3   5 412.116 9.63929   7
   1  -3   5 405.978 12.8287   6
  -2   3  -5 742.208 17.5555  12
  -2   3  -5 749.345 15.5759  11
   2  -3   5 766.305 19.1387   6
   2  -3   5 754.036 15.3422   7
   2  -3   5 718.283 20.0254   2
   2  -3   5 722.361 19.5116   3
  -3   3  -5 305.177 8.93866  11
  -3   3  -5 297.825 10.2037  12
   3  -3   5 294.217 13.1234   2
   3  -3   5 294.516 9.00713   7
  -4   3  -5 452.096 11.9825  11
  -4   3  -5 445.071 12.4545  17
  -4   3  -5 451.154 12.7451  13
  -4   3  -5 469.744 13.5863  12
  -4   3  -5 453.498 12.9009  16
  -4   3  -5 449.480 11.8876  19
   4  -3   5 455.424 13.6542  10
  -5   3  -5 216.612 8.26775  17
  -5   3  -5 219.369 8.82448  16
  -5   3  -5 222.581 8.08223  11
  -5   3  -5 232.565 9.41949  12
  -5   3  -5 217.347 7.97255  19
   5  -3   5 226.350 9.37080  10
   5  -3   5 207.842 9.93725   8
  -6   3  -5 53.8346 4.33089  16
  -6   3  -5 42.6491 4.41564  12
  -6   3  -5 50.2401 3.91614  19
  -6   3  -5 55.9412 4.00186  17
   6   2  -5 75.8915 5.00806  15
  -6  -2   5 73.6429 5.15469  12
  -6  -2   5 66.8561 4.13617  18
   5   2  -5 31.9845 4.41628  15
   5   2  -5 38.6604 2.92594  18
  -5  -2   5 39.6027 4.63633  12
  -5  -2   5 35.8433 4.52037  18
  -5  -2   5 36.2472 3.98061  17
   4   2  -5 157.464 5.68876  18
  -4  -2   5 159.145 8.25822   8
  -4  -2   5 184.067 7.92992  12
  -4  -2   5 154.522 7.08713  17
  -4  -2   5 164.211 9.90142   9
   3   2  -5 -4.6766 2.33388   2
  -3  -2   5 1.69548 3.05380   1
  -3  -2   5 -0.1117 3.07456   9
  -3  -2   5 10.2636 3.61866   8
  -3  -2   5 -3.1948 2.88103   4
  -3  -2   5 -3.4092 2.59543  12
  -3  -2   5 2.10537 2.67483   7
   2   2  -5 336.746 11.1938   2
   2   2  -5 320.965 10.7164   3
  -2  -2   5 342.636 11.7344   8
  -2  -2   5 344.889 11.4808   9
  -2  -2   5 352.286 11.6512   6
  -2  -2   5 309.717 11.2510   4
  -2  -2   5 339.470 10.1464   7
  -2  -2   5 332.061 11.3881   1
   1   2  -5 32.9151 4.04969   2
   1   2  -5 28.6780 3.57109   3
  -1  -2   5 36.1381 3.91705   4
  -1  -2   5 34.7251 3.65616   7
  -1  -2   5 38.5338 4.64778   6
  -1  -2   5 35.3322 3.80270   9
  -1  -2   5 34.1402 4.01690   1
   0   2  -5 180.301 7.76788   2
   0  -2   5 183.703 7.34709   1
   0  -2   5 193.058 5.46343   7
   0  -2   5 193.902 6.91490   4
   0  -2   5 183.446 7.78018   3
   0  -2   5 183.410 7.84465   6
   1  -2   5 56.1657 5.36134   2
   1  -2   5 52.9499 4.77655   6
   1  -2   5 61.5571 2.62281   7
   1  -2   5 57.4493 5.32851   3
   1  -2   5 63.8772 4.56839   1
  -2   2  -5 50.4396 3.51759  11
   2  -2   5 49.2927 5.67005   2
   2  -2   5 69.0305 6.16573   3
   2  -2   5 56.0267 3.00820   7
   2  -2   5 49.4528 4.86617   6
  -3   2  -5 144.930 6.71432  12
  -3   2  -5 151.379 6.02363  11
   3  -2   5 153.481 6.58079  10
   3  -2   5 130.168 8.75190   3
   3  -2   5 136.365 7.05382   5
   3  -2   5 152.062 7.77219   6
   3  -2   5 147.103 5.66579   7
   3  -2   5 150.451 9.22894   2
  -4   2  -5 67.2930 4.34743  19
  -4   2  -5 69.2431 5.24330  16
  -4   2  -5 81.7885 5.81030  12
  -4   2  -5 63.0334 4.79409  17
  -4   2  -5 73.7644 4.82204  11
   4  -2   5 73.8809 5.44614  10
  -5   2  -5 8.99392 3.40217  16
  -5   2  -5 7.18034 2.55876  19
  -5   2  -5 7.14030 2.89744  11
  -5   2  -5 7.32744 3.46627  12
  -5   2  -5 5.65915 2.82226  17
   5  -2   5 7.26998 3.75985   8
   5  -2   5 5.39182 3.28118  10
  -6   2  -5 108.125 5.18859  19
  -6   2  -5 109.831 5.86191  16
  -6   2  -5 115.320 5.65320  17
  -6   2  -5 109.089 6.20876  12
   6   1  -5 146.838 6.92730  15
  -6  -1   5 151.563 6.50736  12
  -6  -1   5 159.545 5.70147  18
   5   1  -5 211.712 8.87818  15
   5   1  -5 196.980 6.14774  18
  -5  -1   5 198.774 7.89746  12
  -5  -1   5 171.025 7.54619  18
   4   1  -5 57.1084 3.83198  18
   4   1  -5 61.2144 5.57109  15
  -4  -1   5 63.4473 5.80591   8
  -4  -1   5 57.3955 6.99107   9
  -4  -1   5 54.2130 4.62532  12
   3   1  -5 142.595 7.46316   2
   3   1  -5 152.705 7.53964   3
  -3  -1   5 141.765 6.20421  12
  -3  -1   5 139.310 8.00411   9
  -3  -1   5 139.948 6.48013   7
  -3  -1   5 161.929 8.02695   1
  -3  -1   5 138.754 7.86032   4
  -3  -1   5 168.085 7.61031   8
   2   1  -5 229.715 8.66173   2
   2   1  -5 220.988 8.41722   3
  -2  -1   5 230.723 8.83517   1
  -2  -1   5 217.299 8.69138   9
  -2  -1   5 228.568 8.50586   8
  -2  -1   5 235.667 8.04137   6
  -2  -1   5 244.072 7.28404   7
  -2  -1   5 217.188 8.80455   4
   1   1  -5 502.285 13.2449   1
   1   1  -5 499.170 12.8270   3
   1   1  -5 498.294 13.1744   2
  -1  -1   5 491.184 12.6009   4
  -1  -1   5 468.268 13.1496   6
  -1  -1   5 486.249 10.9703   7
  -1  -1   5 476.482 12.4442   9
   0   1  -5 182.048 7.15824   2
   0   1  -5 179.468 6.97761   3
   0  -1   5 184.929 7.13556   6
   0  -1   5 174.586 6.06142   9
   0  -1   5 178.455 6.82307   1
   0  -1   5 183.421 6.26035   4
   1  -1   5 39.7689 3.93607   6
   1  -1   5 48.2107 4.63214   3
   1  -1   5 44.3266 3.67978   1
   1  -1   5 48.4498 3.03233   5
   1  -1   5 44.2022 2.94553   4
   1  -1   5 40.1312 4.38385   2
  -2   1  -5 1135.39 23.8661   6
  -2   1  -5 1152.21 23.8434  10
  -2   1  -5 1144.85 20.9852  11
   2  -1   5 1187.22 21.8842   5
   2  -1   5 1174.74 26.5889   2
   2  -1   5 1176.65 25.7691   3
  -3   1  -5 491.670 12.5078  12
  -3   1  -5 491.268 11.3269  11
   3  -1   5 499.960 12.8073  10
   3  -1   5 491.533 10.7469   7
   3  -1   5 442.734 15.1186   3
   3  -1   5 488.163 15.8161   2
   3  -1   5 482.827 13.1321   5
  -4   1  -5 360.342 10.5400  17
  -4   1  -5 370.866 10.2654  11
  -4   1  -5 352.991 10.7639  16
  -4   1  -5 394.226 9.77914  19
  -4   1  -5 403.047 11.6826  12
   4  -1   5 375.119 10.6764   7
   4  -1   5 382.798 12.0175  10
  -5   1  -5 265.227 8.63817  11
  -5   1  -5 254.404 8.91720  17
  -5   1  -5 263.429 9.77256  12
  -5   1  -5 253.419 9.25090  16
  -5   1  -5 253.262 8.13632  19
   5  -1   5 255.594 10.7393   8
   5  -1   5 256.668 10.1270  10
  -6   1  -5 57.3621 4.97526  12
  -6   1  -5 62.1704 4.50495  17
  -6   1  -5 61.0279 4.79374  16
  -6   1  -5 64.9755 4.24459  19
   6   0  -5 153.825 7.16956  15
  -6   0   5 150.719 6.23192  12
  -6   0   5 160.111 5.64387  18
   5   0  -5 7.46104 3.30290  15
   5   0  -5 6.12746 2.37919  18
  -5   0   5 3.37349 4.82994   9
  -5   0   5 6.68074 3.02092  18
  -5   0   5 2.95251 2.66809  12
   4   0  -5 419.081 14.7884   2
   4   0  -5 438.678 10.1257  18
  -4   0   5 450.538 11.5661  12
  -4   0   5 417.689 15.5216   9
  -4   0   5 430.665 12.9918   8
   3   0  -5 94.7823 6.13804   3
   3   0  -5 98.6431 6.38081   2
  -3   0   5 98.3103 5.71565   8
  -3   0   5 104.040 6.46441   1
  -3   0   5 103.691 5.21987  12
  -3   0   5 97.2493 6.49143   4
  -3   0   5 116.648 7.47912   9
   2   0  -5 496.170 13.2854   1
   2   0  -5 484.143 12.9700   3
   2   0  -5 480.573 13.3462   2
  -2   0   5 488.521 13.5060   9
  -2   0   5 489.645 10.7933   7
  -2   0   5 456.412 12.1845   8
   1   0  -5 1615.24 30.6670   3
   1   0  -5 1622.35 31.6330   2
   1   0  -5 1640.45 32.0467   1
  -1   0   5 1668.97 27.3463   7
  -1   0   5 1629.16 32.0651   9
  -1   0   5 1641.70 29.4254   6
   0   0  -5 463.213 8.76779   5
   0   0  -5 454.973 11.5319   1
   0   0  -5 433.894 11.4582   2
   0   0  -5 437.938 11.1350   9
   0   0  -5 447.302 11.3821   3
   0   0   5 449.070 10.8161   6
   0   0   5 448.052 10.8167   4
  -1   0  -5 330.648 9.93301   2
  -1   0  -5 315.576 8.98021   6
   1   0   5 322.375 7.75390   5
   1   0   5 331.710 8.32542   4
   1   0   5 339.103 9.83447   3
  -2   0  -5 181.755 5.64974  11
  -2   0  -5 178.141 6.13246  10
  -2   0  -5 187.946 7.19267   6
   2   0   5 178.406 7.88852   3
   2   0   5 193.003 8.37831   2
   2   0   5 201.394 6.64526   5
  -3   0  -5 76.7306 4.87193  10
  -3   0  -5 74.4128 4.89557  12
  -3   0  -5 77.8783 5.26594   6
  -3   0  -5 70.5677 4.21072  11
   3   0   5 79.6411 3.65072   7
   3   0   5 75.8604 4.97978   5
  -4   0  -5 620.685 15.5054  12
  -4   0  -5 637.146 14.2732  11
   4   0   5 631.124 14.5950   7
   4   0   5 641.525 16.6631  10
  -5   0  -5 2.28051 2.44442  17
  -5   0  -5 3.13915 2.58090  11
  -5   0  -5 2.60019 2.89514  16
  -5   0  -5 3.13305 2.87844  12
  -5   0  -5 -1.0333 2.05334  19
   5   0   5 0.51240 2.96767  10
  -6   0  -5 66.9280 4.73974  17
  -6   0  -5 62.6443 4.77445  16
  -6   0  -5 53.2527 4.31760  11
  -6   0  -5 60.3803 4.92756  12
  -6   0  -5 63.5775 4.15667  19
  -7   0  -5 57.6955 2.86129  19
   6  -1  -5 3.63712 2.82982  15
  -6   1   5 7.17134 2.41442  18
   5  -1  -5 17.9559 2.83780  18
   5  -1  -5 19.7007 3.90579  15
  -5   1   5 14.6909 5.78548   9
  -5   1   5 15.4742 3.34315  18
  -5   1   5 14.1412 3.12271  12
   4  -1  -5 32.6771 5.35509   2
  -4   1   5 32.1648 4.32511   8
  -4   1   5 32.1994 5.52743   9
  -4   1   5 29.3624 3.53347  12
   3  -1  -5 5.00774 2.69338   1
   3  -1  -5 3.07080 2.50050   2
   3  -1  -5 2.21943 2.55691   3
  -3   1   5 3.87855 3.10792   9
  -3   1   5 1.86934 2.29567   8
  -3   1   5 2.25587 2.61195   4
  -3   1   5 7.05833 2.45006   7
   2  -1  -5 18.1194 3.15373   1
   2  -1  -5 16.2886 3.10544   2
   2  -1  -5 18.9725 3.25752   3
  -2   1   5 25.4714 3.20714   8
  -2   1   5 16.2636 3.18931   9
  -2   1   5 21.6498 2.51755   7
  -2   1   5 13.9234 2.89402   4
   1  -1  -5 68.9020 4.28159   3
   1  -1  -5 82.2547 4.71586   2
   1  -1  -5 79.9202 4.98302   1
   1  -1  -5 78.3136 4.89595   9
   1  -1  -5 82.9963 3.80804   5
  -1   1   5 73.8182 4.46348   4
  -1   1   5 81.4660 2.86055   7
  -1   1   5 78.5800 3.36028   6
   0  -1  -5 754.127 16.7585   9
   0  -1  -5 754.458 15.7866   3
   0  -1  -5 744.819 13.9409   5
   0  -1  -5 737.821 16.2925   1
   0  -1  -5 743.305 16.2311   2
   0  -1  -5 748.105 15.8164   4
   0   1   5 756.712 14.6166   6
  -1  -1  -5 0.16211 1.73433   5
  -1  -1  -5 6.00697 1.99334   6
  -1  -1  -5 4.83858 1.84230   4
  -1  -1  -5 1.09003 1.56855   1
  -1  -1  -5 -0.7772 1.92583   3
  -1  -1  -5 1.98629 2.07894   2
  -1  -1  -5 0.28760 2.06979   9
  -2  -1  -5 128.505 5.91926   6
  -2  -1  -5 130.785 5.25903  10
   2   1   5 124.572 6.16277   2
   2   1   5 132.231 6.14274   3
   2   1   5 130.519 5.61932   5
  -3  -1  -5 458.924 13.2334   6
  -3  -1  -5 462.769 12.3178  10
  -3  -1  -5 445.433 10.4625  11
   3   1   5 463.143 9.93161   7
   3   1   5 469.989 12.6498   5
  -4  -1  -5 102.839 6.26858  10
  -4  -1  -5 95.2230 5.03030  11
  -4  -1  -5 97.6665 5.89256  12
   4   1   5 112.612 5.31165   7
  -5  -1  -5 89.2284 6.08993  12
  -5  -1  -5 92.0300 4.79148  19
  -5  -1  -5 88.3328 5.71986  16
  -5  -1  -5 93.4502 5.80419  15
  -5  -1  -5 88.2088 5.30757  11
  -5  -1  -5 91.9438 5.50511  17
   5   1   5 82.3245 6.07558  10
  -6  -1  -5 3.71023 2.64132  11
  -6  -1  -5 -0.3228 1.99411  19
  -6  -1  -5 1.98560 2.88479  16
  -6  -1  -5 7.31723 3.03845  12
  -6  -1  -5 2.20997 2.54147  17
   6   1   5 9.31314 3.02977  15
  -7  -1  -5 6.80380 1.99445  17
  -7  -1  -5 9.76827 1.78790  19
   6  -2  -5 488.614 12.9391  15
  -6   2   5 472.715 10.7772  18
   5  -2  -5 71.3605 4.25738  18
   5  -2  -5 67.3391 5.38803  15
  -5   2   5 67.5126 4.86901  18
  -5   2   5 79.8243 5.70930  13
  -5   2   5 67.7572 9.02888   9
   4  -2  -5 199.892 8.29954  15
   4  -2  -5 211.821 6.66776  18
   4  -2  -5 197.725 10.0745   2
  -4   2   5 223.224 11.5593   9
  -4   2   5 219.070 8.61560   8
   3  -2  -5 1245.28 28.0312   2
   3  -2  -5 1226.29 27.3097   3
   3  -2  -5 1262.77 27.2493   1
  -3   2   5 1242.56 28.8097   9
  -3   2   5 1229.01 27.1139   4
  -3   2   5 1261.89 24.5759   7
  -3   2   5 1243.67 26.3869   8
   2  -2  -5 577.986 14.5696   1
   2  -2  -5 561.031 14.8879   2
   2  -2  -5 560.648 14.1881  10
   2  -2  -5 547.870 14.3595   3
   2  -2  -5 567.446 14.0437   5
  -2   2   5 583.564 13.5776   8
  -2   2   5 544.319 14.2983   4
  -2   2   5 549.952 15.1358   9
   1  -2  -5 1415.96 29.3796   9
   1  -2  -5 1447.62 28.6048   1
   1  -2  -5 1454.46 28.3156   2
   1  -2  -5 1438.00 27.4590   3
   1  -2  -5 1468.34 25.9021   5
  -1   2   5 1447.91 23.8692   7
  -1   2   5 1429.08 27.9405   4
   0  -2  -5 65.0514 4.09289   4
   0  -2  -5 67.5041 4.18916   2
   0  -2  -5 61.2213 4.48566   9
   0  -2  -5 71.9193 4.39134   1
   0  -2  -5 73.3358 4.03753   3
   0  -2  -5 66.8204 3.76904   5
   0   2   5 81.2662 3.20805   6
  -1  -2  -5 194.814 6.31522   3
  -1  -2  -5 196.696 6.61740   1
  -1  -2  -5 196.193 6.65585   2
  -1  -2  -5 191.873 6.38800   5
  -1  -2  -5 195.746 6.17885   6
  -1  -2  -5 172.462 6.03627  10
  -1  -2  -5 195.333 6.61020   4
  -1  -2  -5 199.694 7.65168   9
  -2  -2  -5 587.735 13.4145   4
  -2  -2  -5 556.924 13.5396  10
  -2  -2  -5 571.733 13.6038   6
  -2  -2  -5 578.968 15.3635   9
   2   2   5 558.001 13.2525   5
  -3  -2  -5 4.72816 2.75878   6
  -3  -2  -5 0.73492 1.90497  10
  -3  -2  -5 1.62864 3.02930   9
  -3  -2  -5 3.66919 1.83274  11
   3   2   5 4.25636 2.56732   5
   3   2   5 3.85607 1.91390   7
  -4  -2  -5 254.272 8.86677  12
  -4  -2  -5 248.276 9.24437  10
  -4  -2  -5 260.408 7.96972  11
   4   2   5 257.351 8.38980   7
  -5  -2  -5 58.2651 5.23792  12
  -5  -2  -5 64.7269 4.79523  11
  -5  -2  -5 55.0890 4.54721  17
  -5  -2  -5 53.0118 4.76335  15
  -5  -2  -5 54.5364 4.68525  16
  -5  -2  -5 57.5581 4.14917  19
   5   2   5 51.7844 5.16918  10
  -6  -2  -5 14.5699 3.03106  11
  -6  -2  -5 14.0980 2.63853  19
  -6  -2  -5 11.1634 3.31056  12
  -6  -2  -5 8.02221 2.86298  17
  -6  -2  -5 9.38562 3.06704  16
   6   2   5 16.3705 3.47510  15
  -7  -2  -5 18.4242 1.91081  19
  -7  -2  -5 23.1718 2.44171  17
   6  -3  -5 14.8271 3.17633  15
  -6   3   5 13.7450 3.44665  13
  -6   3   5 17.4684 2.58362  18
   5  -3  -5 5.35690 2.48526  18
   5  -3  -5 7.83744 3.11761  15
  -5   3   5 9.68693 3.61867  13
  -5   3   5 8.04510 2.96761  18
   4  -3  -5 10.4044 3.92743  10
   4  -3  -5 6.66166 2.31940  18
   4  -3  -5 8.81938 3.05826  15
   4  -3  -5 4.58238 3.50764   2
   4  -3  -5 10.4002 2.75066  13
  -4   3   5 13.6249 5.33103   9
   3  -3  -5 117.396 7.06141   3
   3  -3  -5 111.510 7.36176   5
   3  -3  -5 114.290 7.16116   2
   3  -3  -5 117.938 6.95128  10
   3  -3  -5 127.688 7.08892   1
  -3   3   5 95.9415 5.88500   8
  -3   3   5 112.860 5.64279   7
  -3   3   5 124.996 8.03846   9
   2  -3  -5 565.679 14.8564  10
   2  -3  -5 583.983 15.4058   2
   2  -3  -5 585.466 15.1606   1
   2  -3  -5 565.740 14.9232   3
   2  -3  -5 569.077 14.9279   5
  -2   3   5 569.243 14.7753   4
  -2   3   5 576.808 14.0083   8
  -2   3   5 586.218 12.8173   7
  -2   3   5 576.748 16.0896   9
   1  -3  -5 69.3801 4.68693   1
   1  -3  -5 69.9411 5.14729   9
   1  -3  -5 65.3967 4.53904  10
   1  -3  -5 64.7213 4.24058   3
   1  -3  -5 67.3024 4.57689   4
   1  -3  -5 66.5268 4.64660   2
   1  -3  -5 77.7446 4.82659   5
   0  -3  -5 45.5530 3.10505   3
   0  -3  -5 41.4613 3.84193   1
   0  -3  -5 45.6084 3.27073   2
   0  -3  -5 53.7422 4.24913   4
   0  -3  -5 55.5071 4.19797   5
   0  -3  -5 43.2685 4.36071   9
   0  -3  -5 49.6445 3.58875  10
  -1  -3  -5 546.216 13.4162   1
  -1  -3  -5 566.556 12.0281   6
  -1  -3  -5 551.268 13.0868  10
  -1  -3  -5 561.583 13.6260   4
  -1  -3  -5 565.523 12.9751   5
  -1  -3  -5 548.387 14.9958   9
  -2  -3  -5 465.605 14.1769   9
  -2  -3  -5 438.206 10.0569  11
  -2  -3  -5 491.930 12.6125   4
  -2  -3  -5 472.955 12.2531   5
  -2  -3  -5 466.521 12.0829   6
  -2  -3  -5 470.823 12.0867  10
   2   3   5 461.816 8.94646   7
  -3  -3  -5 925.667 21.0454   6
  -3  -3  -5 902.766 20.7362  10
  -3  -3  -5 918.954 23.7192   9
  -3  -3  -5 910.283 17.7467  11
   3   3   5 885.552 18.2690   7
   3   3   5 881.783 20.3327   5
  -4  -3  -5 168.499 7.62084  10
  -4  -3  -5 152.985 7.02563  12
  -4  -3  -5 162.688 6.24420  11
  -4  -3  -5 168.120 10.2194   9
   4   3   5 149.502 6.96985   7
  -5  -3  -5 173.797 6.81275  11
  -5  -3  -5 173.946 6.31366  19
  -5  -3  -5 157.440 6.93795  16
  -5  -3  -5 165.819 7.73372  12
  -5  -3  -5 166.279 7.20607  17
  -5  -3  -5 173.681 8.05073  15
   5   3   5 171.119 9.35972   8
   5   3   5 175.271 8.40905  10
  -6  -3  -5 248.238 8.19390  17
  -6  -3  -5 259.118 8.71225  16
  -6  -3  -5 254.314 9.00961  12
  -6  -3  -5 254.014 8.06668  11
  -6  -3  -5 260.993 7.64245  19
   6  -4  -5 53.1577 4.42955  15
  -6   4   5 55.4225 3.32510  18
  -6   4   5 64.6354 4.71327  13
   5  -4  -5 78.9704 6.72126  10
   5  -4  -5 74.8218 5.67061  15
   5  -4  -5 71.6351 4.69464  18
  -5   4   5 82.2094 5.68783  13
  -5   4   5 78.3836 4.89255  18
   4  -4  -5 8.12407 3.96795  10
   4  -4  -5 10.7956 3.30229  15
   4  -4  -5 11.4018 2.87567  18
  -4   4   5 8.02456 3.66914   8
  -4   4   5 13.2318 3.49454  13
   3  -4  -5 379.197 13.6060   3
   3  -4  -5 378.153 13.6374   2
   3  -4  -5 430.787 13.2135  10
  -3   4   5 411.286 11.9693   8
  -3   4   5 377.818 11.2562   7
  -3   4   5 394.467 14.7502   9
   2  -4  -5 236.508 9.30850   3
   2  -4  -5 246.523 9.55812   5
   2  -4  -5 230.363 8.73234  10
   2  -4  -5 238.793 9.30935   1
   2  -4  -5 240.986 9.51423   2
  -2   4   5 234.485 8.90622   4
  -2   4   5 229.410 8.13947   8
  -2   4   5 222.697 7.11020   7
   1  -4  -5 1014.10 21.7144   2
   1  -4  -5 1016.18 23.7532   9
   1  -4  -5 968.451 21.8955  10
   1  -4  -5 1009.99 21.9356   4
   1  -4  -5 983.150 21.0464   5
   1  -4  -5 1014.42 22.4484   1
   1  -4  -5 992.051 21.0714   3
  -1   4   5 968.903 18.4811   7
   0  -4  -5 376.535 10.8060  10
   0  -4  -5 403.379 12.8264   9
   0  -4  -5 396.073 11.3776   4
   0  -4  -5 420.482 10.5318   2
   0  -4  -5 390.785 11.2091   5
   0  -4  -5 417.332 10.1656   3
   0  -4  -5 410.863 11.6384   1
   0   4   5 405.611 8.43126   7
  -1  -4  -5 18.0455 3.21317   5
  -1  -4  -5 28.7927 3.65763   1
  -1  -4  -5 22.2417 2.70625   6
  -1  -4  -5 14.7637 3.66593   9
  -1  -4  -5 15.3678 2.90073  10
  -1  -4  -5 21.8640 3.31411   4
   1   4   5 25.0630 1.97481   7
  -2  -4  -5 636.788 16.3954   4
  -2  -4  -5 645.043 15.9631   5
  -2  -4  -5 632.233 15.1936   6
  -2  -4  -5 629.163 15.7004  10
  -2  -4  -5 660.444 18.2747   9
  -2  -4  -5 627.470 13.0717  11
   2   4   5 615.442 12.8747   7
  -3  -4  -5 17.7386 2.63877  11
  -3  -4  -5 8.87555 3.21784   6
  -3  -4  -5 13.6303 4.38240   9
  -3  -4  -5 10.4506 2.89622  10
   3   4   5 8.46026 3.19335   5
   3   4   5 7.86492 2.77591   7
  -4  -4  -5 108.858 6.92216  15
  -4  -4  -5 114.395 5.11731  19
  -4  -4  -5 118.393 7.04448  10
  -4  -4  -5 121.412 10.0596   9
  -4  -4  -5 112.161 5.93293  16
  -4  -4  -5 110.202 5.40100  11
  -4  -4  -5 119.327 6.05071  17
  -5  -4  -5 8.84464 3.33648  12
  -5  -4  -5 10.1815 3.52930  15
  -5  -4  -5 9.24976 2.65073  19
  -5  -4  -5 10.2385 3.08084  16
  -5  -4  -5 15.4703 4.20296  10
  -5  -4  -5 13.2645 2.99744  11
  -5  -4  -5 9.00422 2.97271  17
   5   4   5 11.9381 4.82024   8
  -6  -4  -5 0.75804 2.45841  17
  -6  -4  -5 -0.2098 3.06786  16
  -6  -4  -5 0.62831 2.05562  19
  -6  -4  -5 1.39628 3.03136  15
  -6  -4  -5 -0.6819 2.79021  12
   6  -5  -5 36.7959 3.69670  15
  -6   5   5 37.8926 3.35352  13
  -6   5   5 38.0218 2.41490  18
   5  -5  -5 55.1100 3.96630  18
   5  -5  -5 57.3148 5.20894  15
  -5   5   5 64.4060 5.18565  13
  -5   5   5 60.7208 4.54786  18
   4  -5  -5 56.3847 5.09564  15
   4  -5  -5 52.4820 5.81036  10
   4  -5  -5 55.7347 4.48792  18
  -4   5   5 48.6563 4.98299  13
  -4   5   5 52.3282 5.07360   8
   3  -5  -5 43.1901 5.86397   2
   3  -5  -5 63.4380 5.81495  10
  -3   5   5 42.1897 5.03643   8
  -3   5   5 63.1791 7.39497   9
   2  -5  -5 48.6211 4.71480  10
   2  -5  -5 55.2727 5.73670   4
   2  -5  -5 59.1977 5.84185   3
   2  -5  -5 46.1346 5.40158   5
   2  -5  -5 43.0369 6.27869   9
   2  -5  -5 45.8977 5.34507   1
   2  -5  -5 32.8229 4.73410   2
  -2   5   5 55.9179 4.38404   7
   1  -5  -5 275.632 9.70062   2
   1  -5  -5 267.378 9.09737  10
   1  -5  -5 280.767 10.2891   1
   1  -5  -5 283.668 10.1159   4
   1  -5  -5 259.636 10.9749   9
   1  -5  -5 270.847 9.37474   3
   1  -5  -5 275.660 9.80007   5
  -1   5   5 277.126 7.88506   7
  -1   5   5 265.480 8.69215   8
   0  -5  -5 33.0680 4.76836   9
   0  -5  -5 33.3258 4.17608   5
   0  -5  -5 31.8607 3.71946  10
   0  -5  -5 33.4599 4.14330   1
   0  -5  -5 34.6963 4.28937   4
   0   5   5 34.2245 2.93731   7
  -1  -5  -5 271.058 9.98276   5
  -1  -5  -5 280.321 10.3588   4
  -1  -5  -5 287.125 7.56233  11
  -1  -5  -5 307.103 10.2038   1
  -1  -5  -5 277.254 9.54616  10
  -1  -5  -5 312.870 11.8639   9
   1   5   5 289.638 7.66610   7
  -2  -5  -5 27.2011 3.79163  10
  -2  -5  -5 22.0125 3.57300   6
  -2  -5  -5 24.7292 4.62248   9
  -2  -5  -5 26.6068 4.34872   4
  -2  -5  -5 26.3852 4.53386   5
  -2  -5  -5 23.3129 2.81232  11
   2   5   5 23.5664 2.90971   7
  -3  -5  -5 86.8629 6.20810  10
  -3  -5  -5 78.9936 7.25565   4
  -3  -5  -5 78.8701 4.72116  11
  -3  -5  -5 73.1070 6.45064   6
  -3  -5  -5 94.0283 8.38670   9
   3   5   5 85.3728 5.36374   7
   3   5   5 88.0934 7.76831   5
  -4  -5  -5 116.897 7.20845  15
  -4  -5  -5 126.747 6.44882  16
  -4  -5  -5 131.729 7.96911  10
  -4  -5  -5 141.205 6.10795  19
  -4  -5  -5 110.848 6.07675  17
  -4  -5  -5 132.713 6.06228  11
  -4  -5  -5 114.715 9.95707   9
   4   5   5 117.119 9.35175   8
  -5  -5  -5 3.14639 2.61520  11
  -5  -5  -5 5.23870 3.96521  10
  -5  -5  -5 2.11059 3.29939  15
  -5  -5  -5 3.62684 3.11565  16
  -5  -5  -5 2.19571 2.69463  17
  -5  -5  -5 2.36042 2.38944  19
   5   5   5 1.12807 4.09409   8
  -6  -5  -5 151.903 7.26743  15
  -6  -5  -5 147.326 5.74756  19
  -6  -5  -5 146.689 5.95069  17
  -6   6   5 24.1768 2.59618  13
   5  -6  -5 480.277 13.2789  15
  -5   6   5 477.786 11.6821  18
  -5   6   5 460.908 12.7073  13
   4  -6  -5 71.4906 5.73999  15
   4  -6  -5 66.9811 4.35204  18
   4  -6  -5 67.2437 6.07907  10
  -4   6   5 69.3523 5.47433  13
   3  -6  -5 401.459 15.8303   2
   3  -6  -5 422.091 13.0434  15
   3  -6  -5 438.888 13.7302  10
   3  -6  -5 427.547 10.3736  18
  -3   6   5 419.002 12.1706  13
  -3   6   5 426.385 13.2608   8
   2  -6  -5 500.511 16.0785   1
   2  -6  -5 461.967 14.8318   5
   2  -6  -5 506.589 15.9617   3
   2  -6  -5 522.291 17.3882   9
   2  -6  -5 514.402 14.5007  10
   2  -6  -5 473.450 15.9744   2
  -2   6   5 508.415 13.3761   7
  -2   6   5 510.318 15.0275   8
   1  -6  -5 388.470 12.5714   5
   1  -6  -5 415.376 13.8065   1
   1  -6  -5 398.958 14.4625   9
   1  -6  -5 412.542 12.9960   2
   1  -6  -5 399.474 11.9009  10
   1  -6  -5 386.245 13.3338   4
  -1   6   5 388.126 12.2722   8
  -1   6   5 385.737 10.6483   7
   0  -6  -5 2093.48 42.0379  10
   0  -6  -5 2079.44 38.5387   5
   0  -6  -5 2053.80 41.7420   4
   0  -6  -5 2065.59 42.2026   1
   0  -6  -5 2153.02 43.4765   9
   0   6   5 2040.01 36.3700   7
   0   6   5 2025.95 40.8683   8
  -1  -6  -5 175.908 8.76481   4
  -1  -6  -5 169.171 8.52545   1
  -1  -6  -5 170.025 7.62357  10
  -1  -6  -5 186.513 9.28215   9
  -1  -6  -5 166.575 8.38709   5
  -1  -6  -5 177.203 6.12412  11
   1   6   5 163.839 6.36688   7
  -2  -6  -5 231.047 7.33902  11
  -2  -6  -5 237.154 11.1012   9
  -2  -6  -5 217.723 9.27116  10
  -2  -6  -5 238.651 9.89917   1
  -2  -6  -5 219.247 10.6730   5
  -2  -6  -5 220.845 10.3062   4
   2   6   5 230.764 7.82039   7
  -3  -6  -5 375.783 10.5001  11
  -3  -6  -5 381.212 13.3016  10
  -3  -6  -5 371.039 14.9360   9
   3   6   5 407.593 13.7917   8
   3   6   5 350.984 11.0880   7
  -4  -6  -5 104.118 6.38697  16
  -4  -6  -5 120.847 6.12281  11
  -4  -6  -5 108.050 7.61371  10
  -4  -6  -5 111.575 6.83776  15
  -4  -6  -5 109.604 6.05750  19
  -4  -6  -5 113.536 9.75743   9
   4   6   5 117.642 8.51421   8
  -5  -6  -5 289.568 9.25553  19
  -5  -6  -5 282.718 8.85992  17
  -5  -6  -5 274.836 10.9159  10
  -5  -6  -5 296.879 10.2713  15
  -5  -6  -5 280.744 9.06741  11
  -5  -6  -5 277.780 9.79234  16
   5   6   5 263.109 11.4138   8
  -6  -6  -5 113.504 4.60007  17
  -6  -6  -5 94.4607 4.50476  19
  -5   7   5 -0.8953 2.39927  13
  -5   7   5 1.53293 2.13254  18
   4  -7  -5 1.65644 2.95064  10
   4  -7  -5 5.58886 1.99873  18
  -4   7   5 3.69825 3.03898  13
  -4   7   5 5.52738 2.91346  18
   3  -7  -5 37.9017 4.85151  10
   3  -7  -5 43.7281 3.20975  18
  -3   7   5 38.1341 4.51463  13
  -3   7   5 48.5502 5.19929   8
   2  -7  -5 0.56201 3.32315   1
   2  -7  -5 0.94498 2.71793  10
   2  -7  -5 -2.0118 3.36789   2
  -2   7   5 1.08000 3.02031   8
   1  -7  -5 21.6402 4.65995   1
   1  -7  -5 25.8702 4.59114   5
   1  -7  -5 28.5849 5.10092   9
   1  -7  -5 19.9245 4.58718   4
   1  -7  -5 26.6773 3.73099  10
  -1   7   5 25.4490 3.83984   7
  -1   7   5 28.9681 4.42028   8
   0  -7  -5 9.51698 3.51554   4
   0  -7  -5 5.69216 3.66565   9
   0  -7  -5 7.28287 3.08492   5
   0  -7  -5 8.51149 2.75096  10
   0  -7  -5 5.38180 3.23083   1
   0   7   5 5.34133 2.57195   7
   0   7   5 12.5794 3.42773   8
  -1  -7  -5 2.60606 3.19182   4
  -1  -7  -5 -1.7274 2.95187   9
  -1  -7  -5 -4.0899 2.51995   1
  -1  -7  -5 3.91123 3.21393   5
  -1  -7  -5 2.35042 2.51463  10
  -1  -7  -5 0.30573 2.19007  11
   1   7   5 0.35607 3.07269   8
   1   7   5 4.70592 2.38805   7
  -2  -7  -5 13.1338 4.24802   1
  -2  -7  -5 16.1957 3.72527  10
  -2  -7  -5 20.2781 3.16971  11
  -2  -7  -5 9.01954 3.98341   9
   2   7   5 19.3049 4.35056   8
   2   7   5 17.7044 3.35183   7
  -3  -7  -5 7.08253 3.02499  19
  -3  -7  -5 3.27264 2.75202  11
  -3  -7  -5 4.94882 4.15407   9
  -3  -7  -5 1.23307 2.39447  15
  -3  -7  -5 -0.8402 2.85970  16
  -3  -7  -5 8.96107 3.53784  10
   3   7   5 1.23191 3.17835   8
  -4  -7  -5 174.188 7.46847  11
  -4  -7  -5 171.695 7.92981  16
  -4  -7  -5 154.202 7.32168  19
  -4  -7  -5 165.642 8.40974  10
  -4  -7  -5 145.842 9.99050   9
  -4  -7  -5 169.251 7.70556  15
   4   7   5 151.166 8.64978   8
  -5  -7  -5 65.6958 4.92364  11
  -5  -7  -5 67.7068 5.12042  15
  -5  -7  -5 61.4612 5.05987  16
  -5  -7  -5 67.4181 5.05080  19
  -6  -7  -5 12.4515 1.95453  19
   6   7   5 19.7803 2.52988  15
  -5   8   5 109.845 5.10373  13
   4  -8  -5 110.621 6.56276  10
  -4   8   5 125.928 6.52244  13
  -4   8   5 116.204 5.47444  18
   3  -8  -5 37.5461 4.74209  10
   3  -8  -5 41.9226 2.92960  18
  -3   8   5 47.5939 4.67568  13
   2  -8  -5 747.338 17.1971  16
   2  -8  -5 762.294 19.5819  10
   2  -8  -5 749.029 14.2851  18
   2  -8  -5 718.125 22.5374   1
  -2   8   5 743.336 19.0528   8
   1  -8  -5 191.127 10.8172   1
   1  -8  -5 206.785 8.70196  10
   1  -8  -5 214.757 8.04802  14
   1  -8  -5 217.984 8.09264  16
   1  -8  -5 212.913 5.51277  18
  -1   8   5 217.174 9.43393   8
   0  -8  -5 458.741 15.4294   9
   0  -8  -5 422.802 12.9847  10
   0  -8  -5 436.502 15.7696   1
   0  -8  -5 443.421 10.9910  11
   0   8   5 440.747 13.8943   8
   0   8   5 412.088 12.4102   7
  -1  -8  -5 289.169 10.2366  10
  -1  -8  -5 303.258 9.13453  11
  -1  -8  -5 334.203 13.3498   9
  -1  -8  -5 305.186 9.77422  14
  -1  -8  -5 293.472 9.90399  16
  -1  -8  -5 284.521 12.6601   1
   1   8   5 307.022 11.3560   8
   1   8   5 297.625 9.99810   7
  -2  -8  -5 22.5263 3.47090  19
  -2  -8  -5 17.0705 3.33076  15
  -2  -8  -5 22.1470 3.50521  11
  -2  -8  -5 16.9088 3.34218  14
  -2  -8  -5 19.2802 3.78279  16
  -2  -8  -5 23.3773 5.38550   9
  -2  -8  -5 23.3651 3.87055  10
   2   8   5 19.3414 4.19527   8
  -3  -8  -5 286.662 9.45206  11
  -3  -8  -5 293.182 10.5013  10
  -3  -8  -5 290.181 9.65810  19
  -3  -8  -5 289.814 13.5565   9
  -3  -8  -5 288.191 9.66735  15
  -3  -8  -5 291.817 10.1268  16
   3   8   5 291.829 11.1287   8
  -4  -8  -5 81.1439 5.79740  16
  -4  -8  -5 86.8042 5.45351  19
  -4  -8  -5 87.7787 5.53187  15
  -4  -8  -5 84.5452 5.50285  11
   4   8   5 60.7656 5.62756   8
  -5  -8  -5 26.9956 3.17385  15
  -5  -8  -5 21.7580 3.05457  19
  -5   9   5 27.4646 2.34556  13
  -4   9   5 36.5439 3.58788  13
   3  -9  -5 180.630 8.07880  10
  -3   9   5 200.214 7.64367  13
   2  -9  -5 90.7019 6.03660  10
   2  -9  -5 99.0715 5.71834  16
  -2   9   5 93.3231 6.16227   8
   1  -9  -5 139.742 6.42225  16
   1  -9  -5 139.837 7.31445  10
   1  -9  -5 110.701 9.46128   1
   1  -9  -5 140.930 6.52723  14
  -1   9   5 129.661 7.35122   8
   0  -9  -5 11.1492 2.82875  11
   0  -9  -5 15.6079 4.67373   1
   0  -9  -5 13.5711 3.02683  14
   0  -9  -5 13.2028 3.22912  16
   0  -9  -5 13.2862 3.30171  10
   0   9   5 23.4184 4.28800   8
  -1  -9  -5 15.5436 3.14430  11
  -1  -9  -5 16.0210 3.39838  10
  -1  -9  -5 19.6562 3.59607  16
  -1  -9  -5 11.6576 3.11008  14
  -1  -9  -5 15.7820 4.42960   1
   1   9   5 19.7282 4.20002   8
  -2  -9  -5 175.134 7.53479  16
  -2  -9  -5 140.744 9.86565   9
  -2  -9  -5 184.199 7.12251  11
   2   9   5 180.808 8.66289   8
   2   9   5 181.361 7.36106  14
  -3  -9  -5 68.0426 5.15956  16
  -3  -9  -5 58.6740 4.89715  11
  -3  -9  -5 56.4082 4.69829  19
   3   9   5 57.1099 5.52026   8
   3   9   5 70.0853 4.93808  14
  -4  -9  -5 229.017 7.59691  16
  -4  -9  -5 208.936 7.41381  11
  -4  -9  -5 225.357 7.48681  15
  -4  -9  -5 205.047 7.32267  19
  -5  -9  -5 148.796 4.88675  19
  -4  10   5 64.8162 3.61289  13
  -4  10   5 63.6932 2.86901  18
   2 -10  -5 320.836 9.33780  16
   2 -10  -5 301.815 10.4773  10
   1 -10  -5 56.5840 5.07943  10
   1 -10  -5 57.6448 4.39450  14
   1 -10  -5 58.0237 4.66400  16
   0 -10  -5 17.5543 3.43723  16
   0 -10  -5 30.1855 4.05589  10
   0 -10  -5 25.0819 3.56413  14
   0  10   5 26.5771 4.14650   8
  -1 -10  -5 228.807 8.21422  16
   1  10   5 210.516 8.82175   8
  -2 -10  -5 107.259 5.86651  16
  -2 -10  -5 106.420 5.52035  11
   2  10   5 100.296 6.29327   8
   2  10   5 105.452 6.08155  14
  -3 -10  -5 56.5423 4.29976  19
  -3 -10  -5 50.8090 4.07862  11
  -3 -10  -5 65.9711 4.60162  16
   3  10   5 67.7905 4.89904  14
  -4 -10  -5 67.3231 3.90419  16
  -4 -10  -5 63.3488 3.71197  19
  -3  11   5 56.6795 2.97985  18
   2 -11  -5 115.689 5.19277  16
  -2  11   5 111.241 5.21391  18
   1 -11  -5 4.83467 2.50506  16
  -1  11   5 8.99767 2.94944  18
  -1  11   5 6.85510 3.07946  14
   0 -11  -5 78.8580 4.97416  16
   0  11   5 75.4535 5.36873  14
  -1 -11  -5 3.63195 2.56314  16
  -1 -11  -5 9.18495 2.52323  11
   1  11   5 8.39457 2.99107  14
  -2 -11  -5 17.9659 2.95549  16
   2  11   5 17.9581 3.08455  14
  -3 -11  -5 12.3028 2.41348  16
   3  11   5 11.0142 2.39328  14
   2 -12  -5 125.195 4.30783  16
  -2  12   5 125.205 3.78025  18
   1 -12  -5 559.063 12.1373  16
  -1  12   5 557.730 11.6544  18
   0 -12  -5 113.642 4.92668  16
   0  12   5 115.076 4.72855  18
   0  12   5 115.325 4.94583  14
  -1 -12  -5 462.277 10.6516  16
   1  12   5 451.709 10.3882  14
   1  12   5 447.920 10.2962  18
  -2 -12  -5 219.116 6.12260  16
   2  12   5 215.534 6.09205  14
   2  12   5 223.029 6.11006  18
   2   9  -6 4.69215 1.87819  14
  -2  -9   6 10.3250 1.87347  17
  -2  -9   6 9.95750 1.96455  18
   1   9  -6 4.45219 2.13027  14
  -1  -9   6 3.08064 1.94005  17
   0   9  -6 3.09828 1.92606  17
   0   9  -6 3.88585 2.17013  19
  -1   9  -6 3.20310 2.20196  19
  -1   9  -6 0.99600 1.84030  13
  -2   9  -6 36.7958 2.70406  13
   3   8  -6 127.741 4.94369  14
  -3  -8   6 139.917 4.82826  17
  -3  -8   6 121.121 4.71765  18
   2   8  -6 70.1459 4.47408  14
  -2  -8   6 69.7867 4.23778  12
  -2  -8   6 77.8347 4.23117  17
   1   8  -6 109.352 5.46217  14
   1   8  -6 118.901 5.42545  17
  -1  -8   6 120.297 5.45856  12
   0   8  -6 8.47909 2.83600  12
   0   8  -6 4.41897 2.35366  17
   0   8  -6 3.05349 2.86111  19
   0  -8   6 5.42807 2.47231  11
  -1   8  -6 347.638 9.43473  19
  -1   8  -6 364.135 9.69574  13
  -1   8  -6 333.934 9.14737  17
   1  -8   6 329.118 9.25358  11
  -2   8  -6 94.0760 4.90970  13
  -2   8  -6 97.3498 4.68711  17
  -2   8  -6 88.8580 4.46944  19
  -3   8  -6 87.7907 4.32284  13
  -3   8  -6 89.9599 3.86904  19
   3  -8   6 94.1787 4.27947  16
   4   7  -6 18.7749 2.49880  14
  -4  -7   6 14.3338 2.29494  18
  -4  -7   6 13.2824 2.06486  17
   3   7  -6 63.5002 4.36632  14
  -3  -7   6 58.5063 4.17778  12
  -3  -7   6 58.8309 3.96217  17
   2   7  -6 23.0985 3.61157  14
  -2  -7   6 28.5591 3.61223  12
   1   7  -6 32.1548 3.87704  12
   1   7  -6 28.3214 3.82917  14
   1   7  -6 29.2812 3.55699  17
  -1  -7   6 28.1606 4.35795   8
   0   7  -6 123.441 6.11895  13
   0   7  -6 115.784 5.81254  17
   0   7  -6 119.846 5.72112  19
   0   7  -6 120.457 6.14377  12
   0  -7   6 126.856 5.91585  11
   0  -7   6 117.117 7.23998   8
  -1   7  -6 4.01988 2.35878  19
  -1   7  -6 6.58344 3.11997  12
  -1   7  -6 1.41447 2.57291  13
  -1   7  -6 8.75961 2.97005  17
   1  -7   6 7.82805 3.61098   8
   1  -7   6 6.36410 2.83772  11
  -2   7  -6 31.4181 3.80753  13
  -2   7  -6 31.7902 3.88587  12
  -2   7  -6 32.1999 3.42399  19
  -2   7  -6 29.6294 3.56896  17
   2  -7   6 23.3654 3.57240  11
   2  -7   6 27.7503 4.72247   8
  -3   7  -6 212.689 6.73747  19
  -3   7  -6 205.153 7.30144  13
  -3   7  -6 211.628 6.98238  17
   3  -7   6 209.427 7.33814  11
   3  -7   6 198.663 7.19416  16
  -4   7  -6 66.1736 3.87329  13
  -4   7  -6 60.8966 3.20465  19
   4  -7   6 66.5932 4.08451  16
   4   6  -6 92.1916 5.01195  14
  -4  -6   6 86.2264 4.63487  17
  -4  -6   6 68.8225 4.65974  18
   3   6  -6 97.3898 5.80608  14
  -3  -6   6 98.9226 5.51303  12
  -3  -6   6 88.1188 5.12392  17
  -3  -6   6 88.5663 5.56942   8
   2   6  -6 56.2820 4.46008  17
   2   6  -6 57.0685 4.86923  14
  -2  -6   6 54.9578 4.69896  12
  -2  -6   6 45.3358 5.21082   8
   1   6  -6 371.175 10.5985  17
   1   6  -6 358.490 11.6666  19
   1   6  -6 384.181 10.9700  14
   1   6  -6 395.569 11.1633  12
  -1  -6   6 380.815 12.6438   8
  -1  -6   6 340.782 14.7917   1
   0   6  -6 130.769 6.55617  13
   0   6  -6 139.456 6.55880  17
   0   6  -6 124.838 6.03556  19
   0   6  -6 143.126 6.70399  12
   0  -6   6 126.206 5.99660  11
   0  -6   6 123.026 9.16931   1
   0  -6   6 123.505 7.68094   8
  -1   6  -6 9.17804 2.88153  13
  -1   6  -6 17.8561 3.44082  12
  -1   6  -6 16.0266 3.30451  17
  -1   6  -6 15.7590 2.94407  19
   1  -6   6 12.3562 4.18439   8
   1  -6   6 17.9108 3.40273  11
  -2   6  -6 4.81452 2.35974  19
  -2   6  -6 7.03071 2.77786  13
  -2   6  -6 4.08927 2.90334  17
  -2   6  -6 4.17373 3.04677  12
   2  -6   6 7.34024 3.26206  11
   2  -6   6 2.31224 3.86174   8
  -3   6  -6 1.60712 2.47725  13
  -3   6  -6 0.18832 2.05400  19
  -3   6  -6 -1.3779 3.14695  16
  -3   6  -6 -0.6170 2.59548  17
  -3   6  -6 3.43014 3.04531  12
   3  -6   6 2.04360 3.04177  11
   3  -6   6 6.84820 4.44816   8
  -4   6  -6 86.2907 5.26083  12
  -4   6  -6 85.2486 4.82663  13
  -4   6  -6 79.2350 4.12914  19
  -4   6  -6 87.4126 4.90924  17
   4  -6   6 72.5048 5.00956  11
  -5   6  -6 40.9849 2.37408  19
  -5   6  -6 35.6162 2.54144  13
   5  -6   6 44.1640 3.05970  16
  -5  -5   6 28.8142 2.95442  17
  -5  -5   6 18.1719 2.71247  18
   4   5  -6 101.309 5.77885  14
  -4  -5   6 107.163 5.85094  12
  -4  -5   6 100.585 5.63938  17
   3   5  -6 54.8879 4.68292  14
  -3  -5   6 56.0465 4.87597  12
  -3  -5   6 55.6202 4.78175  17
  -3  -5   6 46.1908 5.04642   8
   2   5  -6 283.477 9.17267  17
   2   5  -6 280.711 9.58497  14
  -2  -5   6 284.500 9.43261  12
  -2  -5   6 290.101 10.9701   8
  -2  -5   6 263.979 12.9055   1
   1   5  -6 118.332 6.17806  12
   1   5  -6 115.741 6.51384  13
   1   5  -6 115.717 6.78114  19
   1   5  -6 119.266 6.31214  14
   1   5  -6 120.633 5.94027  17
  -1  -5   6 122.910 8.75207   1
  -1  -5   6 114.123 9.37627   2
  -1  -5   6 112.493 7.09162   8
   0   5  -6 111.276 5.52319  19
   0   5  -6 116.303 5.99358  17
   0   5  -6 126.862 6.16765  12
   0  -5   6 115.224 8.42963   1
   0  -5   6 114.433 8.20642   2
   0  -5   6 119.834 7.46459   8
   0  -5   6 125.352 5.94273  11
   0  -5   6 118.136 6.41972   7
  -1   5  -6 125.206 5.59813  19
  -1   5  -6 115.470 6.23375  17
  -1   5  -6 126.861 6.52446  12
  -1   5  -6 123.728 6.27057  13
   1  -5   6 117.163 6.50306  11
  -2   5  -6 162.240 7.56607  12
  -2   5  -6 151.901 6.22686  19
  -2   5  -6 140.953 7.13830  17
  -2   5  -6 148.083 6.91802  13
   2  -5   6 153.930 7.37942  11
  -3   5  -6 145.341 7.21298  17
  -3   5  -6 133.050 6.77274  13
  -3   5  -6 128.298 7.41039  16
  -3   5  -6 139.805 7.50576  12
  -3   5  -6 131.443 5.75713  19
   3  -5   6 136.345 7.12229  11
   3  -5   6 141.763 9.29710   8
  -4   5  -6 116.897 6.83028  12
  -4   5  -6 127.502 6.61862  17
  -4   5  -6 117.927 6.88747  16
  -4   5  -6 113.186 6.06950  13
  -4   5  -6 123.919 5.66736  19
   4  -5   6 104.574 6.23118  11
  -5   5  -6 48.3148 3.15617  19
  -5   5  -6 36.7705 3.82727  16
  -5   5  -6 44.9876 3.49441  17
  -5   5  -6 46.8048 3.35516  13
  -5  -4   6 66.5520 4.73956  17
  -5  -4   6 77.0525 5.24446  12
   4   4  -6 61.3669 4.70516  14
  -4  -4   6 58.6631 5.18052  17
  -4  -4   6 53.7205 5.46630  12
   3   4  -6 435.998 12.1112  14
  -3  -4   6 412.685 16.5573   1
  -3  -4   6 441.826 12.4696  17
  -3  -4   6 478.399 13.2824  12
   2   4  -6 197.398 8.04071  14
   2   4  -6 211.215 7.94729  17
   2   4  -6 203.810 8.18932  12
  -2  -4   6 186.103 10.2820   1
  -2  -4   6 199.775 8.74064   7
  -2  -4   6 218.303 9.68011   8
   1   4  -6 658.698 15.7582  12
  -1  -4   6 657.151 19.6523   1
  -1  -4   6 685.892 19.1967   4
  -1  -4   6 688.962 18.0331   8
  -1  -4   6 657.952 19.4958   2
   0   4  -6 302.096 9.44547  12
   0  -4   6 294.442 12.2950   3
   0  -4   6 319.964 8.95605  11
   0  -4   6 301.910 12.4699   2
   0  -4   6 308.487 9.26958   7
   0  -4   6 295.783 12.0960   1
   0  -4   6 325.932 12.3422   6
  -1   4  -6 189.467 7.67222  12
   1  -4   6 192.042 9.85360   2
   1  -4   6 193.672 9.86507   1
   1  -4   6 201.342 7.63756  11
   1  -4   6 193.735 7.86201   7
  -2   4  -6 518.946 13.0249  11
  -2   4  -6 534.658 14.4583  12
   2  -4   6 475.826 16.8745   2
   2  -4   6 508.703 13.5080   7
  -3   4  -6 210.251 8.19545  11
  -3   4  -6 224.592 9.65525  12
  -3   4  -6 226.716 8.01078  19
  -3   4  -6 213.878 8.29267  13
  -3   4  -6 212.199 8.78310  16
  -3   4  -6 207.188 8.64221  17
  -4   4  -6 467.006 13.3305  17
  -4   4  -6 513.142 14.6227  12
  -4   4  -6 487.383 12.9469  13
  -4   4  -6 472.345 13.3934  16
  -4   4  -6 496.416 12.9150  19
  -4   4  -6 472.162 12.8489  11
  -5   4  -6 197.942 6.81871  19
  -5   4  -6 198.055 7.87567  16
  -5   4  -6 195.636 7.65082  17
  -6   4  -6 45.4608 3.12390  16
  -6   4  -6 49.5263 2.24156  19
  -6  -3   6 2.12224 1.43542  18
  -5  -3   6 9.95693 3.50067  18
  -5  -3   6 12.1278 3.52501  12
  -5  -3   6 19.8744 3.45372  17
   4   3  -6 5.81792 2.77944  14
  -4  -3   6 5.03008 3.82433  12
  -4  -3   6 1.46597 3.52849   8
  -4  -3   6 2.58022 4.55796   9
  -4  -3   6 2.82888 3.19560  17
   3   3  -6 12.6275 3.14948  14
  -3  -3   6 5.33040 4.15852   9
  -3  -3   6 10.4034 3.72744  17
  -3  -3   6 9.55712 4.45762   8
  -3  -3   6 9.69534 3.67862  12
  -3  -3   6 9.35814 4.23643   1
   2   3  -6 132.539 7.94512   3
   2   3  -6 144.668 8.22184   2
   2   3  -6 125.360 7.09047  12
  -2  -3   6 146.661 8.25920   9
  -2  -3   6 135.539 7.27068   7
  -2  -3   6 141.948 8.72774   6
  -2  -3   6 131.677 8.11035   1
  -2  -3   6 130.795 8.40650   8
   1   3  -6 56.8109 4.66576  12
   1   3  -6 49.4157 5.48700   2
  -1  -3   6 59.2875 5.76561   3
  -1  -3   6 66.8192 6.26422   1
  -1  -3   6 69.4962 6.14817   4
  -1  -3   6 66.3969 6.33742   6
  -1  -3   6 64.1199 4.73111   7
   0   3  -6 39.3149 3.82117  12
   0  -3   6 35.2239 3.73606   7
   0  -3   6 39.8035 5.35254   6
   0  -3   6 36.4313 4.75238   3
   0  -3   6 40.7604 5.47834   2
   0  -3   6 37.6494 4.85474   1
  -1   3  -6 33.3411 3.96736  12
  -1   3  -6 35.0260 3.53980  11
   1  -3   6 33.1183 5.21341   2
   1  -3   6 30.3299 3.23359   7
   1  -3   6 32.6995 4.98707   6
   1  -3   6 36.1056 4.79761   1
   1  -3   6 27.6660 4.42256   3
  -2   3  -6 6.30745 3.19365  12
  -2   3  -6 14.2587 2.88903  11
   2  -3   6 10.6223 3.97249   6
   2  -3   6 17.1620 3.99003   3
   2  -3   6 18.0257 4.40916   2
   2  -3   6 13.4602 2.63288   7
  -3   3  -6 41.7181 4.47190  17
  -3   3  -6 44.9006 4.70245  16
  -3   3  -6 40.2930 4.08459  11
  -3   3  -6 48.2884 4.62538  13
  -3   3  -6 45.0302 4.04669  19
  -3   3  -6 43.3630 5.12579  12
   3  -3   6 51.3319 7.04384   2
  -4   3  -6 112.117 7.51053  12
  -4   3  -6 115.236 5.96223  19
  -4   3  -6 103.626 6.46672  16
  -4   3  -6 107.534 6.49312  17
  -4   3  -6 108.312 6.45531  13
  -4   3  -6 111.695 6.12309  11
  -5   3  -6 20.8960 3.36188  19
  -5   3  -6 13.6841 3.93783  12
  -5   3  -6 14.1118 3.71342  16
  -5   3  -6 20.1621 3.50200  11
  -5   3  -6 13.6169 3.34981  17
  -6   3  -6 70.6134 3.48668  19
  -6   3  -6 75.6587 4.45339  17
  -6   3  -6 76.3850 4.68408  16
  -6  -2   6 27.6916 2.77245  18
  -5  -2   6 220.786 8.66967  12
  -5  -2   6 242.552 7.92776  17
  -4  -2   6 219.823 10.2039   8
  -4  -2   6 236.614 9.25805  12
  -4  -2   6 224.274 8.36869  17
  -4  -2   6 237.338 12.0364   9
   3   2  -6 404.974 14.2233   2
  -3  -2   6 427.654 13.1754   7
  -3  -2   6 399.399 14.6250   1
  -3  -2   6 423.167 12.5002  12
  -3  -2   6 419.184 14.9050   9
   2   2  -6 488.789 14.7785   2
   2   2  -6 505.177 14.6999   3
   2   2  -6 443.719 13.1483  12
  -2  -2   6 455.946 12.9090   7
  -2  -2   6 475.066 15.0269   8
  -2  -2   6 484.020 15.1332   4
  -2  -2   6 470.332 14.9185   1
  -2  -2   6 493.538 14.7353   9
   1   2  -6 46.4900 4.85352   2
   1   2  -6 53.4218 5.03983   3
  -1  -2   6 53.9927 5.12186   4
  -1  -2   6 52.5606 5.44437   6
  -1  -2   6 63.0786 4.57321   7
  -1  -2   6 66.2065 5.86021   1
   0   2  -6 913.208 21.8856   2
   0  -2   6 928.652 19.9667   4
   0  -2   6 882.171 21.3484   3
   0  -2   6 872.169 17.0651   7
   0  -2   6 896.304 21.1899   1
   0  -2   6 897.471 21.1186   6
  -1   2  -6 87.9545 4.47732  11
   1  -2   6 91.4338 6.24750   6
   1  -2   6 92.6361 6.41566   2
   1  -2   6 90.1941 6.49241   3
   1  -2   6 95.1533 5.80125   1
   1  -2   6 91.8101 3.54153   7
  -2   2  -6 644.696 13.8967  11
  -2   2  -6 633.330 15.8805  12
   2  -2   6 610.603 18.5741   2
   2  -2   6 650.155 17.4356   6
   2  -2   6 632.267 18.2615   3
   2  -2   6 665.492 12.9145   7
  -3   2  -6 284.094 10.2085  12
  -3   2  -6 305.325 8.92256  11
   3  -2   6 297.127 13.6956   2
   3  -2   6 303.195 8.63814   7
  -4   2  -6 73.9928 4.69255  19
  -4   2  -6 68.1307 5.10162  17
  -4   2  -6 64.8337 5.90032  12
  -4   2  -6 64.4224 4.87620  11
  -4   2  -6 74.7345 5.41848  16
   4  -2   6 63.7968 5.42679  10
  -5   2  -6 161.506 7.30831  17
  -5   2  -6 162.304 6.44772  19
  -5   2  -6 156.947 6.80484  11
  -5   2  -6 165.689 8.22805  12
  -5   2  -6 162.451 7.48812  16
   5  -2   6 159.785 7.90846  10
  -6   2  -6 6.30965 3.05652  12
  -6   2  -6 10.4802 2.42047  19
  -6   2  -6 9.82934 2.94107  16
  -6   2  -6 7.71521 2.66493  17
   6   1  -6 214.680 7.66957  15
  -6  -1   6 216.386 6.49806  18
   5   1  -6 93.6385 6.75090  15
  -5  -1   6 96.0191 5.75026  12
   4   1  -6 397.581 8.63632  18
  -4  -1   6 393.605 15.4836   9
  -4  -1   6 421.266 13.5642   8
  -4  -1   6 382.994 11.4201  12
   3   1  -6 75.2536 6.70009   3
   3   1  -6 73.9611 6.65263   2
  -3  -1   6 82.3084 6.33751   8
  -3  -1   6 70.4165 5.53126   7
  -3  -1   6 72.2212 6.68575   1
  -3  -1   6 77.0224 7.16439   9
  -3  -1   6 75.0776 5.09670  12
   2   1  -6 1.93618 2.36393   3
   2   1  -6 1.33795 2.35889  12
   2   1  -6 1.69850 2.28241   2
  -2  -1   6 6.85033 2.81359   4
  -2  -1   6 6.04467 2.79222   9
  -2  -1   6 3.21290 2.16471   7
  -2  -1   6 -0.1747 2.66400   8
  -2  -1   6 3.19299 2.54186   1
   1   1  -6 124.419 6.50921   3
   1   1  -6 127.953 6.75633   2
  -1  -1   6 128.123 6.36412   4
  -1  -1   6 123.111 6.70572   6
  -1  -1   6 126.202 6.10858   9
  -1  -1   6 122.022 5.27831   7
  -1  -1   6 122.947 6.65299   1
   0   1  -6 -1.8995 1.87524   3
   0   1  -6 -0.5552 2.07257   2
   0  -1   6 2.20786 1.79212   4
   0  -1   6 3.34698 2.26389   1
   0  -1   6 -1.4442 2.35484   6
   1  -1   6 149.511 6.50868   1
   1  -1   6 143.584 6.85071   6
   1  -1   6 158.257 7.60994   3
   1  -1   6 160.632 7.71441   2
  -2   1  -6 400.029 11.4992  12
  -2   1  -6 415.576 9.93751  11
   2  -1   6 419.416 12.5156   6
   2  -1   6 423.102 13.8385   3
   2  -1   6 443.185 14.4271   2
  -3   1  -6 42.6567 5.19355   6
  -3   1  -6 49.4364 4.58842  12
  -3   1  -6 42.6809 3.80925  11
   3  -1   6 43.9457 3.32035   7
   3  -1   6 46.0593 4.10323  10
   3  -1   6 38.0968 4.44122   5
  -4   1  -6 376.038 11.2076  16
  -4   1  -6 383.800 11.8993  12
  -4   1  -6 385.078 9.75108  19
  -4   1  -6 379.196 11.0809  17
  -4   1  -6 374.936 10.5520  11
   4  -1   6 404.537 12.2968  10
  -5   1  -6 233.876 8.79325  16
  -5   1  -6 248.858 8.41192  11
  -5   1  -6 246.170 9.46203  12
  -5   1  -6 249.907 7.62389  19
  -5   1  -6 234.928 8.55624  17
   5  -1   6 225.542 9.56844  10
  -6   1  -6 172.292 5.84258  19
  -6   1  -6 170.014 6.66673  17
  -6   1  -6 169.203 6.93495  16
  -6   1  -6 161.245 7.17858  12
   6   0  -6 38.5304 4.19848  15
  -6   0   6 48.1844 3.43877  18
   5   0  -6 241.460 9.66388  15
  -5   0   6 223.964 8.01988  12
   4   0  -6 131.856 7.35420  15
   4   0  -6 131.932 6.78774  13
   4   0  -6 127.596 4.59197  18
  -4   0   6 125.486 5.98948  12
  -4   0   6 138.427 7.31601   8
  -4   0   6 123.157 8.96208   9
   3   0  -6 24.9302 4.22020   2
   3   0  -6 23.7039 4.16633   3
  -3   0   6 23.5099 3.16628  12
  -3   0   6 23.8831 4.26402   1
  -3   0   6 18.5242 4.05434   4
  -3   0   6 17.5662 3.36530   8
  -3   0   6 22.8476 4.41064   9
   2   0  -6 48.9819 4.74561   3
   2   0  -6 49.3021 4.87770   2
   2   0  -6 44.4670 4.59466   1
  -2   0   6 46.3948 4.69429   4
  -2   0   6 50.3623 3.53108   7
  -2   0   6 50.1427 5.00027   9
   1   0  -6 24.3315 3.55857   1
   1   0  -6 19.0591 3.27929   2
   1   0  -6 24.4476 3.53850   3
  -1   0   6 23.4216 3.49088   6
  -1   0   6 20.8962 3.16362   4
  -1   0   6 24.7026 3.57004   9
  -1   0   6 24.6071 2.54364   7
   0   0  -6 274.885 9.37588   2
   0   0  -6 292.645 8.99773   9
   0   0  -6 274.012 9.06079   1
   0   0  -6 278.351 9.05903   3
   0   0   6 288.676 8.87363   6
   0   0   6 282.676 8.77427   4
  -1   0  -6 201.771 8.30974   2
  -1   0  -6 218.061 7.50151   1
   1   0   6 210.601 8.24644   3
   1   0   6 225.964 7.06324   4
   1   0   6 214.303 6.22861   5
   1   0   6 206.119 7.59849   6
  -2   0  -6 5.48684 1.94344  10
  -2   0  -6 9.18733 2.81640   6
  -2   0  -6 4.75320 1.89077  11
   2   0   6 5.10518 3.35276   2
   2   0   6 5.62270 3.20787   3
   2   0   6 3.00646 1.96056   5
  -3   0  -6 188.143 7.47195  12
  -3   0  -6 203.486 7.66057  10
  -3   0  -6 187.739 8.71450   6
  -3   0  -6 191.334 6.63407  11
   3   0   6 203.673 5.85617   7
   3   0   6 196.019 8.15025   5
  -4   0  -6 147.756 5.50392  19
  -4   0  -6 154.876 6.92515  17
  -4   0  -6 154.308 6.45330  11
  -4   0  -6 135.130 6.67837  16
  -4   0  -6 138.543 7.12090  12
   4   0   6 152.541 7.50524  10
  -5   0  -6 344.648 11.1112  12
  -5   0  -6 361.207 10.3399  11
  -5   0  -6 362.717 9.34166  19
  -5   0  -6 335.535 10.4440  17
  -5   0  -6 330.668 10.4905  16
   5   0   6 347.129 11.9417  10
  -6   0  -6 210.793 6.40671  19
  -6   0  -6 213.822 7.63280  16
  -6   0  -6 214.528 8.19643  12
  -6   0  -6 196.686 7.21495  17
   6  -1  -6 251.110 8.83735  15
  -6   1   6 246.382 7.13884  18
   5  -1  -6 295.378 10.6655  15
   4  -1  -6 56.3360 4.57768  13
   4  -1  -6 54.4235 3.43444  18
   4  -1  -6 54.1328 5.11252  15
  -4   1   6 54.2533 6.81252   9
  -4   1   6 65.0234 5.72969   8
   3  -1  -6 127.763 7.38108   2
   3  -1  -6 129.597 7.36647   1
   3  -1  -6 124.155 7.29813   3
  -3   1   6 125.337 7.48776   4
  -3   1   6 117.682 7.59021   9
  -3   1   6 129.433 6.57470   8
   2  -1  -6 13.4907 3.03480   2
   2  -1  -6 12.8167 3.15365   1
   2  -1  -6 14.7339 3.21237   3
  -2   1   6 8.70085 2.07059   7
  -2   1   6 8.82595 2.70443   4
  -2   1   6 7.82549 2.92043   9
   1  -1  -6 991.228 21.7541   1
   1  -1  -6 991.083 20.9501   3
   1  -1  -6 981.046 21.6058   2
  -1   1   6 952.747 21.0190   4
  -1   1   6 955.712 16.8854   7
   0  -1  -6 777.172 17.9467   2
   0  -1  -6 793.715 18.0356   1
   0  -1  -6 792.218 18.1979   9
   0  -1  -6 833.317 15.2323   5
   0  -1  -6 782.230 17.4487   3
   0   1   6 772.734 17.3479   4
   0   1   6 795.796 16.3753   6
  -1  -1  -6 127.579 5.93162   9
  -1  -1  -6 120.632 5.55115   1
  -1  -1  -6 117.271 6.10619   2
  -1  -1  -6 129.352 4.89797  10
  -1  -1  -6 142.196 6.31923   3
  -1  -1  -6 124.806 5.48592   4
  -1  -1  -6 126.936 5.16683   5
  -1  -1  -6 124.650 5.59611   6
  -2  -1  -6 30.3001 3.02477  10
  -2  -1  -6 30.3403 3.65874   6
  -2  -1  -6 28.7705 2.65235  11
   2   1   6 29.3292 3.37279   5
  -3  -1  -6 28.9026 4.19944   6
  -3  -1  -6 36.1636 3.29862  11
  -3  -1  -6 33.1478 3.75980  12
  -3  -1  -6 31.6220 3.61782  10
   3   1   6 36.3492 4.26744   5
  -4  -1  -6 9.47432 3.17402  10
  -4  -1  -6 11.7649 2.18625  19
  -4  -1  -6 12.2865 2.88945  17
  -4  -1  -6 8.10746 2.74162  16
  -4  -1  -6 10.8579 3.19382  12
  -4  -1  -6 8.92467 2.67529  11
  -5  -1  -6 93.1168 5.36918  11
  -5  -1  -6 93.7825 5.80836  17
  -5  -1  -6 88.1011 6.27184  12
  -5  -1  -6 88.5261 5.83544  16
  -5  -1  -6 95.4520 4.66240  19
   5   1   6 90.0550 6.24760  10
  -6  -1  -6 9.83975 2.22065  19
  -6  -1  -6 14.2159 3.49477  12
  -6  -1  -6 9.28675 2.71436  17
  -6  -1  -6 12.9751 3.19792  16
   6  -2  -6 60.1168 4.68531  15
  -6   2   6 59.7269 3.69978  18
   5  -2  -6 174.257 8.09163  15
  -5   2   6 161.031 7.59092  13
   4  -2  -6 174.361 8.29819  15
   4  -2  -6 188.301 7.48928  13
   4  -2  -6 176.612 5.59679  18
  -4   2   6 171.220 10.4881   9
  -4   2   6 183.793 8.17451   8
   3  -2  -6 64.7483 6.25466   3
   3  -2  -6 55.2076 5.81079   2
   3  -2  -6 59.9865 5.91014   1
  -3   2   6 64.6394 5.26862   8
  -3   2   6 51.5907 5.89273   9
  -3   2   6 63.7696 6.17058   4
   2  -2  -6 415.095 12.8627   2
   2  -2  -6 423.454 12.6698   1
   2  -2  -6 401.985 12.4476   3
  -2   2   6 403.681 12.9424   9
  -2   2   6 404.757 12.4762   4
  -2   2   6 414.832 9.99779   7
   1  -2  -6 990.497 21.7470   2
   1  -2  -6 975.585 18.9785   5
   1  -2  -6 994.764 22.5434   9
   1  -2  -6 983.157 21.8130   1
   1  -2  -6 980.978 21.0256   3
  -1   2   6 988.485 21.5704   4
  -1   2   6 979.142 17.1259   7
   0  -2  -6 764.495 17.9774   9
   0  -2  -6 761.782 17.4592   1
   0  -2  -6 767.901 16.6980   3
   0  -2  -6 750.390 17.0244   2
   0  -2  -6 750.184 15.3070   5
   0  -2  -6 760.152 17.2700   4
  -1  -2  -6 571.157 13.4612  10
  -1  -2  -6 569.643 14.0529   1
  -1  -2  -6 576.212 13.9807   4
  -1  -2  -6 581.423 13.9402   3
  -1  -2  -6 590.545 13.0209   6
  -1  -2  -6 583.615 13.1703   5
  -1  -2  -6 589.805 15.0773   9
  -1  -2  -6 606.897 14.6006   2
  -2  -2  -6 95.7923 4.88792  10
  -2  -2  -6 100.043 6.42421   9
  -2  -2  -6 93.9895 5.32122   6
  -2  -2  -6 101.796 4.35747  11
   2   2   6 105.260 5.50932   5
  -3  -2  -6 1056.19 23.5271   6
  -3  -2  -6 1026.75 23.3377  10
  -3  -2  -6 1038.30 19.9037  11
  -3  -2  -6 1025.73 21.4721  12
   3   2   6 1042.37 19.1739   7
   3   2   6 1024.93 22.5642   5
  -4  -2  -6 972.325 22.5232  10
  -4  -2  -6 915.958 17.8863  19
  -4  -2  -6 890.232 20.6597  15
  -4  -2  -6 950.966 19.2067  11
  -4  -2  -6 899.236 19.4474  17
  -4  -2  -6 921.175 20.0457  16
  -4  -2  -6 961.638 20.7690  12
  -5  -2  -6 639.625 14.7924  11
  -5  -2  -6 621.754 14.9454  17
  -5  -2  -6 601.055 15.7035  15
  -5  -2  -6 643.255 16.1119  12
  -5  -2  -6 620.649 15.4498  16
  -5  -2  -6 657.893 13.9663  19
   5   2   6 649.192 17.5135  10
  -6  -2  -6 298.708 9.11023  16
  -6  -2  -6 285.300 9.49880  12
  -6  -2  -6 295.572 8.96420  17
  -6  -2  -6 289.768 7.78684  19
   6   2   6 309.701 9.13818  15
   6  -3  -6 79.9140 5.25784  15
  -6   3   6 73.0605 3.84462  18
  -6   3   6 78.7018 5.21973  13
   5  -3  -6 136.980 7.25101  15
  -5   3   6 136.113 6.96416  13
  -5   3   6 134.332 6.27239  18
   4  -3  -6 6.95777 2.52865  13
   4  -3  -6 11.8651 2.66192  18
   4  -3  -6 15.5201 3.56690  15
  -4   3   6 8.46319 5.07707   9
  -4   3   6 7.87612 2.97467   8
   3  -3  -6 152.618 8.10956   1
   3  -3  -6 151.427 7.51490  10
   3  -3  -6 139.508 8.19466   2
   3  -3  -6 140.531 8.20399   3
  -3   3   6 141.671 7.20290   8
  -3   3   6 137.711 7.98779   4
  -3   3   6 149.049 6.75165   7
  -3   3   6 148.044 8.80695   9
   2  -3  -6 1.29151 2.82083   5
   2  -3  -6 0.63847 2.40124   1
   2  -3  -6 2.62708 2.42177  10
   2  -3  -6 -1.3859 1.99622   3
   2  -3  -6 1.01494 2.18565   2
  -2   3   6 2.65706 2.33011   8
  -2   3   6 2.91473 2.39151   4
  -2   3   6 2.01924 2.09069   7
  -2   3   6 2.53936 2.50768   9
   1  -3  -6 6.54505 2.42746   3
   1  -3  -6 2.58672 2.27279   1
   1  -3  -6 5.89122 3.00851   9
   1  -3  -6 4.25379 2.29051  10
   1  -3  -6 5.27575 2.36124   4
   1  -3  -6 -0.2249 1.99573   5
   1  -3  -6 8.05183 2.71913   2
  -1   3   6 3.93143 1.54078   7
   0  -3  -6 385.295 10.7540   2
   0  -3  -6 388.020 10.2335   5
   0  -3  -6 368.497 10.9949   4
   0  -3  -6 378.690 11.9406   9
   0  -3  -6 374.471 11.1174   1
   0  -3  -6 387.231 10.2318   3
   0  -3  -6 364.655 10.0333  10
  -1  -3  -6 31.7459 3.68435   1
  -1  -3  -6 34.2063 3.13632   6
  -1  -3  -6 33.1810 3.60908   5
  -1  -3  -6 35.7926 4.42067   9
  -1  -3  -6 31.2310 3.13649  10
  -1  -3  -6 26.8523 3.37951   4
  -2  -3  -6 35.6888 3.44683  10
  -2  -3  -6 33.9668 4.98826   9
  -2  -3  -6 39.7624 4.18182   5
  -2  -3  -6 41.6160 4.23968   4
  -2  -3  -6 37.0009 3.92471   6
  -2  -3  -6 35.7194 2.97818  11
  -3  -3  -6 155.932 5.97623  11
  -3  -3  -6 155.708 8.97299   9
  -3  -3  -6 159.055 7.96100   6
  -3  -3  -6 145.305 6.78199  10
   3   3   6 167.514 6.51707   7
   3   3   6 160.130 7.74401   5
  -4  -3  -6 16.1513 3.14949  17
  -4  -3  -6 17.1718 3.51034  10
  -4  -3  -6 17.9712 2.61288  19
  -4  -3  -6 23.1131 3.46212  16
  -4  -3  -6 17.0441 3.61527  12
  -4  -3  -6 15.2792 2.92345  11
  -4  -3  -6 16.9923 3.61707  15
  -5  -3  -6 177.898 7.10865  11
  -5  -3  -6 180.875 8.07711  15
  -5  -3  -6 180.177 7.47094  16
  -5  -3  -6 188.808 7.46643  17
  -5  -3  -6 196.827 6.55818  19
  -5  -3  -6 191.007 8.23171  12
   5   3   6 174.497 8.46783  10
  -6  -3  -6 2.61085 2.80761  16
  -6  -3  -6 6.80301 2.99709  12
  -6  -3  -6 6.33308 2.10118  19
  -6  -3  -6 3.43207 2.55378  17
   6  -4  -6 72.5248 4.95481  15
  -6   4   6 60.0615 4.16941  13
  -6   4   6 59.5509 3.33637  18
   5  -4  -6 -0.2708 2.78131  15
  -5   4   6 4.97736 3.15723  13
  -5   4   6 4.06060 2.68100  18
   4  -4  -6 37.0884 5.04173  10
   4  -4  -6 30.8277 4.34092  15
   4  -4  -6 33.2713 3.30482  18
  -4   4   6 46.6687 7.97912   9
   3  -4  -6 92.9736 7.92542   5
   3  -4  -6 78.1234 7.14955   2
   3  -4  -6 90.7529 6.59527  10
   3  -4  -6 89.8900 6.69248   1
  -3   4   6 85.6734 5.91851   8
  -3   4   6 90.7130 5.69116   7
  -3   4   6 101.389 8.98610   9
   2  -4  -6 257.113 9.30205  10
   2  -4  -6 262.820 10.4037   2
   2  -4  -6 280.077 10.5066   1
   2  -4  -6 261.085 10.0148   5
   2  -4  -6 254.902 9.96432   3
  -2   4   6 281.117 11.4819   9
  -2   4   6 261.201 10.1242   4
  -2   4   6 265.515 8.15412   7
  -2   4   6 273.904 9.16722   8
   1  -4  -6 447.752 12.3859  10
   1  -4  -6 471.428 14.7812   9
   1  -4  -6 473.785 13.4690   4
   1  -4  -6 452.729 13.0259   2
   1  -4  -6 448.949 12.6432   3
   1  -4  -6 479.212 13.0442   5
   1  -4  -6 480.322 13.7260   1
  -1   4   6 452.250 10.3841   7
   0  -4  -6 159.971 8.00606   9
   0  -4  -6 172.913 7.52959   4
   0  -4  -6 174.807 7.55537   1
   0  -4  -6 162.210 6.76639  10
   0  -4  -6 179.562 7.44931   5
   0  -4  -6 169.085 6.56190   3
   0  -4  -6 172.394 6.90413   2
   0   4   6 177.683 4.87583   7
  -1  -4  -6 591.545 14.7817   5
  -1  -4  -6 574.076 14.6253  10
  -1  -4  -6 610.487 15.4452   1
  -1  -4  -6 592.074 17.0005   9
  -1  -4  -6 586.728 15.4624   4
  -2  -4  -6 225.125 8.21748   6
  -2  -4  -6 212.347 8.72219   5
  -2  -4  -6 206.107 8.71054   4
  -2  -4  -6 213.184 6.58616  11
  -2  -4  -6 221.082 8.10575  10
  -2  -4  -6 208.991 10.1046   9
   2   4   6 222.739 6.12729   7
  -3  -4  -6 76.4877 6.52877   6
  -3  -4  -6 88.5099 4.78517  11
  -3  -4  -6 83.0558 5.54549  10
  -3  -4  -6 88.9000 8.33251   9
   3   4   6 83.2737 6.80351   5
   3   4   6 81.5211 5.53781   7
  -4  -4  -6 205.685 9.07954  15
  -4  -4  -6 203.196 8.90702  10
  -4  -4  -6 196.541 6.43970  19
  -4  -4  -6 183.679 7.38811  17
  -4  -4  -6 183.817 7.43128  16
  -4  -4  -6 187.663 6.97852  11
  -4  -4  -6 174.923 10.9481   9
  -5  -4  -6 30.4706 3.97831  16
  -5  -4  -6 28.7666 4.74110  10
  -5  -4  -6 40.9669 4.14094  11
  -5  -4  -6 29.3606 4.48773  15
  -5  -4  -6 36.9733 4.14641  17
  -5  -4  -6 39.9896 3.52028  19
  -6  -4  -6 57.0819 4.64944  16
  -6  -4  -6 54.3276 4.11641  17
  -6  -4  -6 50.0105 4.59114  15
  -6  -4  -6 48.5153 3.37600  19
   6  -5  -6 127.322 5.60109  15
  -6   5   6 120.512 5.11705  13
  -6   5   6 120.927 3.93191  18
   5  -5  -6 307.328 10.5705  15
  -5   5   6 299.626 8.99119  18
  -5   5   6 298.431 9.88429  13
   4  -5  -6 71.3710 5.76907  15
   4  -5  -6 76.9658 3.92316  18
   4  -5  -6 64.2736 6.00936  10
  -4   5   6 68.3556 6.11412   8
  -4   5   6 79.9369 5.81540  13
   3  -5  -6 86.3537 6.35177  10
   3  -5  -6 88.2265 8.16934   2
  -3   5   6 94.5085 9.63352   9
  -3   5   6 62.6487 6.01726   8
   2  -5  -6 825.940 24.1129   9
   2  -5  -6 868.058 20.9134  10
   2  -5  -6 863.424 21.6058   3
   2  -5  -6 903.942 22.3130   1
   2  -5  -6 856.151 22.0599   2
   2  -5  -6 854.973 21.0156   5
  -2   5   6 863.575 20.3477   8
  -2   5   6 831.500 21.7555   4
  -2   5   6 883.493 18.6594   7
   1  -5  -6 42.5172 4.97200   4
   1  -5  -6 52.7055 5.19711   2
   1  -5  -6 43.8925 4.59314   3
   1  -5  -6 37.8820 4.68379   1
   1  -5  -6 50.7334 4.47863  10
   1  -5  -6 41.4734 5.64208   9
   1  -5  -6 36.7169 4.57900   5
  -1   5   6 42.6906 3.52139   7
   0  -5  -6 679.609 16.9974   5
   0  -5  -6 674.333 19.1254   9
   0  -5  -6 695.164 17.9973   4
   0  -5  -6 662.693 16.9023  10
   0  -5  -6 706.682 18.0803   1
   0   5   6 676.200 13.7262   7
  -1  -5  -6 691.465 17.6560   1
  -1  -5  -6 690.632 19.3168   9
  -1  -5  -6 652.134 13.5153  11
  -1  -5  -6 679.888 18.1745   4
  -1  -5  -6 664.889 16.9188  10
  -1  -5  -6 679.369 17.4536   5
   1   5   6 692.904 13.6726   7
  -2  -5  -6 293.967 11.1568   5
  -2  -5  -6 292.723 11.2381   4
  -2  -5  -6 289.842 7.97537  11
  -2  -5  -6 304.060 10.3486  10
  -2  -5  -6 277.240 12.0275   9
   2   5   6 276.965 8.09172   7
  -3  -5  -6 423.736 10.8908  11
  -3  -5  -6 440.545 13.7349  10
  -3  -5  -6 425.811 16.1078   9
   3   5   6 435.620 12.1147   7
  -4  -5  -6 38.5298 3.60142  19
  -4  -5  -6 33.1528 3.74696  11
  -4  -5  -6 30.4423 4.74503  15
  -4  -5  -6 36.9662 6.51181   9
  -4  -5  -6 28.3482 4.92369  10
  -4  -5  -6 35.6772 4.09839  16
  -5  -5  -6 124.499 6.47185  16
  -5  -5  -6 117.384 8.03680  10
  -5  -5  -6 120.472 6.03209  17
  -5  -5  -6 114.193 7.45964  15
  -5  -5  -6 125.821 6.07399  11
  -5  -5  -6 116.773 5.29662  19
   5   5   6 117.746 9.11083   8
  -6  -5  -6 90.7714 5.46140  16
  -6  -5  -6 91.7207 4.67893  17
  -6  -5  -6 85.5613 4.04807  19
  -6  -5  -6 90.0714 5.87412  15
  -6   6   6 18.2066 2.24021  13
   5  -6  -6 15.0328 3.58296  15
  -5   6   6 10.1754 2.78820  18
  -5   6   6 8.76430 3.01820  13
   4  -6  -6 23.7234 4.28694  15
   4  -6  -6 22.1483 4.11211  10
  -4   6   6 21.5229 3.84994  13
   3  -6  -6 2.07977 3.19397  15
   3  -6  -6 3.11998 1.62111  18
   3  -6  -6 0.92487 2.90186  10
  -3   6   6 2.23984 2.98695  13
  -3   6   6 -5.7911 2.99762   8
   2  -6  -6 -0.6692 2.58167  10
   2  -6  -6 2.22107 4.22692   9
   2  -6  -6 -0.8770 2.99146   1
   2  -6  -6 1.59234 3.21204   2
  -2   6   6 1.95598 2.40173   7
  -2   6   6 3.52004 3.24576   8
   1  -6  -6 132.867 9.05908   9
   1  -6  -6 136.529 8.38735   4
   1  -6  -6 155.647 7.16368  10
   1  -6  -6 152.489 7.82215   5
   1  -6  -6 141.073 8.15032   1
  -1   6   6 152.201 7.80122   8
  -1   6   6 151.782 6.30554   7
   0  -6  -6 89.4232 7.78297   9
   0  -6  -6 84.5283 7.09533   4
   0  -6  -6 80.6265 6.40817   5
   0  -6  -6 78.4257 6.85387   1
   0  -6  -6 101.895 6.04824  10
   0   6   6 75.1983 4.50792   7
  -1  -6  -6 6.45230 2.82674  10
  -1  -6  -6 11.0223 3.46206   4
  -1  -6  -6 4.67856 3.67607   9
  -1  -6  -6 7.32279 3.20790   1
  -1  -6  -6 9.32843 3.49066   5
  -1  -6  -6 7.78616 2.27021  11
   1   6   6 3.22916 2.20170   7
  -2  -6  -6 219.133 10.6776   5
  -2  -6  -6 202.674 9.07242  10
  -2  -6  -6 191.414 9.88016   4
  -2  -6  -6 212.327 7.08190  11
  -2  -6  -6 216.395 11.0729   9
   2   6   6 199.090 7.37633   7
  -3  -6  -6 89.7809 5.19368  19
  -3  -6  -6 109.612 5.54983  11
  -3  -6  -6 96.1951 7.21064  10
  -3  -6  -6 93.0633 6.28393  15
  -3  -6  -6 90.6333 8.60917   9
  -3  -6  -6 94.4412 5.63023  16
  -4  -6  -6 259.056 8.51973  19
  -4  -6  -6 233.076 11.2235  10
  -4  -6  -6 279.528 10.3222  15
  -4  -6  -6 266.760 8.73893  11
  -4  -6  -6 265.458 9.35419  16
  -4  -6  -6 253.081 13.1307   9
  -5  -6  -6 152.807 6.21377  19
  -5  -6  -6 153.185 7.25434  16
  -5  -6  -6 151.348 6.67878  11
  -5  -6  -6 154.644 7.61488  15
  -6  -6  -6 167.235 5.25424  19
   5  -7  -6 236.914 8.24058  15
  -5   7   6 241.044 7.13565  18
  -5   7   6 240.872 8.01434  13
   4  -7  -6 291.901 10.7688  10
   4  -7  -6 294.296 10.7091  15
  -4   7   6 301.890 9.98579  13
   3  -7  -6 16.8804 3.86115  15
   3  -7  -6 10.2499 3.37532  10
  -3   7   6 4.90655 3.11956  13
  -3   7   6 6.80956 3.63604   8
   2  -7  -6 247.916 12.1499   1
   2  -7  -6 238.132 8.38467  14
   2  -7  -6 236.753 9.52299  10
   2  -7  -6 220.237 9.60018  15
  -2   7   6 241.648 10.0902   8
   1  -7  -6 246.207 11.9926   9
   1  -7  -6 239.228 9.06851  10
   1  -7  -6 222.964 10.9166   1
  -1   7   6 243.723 10.1400   8
  -1   7   6 227.782 8.77067   7
   0  -7  -6 253.479 11.5510   1
   0  -7  -6 276.472 12.0343   9
   0  -7  -6 273.597 9.92466  10
   0   7   6 257.562 8.86284   7
   0   7   6 265.724 10.4117   8
  -1  -7  -6 262.453 8.11462  11
  -1  -7  -6 256.032 11.5508   1
  -1  -7  -6 272.067 9.97445  10
  -1  -7  -6 262.160 11.8919   9
   1   7   6 260.119 8.95438   7
  -2  -7  -6 9.21760 3.26318  16
  -2  -7  -6 1.37955 2.04351  19
  -2  -7  -6 2.13980 2.39374  11
  -2  -7  -6 -0.1234 3.44701   9
  -2  -7  -6 1.70154 2.94781  10
   2   7   6 -0.7649 2.44031   7
  -3  -7  -6 27.5409 4.19498  16
  -3  -7  -6 29.6244 3.64405  11
  -3  -7  -6 24.8255 4.53416  10
  -3  -7  -6 26.9560 5.87746   9
  -3  -7  -6 24.5141 3.62827  19
  -3  -7  -6 21.3619 3.66217  15
   3   7   6 27.0807 5.11535   8
  -4  -7  -6 6.67373 3.70546  10
  -4  -7  -6 4.28679 2.94869  15
  -4  -7  -6 5.08559 2.88328  11
  -4  -7  -6 4.11272 2.64569  19
  -4  -7  -6 4.03188 3.20903  16
   4   7   6 9.07336 4.32758   8
  -5  -7  -6 65.7957 4.82237  11
  -5  -7  -6 68.2527 5.01150  15
  -5  -7  -6 62.1898 4.94906  16
  -5  -7  -6 64.0065 4.39367  19
  -6  -7  -6 1.02759 1.32508  19
   6   7   6 -1.2871 1.71569  15
  -5   8   6 16.8628 2.61140  13
  -4   8   6 7.07376 2.80975  18
  -4   8   6 15.1227 3.25980  13
   3  -8  -6 30.6141 4.42789  10
  -3   8   6 30.7402 4.40603   8
  -3   8   6 31.7239 4.19148  13
   2  -8  -6 80.3181 8.69218   1
   2  -8  -6 105.012 6.42841  10
  -2   8   6 99.2747 7.03008   8
   1  -8  -6 231.482 11.7872   1
   1  -8  -6 242.187 8.72517  14
   1  -8  -6 245.123 9.41723  10
   1  -8  -6 229.725 8.20863  16
  -1   8   6 215.464 9.90221   8
   0  -8  -6 874.759 20.0607  15
   0  -8  -6 902.498 24.6479   9
   0  -8  -6 881.048 19.2539  19
   0  -8  -6 922.478 22.0439  10
   0  -8  -6 910.572 25.1636   1
   0  -8  -6 881.252 19.6873  16
   0  -8  -6 873.683 19.7280  14
   0   8   6 908.458 22.5767   8
  -1  -8  -6 268.460 12.2164   9
  -1  -8  -6 283.815 8.77345  11
  -1  -8  -6 272.828 12.5961   1
  -1  -8  -6 298.374 9.81446  14
  -1  -8  -6 289.383 9.58337  15
  -1  -8  -6 274.280 8.67898  19
  -1  -8  -6 297.366 10.4089  10
  -1  -8  -6 262.574 9.48943  16
   1   8   6 279.988 11.1322   8
  -2  -8  -6 214.925 7.91163  11
  -2  -8  -6 212.743 8.28171  14
  -2  -8  -6 201.475 11.1032   9
  -2  -8  -6 218.213 7.54718  19
  -2  -8  -6 210.710 8.72333  16
  -2  -8  -6 210.566 8.35781  15
  -2  -8  -6 229.531 9.37124  10
   2   8   6 219.979 10.0573   8
  -3  -8  -6 175.062 7.80884  16
  -3  -8  -6 184.979 10.8674   9
  -3  -8  -6 188.176 7.51098  11
  -3  -8  -6 186.972 7.37965  19
  -3  -8  -6 188.810 7.79219  15
  -3  -8  -6 179.089 8.27426  10
   3   8   6 179.354 9.09115   8
  -4  -8  -6 182.928 7.37707  11
  -4  -8  -6 186.699 7.27171  19
  -4  -8  -6 197.875 7.87023  15
  -4  -8  -6 201.093 8.01862  16
  -5  -8  -6 212.618 6.90799  16
  -5  -8  -6 202.617 6.47778  19
  -5  -8  -6 202.637 6.97159  15
  -4   9   6 222.649 7.22769  13
   3  -9  -6 7.14954 3.01532  10
  -3   9   6 9.38755 3.21305  13
   2  -9  -6 52.9669 4.50875  16
   2  -9  -6 40.8317 4.74250  10
  -2   9   6 50.1043 5.17114   8
   1  -9  -6 261.322 8.95323  14
   1  -9  -6 252.170 8.79403  16
   1  -9  -6 266.905 9.91667  10
  -1   9   6 238.458 9.97187   8
   0  -9  -6 2.67399 4.01721   1
   0  -9  -6 6.03196 2.84505  16
   0  -9  -6 4.17622 2.87792  10
   0  -9  -6 3.48083 2.63557  14
   0   9   6 3.10324 3.28751   8
  -1  -9  -6 240.275 9.36759  10
  -1  -9  -6 245.014 8.32844  19
  -1  -9  -6 248.542 11.9261   9
  -1  -9  -6 258.577 8.99446  16
  -1  -9  -6 247.835 8.93427  14
  -1  -9  -6 247.133 8.09220  11
   1   9   6 240.678 10.1609   8
  -2  -9  -6 28.2495 3.65555  14
  -2  -9  -6 29.1090 3.63202  11
  -2  -9  -6 34.0157 3.84653  15
  -2  -9  -6 25.9668 4.10432  10
  -2  -9  -6 36.9343 3.65999  19
  -2  -9  -6 27.4620 5.81156   9
  -2  -9  -6 25.4700 3.91980  16
   2   9   6 33.7153 5.09191   8
  -3  -9  -6 60.9418 4.41605  19
  -3  -9  -6 60.9796 5.03406  16
  -3  -9  -6 54.2061 4.41530  15
  -3  -9  -6 57.8817 4.66944  11
   3   9   6 45.7769 5.29135   8
   3   9   6 61.6061 4.76389  14
  -4  -9  -6 149.508 6.09577  15
  -4  -9  -6 143.070 5.78178  19
  -4  -9  -6 136.035 5.92006  11
  -4  -9  -6 145.765 6.24075  16
  -5  -9  -6 23.1235 2.28749  15
  -5  -9  -6 24.9656 2.21255  19
  -4  10   6 0.64076 1.60375  18
  -3  10   6 9.22073 3.01301  18
   2 -10  -6 10.5035 2.88842  16
   1 -10  -6 13.2207 3.34473  10
   1 -10  -6 11.0906 2.92978  14
   1 -10  -6 12.5539 3.13940  16
  -1  10   6 11.6645 3.57142   8
   0 -10  -6 4.06706 2.65405  14
   0 -10  -6 10.8676 3.18589  10
   0 -10  -6 7.97939 2.90711  16
   0  10   6 7.04761 3.52940   8
  -1 -10  -6 34.4861 4.24365  10
  -1 -10  -6 26.9423 3.89266  16
  -1 -10  -6 27.5730 3.61685  19
  -1 -10  -6 26.8879 3.58699  14
  -1 -10  -6 38.2313 3.79967  11
   1  10   6 30.6916 4.44193   8
  -2 -10  -6 -4.3639 2.18741  11
  -2 -10  -6 0.26394 2.18475  19
  -2 -10  -6 -2.5801 2.41172  16
   2  10   6 -2.8804 2.77844  14
   2  10   6 6.07651 3.27426   8
  -3 -10  -6 22.5571 3.35890  16
  -3 -10  -6 24.9742 3.06135  19
  -3 -10  -6 19.9552 3.06572  11
   3  10   6 27.7305 3.56731  14
  -4 -10  -6 -0.1121 1.97431  16
  -4 -10  -6 0.07198 1.54057  19
  -3  11   6 288.341 7.04846  18
   2 -11  -6 31.8715 3.15369  16
  -2  11   6 25.7366 3.43171  18
   1 -11  -6 443.086 11.1711  16
  -1  11   6 436.910 10.9314  14
   0 -11  -6 222.248 7.52602  16
   0  11   6 221.113 7.79638  14
  -1 -11  -6 217.307 7.53394  16
   1  11   6 227.107 7.71979  14
  -2 -11  -6 340.661 9.22781  16
  -2 -11  -6 336.476 9.10288  19
   2  11   6 328.581 9.00799  14
  -3 -11  -6 61.7102 3.77068  16
   3  11   6 68.7417 3.85599  14
  -2  12   6 21.0456 2.07626  18
   1 -12  -6 7.28010 2.07146  16
  -1  12   6 7.10916 2.15911  18
  -1  12   6 10.3977 2.21566  14
   0 -12  -6 21.7877 2.76957  16
   0  12   6 26.2434 2.96246  14
   0  12   6 21.8735 2.83450  18
  -1 -12  -6 36.9805 3.11656  16
   1  12   6 32.9947 3.06326  14
  -2 -12  -6 3.42625 1.75108  16
   2  12   6 1.17515 1.84308  14
  -1  -9   7 217.214 5.38161  17
   0   9  -7 32.8244 2.55745  19
  -1   9  -7 14.0140 1.93708  19
   3   8  -7 92.1426 3.70218  14
  -3  -8   7 99.6224 3.57604  17
   2   8  -7 225.099 6.55356  14
  -2  -8   7 232.189 6.40006  17
   1   8  -7 37.0653 3.16937  14
   1   8  -7 38.6786 3.42270  19
   1   8  -7 35.2483 3.13813  17
  -1  -8   7 45.1424 3.46670  12
   0   8  -7 191.922 6.74663  19
   0   8  -7 204.196 6.49779  17
  -1   8  -7 314.041 8.25692  17
  -1   8  -7 314.662 8.51909  13
  -2   8  -7 93.7302 4.43013  13
  -2   8  -7 98.4590 4.25421  17
  -3   8  -7 281.564 6.99138  13
  -4  -7   7 9.38591 1.49012  17
  -4  -7   7 6.21751 1.54260  18
   3   7  -7 153.397 5.67859  14
  -3  -7   7 153.090 5.68563  12
  -3  -7   7 158.811 5.39944  17
   2   7  -7 2.47427 2.51001  14
  -2  -7   7 1.90914 2.27160  12
  -2  -7   7 1.37604 2.20549  17
   1   7  -7 21.7352 3.19009  17
   1   7  -7 23.0386 3.31461  19
   1   7  -7 28.1478 3.50806  14
  -1  -7   7 28.6507 3.57982  12
   0   7  -7 5.75887 2.83563  12
   0   7  -7 6.63104 2.91684  19
   0   7  -7 1.80641 2.47589  13
   0   7  -7 3.98457 2.57825  17
   0  -7   7 5.14979 3.59227   8
  -1   7  -7 32.5011 3.69430  13
  -1   7  -7 36.5908 3.98378  12
  -1   7  -7 33.8861 3.55310  17
  -1   7  -7 36.3636 3.48330  19
   1  -7   7 35.2084 3.61998  11
  -2   7  -7 75.9657 4.95284  12
  -2   7  -7 82.1046 4.85886  17
  -2   7  -7 85.4137 5.05927  13
  -2   7  -7 94.7148 4.44942  19
   2  -7   7 79.9348 4.82198  11
  -3   7  -7 12.6569 2.03070  19
  -3   7  -7 9.56823 2.38294  13
  -3   7  -7 12.0166 2.48923  17
  -4   7  -7 40.3270 2.80603  13
  -4   7  -7 39.8750 2.10147  19
   4   6  -7 22.0395 2.82812  14
  -4  -6   7 24.3734 2.57052  17
   3   6  -7 29.4590 3.61258  14
  -3  -6   7 35.0428 3.59463  12
  -3  -6   7 27.9194 3.26100  17
   2   6  -7 179.857 7.24147  19
   2   6  -7 160.369 7.11847  14
   2   6  -7 161.367 6.68166  17
  -2  -6   7 153.748 7.82162   8
  -2  -6   7 146.763 6.58322  12
   1   6  -7 108.055 6.21865  12
   1   6  -7 107.916 5.86162  13
   1   6  -7 114.256 5.89632  17
   1   6  -7 118.139 6.29883  19
   1   6  -7 120.999 6.17950  14
  -1  -6   7 119.067 7.29655   8
   0   6  -7 16.1556 3.23878  13
   0   6  -7 7.51107 3.13251  12
   0   6  -7 10.3074 2.92552  17
   0  -6   7 11.8758 4.10929   8
  -1   6  -7 110.945 5.92149  17
  -1   6  -7 116.987 6.16357  12
  -1   6  -7 118.113 5.40511  19
  -1   6  -7 116.161 6.20754  13
   1  -6   7 114.262 5.98133  11
   1  -6   7 112.065 7.61192   8
  -2   6  -7 27.3740 3.21530  19
  -2   6  -7 29.1640 3.67554  13
  -2   6  -7 40.7542 4.35533  12
  -2   6  -7 34.7875 4.06006  17
   2  -6   7 35.9795 4.11409  11
   2  -6   7 44.0668 5.68579   8
  -3   6  -7 3.10417 2.72934  12
  -3   6  -7 4.12687 2.60478  17
  -3   6  -7 7.63510 2.16747  19
  -3   6  -7 5.79287 2.56078  13
   3  -6   7 4.39888 2.95739  16
   3  -6   7 5.49373 2.94125  11
  -4   6  -7 38.2906 2.67939  19
  -4   6  -7 34.5428 3.07689  17
  -4   6  -7 44.2860 3.34095  13
   4  -6   7 37.1612 3.44914  16
  -5  -5   7 423.850 9.07042  17
   4   5  -7 159.792 6.50140  14
  -4  -5   7 146.714 6.07277  17
  -4  -5   7 152.861 6.35570  12
   3   5  -7 308.922 9.74517  14
  -3  -5   7 306.628 9.67728  12
  -3  -5   7 302.510 10.5515   8
  -3  -5   7 301.997 9.16049  17
   2   5  -7 312.285 9.73109  17
   2   5  -7 320.632 10.4665  19
   2   5  -7 308.396 10.0752  14
  -2  -5   7 289.622 9.74278  12
  -2  -5   7 320.583 11.3977   8
   1   5  -7 102.841 6.21651  14
   1   5  -7 96.1519 5.52871  17
   1   5  -7 102.913 5.95934  13
   1   5  -7 117.302 6.11103  12
   1   5  -7 108.837 6.42354  19
  -1  -5   7 93.5101 8.86436   1
  -1  -5   7 111.080 7.22852   8
   0   5  -7 436.073 12.2360  13
   0   5  -7 459.620 12.0589  17
   0   5  -7 448.295 11.4676  19
   0   5  -7 440.041 12.2994  12
   0  -5   7 446.325 16.5706   1
   0  -5   7 440.052 14.4188   8
  -1   5  -7 11.4103 3.34275  12
  -1   5  -7 5.19395 2.87636  17
  -1   5  -7 5.56070 2.80826  13
  -1   5  -7 7.20525 2.38944  19
   1  -5   7 5.06801 2.96898  11
  -2   5  -7 271.742 9.40920  17
  -2   5  -7 288.439 8.31021  19
  -2   5  -7 284.232 9.87211  12
  -2   5  -7 271.972 9.55832  13
   2  -5   7 297.391 9.92430  11
  -3   5  -7 168.834 7.24486  13
  -3   5  -7 164.776 7.51375  12
  -3   5  -7 168.058 7.43060  17
  -3   5  -7 172.784 6.17896  19
  -3   5  -7 172.360 7.83305  16
   3  -5   7 170.276 7.73161  11
  -4   5  -7 167.654 5.62450  19
  -4   5  -7 165.114 7.12729  16
  -4   5  -7 170.766 6.57281  13
  -4   5  -7 175.573 6.94600  17
  -4   5  -7 159.838 6.95711  12
   4  -5   7 166.349 7.05168  11
  -5   5  -7 245.790 5.61761  19
  -5  -4   7 3.32551 2.11846  17
  -5  -4   7 -1.9892 2.22841  18
   4   4  -7 104.940 5.86383  14
  -4  -4   7 104.232 5.97141  17
  -4  -4   7 103.137 6.17253  12
   3   4  -7 27.3936 3.78821  14
  -3  -4   7 30.8203 4.37548  12
  -3  -4   7 22.8722 4.54816   8
  -3  -4   7 30.0069 4.12282  17
   2   4  -7 1.22275 2.93648  12
   2   4  -7 -1.4807 2.63498  14
   2   4  -7 4.30718 2.86183  17
   2   4  -7 0.89928 2.66522  19
   2   4  -7 3.22697 3.08296  13
  -2  -4   7 2.10931 3.68905   1
  -2  -4   7 1.27190 3.61791   8
   1   4  -7 33.4320 4.09463  12
   1   4  -7 39.0808 3.99680  17
   1   4  -7 37.5985 4.20683  14
   1   4  -7 39.2906 4.56965  13
   1   4  -7 30.8546 4.14560  19
  -1  -4   7 28.8716 5.15218   1
  -1  -4   7 40.0373 6.00297   2
  -1  -4   7 40.0694 5.29361   8
   0   4  -7 2.31761 2.36366  19
   0   4  -7 1.92477 2.65151  17
   0   4  -7 2.27572 2.61439  12
   0  -4   7 4.80700 3.51770   2
   0  -4   7 7.16605 2.85827   7
   0  -4   7 1.50199 3.31788   1
  -1   4  -7 15.4387 2.71719  19
  -1   4  -7 21.3284 3.65089  12
  -1   4  -7 17.7278 3.34393  13
  -1   4  -7 15.8018 3.30703  17
   1  -4   7 21.8686 4.97922   2
   1  -4   7 14.9173 3.65912  11
  -2   4  -7 17.8702 2.76202  19
  -2   4  -7 21.7717 3.82441  11
  -2   4  -7 17.3180 3.51160  13
  -2   4  -7 17.3447 3.86127  12
  -2   4  -7 20.7401 3.75894  17
  -3   4  -7 62.1643 5.38193  17
  -3   4  -7 45.2317 4.49223  13
  -3   4  -7 60.1836 4.16176  19
  -3   4  -7 52.5028 4.86162  11
  -3   4  -7 49.5387 5.36942  12
  -3   4  -7 55.4767 5.19173  16
  -4   4  -7 242.885 8.93654  16
  -4   4  -7 227.713 9.30939  12
  -4   4  -7 247.628 7.36904  19
  -4   4  -7 242.156 8.99660  17
  -4   4  -7 228.942 8.47725  11
  -4   4  -7 239.839 8.35443  13
  -5   4  -7 64.3521 4.57028  17
  -5   4  -7 62.0407 4.58882  16
  -5   4  -7 62.5643 3.22769  19
  -5   4  -7 66.3575 4.76652  12
  -5  -3   7 132.178 6.46343  12
  -5  -3   7 142.192 5.88718  17
   4   3  -7 233.772 8.11073  14
  -4  -3   7 213.764 8.33962  17
  -4  -3   7 238.503 9.89577   8
  -4  -3   7 213.547 9.10946  12
   3   3  -7 309.619 9.64466  14
  -3  -3   7 274.127 13.0374   1
  -3  -3   7 309.421 10.6793  12
  -3  -3   7 278.713 9.86895  17
  -3  -3   7 306.531 13.1626   9
   2   3  -7 692.104 16.8214  12
   2   3  -7 639.950 15.3878  14
   2   3  -7 649.148 15.5168  19
   2   3  -7 645.766 19.7965   2
   2   3  -7 675.777 16.1388  17
  -2  -3   7 631.865 16.8375   7
  -2  -3   7 676.647 19.0114   8
  -2  -3   7 631.154 19.7316   1
   1   3  -7 121.025 6.42244  12
   1   3  -7 102.368 7.60836   2
  -1  -3   7 127.778 8.06553   1
  -1  -3   7 107.144 7.71074   4
  -1  -3   7 122.116 7.86782   6
   0   3  -7 285.198 9.30750  12
   0  -3   7 288.992 11.6858   1
   0  -3   7 286.150 12.4210   2
   0  -3   7 298.759 8.98544   7
  -1   3  -7 124.601 6.18997  11
  -1   3  -7 133.198 6.59735  12
   1  -3   7 118.160 8.46025   2
   1  -3   7 132.590 7.96643   1
   1  -3   7 130.776 6.24905   7
  -2   3  -7 6.64660 2.78913  11
  -2   3  -7 6.55530 3.43935  12
  -2   3  -7 8.17387 2.29727  19
   2  -3   7 7.99680 2.73255   7
   2  -3   7 13.1811 4.23949   2
  -3   3  -7 3.88102 3.11660  17
  -3   3  -7 1.70761 2.16346  19
  -3   3  -7 4.40333 3.34947  16
  -3   3  -7 5.33196 3.17063  13
  -3   3  -7 3.27567 2.72611  11
  -3   3  -7 6.44334 3.67516  12
  -4   3  -7 5.13881 3.66222  12
  -4   3  -7 9.20590 3.28671  13
  -4   3  -7 7.94570 2.95163  11
  -4   3  -7 5.13708 2.67456  19
  -4   3  -7 5.23443 3.06619  17
  -4   3  -7 3.93408 3.41095  16
  -5   3  -7 36.4548 3.22646  19
  -5   3  -7 40.0620 4.92923  12
  -5   3  -7 31.7084 3.74871  11
  -5   3  -7 37.2390 4.13682  17
  -5   3  -7 39.6735 4.29688  16
  -6   3  -7 14.2943 2.33224  16
  -6  -2   7 42.6704 2.65098  18
  -5  -2   7 4.81318 3.31891  18
  -5  -2   7 9.39459 3.25041  12
   4   2  -7 7.54102 2.79844  14
  -4  -2   7 13.9425 5.07505   9
  -4  -2   7 6.30186 3.39635  12
  -4  -2   7 9.02549 3.39049  17
  -4  -2   7 11.5367 4.15566   8
   3   2  -7 285.462 10.0510  13
   3   2  -7 275.077 8.99056  14
  -3  -2   7 294.767 12.7058   1
  -3  -2   7 309.963 12.9255   9
  -3  -2   7 294.978 10.3140  12
  -3  -2   7 284.077 9.53887  17
   2   2  -7 80.3982 7.08222   2
   2   2  -7 76.8877 5.71534  12
  -2  -2   7 80.8012 7.10977   1
  -2  -2   7 76.2911 5.96203   7
  -2  -2   7 74.2109 6.80738   8
  -2  -2   7 88.1182 7.11478   9
   1   2  -7 563.516 16.5532   3
   1   2  -7 571.425 14.5441  12
   1   2  -7 546.778 16.7900   2
  -1  -2   7 598.217 13.7341   7
  -1  -2   7 581.416 16.4664   6
  -1  -2   7 582.038 17.0960   1
  -1  -2   7 571.041 16.3382   4
   0   2  -7 528.852 13.4002  12
   0   2  -7 528.818 16.3576   2
   0  -2   7 561.142 16.0185   1
   0  -2   7 547.754 16.1169   6
   0  -2   7 520.533 16.0518   3
  -1   2  -7 373.374 9.52872  11
  -1   2  -7 364.719 10.9036  12
   1  -2   7 342.200 13.2068   3
   1  -2   7 345.784 13.3645   2
   1  -2   7 361.888 12.2634   1
   1  -2   7 388.807 13.1760   6
  -2   2  -7 575.684 13.1616  11
  -2   2  -7 555.278 15.2478  12
   2  -2   7 550.889 18.0271   2
   2  -2   7 574.845 12.2704   7
  -3   2  -7 2.29196 2.28531  19
  -3   2  -7 1.39772 3.21072  12
  -3   2  -7 4.74875 2.85577  17
  -3   2  -7 -1.8093 2.97203  13
  -3   2  -7 3.73975 3.00103  16
  -3   2  -7 9.16919 2.84241  11
   3  -2   7 -0.8520 4.64503   2
  -4   2  -7 162.905 7.44664  17
  -4   2  -7 165.323 6.99208  11
  -4   2  -7 164.636 7.53794  16
  -4   2  -7 163.888 6.46340  19
  -4   2  -7 165.740 8.74949  12
  -5   2  -7 148.125 7.88114  12
  -5   2  -7 165.981 7.28678  17
  -5   2  -7 158.976 6.14213  19
  -5   2  -7 143.117 7.15477  16
  -5   2  -7 159.657 6.67591  11
  -6   2  -7 48.4681 3.78516  16
  -6   2  -7 63.4438 4.14262  17
  -6   2  -7 55.6304 2.57888  19
  -6  -1   7 13.2582 2.25383  18
  -5  -1   7 61.7641 4.75272  12
   4   1  -7 100.074 6.59369  13
  -4  -1   7 102.581 6.05268  12
  -4  -1   7 80.9457 8.15652   9
  -4  -1   7 93.3410 6.97450   8
   3   1  -7 28.4000 3.42852  14
   3   1  -7 25.4417 4.76333   2
   3   1  -7 27.8694 3.79015  13
  -3  -1   7 34.4470 5.27707   9
  -3  -1   7 25.5018 4.63065   8
  -3  -1   7 27.2752 4.88637   1
  -3  -1   7 28.7912 3.99873   7
  -3  -1   7 22.0924 3.64916  12
   2   1  -7 477.967 14.9919   3
   2   1  -7 461.687 12.6376  12
   2   1  -7 464.993 14.9639   2
  -2  -1   7 424.945 14.3830   4
  -2  -1   7 472.714 12.3234   7
  -2  -1   7 466.636 14.9379   1
  -2  -1   7 481.306 14.7535   9
   1   1  -7 142.407 7.55838   3
   1   1  -7 149.425 7.74175   2
   1   1  -7 126.454 6.65311  12
  -1  -1   7 149.556 7.69787   1
  -1  -1   7 150.298 7.46458   4
  -1  -1   7 142.362 7.23701   9
  -1  -1   7 144.060 5.79865   7
   0   1  -7 230.170 9.36214   3
   0   1  -7 233.805 9.78006   2
   0  -1   7 214.559 8.90173   1
   0  -1   7 237.590 9.68777   6
   0  -1   7 233.129 8.53873   4
  -1   1  -7 375.458 9.08485  11
  -1   1  -7 355.028 10.8219  12
   1  -1   7 373.544 12.0673   6
   1  -1   7 360.689 12.6003   3
   1  -1   7 372.635 13.1861   2
   1  -1   7 366.655 11.6137   1
  -2   1  -7 127.442 7.08697  12
  -2   1  -7 141.013 5.63620  11
   2  -1   7 146.049 8.00310   6
   2  -1   7 136.588 8.57805   2
   2  -1   7 140.348 8.62966   3
  -3   1  -7 193.506 8.53712  12
  -3   1  -7 187.208 7.09745  11
   3  -1   7 203.849 6.61574   7
  -4   1  -7 26.9645 3.05994  19
  -4   1  -7 25.4207 3.79823  16
  -4   1  -7 21.9692 3.73573  17
  -4   1  -7 23.3641 3.45127  11
  -4   1  -7 21.7074 4.38862  12
   4  -1   7 23.6256 3.92847  10
  -5   1  -7 243.997 8.87096  16
  -5   1  -7 257.336 7.53353  19
  -5   1  -7 254.740 9.83662  12
  -5   1  -7 249.395 8.40367  11
  -5   1  -7 251.076 8.94167  17
   5  -1   7 245.965 9.65685  10
  -6   1  -7 208.027 5.88577  19
  -6   1  -7 204.777 7.10893  16
  -6   1  -7 210.606 6.99178  17
   6   0  -7 95.9126 5.42820  15
  -6   0   7 93.6358 4.21891  18
   5   0  -7 47.3964 5.21715  15
   4   0  -7 6.98127 3.58976  15
   4   0  -7 2.03686 2.74144  13
  -4   0   7 -2.2050 2.18307  12
  -4   0   7 5.65863 3.06524   8
  -4   0   7 7.49669 4.27378   9
   3   0  -7 34.3392 4.93714   2
  -3   0   7 35.8767 4.60675   8
  -3   0   7 24.6558 4.91416   9
  -3   0   7 34.7960 5.09274   1
  -3   0   7 31.0016 3.62637  12
   2   0  -7 2.19950 2.56651   3
   2   0  -7 0.75456 2.38943   2
   2   0  -7 0.84407 2.29951   1
  -2   0   7 0.29987 2.69293   9
  -2   0   7 -1.2337 1.79882   7
  -2   0   7 2.43672 2.39378  12
  -2   0   7 4.63309 2.54591   4
   1   0  -7 4.14654 2.68220   1
   1   0  -7 5.32817 2.80900   2
   1   0  -7 5.99835 2.57039   3
  -1   0   7 6.77991 2.79961   9
  -1   0   7 7.19816 2.66994   4
  -1   0   7 4.29587 2.07966   7
   0   0  -7 147.494 7.08335   3
   0   0  -7 168.644 7.36713   1
   0   0  -7 166.337 7.79375   2
   0   0   7 161.409 6.78187   4
   0   0   7 155.964 7.03234   9
   0   0   7 157.007 7.34375   6
  -1   0  -7 4.75199 2.51910   1
  -1   0  -7 4.69345 2.87319   2
   1   0   7 7.96603 2.71534   6
   1   0   7 5.28527 2.62059   3
  -2   0  -7 11.6460 3.12274  12
  -2   0  -7 13.4320 2.41116  11
   2   0   7 14.0282 3.28657   6
   2   0   7 4.09155 3.67167   3
   2   0   7 13.3095 4.15683   2
  -3   0  -7 19.3366 3.02798  11
  -3   0  -7 16.4012 3.23605  10
  -3   0  -7 18.0375 3.67268  12
  -4   0  -7 46.5403 3.31713  19
  -4   0  -7 50.0582 4.70798  16
  -4   0  -7 52.4878 4.49468  11
  -4   0  -7 43.4723 5.10233  12
  -4   0  -7 49.6340 4.58817  17
   4   0   7 61.8835 5.30646  10
  -5   0  -7 177.343 7.44636  17
  -5   0  -7 163.793 6.87754  11
  -5   0  -7 180.501 8.34177  12
  -5   0  -7 166.639 5.83192  19
  -5   0  -7 164.648 7.28266  16
   5   0   7 166.161 8.04169  10
  -6   0  -7 2.70090 1.76584  19
  -6   0  -7 2.80328 2.37675  17
  -6   0  -7 4.78747 2.77070  16
  -6   0  -7 4.15808 2.93983  12
   6  -1  -7 147.573 6.64961  15
  -6   1   7 148.334 5.22336  18
   5  -1  -7 62.5922 5.11520  13
   5  -1  -7 72.1159 5.90341  15
   4  -1  -7 478.293 12.8301  13
   4  -1  -7 434.343 13.4686  15
  -4   1   7 443.585 16.6030   9
  -4   1   7 466.373 14.0647   8
   3  -1  -7 384.998 13.8467   1
   3  -1  -7 367.519 13.7996   2
  -3   1   7 399.678 14.4117   9
  -3   1   7 404.523 12.4210   8
   2  -1  -7 708.504 18.5094   3
   2  -1  -7 704.518 18.9431   2
   2  -1  -7 740.259 19.1323   1
  -2   1   7 717.070 15.0337   7
  -2   1   7 680.612 18.4021   4
  -2   1   7 721.086 19.1432   9
   1  -1  -7 2221.89 42.5505   3
   1  -1  -7 2256.88 43.8625   2
   1  -1  -7 2278.96 44.1828   1
  -1   1   7 2275.92 44.5161   9
  -1   1   7 2253.42 43.0656   4
   0  -1  -7 667.852 17.0238   2
   0  -1  -7 679.091 16.6794   3
   0  -1  -7 699.049 17.1896   1
   0  -1  -7 694.037 17.1567   9
   0   1   7 665.623 16.5035   4
  -1  -1  -7 1454.92 29.7261   1
  -1  -1  -7 1453.43 30.7533   2
  -1  -1  -7 1443.77 29.9732   9
   1   1   7 1471.47 28.7567   4
   1   1   7 1473.86 26.2404   5
   1   1   7 1491.13 30.0814   3
   1   1   7 1394.32 27.9646   6
  -2  -1  -7 134.793 5.32357  11
  -2  -1  -7 146.056 7.06496   6
  -2  -1  -7 145.189 5.93119  10
   2   1   7 156.096 6.50285   5
  -3  -1  -7 394.847 11.4145  12
  -3  -1  -7 379.797 10.0344  11
  -3  -1  -7 387.089 11.5001  10
   3   1   7 391.463 12.4039   5
  -4  -1  -7 281.619 7.38326  19
  -4  -1  -7 262.052 9.08476  17
  -4  -1  -7 291.984 10.0338  12
  -4  -1  -7 282.044 10.3033  10
  -4  -1  -7 287.399 9.50417  16
  -4  -1  -7 275.757 8.89233  11
  -5  -1  -7 49.0802 4.61110  17
  -5  -1  -7 46.4480 5.08810  12
  -5  -1  -7 53.4180 4.58461  11
  -5  -1  -7 49.3653 3.50172  19
  -5  -1  -7 47.6006 4.62127  16
   5   1   7 52.1306 5.26220  10
  -6  -1  -7 201.633 5.76592  19
  -6  -1  -7 208.613 7.32819  16
  -6  -1  -7 215.921 8.11934  12
  -6  -1  -7 221.476 7.24239  17
   6  -2  -7 4.93805 2.82237  15
  -6   2   7 9.48272 2.17602  18
   5  -2  -7 97.1424 6.57528  15
   4  -2  -7 -1.8822 2.15430  13
   4  -2  -7 1.61759 3.30894  15
  -4   2   7 2.60103 3.07544   8
  -4   2   7 2.69036 3.94506   9
   3  -2  -7 15.9919 4.02550   2
   3  -2  -7 22.5625 4.45109   1
  -3   2   7 22.9114 4.04559   8
  -3   2   7 15.1414 4.35073   9
  -3   2   7 13.1089 3.20775   7
   2  -2  -7 25.1903 4.21959   2
   2  -2  -7 24.6675 3.88420   3
   2  -2  -7 34.0525 4.49880   1
  -2   2   7 21.2464 3.73945   4
  -2   2   7 21.1247 4.10395   9
  -2   2   7 27.2087 2.99745   7
   1  -2  -7 65.3985 5.66911   9
   1  -2  -7 73.4429 5.86435   2
   1  -2  -7 69.4775 5.78308   1
   1  -2  -7 69.1990 4.95632   3
  -1   2   7 81.7106 3.38904   7
  -1   2   7 83.8429 5.69421   4
   0  -2  -7 2.48894 2.38325   2
   0  -2  -7 4.34482 2.27462   3
   0  -2  -7 -0.3244 2.28359   9
   0  -2  -7 4.41664 1.89588   5
   0  -2  -7 2.71362 2.22880   1
   0   2   7 3.76543 2.22845   4
  -1  -2  -7 6.84754 2.12551  10
  -1  -2  -7 2.84162 2.01879   5
  -1  -2  -7 7.82311 2.44264   1
  -1  -2  -7 2.90256 2.46854   9
  -1  -2  -7 8.59841 2.55156   6
  -1  -2  -7 -0.3871 1.56116   3
  -1  -2  -7 9.13943 2.54145   4
  -1  -2  -7 0.45054 1.76463   2
  -2  -2  -7 25.7562 3.57158   6
  -2  -2  -7 23.5056 2.62930  11
  -2  -2  -7 30.6340 4.52888   9
  -2  -2  -7 29.3201 3.15203  10
   2   2   7 22.7238 3.45833   5
  -3  -2  -7 296.658 8.61951  11
  -3  -2  -7 310.457 11.2525   6
  -3  -2  -7 311.722 10.2386  10
  -3  -2  -7 322.250 9.95010  12
   3   2   7 301.020 10.8868   5
  -4  -2  -7 79.9685 5.40240  16
  -4  -2  -7 71.0381 5.63587  10
  -4  -2  -7 68.4408 4.96580  17
  -4  -2  -7 81.9774 3.89627  19
  -4  -2  -7 77.0303 4.89757  11
  -4  -2  -7 78.2164 5.79125  12
  -5  -2  -7 280.412 9.40746  16
  -5  -2  -7 287.476 9.33169  17
  -5  -2  -7 280.379 7.63095  19
  -5  -2  -7 276.406 9.92700  12
  -5  -2  -7 280.885 8.90226  11
   5   2   7 283.145 10.5102  10
  -6  -2  -7 193.263 7.10219  16
  -6  -2  -7 204.311 6.93321  17
  -6  -2  -7 182.184 7.69710  12
  -6  -2  -7 201.921 5.61469  19
   6  -3  -7 139.018 6.33604  15
  -6   3   7 154.820 4.99957  18
  -6   3   7 156.404 6.15793  13
   5  -3  -7 113.177 6.77246  15
  -5   3   7 110.157 6.18930  13
   4  -3  -7 380.837 12.2224  15
   4  -3  -7 368.601 11.1906  13
  -4   3   7 398.285 16.6981   9
  -4   3   7 379.190 12.2975   8
   3  -3  -7 526.685 16.6302   1
  -3   3   7 545.527 14.2375   7
  -3   3   7 548.741 15.2842   8
  -3   3   7 519.974 17.4383   9
   2  -3  -7 148.810 7.94673   2
   2  -3  -7 172.686 8.37928   3
   2  -3  -7 176.608 8.46019   1
  -2   3   7 151.778 7.95036   4
  -2   3   7 151.316 6.15751   7
  -2   3   7 152.997 8.62336   9
   1  -3  -7 149.258 8.04789   9
   1  -3  -7 159.951 7.60301   1
   1  -3  -7 163.187 6.91042   5
   1  -3  -7 147.952 7.37330   2
   1  -3  -7 155.764 6.39744  10
   1  -3  -7 156.391 7.12806   3
  -1   3   7 152.189 7.37693   4
  -1   3   7 162.193 4.97573   7
   0  -3  -7 66.3095 4.71198   3
   0  -3  -7 70.0082 5.14490   2
   0  -3  -7 63.6158 4.22404  10
   0  -3  -7 67.1769 5.84017   9
   0  -3  -7 66.7508 4.47828   5
   0  -3  -7 57.4403 5.04803   1
   0  -3  -7 65.2660 5.41324   4
  -1  -3  -7 19.4755 2.83203  10
  -1  -3  -7 22.9547 3.36331   1
  -1  -3  -7 25.7362 3.38649   5
  -1  -3  -7 18.9674 3.75540   9
  -1  -3  -7 16.8292 3.19173   4
  -2  -3  -7 109.388 4.82159  11
  -2  -3  -7 111.304 7.27025   9
  -2  -3  -7 111.404 6.12843   6
  -2  -3  -7 112.521 5.67620  10
   2   3   7 117.831 6.08929   5
  -3  -3  -7 1.56441 2.27848  10
  -3  -3  -7 6.44804 2.22952  11
  -3  -3  -7 8.10720 4.03384   9
  -4  -3  -7 130.535 6.88022  15
  -4  -3  -7 136.447 6.34949  17
  -4  -3  -7 137.852 7.13248  10
  -4  -3  -7 129.845 4.84129  19
  -4  -3  -7 133.852 6.42587  16
  -4  -3  -7 137.930 6.16669  11
  -5  -3  -7 19.4994 4.05998  12
  -5  -3  -7 21.1914 3.31858  11
  -5  -3  -7 17.6548 3.54774  15
  -5  -3  -7 20.7764 2.69352  19
  -5  -3  -7 24.3556 3.65487  17
  -5  -3  -7 22.4770 3.80577  16
   5   3   7 20.2383 3.91767  10
  -6  -3  -7 68.2211 4.68902  16
  -6  -3  -7 61.1894 3.17351  19
  -6  -3  -7 64.3585 4.36371  17
   6  -4  -7 40.3964 3.76881  15
  -6   4   7 45.0329 3.52410  13
  -6   4   7 39.6087 2.85508  18
   5  -4  -7 180.519 8.21410  15
  -5   4   7 186.875 7.66599  13
   4  -4  -7 512.943 14.5389  15
   4  -4  -7 515.494 13.5163  13
  -4   4   7 461.052 19.2891   9
   3  -4  -7 93.1573 6.44614  15
   3  -4  -7 99.8903 6.57279  10
   3  -4  -7 91.3497 8.12939   2
   3  -4  -7 101.728 5.61139  13
   3  -4  -7 97.6529 7.99763   1
  -3   4   7 108.256 6.65358   8
  -3   4   7 107.378 6.22763   7
  -3   4   7 122.194 9.05993   9
   2  -4  -7 368.747 12.8731   1
   2  -4  -7 367.998 12.2005   5
   2  -4  -7 356.629 11.2525  10
   2  -4  -7 383.843 13.0267   2
   2  -4  -7 329.384 12.2164   3
  -2   4   7 350.997 9.86708   7
  -2   4   7 369.483 13.8048   9
  -2   4   7 336.515 12.4458   4
  -2   4   7 331.524 10.9256   8
   1  -4  -7 8.36123 2.80785   3
   1  -4  -7 10.1977 3.07562   2
   1  -4  -7 6.89401 2.58747  10
   1  -4  -7 3.90259 2.58729   1
   1  -4  -7 9.04724 3.58544   9
   1  -4  -7 9.67040 2.82747   5
   1  -4  -7 9.61841 2.92879   4
  -1   4   7 5.63707 1.96806   7
   0  -4  -7 221.839 8.00719  10
   0  -4  -7 230.221 8.67194   5
   0  -4  -7 224.625 10.0776   9
   0  -4  -7 233.224 9.32386   1
   0  -4  -7 233.507 9.27717   4
  -1  -4  -7 488.439 14.2482   1
  -1  -4  -7 528.824 15.9353   9
  -1  -4  -7 504.132 14.5086   4
  -1  -4  -7 509.218 13.3707  10
  -1  -4  -7 494.817 13.6482   5
  -2  -4  -7 16.4944 4.19634   9
  -2  -4  -7 17.0272 2.62651  11
  -2  -4  -7 17.5450 3.23068  10
  -2  -4  -7 16.1598 3.55582   4
  -2  -4  -7 19.5262 3.83729   5
  -3  -4  -7 187.300 6.68035  11
  -3  -4  -7 167.846 7.61144  10
  -3  -4  -7 168.770 10.4260   9
   3   4   7 171.222 7.48461   7
  -4  -4  -7 3.68537 2.64989  16
  -4  -4  -7 3.32455 2.93534  10
  -4  -4  -7 5.14791 3.28421  15
  -4  -4  -7 4.78206 2.51874  11
  -4  -4  -7 4.83252 1.85706  19
  -5  -4  -7 9.36537 2.25600  19
  -5  -4  -7 9.21339 3.00913  16
  -5  -4  -7 9.80239 3.66395  10
  -5  -4  -7 7.59945 3.25946  15
  -5  -4  -7 7.93674 3.02117  17
  -5  -4  -7 5.17307 2.67289  11
  -6  -4  -7 229.539 7.10134  17
  -6  -4  -7 242.158 7.76682  16
  -6  -4  -7 213.888 5.91196  19
   6  -5  -7 38.7607 3.25831  15
  -6   5   7 36.5661 2.36551  18
  -6   5   7 41.1863 2.95265  13
   5  -5  -7 20.8278 3.86529  15
  -5   5   7 15.1633 3.29488  13
  -5   5   7 29.0884 3.62718  18
   4  -5  -7 77.3739 6.22507  10
   4  -5  -7 64.2718 5.74753  15
  -4   5   7 62.2730 6.14346   8
  -4   5   7 66.9379 5.21014  13
   3  -5  -7 252.055 9.89963  10
   3  -5  -7 238.997 9.68381  15
   3  -5  -7 236.950 8.44663  13
   3  -5  -7 228.171 10.9622   1
  -3   5   7 227.567 12.9334   9
   2  -5  -7 58.5378 6.19443   5
   2  -5  -7 56.0712 5.06408  10
   2  -5  -7 69.2397 6.74472   2
   2  -5  -7 51.5355 5.99374   1
  -2   5   7 54.0140 4.46853   7
  -2   5   7 62.8442 5.36332   8
  -2   5   7 68.5283 6.85384   4
  -2   5   7 46.6396 6.58952   9
   1  -5  -7 81.4346 7.00986   4
   1  -5  -7 92.2369 6.68187   1
   1  -5  -7 98.0624 8.52068   9
   1  -5  -7 86.6620 6.20347   3
   1  -5  -7 103.202 6.64659   5
   1  -5  -7 100.017 6.57613   2
   1  -5  -7 88.4695 5.72699  10
  -1   5   7 99.6133 4.77391   7
   0  -5  -7 701.206 18.8801   4
   0  -5  -7 701.740 17.7457  10
   0  -5  -7 703.464 19.0580   1
   0  -5  -7 704.515 20.4499   9
   0   5   7 737.305 14.4073   7
  -1  -5  -7 837.928 20.1810  10
  -1  -5  -7 830.486 20.4033   5
  -1  -5  -7 828.312 21.3071   4
  -1  -5  -7 802.411 22.5468   9
  -1  -5  -7 870.642 21.3340   1
   1   5   7 845.348 16.0636   7
  -2  -5  -7 574.884 12.6228  11
  -2  -5  -7 572.765 16.8283   4
  -2  -5  -7 550.596 18.1029   9
  -2  -5  -7 530.873 16.0755   5
  -2  -5  -7 564.030 15.3755  10
   2   5   7 529.999 12.4721   7
  -3  -5  -7 27.6958 4.83911  15
  -3  -5  -7 28.2626 2.80476  19
  -3  -5  -7 30.2219 4.43957  10
  -3  -5  -7 28.3439 3.87199  16
  -3  -5  -7 27.6974 3.42769  11
  -3  -5  -7 32.6488 6.03547   9
   3   5   7 33.5746 4.40855   7
  -4  -5  -7 246.348 8.78374  16
  -4  -5  -7 254.510 10.6804  10
  -4  -5  -7 254.637 8.35499  11
  -4  -5  -7 229.458 12.7113   9
  -4  -5  -7 238.776 7.24951  19
  -4  -5  -7 249.888 10.7744  15
  -5  -5  -7 339.138 9.89151  11
  -5  -5  -7 355.786 10.6194  16
  -5  -5  -7 337.226 12.5327  10
  -5  -5  -7 362.014 8.83977  19
  -5  -5  -7 330.584 11.8834  15
  -6  -5  -7 223.197 7.38030  16
  -6  -5  -7 230.342 6.53683  17
  -6  -5  -7 230.398 7.83770  15
   5  -6  -7 74.5716 5.32477  15
  -5   6   7 84.7225 4.78502  18
  -5   6   7 66.1714 4.71741  13
   4  -6  -7 311.607 11.1753  15
  -4   6   7 317.489 11.0322   8
  -4   6   7 320.284 10.4529  13
   3  -6  -7 6.70043 3.26965  15
   3  -6  -7 -2.2340 2.67719  10
  -3   6   7 3.72703 3.67114   8
  -3   6   7 0.84456 2.81758  13
  -3   6   7 5.20604 5.27201   9
   2  -6  -7 -1.2661 3.03276   1
   2  -6  -7 0.88986 3.52425   2
   2  -6  -7 -0.3370 2.59616  10
  -2   6   7 4.00593 3.96456   9
  -2   6   7 0.52948 3.31455   8
  -2   6   7 4.84295 2.84975   7
   1  -6  -7 35.0480 5.81672   9
   1  -6  -7 32.6911 4.91652   5
   1  -6  -7 32.3643 4.95454   1
   1  -6  -7 34.4373 4.24460  10
   1  -6  -7 37.1443 5.55541   4
  -1   6   7 34.2455 3.81508   7
   0  -6  -7 93.2741 6.76466   1
   0  -6  -7 83.5256 7.47592   4
   0  -6  -7 79.3927 7.74195   9
   0  -6  -7 79.6812 6.71866   5
   0  -6  -7 88.4754 6.00754  10
   0   6   7 89.9865 4.70704   7
  -1  -6  -7 69.8820 6.69082   5
  -1  -6  -7 53.0211 6.51416   9
  -1  -6  -7 62.6957 6.61822   4
  -1  -6  -7 82.2571 7.07952   1
  -1  -6  -7 65.4340 5.47899  10
   1   6   7 77.7534 4.51640   7
  -2  -6  -7 43.2565 3.70656  11
  -2  -6  -7 37.6748 4.79880  10
  -2  -6  -7 37.0725 5.94385   9
   2   6   7 40.4696 4.07190   7
  -3  -6  -7 92.3544 4.76432  19
  -3  -6  -7 93.0960 5.76697  16
  -3  -6  -7 97.0629 5.38447  11
  -3  -6  -7 92.7937 9.04566   9
  -3  -6  -7 92.9954 6.88320  10
  -3  -6  -7 92.0412 6.47894  15
  -4  -6  -7 44.4599 4.80945  16
  -4  -6  -7 46.3833 3.74934  19
  -4  -6  -7 47.2028 4.32833  11
  -4  -6  -7 40.4079 5.66944  10
  -4  -6  -7 47.1843 7.26162   9
  -4  -6  -7 43.5752 5.16736  15
  -5  -6  -7 -0.5079 2.88019  15
  -5  -6  -7 0.61629 2.64730  11
  -5  -6  -7 1.85607 1.96225  19
  -5  -6  -7 1.89292 2.95731  16
   5  -7  -7 319.630 9.24545  15
  -5   7   7 321.654 8.95961  13
  -5   7   7 311.570 8.29991  18
   4  -7  -7 64.6660 5.48571  10
   4  -7  -7 72.4128 5.56871  15
  -4   7   7 76.1459 5.57268  13
   3  -7  -7 102.661 6.50652  10
   3  -7  -7 90.0437 6.75520  15
  -3   7   7 94.6659 6.21119  13
  -3   7   7 95.4758 6.62945   8
   2  -7  -7 258.769 9.89714  10
   2  -7  -7 260.548 8.81727  14
   2  -7  -7 232.141 11.9122   1
   2  -7  -7 261.983 10.0975  15
  -2   7   7 263.234 10.9504   8
  -2   7   7 246.134 12.3861   9
   1  -7  -7 449.410 12.4331  14
   1  -7  -7 467.746 16.7582   1
   1  -7  -7 469.473 13.9826  10
   1  -7  -7 480.696 17.5154   9
  -1   7   7 468.054 13.1629   7
  -1   7   7 500.664 15.4376   8
   0  -7  -7 662.739 20.2533   1
   0  -7  -7 672.323 20.9165   9
   0  -7  -7 665.978 17.7930  10
   0   7   7 668.535 15.9960   7
  -1  -7  -7 487.420 16.6002   1
  -1  -7  -7 503.888 14.7601  10
  -1  -7  -7 473.915 16.9729   9
   1   7   7 502.002 13.1724   7
  -2  -7  -7 498.321 13.3874  14
  -2  -7  -7 498.138 13.6389  16
  -2  -7  -7 524.699 15.7323  10
  -2  -7  -7 511.676 12.4775  19
  -2  -7  -7 524.881 14.2546  15
  -2  -7  -7 531.488 12.7041  11
  -2  -7  -7 517.562 18.3162   9
  -3  -7  -7 194.843 8.22095  15
  -3  -7  -7 180.005 9.00280  10
  -3  -7  -7 183.731 10.9623   9
  -3  -7  -7 190.808 8.09760  16
  -3  -7  -7 180.543 6.96088  19
  -3  -7  -7 190.280 7.26432  11
  -4  -7  -7 66.4919 5.08434  11
  -4  -7  -7 61.8327 5.34298  16
  -4  -7  -7 66.3144 4.48287  19
  -4  -7  -7 67.3248 5.32699  15
  -4  -7  -7 70.5954 6.40656  10
   4   7   7 57.3146 6.59509   8
  -5  -7  -7 305.163 9.41513  15
  -5  -7  -7 297.723 9.26909  16
  -5  -7  -7 303.796 8.03463  19
  -5   8   7 34.2969 2.87164  13
   4  -8  -7 38.1640 3.86365  15
  -4   8   7 41.2600 4.02869  13
  -4   8   7 41.9168 4.09826  18
   3  -8  -7 26.7566 3.99850  10
   3  -8  -7 16.8111 3.46331  15
  -3   8   7 22.9118 4.28677   8
  -3   8   7 25.6176 3.95233  13
   2  -8  -7 6.58185 2.78973  14
   2  -8  -7 1.13191 2.76310  10
   2  -8  -7 4.10961 2.66690  15
  -2   8   7 5.35864 3.55351   8
   1  -8  -7 347.571 11.0169  15
   1  -8  -7 351.227 10.5737  19
   1  -8  -7 332.456 14.3545   9
   1  -8  -7 327.299 14.5175   1
   1  -8  -7 346.285 11.7767  10
   1  -8  -7 345.804 10.7624  14
  -1   8   7 354.182 12.9818   8
   0  -8  -7 20.0332 4.85985   1
   0  -8  -7 13.5945 3.44498  16
   0  -8  -7 23.5370 3.28583  19
   0  -8  -7 18.4257 3.66878  10
   0  -8  -7 16.8806 3.24957  15
   0  -8  -7 12.1392 3.07497  14
   0  -8  -7 15.0232 4.74806   9
   0   8   7 19.5186 4.72722   8
  -1  -8  -7 96.1766 6.00168  14
  -1  -8  -7 91.1688 5.76663  16
  -1  -8  -7 90.2451 6.30668  10
  -1  -8  -7 97.4167 8.56087   9
  -1  -8  -7 93.4199 4.97917  19
  -1  -8  -7 93.7448 8.58193   1
  -1  -8  -7 83.9439 5.63722  15
   1   8   7 98.4717 7.72202   8
  -2  -8  -7 116.071 5.97831  11
  -2  -8  -7 105.227 5.22483  19
  -2  -8  -7 108.875 6.14409  14
  -2  -8  -7 114.557 6.60142  16
  -2  -8  -7 94.4970 8.72116   9
  -2  -8  -7 110.713 6.19986  15
  -2  -8  -7 115.231 6.91046  10
   2   8   7 111.801 7.94625   8
  -3  -8  -7 28.9028 3.79745  15
  -3  -8  -7 37.7013 3.99370  11
  -3  -8  -7 37.1796 3.81675  19
  -3  -8  -7 25.5241 5.41739   9
  -3  -8  -7 35.5701 4.56950  10
  -3  -8  -7 33.2982 4.42838  16
   3   8   7 41.0491 5.59804   8
  -4  -8  -7 225.906 8.37882  16
  -4  -8  -7 225.173 7.88645  11
  -4  -8  -7 230.944 8.35227  15
  -4  -8  -7 222.090 7.50774  19
  -5  -8  -7 48.3831 3.66168  16
  -5  -8  -7 40.2428 3.30402  15
  -5  -8  -7 39.6822 2.84751  19
  -4   9   7 23.7129 2.86629  13
  -3   9   7 6.41849 2.96511  13
   2  -9  -7 6.97229 2.71024  14
   2  -9  -7 7.27535 3.07423  10
  -2   9   7 3.81388 3.18578   8
   1  -9  -7 24.1242 3.58654  14
   1  -9  -7 25.6851 3.85633  16
   1  -9  -7 26.2680 4.14862  10
   1  -9  -7 24.8432 3.61791  15
   1  -9  -7 28.8189 3.87613  19
  -1   9   7 32.5845 5.06497   8
   0  -9  -7 79.4879 5.78505  10
   0  -9  -7 79.3797 5.70363  14
   0  -9  -7 60.3261 7.47185   9
   0  -9  -7 80.9784 5.56919  16
   0  -9  -7 80.7227 5.65003  15
   0  -9  -7 87.6011 5.16262  19
   0   9   7 84.9647 7.02601   8
  -1  -9  -7 34.7111 3.58961  19
  -1  -9  -7 31.8881 5.88601   9
  -1  -9  -7 29.4768 3.97711  16
  -1  -9  -7 27.4262 3.72411  15
  -1  -9  -7 37.4125 4.49176  10
  -1  -9  -7 25.7294 3.60139  14
   1   9   7 42.9131 5.55848   8
  -2  -9  -7 20.9266 2.86864  19
  -2  -9  -7 19.3849 3.36394  11
  -2  -9  -7 20.1403 3.79162  16
  -2  -9  -7 10.2475 2.93173  15
  -2  -9  -7 13.9211 3.08978  14
  -2  -9  -7 13.5786 3.51709  10
   2   9   7 21.8437 4.51402   8
  -3  -9  -7 209.008 7.78202  15
  -3  -9  -7 206.247 8.08636  16
  -3  -9  -7 212.905 7.51563  11
  -3  -9  -7 209.376 7.17245  19
  -4  -9  -7 47.0201 3.58215  19
  -4  -9  -7 41.8649 3.52561  15
  -4  -9  -7 41.4345 3.97910  16
  -5  -9  -7 38.5280 2.10890  19
   1 -10  -7 119.733 6.60828  10
   1 -10  -7 116.354 6.01580  14
   1 -10  -7 122.797 6.07451  16
  -1  10   7 107.570 6.70793   8
   0 -10  -7 90.5428 5.95758  10
   0 -10  -7 88.7391 5.26175  19
   0 -10  -7 85.2900 5.46620  14
   0 -10  -7 96.6912 5.68175  16
   0  10   7 79.6773 6.43313   8
  -1 -10  -7 56.9381 4.79441  16
  -1 -10  -7 49.5938 4.83180  10
  -1 -10  -7 60.1397 4.39650  19
  -1 -10  -7 46.4807 4.07830  14
   1  10   7 51.7078 5.51501   8
  -2 -10  -7 161.548 6.34999  11
  -2 -10  -7 156.195 6.70787  15
  -2 -10  -7 162.238 6.17946  19
  -2 -10  -7 165.077 6.89663  16
   2  10   7 168.945 6.91434  14
  -3 -10  -7 6.21612 2.38951  15
  -3 -10  -7 5.55904 2.15300  19
  -3 -10  -7 3.45209 2.51621  16
  -4 -10  -7 21.7447 2.37101  15
  -4 -10  -7 26.4999 2.34427  19
  -4 -10  -7 22.7706 2.67689  16
  -3  11   7 20.4668 2.39133  18
  -2  11   7 6.53970 2.82892  18
   1 -11  -7 29.0642 3.21545  16
   0 -11  -7 127.255 5.72504  16
   0 -11  -7 133.482 5.70836  19
  -1 -11  -7 551.947 13.0757  16
  -1 -11  -7 561.464 12.7035  19
   1  11   7 543.733 12.8343  14
  -2 -11  -7 285.461 7.88325  19
  -2 -11  -7 292.211 8.21325  16
   2  11   7 277.911 8.07293  14
  -3 -11  -7 197.842 6.05164  16
  -2  12   7 5.47246 1.62500  18
   1 -12  -7 3.82602 1.73585  16
  -1  12   7 2.39127 2.00879  18
  -1  12   7 4.34724 2.02363  14
   0 -12  -7 76.5768 3.93378  16
   0  12   7 76.4093 4.21458  14
  -1 -12  -7 -0.4339 1.78166  19
  -1 -12  -7 0.61302 1.77137  16
   1  12   7 -0.5328 1.96728  14
   2  12   7 68.7483 3.49354  14
   2   8  -8 12.2271 1.81822  14
  -2  -8   8 11.8523 1.70735  17
   1   8  -8 0.68321 1.68255  14
   1   8  -8 4.87219 1.68987  19
  -1  -8   8 5.96480 1.83626  17
   0   8  -8 91.7147 4.03372  17
   0   8  -8 88.7209 3.81129  19
  -1   8  -8 6.00197 1.68974  19
  -1   8  -8 9.01327 1.98205  13
  -1   8  -8 5.49880 1.80614  17
  -2   8  -8 93.6264 3.77867  13
   3   7  -8 8.36854 1.97220  14
  -3  -7   8 9.88031 1.84188  17
   2   7  -8 43.4601 3.35567  14
   2   7  -8 44.9492 3.36044  19
  -2  -7   8 47.5192 3.54431  12
  -2  -7   8 53.9221 3.60511  17
   1   7  -8 78.7471 4.49390  14
   1   7  -8 78.9488 4.30817  19
   1   7  -8 79.1901 4.42619  17
  -1  -7   8 79.3149 4.55597  12
   0   7  -8 147.555 5.80708  19
   0   7  -8 142.243 5.76920  17
   0   7  -8 143.264 6.15170  12
   0   7  -8 146.937 5.88311  13
  -1   7  -8 185.667 6.72604  12
  -1   7  -8 181.774 6.41850  19
  -1   7  -8 189.008 6.65117  13
  -1   7  -8 186.004 6.41270  17
  -2   7  -8 19.6714 2.75536  13
  -2   7  -8 20.3592 2.97244  12
  -2   7  -8 20.3347 2.69751  17
  -3   7  -8 19.2586 2.23787  17
  -4  -6   8 27.6327 2.17157  17
   3   6  -8 21.7650 2.99299  14
   3   6  -8 22.9301 3.03341  19
  -3  -6   8 22.3538 2.72109  17
  -3  -6   8 20.6918 2.89609  12
   2   6  -8 341.317 9.62313  19
   2   6  -8 360.723 9.88860  14
  -2  -6   8 344.759 9.88502  12
   1   6  -8 230.408 8.11073  12
   1   6  -8 221.384 7.64248  17
   1   6  -8 218.536 7.79711  14
   1   6  -8 236.698 7.80741  19
   1   6  -8 224.536 7.77385  13
  -1  -6   8 237.148 9.56069   8
   0   6  -8 449.933 12.0177  13
   0   6  -8 456.382 12.1606  12
   0   6  -8 454.949 11.6660  17
   0   6  -8 455.858 11.8464  19
   0  -6   8 449.799 14.2741   8
  -1   6  -8 153.579 6.56505  17
  -1   6  -8 153.077 6.76519  13
  -1   6  -8 161.104 5.89111  19
  -1   6  -8 158.841 7.00126  12
   1  -6   8 164.531 6.54613  11
   1  -6   8 167.394 8.80389   8
  -2   6  -8 12.0019 2.99156  12
  -2   6  -8 18.7611 2.60092  19
  -2   6  -8 13.3734 2.92664  13
  -2   6  -8 14.2399 2.92135  17
   2  -6   8 18.9540 3.24414  11
  -3   6  -8 42.9553 2.76238  19
  -3   6  -8 50.5405 3.69280  17
  -3   6  -8 36.8415 3.49345  13
  -3   6  -8 43.7601 3.78815  12
  -4   6  -8 1.23149 1.67629  17
  -4   6  -8 6.88629 1.86431  13
   4   5  -8 9.55182 2.52971  14
  -4  -5   8 6.20435 2.23289  12
  -4  -5   8 4.97470 2.01565  17
   3   5  -8 6.07012 2.92368  14
   3   5  -8 -0.4875 2.40245  19
  -3  -5   8 5.35699 2.64839  17
  -3  -5   8 6.94289 2.65598  12
   2   5  -8 46.9483 4.32721  13
   2   5  -8 55.9841 4.71274  14
   2   5  -8 42.4658 4.22544  19
   2   5  -8 50.0568 4.29257  17
  -2  -5   8 55.4106 4.66669  12
  -2  -5   8 50.7830 5.61710   8
   1   5  -8 350.569 10.6004  13
   1   5  -8 356.383 10.7790  12
   1   5  -8 369.766 10.6088  19
   1   5  -8 364.668 10.7094  14
   1   5  -8 353.426 10.3945  17
  -1  -5   8 369.843 12.7418   8
   0   5  -8 148.080 6.78586  13
   0   5  -8 149.302 7.11280  12
   0   5  -8 130.840 6.40112  17
   0   5  -8 150.597 6.67006  19
  -1   5  -8 253.422 7.73205  19
  -1   5  -8 250.761 8.83151  12
  -1   5  -8 258.046 8.94142  13
  -1   5  -8 258.282 8.68371  17
   1  -5   8 258.761 8.57956  11
  -2   5  -8 299.179 9.74765  12
  -2   5  -8 283.242 9.46789  13
  -2   5  -8 275.626 7.73290  19
  -2   5  -8 279.983 9.25364  17
   2  -5   8 285.436 9.53384  11
  -3   5  -8 52.8491 4.41729  17
  -3   5  -8 44.2281 3.21232  19
  -3   5  -8 47.3016 4.43376  12
  -3   5  -8 51.2703 4.26939  13
   3  -5   8 52.5188 4.79600  11
  -4   5  -8 373.975 9.47552  13
  -4   5  -8 377.234 8.01224  19
  -4   5  -8 365.160 9.47072  17
  -5  -4   8 82.6034 3.91513  18
   4   4  -8 31.5081 3.64265  14
  -4  -4   8 28.7508 3.41755  17
  -4  -4   8 31.9870 3.75608  12
   3   4  -8 11.7401 3.20195  14
   3   4  -8 10.1306 3.09119  19
  -3  -4   8 11.3220 3.27487  12
  -3  -4   8 13.8968 3.27921  17
  -3  -4   8 6.48938 3.46433   8
   2   4  -8 186.330 7.56628  17
   2   4  -8 183.032 7.99529  13
   2   4  -8 183.467 7.79809  14
   2   4  -8 169.512 7.25690  19
  -2  -4   8 185.053 9.06501   8
  -2  -4   8 189.261 7.68658  12
   1   4  -8 49.5173 4.34458  17
   1   4  -8 42.1294 4.45289  13
   1   4  -8 37.9310 4.09470  19
   1   4  -8 47.0316 4.55680  12
   1   4  -8 41.6363 4.37173  14
  -1  -4   8 21.3863 5.36546   1
   0   4  -8 11.6214 3.15284  13
   0   4  -8 7.71283 2.99642  17
   0   4  -8 6.82112 2.98494  12
   0  -4   8 2.33006 3.93163   1
  -1   4  -8 7.90816 3.12256  12
  -1   4  -8 6.29678 2.28145  19
  -1   4  -8 7.41488 3.10043  17
  -1   4  -8 7.93428 3.18116  13
   1  -4   8 5.15050 3.25817  11
  -2   4  -8 1.26717 2.98707  12
  -2   4  -8 2.84855 1.95561  19
  -2   4  -8 0.88073 2.76444  17
  -2   4  -8 2.80985 2.91039  13
   2  -4   8 -2.5895 2.97312  11
  -3   4  -8 98.4429 4.45143  19
  -3   4  -8 101.505 6.37382  12
  -3   4  -8 109.287 6.18642  13
  -3   4  -8 104.423 6.53524  16
  -3   4  -8 99.7840 6.26395  17
  -4   4  -8 6.97050 1.75429  19
  -4   4  -8 6.45159 2.90149  17
  -4   4  -8 10.6863 3.24117  12
  -4   4  -8 6.39350 2.58032  13
  -4   4  -8 7.25978 3.18907  16
   4  -4   8 8.91155 3.18402  11
  -5   4  -8 3.38589 1.99970  17
  -5   4  -8 3.41967 2.29387  16
   4   3  -8 110.090 5.77371  14
  -4  -3   8 109.977 6.31848  12
  -4  -3   8 107.770 5.93776  17
   3   3  -8 164.908 7.19480  14
   3   3  -8 165.717 7.77408  13
   3   3  -8 163.352 7.28853  19
  -3  -3   8 152.974 7.63426  12
  -3  -3   8 151.241 7.21239  17
   2   3  -8 235.871 8.05777  19
   2   3  -8 227.701 8.43992  14
   2   3  -8 223.625 8.82422  13
   2   3  -8 232.632 8.81512  17
  -2  -3   8 242.628 11.0190   8
  -2  -3   8 196.289 11.0019   1
   1   3  -8 345.714 10.3964  14
   1   3  -8 363.820 10.9960  12
   1   3  -8 374.194 10.6491  17
   1   3  -8 344.253 10.9992  13
   1   3  -8 347.076 10.0130  19
  -1  -3   8 352.866 14.1236   1
   0   3  -8 202.207 7.85037  17
   0   3  -8 213.482 8.00263  12
   0   3  -8 193.826 8.04023  13
   0  -3   8 203.398 10.4451   1
   0  -3   8 211.809 7.74804   7
   0  -3   8 213.674 11.3779   2
  -1   3  -8 49.3897 4.76204  12
  -1   3  -8 52.4844 3.61839  19
  -1   3  -8 60.3284 4.89523  17
  -1   3  -8 40.5492 4.45516  13
   1  -3   8 48.7010 4.73587  11
   1  -3   8 48.2912 6.77699   2
  -2   3  -8 401.059 11.9820  13
  -2   3  -8 395.321 12.2978  12
  -2   3  -8 401.318 12.0270  17
  -2   3  -8 406.540 9.64438  19
  -2   3  -8 417.518 11.4538  11
  -3   3  -8 292.969 10.3872  17
  -3   3  -8 317.134 10.3618  16
  -3   3  -8 303.700 8.01068  19
  -3   3  -8 297.685 9.77268  11
  -3   3  -8 283.193 10.8104  12
  -3   3  -8 300.201 10.0129  13
  -4   3  -8 76.6363 5.29629  11
  -4   3  -8 73.4156 3.68533  19
  -4   3  -8 74.5754 5.95190  12
  -4   3  -8 64.4203 5.23352  16
  -4   3  -8 70.7211 5.60763  17
  -5   3  -8 190.970 7.08451  17
  -5   3  -8 192.365 4.79027  19
  -5   3  -8 191.373 7.07401  16
  -5  -2   8 7.10932 2.81397  12
   4   2  -8 385.593 10.5231  14
  -4  -2   8 369.284 11.4816  12
  -4  -2   8 341.525 12.5643   8
   3   2  -8 170.263 7.04761  14
   3   2  -8 163.488 6.94959  19
   3   2  -8 175.579 7.94593  13
  -3  -2   8 170.378 7.35509  17
  -3  -2   8 176.143 10.2852   9
  -3  -2   8 164.356 7.89367  12
   2   2  -8 165.875 7.43549  13
   2   2  -8 151.866 6.09280  19
   2   2  -8 157.802 6.82740  14
   2   2  -8 151.259 7.68379  12
   2   2  -8 137.510 7.14429  17
  -2  -2   8 146.641 9.06890   1
   1   2  -8 320.270 13.2320   2
   1   2  -8 344.695 10.7215  12
  -1  -2   8 325.892 13.0363   1
   0   2  -8 40.4476 5.66767   2
   0   2  -8 34.3348 4.06527  12
   0  -2   8 41.7730 3.93876   7
   0  -2   8 30.1891 5.54151   6
   0  -2   8 42.2287 5.31497   1
  -1   2  -8 355.118 10.8874  12
   1  -2   8 371.439 14.5707   2
  -2   2  -8 3.75958 1.79200  19
  -2   2  -8 5.23284 2.72830  11
  -2   2  -8 4.21052 3.38197  17
  -2   2  -8 -1.6181 2.88549  13
  -2   2  -8 4.46177 3.27323  12
   2  -2   8 3.86164 4.07426   2
  -3   2  -8 163.224 7.80147  17
  -3   2  -8 158.207 7.44100  16
  -3   2  -8 167.123 7.08347  11
  -3   2  -8 159.504 5.76021  19
  -3   2  -8 153.722 8.53150  12
  -3   2  -8 163.951 7.62170  13
  -4   2  -8 78.6773 6.66045  12
  -4   2  -8 81.6460 4.33559  19
  -4   2  -8 83.2862 6.04215  16
  -4   2  -8 82.8083 5.43447  11
  -4   2  -8 76.7890 5.79360  17
  -5   2  -8 4.14599 2.60527  11
  -5   2  -8 10.6703 1.78972  19
  -5   2  -8 9.24016 3.42573  12
  -5   2  -8 6.41884 3.04760  17
  -5   2  -8 10.0682 3.22570  16
  -6   2  -8 143.922 4.73407  17
  -6  -1   8 7.82551 1.64501  18
   4   1  -8 18.7450 3.25147  14
   4   1  -8 15.0557 3.58748  13
  -4  -1   8 19.9685 3.66704  12
  -4  -1   8 24.4846 4.66195   8
   3   1  -8 194.376 7.16579  19
   3   1  -8 193.344 7.32523  14
   3   1  -8 187.990 7.92412  13
  -3  -1   8 207.288 10.6606   9
  -3  -1   8 204.093 8.11602  12
  -3  -1   8 207.216 10.8828   1
  -3  -1   8 207.018 9.95075   8
   2   1  -8 6.66004 3.54889   2
   2   1  -8 16.3473 3.48147  12
  -2  -1   8 15.3467 3.28951   7
  -2  -1   8 12.1849 4.04282   9
  -2  -1   8 18.8481 4.08700   1
   1   1  -8 3.26801 2.99032   3
   1   1  -8 9.39439 3.54426   2
   1   1  -8 2.81142 2.89396  12
  -1  -1   8 7.48116 2.72204   7
  -1  -1   8 10.4608 3.62418   4
  -1  -1   8 7.16158 3.10599   1
   0   1  -8 16.1979 3.38107  12
   0   1  -8 15.1293 4.01796   2
   0  -1   8 11.7216 3.49055   3
   0  -1   8 15.7352 3.69498   4
   0  -1   8 19.4583 3.96218   1
  -1   1  -8 25.3202 3.80902  12
   1  -1   8 22.8784 4.17443   1
   1  -1   8 20.8330 4.59587   2
   1  -1   8 23.0171 4.44113   6
   1  -1   8 28.4005 5.07964   3
  -2   1  -8 63.2475 5.56862  12
  -2   1  -8 61.6817 4.43664  11
   2  -1   8 68.2480 7.45920   2
  -3   1  -8 47.3195 3.40585  19
  -3   1  -8 52.6373 5.75919  12
  -3   1  -8 48.7868 4.31333  11
  -3   1  -8 51.0203 4.56146  16
  -3   1  -8 48.2921 4.85354  17
  -4   1  -8 5.59500 2.88264  11
  -4   1  -8 6.27424 3.12173  16
  -4   1  -8 11.4354 2.33560  19
  -4   1  -8 4.74922 3.10913  17
  -4   1  -8 5.51027 3.88128  12
  -5   1  -8 148.507 7.00706  17
  -5   1  -8 166.675 6.65758  11
  -5   1  -8 173.785 8.23040  12
  -5   1  -8 170.787 7.17458  16
  -5   1  -8 166.127 5.56623  19
  -6   1  -8 72.7340 4.21015  17
  -6   1  -8 84.1312 4.42297  16
  -6   0   8 368.025 8.26278  18
   5   0  -8 290.453 10.0124  15
   4   0  -8 295.205 9.06029  14
   4   0  -8 300.798 10.2202  13
  -4   0   8 289.875 11.0938   8
   3   0  -8 528.114 13.3244  14
   3   0  -8 564.210 14.3473  13
   3   0  -8 533.810 13.2794  19
  -3   0   8 572.085 13.8452  12
  -3   0   8 529.302 17.8894   9
  -3   0   8 603.845 16.5162   8
  -3   0   8 570.015 18.0871   1
   2   0  -8 232.947 10.7408   2
  -2   0   8 232.901 8.11934  12
  -2   0   8 230.723 8.01198   7
  -2   0   8 234.313 10.4374   1
  -2   0   8 234.228 10.4284   9
   1   0  -8 601.442 14.6631  12
   1   0  -8 629.424 17.8670   2
   1   0  -8 621.435 17.4486   3
   1   0  -8 608.239 17.6459   1
  -1   0   8 626.626 16.9158   9
  -1   0   8 637.526 13.4273   7
  -1   0   8 592.614 16.9124   4
   0   0  -8 319.206 10.1753  12
   0   0  -8 362.312 12.2023   3
   0   0  -8 350.073 12.5080   2
   0   0  -8 384.383 12.5562   1
   0   0   8 361.241 11.5627   4
  -1   0  -8 568.451 14.5556  12
  -1   0  -8 585.101 17.3771   2
   1   0   8 590.593 15.9186   1
  -2   0  -8 264.045 10.2654  12
  -2   0  -8 272.722 8.10024  11
   2   0   8 296.451 11.5882   6
   2   0   8 303.757 13.1374   2
  -3   0  -8 33.4127 4.97891  12
  -3   0  -8 34.0855 3.74666  11
  -3   0  -8 44.7744 4.40492  16
  -3   0  -8 55.0200 4.90206  17
  -3   0  -8 42.4802 2.92134  19
  -4   0  -8 39.2113 5.23254  12
  -4   0  -8 44.2899 4.50773  16
  -4   0  -8 39.1886 4.08113  11
  -4   0  -8 36.9006 4.41065  17
  -4   0  -8 41.7307 2.98408  19
   4   0   8 43.7064 4.84296  10
  -5   0  -8 12.3763 3.36533  17
  -5   0  -8 11.7424 3.82218  12
  -5   0  -8 11.7035 2.14354  19
  -5   0  -8 12.3826 3.33106  16
  -5   0  -8 8.54769 2.84319  11
  -6   0  -8 36.8231 3.48906  16
  -6   0  -8 46.0633 3.61009  17
   6  -1  -8 3.72928 2.35191  15
  -6   1   8 -0.2568 1.67306  18
   5  -1  -8 22.3870 3.64407  13
   5  -1  -8 28.7278 4.43073  15
   4  -1  -8 -0.0915 3.32673  15
   4  -1  -8 4.11244 2.51529  13
  -4   1   8 1.87389 3.85225   9
  -4   1   8 3.95180 3.14090   8
   3  -1  -8 14.3790 2.99832  13
   3  -1  -8 30.3684 4.86612  15
   3  -1  -8 21.3578 2.98697  19
   3  -1  -8 26.3249 3.23853  14
  -3   1   8 33.1398 5.14356   1
  -3   1   8 24.1110 5.07775   9
  -3   1   8 28.7696 4.35216   8
   2  -1  -8 252.397 10.7896   2
   2  -1  -8 239.416 10.3783   1
  -2   1   8 252.556 7.95137   7
  -2   1   8 249.210 10.7716   9
   1  -1  -8 193.001 9.00607   2
   1  -1  -8 176.840 8.75092   1
   1  -1  -8 187.459 8.77104   3
  -1   1   8 186.579 5.64233   7
  -1   1   8 181.576 8.49148   4
  -1   1   8 197.126 8.88404   9
   0  -1  -8 861.281 20.9844   1
   0  -1  -8 822.483 20.8655   2
   0  -1  -8 845.331 20.4495   9
   0  -1  -8 788.676 19.8699   3
   0   1   8 838.163 20.0817   4
  -1  -1  -8 461.035 14.7368   2
  -1  -1  -8 460.114 13.5384   1
   1   1   8 470.554 14.3988   3
  -2  -1  -8 127.832 5.26826  11
  -2  -1  -8 116.116 7.34097  12
   2   1   8 137.803 7.28408   6
  -3  -1  -8 432.343 12.5883  10
  -3  -1  -8 429.566 12.8819  12
  -3  -1  -8 425.585 10.9428  11
  -3  -1  -8 406.347 11.4555  16
  -3  -1  -8 415.704 8.62527  19
  -4  -1  -8 16.8801 3.52062  16
  -4  -1  -8 15.2298 3.14936  11
  -4  -1  -8 13.0559 2.06196  19
  -4  -1  -8 10.6263 3.18274  17
  -4  -1  -8 9.75405 3.91130  12
   4   1   8 10.5659 3.35916  10
  -5  -1  -8 114.239 6.08472  17
  -5  -1  -8 130.661 7.41076  12
  -5  -1  -8 131.292 4.53329  19
  -5  -1  -8 120.101 6.31569  16
  -5  -1  -8 131.675 6.12212  11
   5   1   8 128.281 7.03668  10
  -6  -1  -8 295.462 8.20373  17
  -6  -1  -8 279.802 8.17480  16
   6  -2  -8 268.351 8.24316  15
  -6   2   8 281.678 6.87637  18
   5  -2  -8 91.6345 6.58041  15
   4  -2  -8 9.71541 2.77358  13
   4  -2  -8 4.69372 3.54161  15
  -4   2   8 -1.4007 3.84822   9
  -4   2   8 9.24512 3.45038   8
   3  -2  -8 26.4145 4.90248   1
   3  -2  -8 27.4364 3.43215  13
   3  -2  -8 28.2681 4.59844  15
   3  -2  -8 31.3273 3.43461  14
   3  -2  -8 26.4858 3.09616  19
  -3   2   8 26.2740 4.46887   8
  -3   2   8 38.3042 5.65439   9
   2  -2  -8 37.8105 5.23723   2
   2  -2  -8 33.4401 4.84646   1
  -2   2   8 47.6933 5.82223   9
  -2   2   8 40.7647 3.74822   7
   1  -2  -8 556.532 16.0793   1
   1  -2  -8 534.914 15.5408   3
   1  -2  -8 530.249 15.8036   2
  -1   2   8 541.281 11.1838   7
   0  -2  -8 230.260 9.56633   9
   0  -2  -8 223.060 9.24572   2
   0  -2  -8 222.428 9.23329   1
   0  -2  -8 214.306 8.92801   3
   0   2   8 216.084 9.06639   4
  -1  -2  -8 69.1380 5.78010   1
  -1  -2  -8 74.2720 6.31145   9
   1   2   8 75.2339 5.43163   4
  -2  -2  -8 212.911 7.70748  10
  -2  -2  -8 202.098 8.93675   6
  -2  -2  -8 209.779 6.66457  11
   2   2   8 213.600 8.56186   5
  -3  -2  -8 6.29127 2.43524  11
  -3  -2  -8 6.27774 2.76742  10
  -4  -2  -8 26.7903 3.86230  17
  -4  -2  -8 17.3993 2.03795  19
  -4  -2  -8 19.1585 3.82444  10
  -4  -2  -8 19.8449 3.54909  16
  -4  -2  -8 19.3056 3.31922  11
  -4  -2  -8 25.8722 4.61897  12
  -5  -2  -8 1.29918 1.61939  19
  -5  -2  -8 -5.5795 3.24713  12
  -5  -2  -8 4.16834 2.83526  17
  -5  -2  -8 5.98254 2.63765  11
  -5  -2  -8 2.34432 2.86917  16
   5   2   8 1.39990 2.97603  10
  -6  -2  -8 5.88015 2.56298  16
  -6  -2  -8 7.50281 2.43391  17
  -6   3   8 125.517 4.22510  18
   5  -3  -8 53.1480 5.12876  15
  -5   3   8 68.3129 4.81261  13
   4  -3  -8 84.5925 5.32662  13
   4  -3  -8 85.9266 6.47407  15
  -4   3   8 81.3160 6.09677   8
  -4   3   8 97.2924 9.79060   9
   3  -3  -8 17.0875 4.56331   1
   3  -3  -8 22.5177 3.01067  19
   3  -3  -8 17.3559 3.13236  13
   3  -3  -8 22.7644 3.18147  14
   3  -3  -8 25.0423 4.58013  15
  -3   3   8 21.5866 4.07403   8
  -3   3   8 19.5200 4.84002   9
   2  -3  -8 149.121 8.55860   2
   2  -3  -8 143.366 8.27712   1
  -2   3   8 148.921 8.80435   9
   1  -3  -8 132.370 7.45814   1
   1  -3  -8 134.774 7.40168   2
   1  -3  -8 126.242 7.82355   9
   1  -3  -8 125.034 7.04540   3
  -1   3   8 130.064 4.79058   7
  -1   3   8 115.896 7.15397   4
   0  -3  -8 46.9787 4.91269   3
   0  -3  -8 45.2229 3.74085  10
   0  -3  -8 48.6138 5.49273   9
   0  -3  -8 43.9772 5.04493   1
   0  -3  -8 48.8864 4.56877   5
   0  -3  -8 44.3698 5.00140   2
  -1  -3  -8 208.990 8.02980   5
  -1  -3  -8 193.287 7.19339  10
  -1  -3  -8 194.014 9.22084   9
  -1  -3  -8 204.529 8.73648   1
  -1  -3  -8 182.731 8.45676   4
  -2  -3  -8 69.1458 4.83400  10
  -2  -3  -8 66.9705 4.01532  11
  -2  -3  -8 74.3753 6.83563   9
   2   3   8 61.0655 5.59810   5
  -3  -3  -8 187.366 4.94440  19
  -3  -3  -8 191.878 7.99359  10
  -3  -3  -8 160.973 6.90270  16
  -3  -3  -8 181.466 6.76934  11
  -4  -3  -8 386.824 11.2779  17
  -4  -3  -8 388.231 8.74298  19
  -4  -3  -8 372.022 11.1276  16
  -4  -3  -8 378.074 12.3559  10
  -4  -3  -8 400.605 10.8099  11
  -4  -3  -8 381.427 11.6998  15
  -5  -3  -8 4.43360 2.88910  16
  -5  -3  -8 4.19795 1.76549  19
  -5  -3  -8 6.32146 2.57720  11
  -5  -3  -8 2.31460 2.71823  17
  -5  -3  -8 3.47351 2.71567  15
   5   3   8 1.03388 2.94074  10
  -6  -3  -8 173.855 6.22316  16
  -6  -3  -8 160.862 5.94572  17
   6  -4  -8 62.3374 4.05605  15
  -6   4   8 69.2174 3.28121  18
   5  -4  -8 196.458 8.20870  15
  -5   4   8 188.895 7.42736  13
   4  -4  -8 54.7313 5.57994  15
   4  -4  -8 42.9286 4.12856  13
  -4   4   8 50.7165 8.45403   9
   3  -4  -8 321.657 9.63652  19
   3  -4  -8 333.458 11.8915  15
   3  -4  -8 339.598 10.3492  13
   3  -4  -8 338.386 9.80116  14
   3  -4  -8 327.226 13.4643   1
  -3   4   8 344.018 14.6973   9
  -3   4   8 349.286 12.0505   8
   2  -4  -8 423.825 14.5271   1
   2  -4  -8 402.457 14.2899   2
  -2   4   8 427.751 15.6379   9
  -2   4   8 414.097 11.3798   7
   1  -4  -8 357.979 12.7648   2
   1  -4  -8 349.802 12.2754   3
   1  -4  -8 363.206 12.9704   1
   1  -4  -8 396.678 14.2688   9
   1  -4  -8 365.777 11.7352   5
   1  -4  -8 383.464 11.3085  10
  -1   4   8 373.824 13.0930   4
   0  -4  -8 1062.72 23.4903  10
   0  -4  -8 1054.83 22.8552   5
   0  -4  -8 1021.93 24.8483   4
   0  -4  -8 1049.62 26.2504   9
  -1  -4  -8 203.800 9.90781   9
  -1  -4  -8 204.794 8.44576   5
  -1  -4  -8 206.943 9.29170   4
  -1  -4  -8 193.384 8.73534   1
  -1  -4  -8 192.025 7.65881  10
  -2  -4  -8 971.001 18.8146  11
  -2  -4  -8 931.808 22.3820   5
  -2  -4  -8 971.672 22.5295  10
  -3  -4  -8 250.685 8.17319  11
  -3  -4  -8 272.781 10.2696  15
  -3  -4  -8 283.769 10.0542  10
  -3  -4  -8 267.997 6.62873  19
  -3  -4  -8 264.837 12.7724   9
  -3  -4  -8 252.857 8.67675  16
  -4  -4  -8 82.9374 3.77475  19
  -4  -4  -8 78.9432 5.99853  15
  -4  -4  -8 74.5505 5.83323  10
  -4  -4  -8 77.3384 5.08625  11
  -4  -4  -8 86.4837 5.41058  16
  -5  -4  -8 86.4546 5.37139  17
  -5  -4  -8 90.5947 5.06357  11
  -5  -4  -8 92.5055 5.90060  15
  -5  -4  -8 89.2258 5.47264  16
  -5  -4  -8 88.8932 3.83500  19
  -6  -4  -8 18.7833 2.65334  17
  -6  -4  -8 19.1933 2.96606  16
   5  -5  -8 14.5564 3.46217  15
  -5   5   8 9.50418 2.79970  18
  -5   5   8 13.1677 3.06773  13
   4  -5  -8 23.7880 4.30003  15
  -4   5   8 5.20256 3.64013   8
  -4   5   8 16.9631 3.64297  13
   3  -5  -8 5.45261 3.24718  15
   3  -5  -8 1.33359 2.29598  13
   3  -5  -8 3.21851 3.02900  10
   3  -5  -8 2.79006 2.36934  19
   3  -5  -8 2.45979 4.18671   1
  -3   5   8 4.10556 4.74469   9
  -3   5   8 4.47543 3.18956   8
   2  -5  -8 7.07683 3.12937  10
   2  -5  -8 11.7697 4.04467   2
   2  -5  -8 5.46729 3.58873   1
  -2   5   8 8.74354 3.51032   8
  -2   5   8 6.80267 4.19485   9
  -2   5   8 10.8039 2.75059   7
   1  -5  -8 7.51556 4.11418   9
   1  -5  -8 10.2665 3.09222  10
   1  -5  -8 8.53454 3.41099   1
   1  -5  -8 9.19922 3.57283   5
  -1   5   8 12.1222 2.72101   7
   0  -5  -8 73.3285 5.47289  10
   0  -5  -8 89.2472 7.00390   5
   0  -5  -8 83.7408 6.96271   1
   0  -5  -8 72.8457 7.21092   9
   0  -5  -8 84.9443 7.33835   4
   0   5   8 75.4055 4.24410   7
  -1  -5  -8 24.4207 4.33818   1
  -1  -5  -8 23.3315 4.39292   4
  -1  -5  -8 19.8824 4.66651   9
  -1  -5  -8 25.8544 4.43916   5
  -1  -5  -8 23.1438 3.58322  10
  -2  -5  -8 13.4651 2.65509  11
  -2  -5  -8 11.4310 3.29366  10
  -2  -5  -8 8.44562 4.23848   9
  -3  -5  -8 8.05271 2.87905  16
  -3  -5  -8 7.68122 2.70301  11
  -3  -5  -8 7.03145 3.46095  15
  -3  -5  -8 9.92398 4.74090   9
  -3  -5  -8 8.29565 3.14054  10
  -3  -5  -8 7.18889 1.78616  19
  -4  -5  -8 39.5635 3.96505  11
  -4  -5  -8 49.3372 4.64915  16
  -4  -5  -8 44.9368 3.25806  19
  -4  -5  -8 43.8155 5.21498  15
  -4  -5  -8 49.0261 5.31448  10
  -5  -5  -8 16.0848 3.01139  11
  -5  -5  -8 8.63410 1.96486  19
  -5  -5  -8 11.8981 3.12230  16
  -5  -5  -8 15.0043 3.51764  15
  -6  -5  -8 49.8546 3.63078  16
   5  -6  -8 356.725 10.5134  15
  -5   6   8 348.438 9.67795  13
  -5   6   8 373.485 9.43166  18
   4  -6  -8 453.542 13.8034  15
  -4   6   8 454.523 12.5452  13
  -4   6   8 474.075 13.7420   8
   3  -6  -8 512.196 15.2743  15
   3  -6  -8 500.892 13.2926  19
   3  -6  -8 537.029 15.2929  10
  -3   6   8 497.777 18.7906   9
   2  -6  -8 440.503 11.9331  13
   2  -6  -8 460.065 13.9786  15
   2  -6  -8 483.251 14.0963  10
   2  -6  -8 446.764 11.6220  19
   2  -6  -8 457.239 16.1974   1
   2  -6  -8 439.838 11.9804  14
  -2   6   8 406.031 16.7523   9
   1  -6  -8 139.518 8.52751   1
   1  -6  -8 160.436 10.3900   9
   1  -6  -8 153.169 7.63078  10
  -1   6   8 163.806 6.86202   7
   0  -6  -8 300.756 12.3684   1
   0  -6  -8 292.798 13.2942   9
   0  -6  -8 323.663 11.0990  10
   0   6   8 299.663 8.95792   7
  -1  -6  -8 294.469 12.9665   9
  -1  -6  -8 270.372 11.5504   1
  -1  -6  -8 281.106 10.5248  10
   1   6   8 274.677 8.52557   7
  -2  -6  -8 60.8585 3.79646  19
  -2  -6  -8 61.1761 7.51066   9
  -2  -6  -8 55.4090 5.53834  10
  -2  -6  -8 53.9404 4.86956  15
  -2  -6  -8 64.7534 4.79152  16
  -2  -6  -8 64.8518 4.48175  11
  -3  -6  -8 238.472 8.85792  16
  -3  -6  -8 245.045 7.11791  19
  -3  -6  -8 238.236 12.8537   9
  -3  -6  -8 241.539 8.05553  11
  -3  -6  -8 241.422 10.1036  10
  -3  -6  -8 260.910 10.0989  15
  -4  -6  -8 10.5048 2.97553  11
  -4  -6  -8 15.5134 2.37353  19
  -4  -6  -8 10.1277 3.95346  10
  -4  -6  -8 10.8918 3.34437  16
  -4  -6  -8 14.0655 3.72409  15
  -5  -6  -8 76.2471 5.52818  15
  -5  -6  -8 74.3869 5.07832  16
  -5  -6  -8 65.0967 3.36359  19
  -5  -6  -8 63.5033 4.41201  11
   5  -7  -8 33.2762 3.17471  15
  -5   7   8 38.6114 3.29020  13
  -5   7   8 26.8055 2.80740  18
   4  -7  -8 62.1341 5.23343  15
  -4   7   8 55.6447 4.67118  13
   3  -7  -8 242.879 9.67996  10
   3  -7  -8 245.767 9.98214  15
  -3   7   8 233.080 8.71779  13
  -3   7   8 236.625 10.0044   8
   2  -7  -8 19.9122 3.27795  19
   2  -7  -8 18.6676 5.07431   1
   2  -7  -8 24.3785 4.05049  15
   2  -7  -8 25.5617 4.04401  10
   2  -7  -8 17.4468 3.22970  14
  -2   7   8 20.1396 4.85495   8
  -2   7   8 22.2919 5.53194   9
   1  -7  -8 202.609 8.45218  15
   1  -7  -8 185.373 10.6835   1
   1  -7  -8 211.427 8.00066  14
   1  -7  -8 194.221 11.5303   9
   1  -7  -8 202.346 8.85666  10
   1  -7  -8 203.744 7.37583  19
  -1   7   8 233.790 10.6673   8
   0  -7  -8 23.7749 5.42350   9
   0  -7  -8 28.5120 4.25081  10
   0  -7  -8 22.5783 4.86066   1
   0  -7  -8 18.8462 3.28676  14
   0  -7  -8 20.4585 3.41048  15
   0  -7  -8 24.6017 3.13648  19
  -1  -7  -8 46.7015 5.16953  10
  -1  -7  -8 48.4133 4.51608  16
  -1  -7  -8 60.0072 7.37160   9
  -1  -7  -8 46.7521 6.32854   1
  -1  -7  -8 52.9225 4.58260  15
  -1  -7  -8 52.9421 3.68037  19
  -1  -7  -8 46.6854 4.37664  14
  -2  -7  -8 225.393 12.0166   9
  -2  -7  -8 216.413 7.57667  11
  -2  -7  -8 218.193 8.58541  15
  -2  -7  -8 195.710 8.06060  14
  -2  -7  -8 212.221 8.16076  16
  -2  -7  -8 234.362 10.0204  10
  -2  -7  -8 202.141 6.89035  19
  -3  -7  -8 2.16170 3.24374  10
  -3  -7  -8 4.12346 4.16442   9
  -3  -7  -8 2.67261 2.08902  19
  -3  -7  -8 4.49299 2.74678  15
  -3  -7  -8 3.44414 2.89081  16
  -3  -7  -8 2.05105 2.42786  11
  -4  -7  -8 91.3721 6.73801  10
  -4  -7  -8 76.7981 5.02159  11
  -4  -7  -8 85.3673 5.82271  15
  -4  -7  -8 84.6337 4.26354  19
  -4  -7  -8 89.4453 5.93408  16
  -5  -7  -8 133.154 5.95999  15
  -5  -7  -8 141.355 6.02354  16
  -5  -7  -8 131.958 4.34641  19
   4  -8  -8 45.1238 3.90061  15
  -4   8   8 44.9295 3.94575  13
   3  -8  -8 63.5487 4.93864  15
   3  -8  -8 71.9453 5.56341  10
  -3   8   8 53.2403 5.48618   8
  -3   8   8 65.8393 4.88432  13
   2  -8  -8 218.281 8.69243  15
   2  -8  -8 206.364 8.90404  10
   2  -8  -8 202.565 8.05122  19
   2  -8  -8 196.598 7.91326  14
  -2   8   8 199.435 9.60500   8
   1  -8  -8 66.6997 4.73514  19
   1  -8  -8 65.6984 4.81896  14
   1  -8  -8 63.3366 5.05435  15
   1  -8  -8 74.9946 5.75645  10
   1  -8  -8 72.9267 8.10203   9
  -1   8   8 66.1880 6.78763   8
   0  -8  -8 61.3747 7.35797   1
   0  -8  -8 60.0659 4.95452  16
   0  -8  -8 66.0278 4.37663  19
   0  -8  -8 63.4540 4.89808  15
   0  -8  -8 57.5951 4.77461  14
   0  -8  -8 70.7110 8.02521   9
   0  -8  -8 66.2113 5.78484  10
   0   8   8 75.6765 7.15600   8
  -1  -8  -8 261.835 9.16882  16
  -1  -8  -8 266.644 9.35666  15
  -1  -8  -8 275.944 9.41761  14
  -1  -8  -8 249.748 12.6414   1
  -1  -8  -8 287.896 10.8492  10
  -1  -8  -8 263.114 12.7530   9
  -1  -8  -8 270.427 8.13203  19
  -2  -8  -8 83.7759 8.47257   9
  -2  -8  -8 100.972 5.48646  11
  -2  -8  -8 108.511 7.13982  10
  -2  -8  -8 98.5839 4.79764  19
  -2  -8  -8 96.1453 5.96641  15
  -2  -8  -8 104.163 5.96060  14
  -2  -8  -8 94.4110 5.83646  16
  -3  -8  -8 100.095 6.27247  16
  -3  -8  -8 97.3183 5.41631  11
  -3  -8  -8 100.619 5.90461  15
  -3  -8  -8 102.221 5.02098  19
  -3  -8  -8 98.4602 6.58418  10
  -4  -8  -8 20.3657 3.54460  16
  -4  -8  -8 18.3971 3.06992  11
  -4  -8  -8 11.0181 2.32724  19
  -4  -8  -8 13.5938 2.98061  15
  -5  -8  -8 19.1725 2.46615  15
  -5  -8  -8 22.8103 2.79970  16
  -5  -8  -8 10.4008 1.55866  19
  -4   9   8 31.7497 2.84784  13
   3  -9  -8 167.557 6.76576  15
   2  -9  -8 52.5562 4.60581  19
   2  -9  -8 40.2710 4.52307  10
   2  -9  -8 46.3783 4.05938  14
   2  -9  -8 49.0937 4.30662  15
  -2   9   8 46.4819 5.25148   8
   1  -9  -8 35.9621 3.85838  19
   1  -9  -8 32.8110 3.85408  15
   1  -9  -8 37.3493 4.39218  10
   1  -9  -8 26.7226 3.67056  14
  -1   9   8 34.9029 5.18392   8
   0  -9  -8 18.4597 3.00755  19
   0  -9  -8 20.6243 3.41675  14
   0  -9  -8 21.3033 5.54219   9
   0  -9  -8 14.7496 3.48458  10
   0  -9  -8 16.9138 3.25588  15
   0  -9  -8 23.0390 3.76607  16
   0   9   8 20.1798 4.57645   8
  -1  -9  -8 57.8602 4.02585  19
  -1  -9  -8 52.5805 4.75856  16
  -1  -9  -8 50.0025 5.16010  10
  -1  -9  -8 49.2452 7.02520   9
  -1  -9  -8 48.1997 4.36124  14
  -1  -9  -8 50.3121 4.47425  15
   1   9   8 67.8736 6.80881   8
  -2  -9  -8 79.0847 5.52422  16
  -2  -9  -8 68.4144 5.74468  10
  -2  -9  -8 72.3806 5.15597  14
  -2  -9  -8 77.6497 4.39167  19
  -2  -9  -8 87.2049 5.53520  15
   2   9   8 79.9687 7.02621   8
  -3  -9  -8 26.3474 3.00070  19
  -3  -9  -8 28.1143 3.84126  16
  -3  -9  -8 25.1666 3.45882  11
  -3  -9  -8 19.9075 3.13552  15
  -4  -9  -8 19.3200 2.29323  19
  -4  -9  -8 14.1125 2.54184  15
  -4  -9  -8 22.1291 3.17917  16
   2 -10  -8 221.905 7.29848  14
   1 -10  -8 179.163 6.94215  19
   1 -10  -8 197.019 7.39172  14
   0 -10  -8 81.0834 5.28283  14
   0 -10  -8 83.3175 5.29135  15
   0 -10  -8 95.0886 5.53600  16
   0 -10  -8 80.0277 5.72563  10
   0 -10  -8 92.0774 5.02153  19
   0  10   8 91.6850 6.70350   8
  -1 -10  -8 250.714 8.43349  15
  -1 -10  -8 234.541 8.23442  14
  -1 -10  -8 227.549 7.31796  19
  -1 -10  -8 229.864 8.15400  16
  -1 -10  -8 219.183 8.88427  10
  -2 -10  -8 370.843 10.3183  15
  -2 -10  -8 361.694 9.29468  19
  -2 -10  -8 352.156 10.1157  16
  -3 -10  -8 323.836 8.08615  19
  -3 -10  -8 327.678 8.98817  15
  -3 -10  -8 319.088 9.05368  16
  -4 -10  -8 215.883 5.99485  16
  -4 -10  -8 206.949 5.17648  19
   1 -11  -8 63.8289 4.20244  14
   1 -11  -8 68.0471 4.15020  16
   1 -11  -8 63.2778 4.03837  19
   0 -11  -8 70.7363 4.40496  16
   0 -11  -8 72.7514 4.52685  14
   0 -11  -8 62.7950 4.01388  19
  -1 -11  -8 1.68312 1.84196  19
  -1 -11  -8 -0.1430 2.21407  16
  -2 -11  -8 -0.3209 1.67722  19
  -2 -11  -8 -0.8632 1.94636  16
   2  11   8 5.95191 2.57732  14
  -3 -11  -8 40.0515 2.94618  16
  -1  12   8 54.1743 3.21135  14
   0 -12  -8 60.5565 3.31604  16
   0 -12  -8 59.7071 3.17056  19
   0  12   8 61.9391 3.73965  14
  -1 -12  -8 118.339 4.16589  19
  -1 -12  -8 120.957 4.35913  16
   1  12   8 123.293 4.62925  14
   2   7  -9 42.2601 2.95894  14
   2   7  -9 36.5928 2.54752  19
  -2  -7   9 47.6856 2.90895  17
   1   7  -9 1.20511 1.88930  14
   1   7  -9 0.76004 1.43580  19
   0   7  -9 83.8110 3.65225  19
   0   7  -9 81.7162 4.17538  13
   0   7  -9 83.7881 4.09558  17
  -1   7  -9 90.4236 3.61474  19
  -1   7  -9 94.3409 4.26589  17
  -1   7  -9 102.557 4.45102  13
  -2   7  -9 16.4358 2.24921  13
  -2   7  -9 13.2433 1.96318  17
  -2   7  -9 10.0175 1.32073  19
   3   6  -9 89.8599 3.84716  19
   3   6  -9 100.747 4.21586  14
  -3  -6   9 95.7789 3.89824  17
   2   6  -9 52.3100 3.70550  14
   2   6  -9 45.6277 3.33982  19
  -2  -6   9 58.2034 3.82092  17
  -2  -6   9 53.2839 3.80782  12
   1   6  -9 161.433 6.08532  13
   1   6  -9 139.308 5.80744  14
   1   6  -9 143.123 5.46956  19
   1   6  -9 143.104 5.76403  17
  -1  -6   9 153.644 6.13052  12
   0   6  -9 133.403 5.21001  19
   0   6  -9 122.789 5.87330  12
   0   6  -9 119.015 5.65543  13
   0   6  -9 123.268 5.52485  17
  -1   6  -9 111.832 5.18303  17
  -1   6  -9 100.178 5.43922  12
  -1   6  -9 107.260 4.70729  19
  -1   6  -9 107.696 5.43945  13
  -2   6  -9 208.610 6.81870  17
  -2   6  -9 212.221 6.93805  13
  -3   6  -9 17.3622 2.36811  13
  -3   6  -9 18.2862 2.36826  17
   3   5  -9 11.4417 2.72281  14
   3   5  -9 15.3136 2.59463  19
  -3  -5   9 14.7062 2.61067  17
  -3  -5   9 11.3345 2.61926  12
   2   5  -9 1.86048 2.55903  14
   2   5  -9 1.13773 2.27731  17
   2   5  -9 6.38652 2.60602  13
   2   5  -9 2.98193 2.12603  19
  -2  -5   9 2.59285 2.57539  12
   1   5  -9 23.6741 3.53566  12
   1   5  -9 18.4786 2.84061  19
   1   5  -9 19.0284 3.37303  14
   1   5  -9 9.94422 2.76502  17
   1   5  -9 18.3042 3.26360  13
  -1  -5   9 16.6133 4.28236   8
   0   5  -9 2.70924 2.52986  17
   0   5  -9 3.94317 2.79767  12
   0   5  -9 1.96652 2.50631  13
   0   5  -9 5.61653 2.40229  19
  -1   5  -9 138.983 6.48481  17
  -1   5  -9 151.285 6.70396  13
  -1   5  -9 137.325 6.65507  12
  -2   5  -9 8.53766 2.88299  12
  -2   5  -9 8.17530 2.03993  19
  -2   5  -9 9.50281 2.80064  13
  -2   5  -9 7.22697 2.67271  17
   2  -5   9 9.54329 2.99170  11
  -3   5  -9 11.4658 1.72092  19
  -3   5  -9 11.0402 2.56935  13
  -3   5  -9 7.47423 2.62697  17
  -3   5  -9 9.27108 2.82627  12
  -4   5  -9 11.1627 2.08095  17
  -4   5  -9 13.6965 2.10037  13
   4   4  -9 78.1798 4.56695  14
   4   4  -9 70.1988 4.16962  19
  -4  -4   9 79.4056 4.07276  17
   3   4  -9 196.307 7.43871  14
   3   4  -9 191.155 7.17066  19
  -3  -4   9 199.224 7.50358  12
  -3  -4   9 193.547 6.99858  17
   2   4  -9 10.1317 3.21474  14
   2   4  -9 14.0393 3.24746  13
   2   4  -9 7.61910 2.52883  19
   2   4  -9 9.65947 2.87322  17
  -2  -4   9 15.6599 3.38858  12
  -2  -4   9 10.9704 4.00410   8
   1   4  -9 222.198 8.27363  14
   1   4  -9 220.497 7.54629  19
   1   4  -9 221.797 8.43872  13
   1   4  -9 220.701 8.21679  12
   1   4  -9 216.038 8.04129  17
   0   4  -9 279.916 9.70053  13
   0   4  -9 274.537 9.56992  12
   0   4  -9 281.285 9.27924  17
   0   4  -9 291.500 8.66719  19
  -1   4  -9 170.391 7.61376  13
  -1   4  -9 160.662 7.20543  17
  -1   4  -9 173.239 7.47760  12
  -2   4  -9 305.464 9.82434  17
  -2   4  -9 306.900 7.75062  19
  -2   4  -9 311.626 10.1607  12
  -2   4  -9 301.498 9.83647  13
   2  -4   9 292.468 9.90995  11
  -3   4  -9 165.789 4.85876  19
  -3   4  -9 177.129 7.13146  17
  -3   4  -9 160.914 7.21683  12
  -3   4  -9 171.780 6.95829  13
   3  -4   9 170.038 7.30818  11
  -4   4  -9 60.5504 4.45280  16
  -4   4  -9 61.6986 4.36061  17
  -4   4  -9 68.6985 4.15559  13
  -4   4  -9 67.3450 4.55678  12
   4   3  -9 -0.3153 2.19988  19
   4   3  -9 2.61315 2.70013  14
  -4  -3   9 4.31565 2.70028  12
   3   3  -9 11.6873 3.13224  14
   3   3  -9 13.1158 3.37191  13
   3   3  -9 9.00999 2.66238  19
  -3  -3   9 10.8501 3.23112  17
  -3  -3   9 9.70753 3.33690  12
  -3  -3   9 9.14237 3.99427   8
   2   3  -9 -2.6393 2.46456  14
   2   3  -9 1.61769 2.03341  19
   2   3  -9 0.10541 2.71707  13
   2   3  -9 -1.2962 2.62130  17
  -2  -3   9 1.99047 3.07675  12
  -2  -3   9 2.72458 3.90209   8
   1   3  -9 262.637 8.92274  17
   1   3  -9 229.918 8.89744  13
   1   3  -9 236.442 8.87780  12
   1   3  -9 234.622 8.48317  14
   1   3  -9 238.261 7.66275  19
  -1  -3   9 256.920 12.3867   1
   0   3  -9 83.2243 4.71746  19
   0   3  -9 78.1958 5.37921  17
   0   3  -9 70.3815 5.30938  13
   0   3  -9 78.0206 5.73670  12
   0  -3   9 65.7423 7.50970   1
  -1   3  -9 392.151 11.7985  12
  -1   3  -9 381.332 11.6572  13
  -1   3  -9 388.013 9.30328  19
  -1   3  -9 382.662 11.3254  17
  -2   3  -9 359.415 11.0850  17
  -2   3  -9 351.381 11.0730  13
  -2   3  -9 356.957 11.2502  12
  -2   3  -9 342.671 10.6441  11
  -2   3  -9 362.377 8.43475  19
  -3   3  -9 19.5549 3.57327  11
  -3   3  -9 18.2901 3.77725  12
  -3   3  -9 22.7875 2.26071  19
  -3   3  -9 26.4997 3.87705  13
  -3   3  -9 22.4560 3.99185  17
  -4   3  -9 116.214 6.07065  17
  -4   3  -9 123.168 6.20800  16
  -4   3  -9 121.172 6.26937  12
  -4   3  -9 114.258 5.85107  11
  -5   3  -9 8.94748 2.45220  16
  -5   3  -9 10.4137 2.31709  17
   4   2  -9 1.26313 2.17782  19
   4   2  -9 -2.7116 2.41902  14
  -4  -2   9 -1.8574 2.67124  12
   3   2  -9 12.1150 2.66261  19
   3   2  -9 11.3149 3.00912  14
   3   2  -9 11.0192 3.30801  13
  -3  -2   9 7.45690 3.99817   8
  -3  -2   9 10.9065 3.36277  12
   2   2  -9 48.5713 3.87299  19
   2   2  -9 40.4282 4.48167  13
   2   2  -9 44.1389 4.16465  14
   2   2  -9 43.2370 4.71583  17
  -2  -2   9 37.7135 4.61146  12
  -2  -2   9 46.3455 6.35028   1
   1   2  -9 36.1826 4.49946  12
   1   2  -9 45.1007 4.38306  13
   1   2  -9 43.3575 3.28218  19
   1   2  -9 37.0301 3.94261  14
   1   2  -9 44.2422 4.68754  17
  -1  -2   9 30.8409 5.35554   1
   0   2  -9 432.693 10.2934  19
   0   2  -9 446.764 12.4345  12
   0   2  -9 441.165 12.5136  13
   0   2  -9 422.848 11.7662  17
   0  -2   9 440.044 15.6564   1
  -1   2  -9 128.036 6.94893  17
  -1   2  -9 135.208 6.80553  13
  -1   2  -9 131.479 4.68342  19
  -1   2  -9 134.619 6.94988  12
  -2   2  -9 109.099 6.58064  17
  -2   2  -9 106.747 4.04641  19
  -2   2  -9 104.722 6.54612  12
  -2   2  -9 106.385 5.93816  11
  -2   2  -9 108.622 6.50441  13
  -3   2  -9 200.771 8.23863  13
  -3   2  -9 197.409 7.74773  11
  -3   2  -9 201.253 8.97453  12
  -3   2  -9 204.186 8.68018  17
  -3   2  -9 206.369 5.48045  19
  -4   2  -9 2.78194 2.69493  11
  -4   2  -9 1.78057 3.27030  17
  -4   2  -9 -2.9311 2.94629  16
  -4   2  -9 0.89095 1.23558  19
  -4   2  -9 -1.6380 3.32565  12
  -5   2  -9 84.0936 4.80430  16
  -5   2  -9 77.3481 4.94550  12
  -5   2  -9 80.8006 4.91270  17
   4   1  -9 156.978 6.47729  19
   4   1  -9 164.575 6.67759  14
   4   1  -9 147.295 7.32943  13
  -4  -1   9 159.635 6.82824  12
   3   1  -9 42.1444 3.81866  19
   3   1  -9 43.3516 4.05578  14
   3   1  -9 47.2242 4.55884  13
  -3  -1   9 38.0603 6.33707   9
  -3  -1   9 55.3043 5.01889  12
  -3  -1   9 46.3126 5.77032   8
   2   1  -9 23.2838 2.87129  19
   2   1  -9 18.2547 3.13249  14
   2   1  -9 21.1428 3.54935  13
  -2  -1   9 27.8827 4.16277  12
  -2  -1   9 18.6246 4.48124   1
   1   1  -9 154.624 7.70635  12
   1   1  -9 163.794 6.68079  14
   1   1  -9 156.016 9.49967   2
   1   1  -9 163.588 5.35345  19
   1   1  -9 157.752 7.06609  13
  -1  -1   9 158.789 7.03928   7
  -1  -1   9 162.755 9.13322   1
   0   1  -9 129.913 8.56485   2
   0   1  -9 140.952 7.07940  12
   0  -1   9 124.259 8.07141   1
  -1   1  -9 58.1883 5.04776  12
   1  -1   9 70.3094 7.80762   2
  -2   1  -9 156.342 7.87456  12
  -2   1  -9 159.925 6.75773  11
  -2   1  -9 153.711 7.19835  13
  -2   1  -9 157.790 4.29578  19
  -2   1  -9 149.474 7.87701  17
  -3   1  -9 56.0956 5.92849  12
  -3   1  -9 47.2132 2.75676  19
  -3   1  -9 62.4859 5.49449  17
  -3   1  -9 52.0264 4.73013  16
  -3   1  -9 45.4707 4.46302  11
  -4   1  -9 71.7859 5.25503  16
  -4   1  -9 61.0785 2.75742  19
  -4   1  -9 67.3768 4.98198  11
  -4   1  -9 62.9886 5.36506  17
  -4   1  -9 59.9924 6.00103  12
  -5   1  -9 21.4634 3.46985  16
  -5   1  -9 25.3903 3.84169  12
  -5   1  -9 25.9584 3.64610  17
   4   0  -9 162.238 7.60153  13
   4   0  -9 165.913 6.58640  19
   4   0  -9 178.478 6.76971  14
  -4   0   9 179.581 8.75638   8
   3   0  -9 138.907 5.87372  19
   3   0  -9 142.593 6.50469  14
   3   0  -9 134.102 6.51293  13
  -3   0   9 139.441 8.01476   8
   2   0  -9 139.895 5.45440  19
   2   0  -9 154.229 6.83437  13
   2   0  -9 146.640 6.43051  14
  -2   0   9 132.685 8.59135   1
  -2   0   9 160.200 9.20917   9
   1   0  -9 133.031 8.63552   2
  -1   0   9 148.804 8.59490   1
  -1   0   9 150.893 8.28817   9
  -1   0   9 145.383 6.09474   7
   0   0  -9 465.064 12.7681  12
   0   0  -9 486.220 16.1848   2
   0   0   9 474.330 15.2000   1
  -1   0  -9 578.118 14.6270  12
   1   0   9 540.364 18.1655   2
  -2   0  -9 78.1217 5.01337  11
  -2   0  -9 71.9238 6.07357  12
  -3   0  -9 290.685 11.4134  12
  -3   0  -9 293.688 9.61104  16
  -3   0  -9 298.113 9.15697  11
  -3   0  -9 301.637 10.3286  17
  -4   0  -9 506.143 13.4190  16
  -4   0  -9 520.649 15.2558  12
  -4   0  -9 504.925 13.6831  17
  -4   0  -9 528.473 13.0046  11
  -5   0  -9 176.400 6.86493  16
  -5   0  -9 174.532 7.07631  17
  -5   0  -9 161.425 7.77853  12
  -5   0  -9 161.989 6.44442  11
  -6   0  -9 319.393 7.82730  16
  -6   0  -9 310.458 7.75403  17
   5  -1  -9 113.484 6.38083  15
   4  -1  -9 0.73961 1.99832  19
   4  -1  -9 1.69497 3.85852  15
   4  -1  -9 5.96876 2.44806  14
   4  -1  -9 2.14978 2.47898  13
  -4   1   9 2.00462 3.26669   8
   3  -1  -9 193.468 7.48410  14
   3  -1  -9 197.839 7.71631  13
   3  -1  -9 211.992 7.13588  19
  -3   1   9 208.397 9.25111   8
  -3   1   9 214.635 11.1095   9
   2  -1  -9 24.9518 2.70624  19
   2  -1  -9 21.2116 3.18683  14
   2  -1  -9 15.1827 4.23495   2
   2  -1  -9 24.2753 4.70745   1
   2  -1  -9 20.0627 3.17487  13
  -2   1   9 14.9863 4.21106   9
  -2   1   9 21.4683 3.32690   7
   1  -1  -9 9.39573 3.17560   1
   1  -1  -9 4.67662 3.41500   2
  -1   1   9 10.7549 3.65244   9
  -1   1   9 5.43423 2.16694   7
   0  -1  -9 331.060 12.1102   1
   0  -1  -9 313.770 12.2164   2
   0  -1  -9 332.469 12.1912   3
   0   1   9 340.290 12.0220   9
   0   1   9 311.874 11.5753   4
  -1  -1  -9 31.8870 5.38641   2
   1   1   9 27.8843 4.99293   3
  -2  -1  -9 30.0405 3.49874  11
  -2  -1  -9 27.7729 4.67544  12
  -3  -1  -9 45.5698 4.31333  16
  -3  -1  -9 39.7709 4.04289  11
  -3  -1  -9 36.5014 4.61131  17
  -3  -1  -9 44.9846 5.71947  12
  -4  -1  -9 15.8120 3.70292  17
  -4  -1  -9 10.1542 4.27222  12
  -4  -1  -9 21.4916 3.57906  16
  -4  -1  -9 21.8059 3.37095  11
   4   1   9 18.1229 3.80174  10
  -5  -1  -9 33.9423 3.56483  11
  -5  -1  -9 37.6311 4.86478  12
  -5  -1  -9 40.3125 4.10062  17
  -5  -1  -9 36.7234 3.91326  16
  -6  -1  -9 0.52849 1.93752  17
  -6  -1  -9 0.38931 2.04815  16
   5  -2  -9 40.9361 4.56836  15
   4  -2  -9 142.582 8.20168  15
   4  -2  -9 141.184 6.14222  19
   4  -2  -9 129.631 6.39490  13
  -4   2   9 139.946 7.62495   8
   3  -2  -9 69.9977 4.83006  13
   3  -2  -9 76.2580 4.39072  19
   3  -2  -9 69.5473 6.45723  15
   3  -2  -9 73.4823 7.62996   1
   3  -2  -9 72.0793 4.93098  14
  -3   2   9 65.3863 7.21126   9
  -3   2   9 80.7455 6.58269   8
   2  -2  -9 675.689 15.5591  14
   2  -2  -9 695.702 20.5761   2
   2  -2  -9 695.098 20.2158   1
   2  -2  -9 686.971 14.5459  19
   2  -2  -9 692.296 16.0577  13
  -2   2   9 719.418 15.9599   7
   1  -2  -9 245.759 10.9799   2
   1  -2  -9 249.578 10.8940   1
  -1   2   9 251.195 7.10336   7
  -1   2   9 257.084 11.0530   9
   0  -2  -9 119.941 7.57132   2
   0  -2  -9 118.524 7.35740   1
   0  -2  -9 112.196 7.21830   3
   0  -2  -9 112.576 7.36776   9
   0   2   9 115.389 7.29722   4
  -1  -2  -9 222.060 9.68371   1
  -2  -2  -9 149.505 6.11709  11
  -3  -2  -9 55.1949 4.91672  10
  -3  -2  -9 51.1378 4.36689  11
  -3  -2  -9 53.4498 4.63857  16
  -4  -2  -9 103.821 6.19675  17
  -4  -2  -9 111.337 5.86779  11
  -4  -2  -9 115.664 6.24967  16
  -4  -2  -9 108.235 6.62277  10
  -5  -2  -9 41.7086 4.19122  17
  -5  -2  -9 48.5092 4.23132  16
  -5  -2  -9 45.7196 4.01694  11
  -6  -2  -9 65.4810 3.95600  16
  -6  -2  -9 62.8545 3.81553  17
   5  -3  -9 312.554 10.2903  15
  -5   3   9 295.524 8.89465  13
   4  -3  -9 225.592 7.86436  19
   4  -3  -9 222.537 8.13286  13
   4  -3  -9 214.209 9.60400  15
  -4   3   9 198.225 8.99883   8
   3  -3  -9 193.612 9.31979  15
   3  -3  -9 186.733 6.88507  19
   3  -3  -9 198.632 7.67623  13
   3  -3  -9 200.613 7.44225  14
   3  -3  -9 188.907 10.3366   1
  -3   3   9 196.907 9.06319   8
  -3   3   9 202.962 10.9887   9
   2  -3  -9 522.775 16.9551   1
   2  -3  -9 511.807 11.6247  19
   2  -3  -9 515.700 12.9492  13
   2  -3  -9 489.575 12.4962  14
   2  -3  -9 489.019 16.7092   2
  -2   3   9 486.085 16.8335   9
   1  -3  -9 46.9704 6.02427   9
   1  -3  -9 50.8896 5.77580   1
   1  -3  -9 50.9780 5.95000   2
  -1   3   9 50.6920 3.50929   7
   0  -3  -9 202.305 9.98976   9
   0  -3  -9 212.170 9.83461   2
   0  -3  -9 194.238 9.32446   1
   0   3   9 194.166 9.53217   4
  -1  -3  -9 164.528 9.09570   9
  -1  -3  -9 167.743 8.67710   1
  -1  -3  -9 158.091 6.94410  10
   1   3   9 146.584 8.10983   4
  -2  -3  -9 184.236 7.48858  10
  -3  -3  -9 519.302 13.5548  16
  -3  -3  -9 551.247 13.1780  11
  -3  -3  -9 554.209 15.3582  10
  -4  -3  -9 22.2576 3.36812  11
  -4  -3  -9 12.4843 1.50517  19
  -4  -3  -9 15.7514 3.57552  10
  -4  -3  -9 22.7217 3.60807  16
  -5  -3  -9 91.8470 5.07943  11
  -5  -3  -9 96.0897 5.53933  16
  -5  -3  -9 98.2494 5.43597  17
  -6  -3  -9 29.1124 2.96740  16
   5  -4  -9 -4.9711 2.56079  15
  -5   4   9 0.21658 2.37252  13
   4  -4  -9 22.3929 3.27994  13
   4  -4  -9 22.2222 4.38510  15
   4  -4  -9 22.5402 3.53522  19
   3  -4  -9 1.58206 2.30807  14
   3  -4  -9 5.61961 2.27153  19
   3  -4  -9 7.94798 3.86149  15
   3  -4  -9 2.95060 2.33709  13
  -3   4   9 13.9706 4.80242   9
  -3   4   9 4.74049 3.39915   8
   2  -4  -9 21.8704 2.78913  19
   2  -4  -9 15.9511 4.31048  15
   2  -4  -9 16.9744 4.39374   2
   2  -4  -9 19.5914 3.13278  13
   2  -4  -9 13.9864 4.16097   1
   2  -4  -9 19.9694 3.03658  14
  -2   4   9 14.6630 4.58710   9
   1  -4  -9 267.028 11.4241   2
   1  -4  -9 235.517 11.4322   9
   1  -4  -9 251.346 11.0473   1
   0  -4  -9 36.5195 3.92397  10
   0  -4  -9 29.2360 5.07426   9
   0  -4  -9 33.7627 4.82366   1
  -1  -4  -9 234.886 10.1682   1
  -1  -4  -9 230.577 11.0326   9
  -1  -4  -9 223.597 8.47916  10
  -1  -4  -9 228.725 9.61193   5
  -2  -4  -9 338.953 11.0452  10
  -2  -4  -9 339.300 13.7637   9
  -3  -4  -9 74.1595 2.87734  19
  -3  -4  -9 79.6583 5.31224  16
  -3  -4  -9 65.7695 5.40240  15
  -3  -4  -9 75.4492 4.76702  11
  -3  -4  -9 64.0342 5.51677  10
  -4  -4  -9 84.3657 5.99865  15
  -4  -4  -9 81.6821 5.97003  10
  -4  -4  -9 71.6132 3.02793  19
  -4  -4  -9 78.4208 5.41259  16
  -4  -4  -9 81.3067 5.07054  11
  -5  -4  -9 2.64351 2.64047  16
  -5  -4  -9 2.10711 2.39598  11
  -5  -4  -9 5.46129 2.50739  15
  -6  -4  -9 34.7793 3.05346  16
   5  -5  -9 303.887 9.58799  15
  -5   5   9 309.609 8.69134  13
   4  -5  -9 242.553 8.35082  19
   4  -5  -9 238.157 9.79307  15
  -4   5   9 241.759 8.51129  13
   3  -5  -9 69.0325 6.15660  15
   3  -5  -9 71.0724 4.94250  13
   3  -5  -9 71.9842 4.84197  19
   3  -5  -9 69.1800 4.90305  14
  -3   5   9 84.0614 6.65133   8
  -3   5   9 80.7467 9.00864   9
   2  -5  -9 113.824 5.88333  13
   2  -5  -9 111.396 8.36306   1
   2  -5  -9 120.185 7.45303  15
   2  -5  -9 129.076 6.10781  14
   2  -5  -9 118.487 5.36280  19
  -2   5   9 97.8658 9.23309   9
   1  -5  -9 41.6682 5.62250   1
   1  -5  -9 41.6093 3.19061  19
   1  -5  -9 39.1074 6.08849   9
   1  -5  -9 45.1122 4.61149  10
  -1   5   9 42.9134 4.24527   7
   0  -5  -9 262.278 9.52857  10
   0  -5  -9 257.436 12.2160   9
   0  -5  -9 258.530 11.2548   1
   0   5   9 260.169 7.85464   7
  -1  -5  -9 431.998 14.9018   1
  -1  -5  -9 464.633 13.6008  10
  -1  -5  -9 445.461 16.5628   9
  -2  -5  -9 77.4158 5.28699  16
  -2  -5  -9 86.3006 5.90949  10
  -2  -5  -9 85.2855 6.22752  15
  -2  -5  -9 84.8536 3.34075  19
  -2  -5  -9 82.1588 8.12756   9
  -3  -5  -9 70.5864 5.96690  15
  -3  -5  -9 91.6099 8.96971   9
  -3  -5  -9 94.4682 3.57442  19
  -3  -5  -9 92.5484 6.34024  10
  -3  -5  -9 89.8459 5.02082  11
  -3  -5  -9 82.6307 5.60639  16
  -4  -5  -9 1.26872 2.44384  11
  -4  -5  -9 5.49070 3.16020  15
  -4  -5  -9 2.91264 1.47252  19
  -4  -5  -9 0.75044 2.94157  10
  -4  -5  -9 3.15990 2.78925  16
  -5  -5  -9 0.17659 2.39909  15
  -5  -5  -9 2.66597 2.75529  16
   5  -6  -9 83.4200 4.83560  15
  -5   6   9 75.0418 4.36159  13
  -5   6   9 76.9143 4.20858  18
   4  -6  -9 47.9138 4.94385  15
  -4   6   9 60.4634 4.80169  13
   3  -6  -9 70.0825 4.64839  19
   3  -6  -9 66.0665 4.61244  14
   3  -6  -9 73.3435 6.04586  15
  -3   6   9 60.7164 8.30826   9
   2  -6  -9 4.50660 2.24335  19
   2  -6  -9 0.05242 2.96297  15
   2  -6  -9 2.49782 2.96416  10
   2  -6  -9 0.80699 2.38640  13
   2  -6  -9 6.02951 2.46161  14
   2  -6  -9 5.96439 4.14027   1
  -2   6   9 1.86777 4.00983   9
   1  -6  -9 67.6370 5.51358  10
   1  -6  -9 72.6630 7.40238   1
   1  -6  -9 68.7692 4.15576  19
   1  -6  -9 69.3449 4.94654  14
   1  -6  -9 66.4073 5.43079  15
   1  -6  -9 72.0911 8.30663   9
   0  -6  -9 440.794 10.6277  19
   0  -6  -9 415.766 15.3733   1
   0  -6  -9 429.042 16.8574   9
   0  -6  -9 483.640 14.0642  10
   0  -6  -9 431.714 12.9125  15
   0  -6  -9 450.476 12.1224  14
  -1  -6  -9 263.175 11.7182   1
  -1  -6  -9 265.854 9.18286  14
  -1  -6  -9 280.846 7.48395  19
  -1  -6  -9 263.677 13.1612   9
  -1  -6  -9 278.100 10.4716  10
  -1  -6  -9 251.911 9.65071  15
  -2  -6  -9 401.943 16.1536   9
  -2  -6  -9 412.151 12.9540  15
  -2  -6  -9 403.370 9.26368  19
  -2  -6  -9 393.894 11.3529  16
  -2  -6  -9 419.182 13.5634  10
  -3  -6  -9 237.490 12.8280   9
  -3  -6  -9 240.045 9.89730  15
  -3  -6  -9 250.581 6.54319  19
  -3  -6  -9 248.362 8.13764  11
  -3  -6  -9 231.919 9.97875  10
  -3  -6  -9 248.141 8.72748  16
  -4  -6  -9 192.052 7.65763  16
  -4  -6  -9 199.320 7.20143  11
  -4  -6  -9 194.023 5.35284  19
  -4  -6  -9 179.557 8.29463  15
  -4  -6  -9 190.855 8.77391  10
  -5  -6  -9 440.462 11.1061  16
  -5  -6  -9 391.266 11.1143  15
  -5   7   9 107.652 4.31063  13
  -5   7   9 105.911 4.06475  18
   4  -7  -9 262.256 9.04956  15
  -4   7   9 267.671 8.49749  13
   3  -7  -9 5.67381 2.48076  19
   3  -7  -9 4.13652 2.91351  15
   3  -7  -9 10.0007 3.37834  10
  -3   7   9 6.95369 3.14274  13
  -3   7   9 10.2476 3.96584   8
   2  -7  -9 52.2873 4.29611  14
   2  -7  -9 54.4886 4.42876  19
   2  -7  -9 57.3757 5.13890  15
   2  -7  -9 60.9680 5.47366  10
  -2   7   9 46.2144 5.92400   8
  -2   7   9 45.6204 6.93519   9
   1  -7  -9 148.156 7.63646  10
   1  -7  -9 138.176 9.54212   1
   1  -7  -9 139.936 6.70942  14
   1  -7  -9 150.744 7.43459  15
   1  -7  -9 138.714 10.3070   9
   1  -7  -9 144.496 6.16376  19
   0  -7  -9 22.4432 4.88917   1
   0  -7  -9 10.3814 2.94125  15
   0  -7  -9 12.5068 4.73370   9
   0  -7  -9 16.2420 2.74271  19
   0  -7  -9 14.7121 3.61288  10
   0  -7  -9 13.9380 3.23033  14
  -1  -7  -9 185.875 8.78177  10
  -1  -7  -9 184.264 10.1890   1
  -1  -7  -9 171.180 7.46492  14
  -1  -7  -9 173.545 7.22700  16
  -1  -7  -9 184.079 6.18156  19
  -1  -7  -9 161.134 7.53298  15
  -1  -7  -9 172.299 11.0241   9
  -2  -7  -9 6.40469 3.36898  10
  -2  -7  -9 4.79107 4.09982   9
  -2  -7  -9 0.17966 2.42416  15
  -2  -7  -9 7.04521 3.01876  16
  -2  -7  -9 1.70073 1.86722  19
  -3  -7  -9 83.1150 4.01161  19
  -3  -7  -9 73.7136 5.35384  16
  -3  -7  -9 78.7164 6.44736  10
  -3  -7  -9 84.7723 5.04539  11
  -3  -7  -9 79.4026 5.74158  15
  -4  -7  -9 73.9653 5.17758  16
  -4  -7  -9 66.8159 3.32613  19
  -4  -7  -9 55.2348 4.75638  15
  -4  -7  -9 67.6475 4.57597  11
  -5  -7  -9 32.1849 3.42349  16
  -5  -7  -9 32.3462 3.18308  15
   4  -8  -9 2.43016 2.19446  15
  -4   8   9 2.97562 2.35830  13
   3  -8  -9 26.1048 3.71927  19
   3  -8  -9 20.8043 3.52016  15
  -3   8   9 24.3784 3.55468  13
   2  -8  -9 37.0465 3.87529  14
   2  -8  -9 43.3061 4.84653  10
   2  -8  -9 47.4202 4.43057  19
   2  -8  -9 41.1336 4.42463  15
  -2   8   9 46.9951 5.74693   8
   1  -8  -9 50.9167 5.16694  10
   1  -8  -9 46.8453 7.08735   9
   1  -8  -9 49.8970 4.35782  14
   1  -8  -9 53.3835 4.75604  15
   1  -8  -9 50.4566 4.26997  19
  -1   8   9 49.4435 6.38954   8
   0  -8  -9 202.786 6.93045  19
   0  -8  -9 194.716 8.22367  14
   0  -8  -9 215.176 9.14251  10
   0  -8  -9 187.592 11.2548   9
   0  -8  -9 203.837 8.30967  15
  -1  -8  -9 8.40572 4.50099   9
  -1  -8  -9 13.0289 2.38887  19
  -1  -8  -9 18.7719 3.45582  14
  -1  -8  -9 20.7723 3.62476  16
  -1  -8  -9 14.9119 3.71791  10
  -1  -8  -9 17.9219 3.31086  15
  -2  -8  -9 16.2402 3.39970  16
  -2  -8  -9 11.7830 3.60356  10
  -2  -8  -9 17.7705 3.35745  15
  -2  -8  -9 21.0098 3.51143  14
  -2  -8  -9 23.3186 2.77170  19
  -2  -8  -9 14.8848 4.87712   9
  -3  -8  -9 33.1661 4.60874  10
  -3  -8  -9 35.7269 3.05485  19
  -3  -8  -9 40.6146 4.10343  15
  -3  -8  -9 43.8101 4.14619  11
  -3  -8  -9 28.3189 3.94335  16
  -4  -8  -9 5.35455 1.69810  19
  -4  -8  -9 7.16914 2.76831  16
  -4  -8  -9 7.10500 2.53666  15
  -5  -8  -9 24.0268 2.60684  16
  -5  -8  -9 23.8584 2.33273  15
   3  -9  -9 347.416 9.61329  19
   3  -9  -9 367.474 9.94485  15
   2  -9  -9 379.563 10.9786  15
   2  -9  -9 380.427 10.5913  14
   2  -9  -9 375.560 10.4134  19
   1  -9  -9 559.038 15.7744  10
   1  -9  -9 585.226 14.6776  15
   1  -9  -9 572.289 13.4587  19
   1  -9  -9 548.009 14.1800  14
  -1   9   9 540.497 16.5603   8
   0  -9  -9 184.149 8.36714  10
   0  -9  -9 196.531 6.71599  19
   0  -9  -9 197.650 8.03717  15
   0  -9  -9 195.437 7.89888  14
   0   9   9 197.263 9.82183   8
  -1  -9  -9 93.0467 5.78267  14
  -1  -9  -9 97.9844 4.66454  19
  -1  -9  -9 96.2197 5.79465  16
  -1  -9  -9 101.769 6.01821  15
  -1  -9  -9 100.178 6.44225  10
  -2  -9  -9 203.525 7.59386  14
  -2  -9  -9 189.754 6.28944  19
  -2  -9  -9 192.218 8.59654  10
  -2  -9  -9 198.825 7.63896  16
  -2  -9  -9 186.705 7.61662  15
  -3  -9  -9 93.5968 5.24590  16
  -3  -9  -9 87.5072 3.94326  19
  -3  -9  -9 85.1997 5.01991  15
  -4  -9  -9 228.901 5.53204  19
  -4  -9  -9 245.202 7.18459  16
  -4  -9  -9 249.107 7.20505  15
   3 -10  -9 4.18165 1.93922  19
   2 -10  -9 146.806 5.75909  14
   2 -10  -9 155.039 6.12610  15
   2 -10  -9 142.573 5.61203  19
   1 -10  -9 0.11499 2.15664  15
   1 -10  -9 -3.1814 2.07735  14
   1 -10  -9 1.83597 2.07671  19
   0 -10  -9 4.39935 2.12704  19
   0 -10  -9 -0.9002 2.53826  16
   0 -10  -9 2.06628 2.24428  14
   0 -10  -9 4.93143 2.55943  15
  -1 -10  -9 3.33576 2.34965  14
  -1 -10  -9 1.49761 2.47036  16
  -1 -10  -9 4.00323 2.03985  19
  -1 -10  -9 -0.1754 2.16545  15
  -2 -10  -9 11.6986 2.64790  15
  -2 -10  -9 9.89122 2.71265  16
  -2 -10  -9 9.70043 2.13504  19
  -3 -10  -9 85.6823 4.42810  16
  -3 -10  -9 95.3912 4.57499  15
  -3 -10  -9 95.5416 3.61953  19
   2 -11  -9 142.584 4.82429  19
   1 -11  -9 181.286 6.13867  14
   1 -11  -9 186.172 5.85527  19
   0 -11  -9 90.4278 4.15889  19
   0 -11  -9 92.3779 4.46507  16
   0 -11  -9 93.2836 4.69610  14
  -1 -11  -9 26.8386 2.61234  19
  -1 -11  -9 25.5468 2.88257  16
  -2 -11  -9 88.0584 3.50145  19
  -2 -11  -9 81.6468 3.97563  15
  -2 -11  -9 91.0230 4.18365  16
   2  11   9 80.3329 4.35142  14
  -3 -11  -9 23.4015 1.62594  19
  -3 -11  -9 24.5861 2.26149  16
   0 -12  -9 33.7919 2.34523  19
   0  12   9 35.2239 2.67445  14
  -1 -12  -9 111.684 3.58802  19
  -1 -12  -9 109.154 3.81583  16
   1  12   9 118.921 4.19229  14
   0   7 -10 152.074 3.56651  19
   2   6 -10 4.99869 1.84270  14
   2   6 -10 1.21504 1.26172  19
  -2  -6  10 2.10792 1.65325  17
   1   6 -10 53.5466 3.50868  14
   1   6 -10 40.6914 3.02829  17
   1   6 -10 48.1680 3.36611  13
   1   6 -10 44.6177 2.71606  19
   0   6 -10 11.5338 2.49421  12
   0   6 -10 9.96102 2.34858  13
   0   6 -10 10.5429 2.20918  17
   0   6 -10 8.30069 1.60553  19
  -1   6 -10 77.8635 2.95071  19
  -1   6 -10 82.7374 4.37537  12
  -1   6 -10 82.0923 4.25242  13
  -1   6 -10 81.7316 4.07626  17
  -2   6 -10 7.49975 1.87406  17
  -2   6 -10 9.05530 1.98200  13
   3   5 -10 302.975 7.36153  19
   3   5 -10 315.315 7.79647  14
  -3  -5  10 299.584 7.13832  17
   2   5 -10 185.988 5.93988  19
   2   5 -10 193.996 6.12623  13
   2   5 -10 188.871 6.47161  14
  -2  -5  10 171.675 6.31065  12
  -2  -5  10 198.483 6.19544  17
   1   5 -10 65.0263 3.65348  19
   1   5 -10 65.7724 4.20709  17
   1   5 -10 61.0670 4.39002  14
   1   5 -10 65.8441 4.49577  13
  -1  -5  10 60.2736 4.36943  12
   0   5 -10 156.239 6.13115  17
   0   5 -10 161.614 6.46630  13
   0   5 -10 157.815 5.27920  19
   0   5 -10 148.930 6.37850  12
  -1   5 -10 20.5195 2.23949  19
  -1   5 -10 18.7204 2.94627  17
  -1   5 -10 21.0074 3.29718  12
  -1   5 -10 23.2036 3.15690  13
  -2   5 -10 14.4581 2.64082  17
  -2   5 -10 13.0699 2.85616  12
  -2   5 -10 18.7149 2.87465  13
  -3   5 -10 9.27192 2.10853  17
  -3   5 -10 11.3951 2.14648  13
   3   4 -10 119.866 5.45976  14
   3   4 -10 128.267 5.06864  19
  -3  -4  10 126.783 5.53253  12
  -3  -4  10 120.799 4.99215  17
   2   4 -10 25.3299 3.53830  14
   2   4 -10 19.6865 2.82227  19
   2   4 -10 19.7215 3.21697  13
  -2  -4  10 24.1547 3.46430  12
   1   4 -10 95.7392 5.64579  14
   1   4 -10 92.3075 5.32078  17
   1   4 -10 93.4912 4.49597  19
   1   4 -10 88.5574 5.53166  13
   1   4 -10 94.7880 5.65102  12
   0   4 -10 12.0181 2.89623  17
   0   4 -10 6.42081 2.84689  12
   0   4 -10 7.49517 2.12124  19
   0   4 -10 10.9372 3.05705  13
  -1   4 -10 51.0738 4.46526  17
  -1   4 -10 55.5788 3.57713  19
  -1   4 -10 57.5151 4.78667  12
  -1   4 -10 54.7762 4.70708  13
  -2   4 -10 236.744 8.19976  12
  -2   4 -10 226.373 8.02167  13
  -2   4 -10 239.301 7.95938  17
  -3   4 -10 154.516 6.06987  17
  -3   4 -10 152.562 5.88373  13
  -3   4 -10 140.831 6.05275  12
  -4   4 -10 198.440 5.82003  17
   4   3 -10 76.2842 4.21197  14
   4   3 -10 69.4097 3.73508  19
   3   3 -10 153.078 6.55477  14
   3   3 -10 157.228 6.04409  19
   3   3 -10 152.382 6.41467  13
  -3  -3  10 151.426 6.06670  17
  -3  -3  10 140.203 6.50768  12
   2   3 -10 230.415 8.54100  13
   2   3 -10 231.124 8.16213  17
   2   3 -10 228.641 8.41472  14
   2   3 -10 228.558 7.46653  19
  -2  -3  10 250.282 8.72629  12
   1   3 -10 22.3990 2.75991  19
   1   3 -10 19.4515 3.65931  12
   1   3 -10 20.4081 3.64599  13
   1   3 -10 20.1845 3.50960  14
   1   3 -10 18.4768 3.43372  17
   0   3 -10 13.5805 2.39262  19
   0   3 -10 11.9992 3.27344  17
   0   3 -10 9.38126 3.11070  12
   0   3 -10 11.8112 3.27355  13
  -1   3 -10 39.4580 4.44427  13
  -1   3 -10 25.8757 2.59690  19
  -1   3 -10 40.9707 4.42657  12
  -1   3 -10 38.3752 4.21438  17
  -2   3 -10 30.1400 3.94166  13
  -2   3 -10 26.0045 3.96459  12
  -2   3 -10 24.0132 3.85845  17
  -3   3 -10 128.236 5.95397  13
  -3   3 -10 123.368 6.34247  12
  -3   3 -10 123.831 6.15367  17
   3  -3  10 125.207 6.51830  11
  -4   3 -10 2.18141 2.40344  12
  -4   3 -10 3.14359 2.32413  17
   4   2 -10 19.0321 3.02066  14
   4   2 -10 25.9630 2.96481  19
   3   2 -10 318.375 10.1846  13
   3   2 -10 323.091 9.71281  14
   3   2 -10 319.325 9.08395  19
  -3  -2  10 299.499 9.89069  12
   2   2 -10 16.3678 3.50713  13
   2   2 -10 10.9291 3.12087  14
   2   2 -10 14.4339 2.53511  19
  -2  -2  10 16.0273 3.62147  12
   1   2 -10 -0.3352 2.47703  13
   1   2 -10 4.76194 3.04637  17
   1   2 -10 2.45586 2.66501  14
   1   2 -10 1.63245 1.70738  19
   1   2 -10 0.42863 2.81906  12
   0   2 -10 46.9647 4.68368  17
   0   2 -10 52.3913 4.99037  12
   0   2 -10 52.3044 3.22584  19
   0   2 -10 50.7560 4.63799  13
  -1   2 -10 2.51451 1.59428  19
  -1   2 -10 2.85457 2.74541  13
  -1   2 -10 2.77594 2.96114  17
  -1   2 -10 5.91143 3.19825  12
  -2   2 -10 194.262 8.18762  17
  -2   2 -10 186.050 7.89218  13
  -2   2 -10 195.675 8.17379  12
  -3   2 -10 7.72795 3.22170  12
  -3   2 -10 7.98451 3.35168  17
  -3   2 -10 2.37616 2.83147  11
  -4   2 -10 12.8170 3.07463  12
  -4   2 -10 4.83158 2.89542  16
  -4   2 -10 6.75247 2.81324  17
  -5   2 -10 4.76268 1.97577  17
   4   1 -10 346.401 10.1635  13
   4   1 -10 349.879 9.43794  19
   4   1 -10 361.405 9.54762  14
   3   1 -10 140.031 5.77781  19
   3   1 -10 129.117 6.74355  13
   3   1 -10 136.818 6.48444  14
  -3  -1  10 144.550 6.83344  12
  -3  -1  10 131.777 8.24155   8
   2   1 -10 355.095 10.5724  14
   2   1 -10 374.311 9.50254  19
   2   1 -10 362.823 11.0603  13
  -2  -1  10 346.456 10.9312  12
   1   1 -10 60.6865 5.26759  12
   1   1 -10 78.9218 3.88224  19
   1   1 -10 57.9492 4.83802  13
   1   1 -10 65.7832 4.65782  14
  -1  -1  10 64.0134 7.10778   1
   0   1 -10 289.206 6.76798  19
   0   1 -10 284.246 9.60970  13
   0   1 -10 272.847 9.00501  14
   0   1 -10 280.072 9.97902  12
   0  -1  10 277.155 12.4167   1
  -1   1 -10 590.331 15.0758  13
  -1   1 -10 593.466 10.9633  19
  -1   1 -10 629.033 15.7111  12
  -1   1 -10 609.823 15.0138  17
  -2   1 -10 502.238 14.1553  12
  -2   1 -10 503.623 13.3318  13
  -2   1 -10 518.966 13.7690  17
  -3   1 -10 359.417 10.3849  11
  -3   1 -10 356.047 11.4210  17
  -3   1 -10 371.820 11.7723  12
  -4   1 -10 133.929 6.43937  16
  -4   1 -10 133.833 6.17323  11
  -4   1 -10 135.841 6.84166  17
  -4   1 -10 135.867 6.91233  12
  -5   1 -10 42.2055 3.49215  17
  -5   1 -10 42.3815 3.48237  16
   5   0 -10 89.5905 4.15543  19
   4   0 -10 29.8505 3.24349  19
   4   0 -10 24.9414 3.21752  14
   4   0 -10 30.9202 3.75798  13
   3   0 -10 16.6977 3.14060  14
   3   0 -10 18.9997 2.71994  19
   3   0 -10 17.7357 3.31401  13
  -3   0  10 21.4681 4.52785   8
   2   0 -10 5.09604 2.53626  13
   2   0 -10 4.55994 1.84773  19
   2   0 -10 7.84204 2.66416  14
  -2   0  10 8.70084 4.66836   9
   1   0 -10 275.799 7.08342  19
   1   0 -10 264.571 9.12078  13
   1   0 -10 248.191 8.50323  14
  -1   0  10 269.314 12.1967   1
   0   0 -10 39.2856 3.99819  13
   0   0 -10 36.5679 3.86113  14
   0   0 -10 41.2057 2.51689  19
   0   0  10 41.2321 5.82053   1
  -1   0 -10 50.9078 5.14849  12
  -1   0 -10 51.7576 4.32782  13
  -2   0 -10 141.567 7.68875  12
  -2   0 -10 141.464 7.75793  17
  -3   0 -10 216.825 9.47525  12
  -3   0 -10 215.689 9.00289  17
  -3   0 -10 221.074 7.95516  11
  -4   0 -10 13.9990 3.66386  17
  -4   0 -10 6.53209 3.03668  16
  -4   0 -10 18.6558 4.04046  12
  -4   0 -10 8.08253 2.91908  11
  -5   0 -10 172.731 6.65008  17
  -5   0 -10 172.925 6.35872  16
   5  -1 -10 51.4805 3.46523  19
   4  -1 -10 305.686 9.71728  13
   4  -1 -10 299.182 8.74171  19
   4  -1 -10 301.721 8.81602  14
   3  -1 -10 37.5596 3.88911  13
   3  -1 -10 42.6067 3.48695  19
   3  -1 -10 35.3798 3.66180  14
  -3   1  10 33.2659 6.06340   9
  -3   1  10 45.5687 5.48196   8
   2  -1 -10 10.5974 2.81567  13
   2  -1 -10 11.5639 2.90366  14
   2  -1 -10 9.77623 2.08953  19
  -2   1  10 8.23844 4.29070   9
  -2   1  10 10.0425 4.03304   1
   1  -1 -10 260.215 8.85668  13
   1  -1 -10 264.975 6.79371  19
   1  -1 -10 248.148 8.54415  14
   1  -1 -10 272.501 11.9557   1
  -1   1  10 257.672 11.3211   9
   0  -1 -10 212.310 10.3878   1
   0  -1 -10 219.760 5.09068  19
   0  -1 -10 219.208 11.1274   2
  -3  -1 -10 65.5858 6.57289  12
  -3  -1 -10 56.9505 4.80522  16
  -3  -1 -10 56.9655 4.62179  11
  -3  -1 -10 71.3457 5.72860  17
  -4  -1 -10 105.442 6.47784  17
  -4  -1 -10 101.813 7.30033  12
  -4  -1 -10 119.838 6.05817  16
  -4  -1 -10 108.230 5.63323  11
  -5  -1 -10 3.98956 2.68501  17
  -5  -1 -10 10.9061 2.76320  16
   5  -2 -10 163.598 6.57447  15
   5  -2 -10 136.421 5.31090  19
  -5   2  10 155.488 5.97479  13
   4  -2 -10 89.0628 5.03389  14
   4  -2 -10 98.8108 6.75114  15
   4  -2 -10 95.9503 4.92510  19
   4  -2 -10 90.1634 5.37393  13
   3  -2 -10 47.0724 4.17421  13
   3  -2 -10 53.0835 4.22016  14
   3  -2 -10 56.8142 3.81537  19
   3  -2 -10 56.6258 5.92474  15
  -3   2  10 54.6443 7.00038   9
  -3   2  10 51.6664 5.75980   8
   2  -2 -10 100.937 8.58238   1
   2  -2 -10 102.411 5.53851  13
   2  -2 -10 99.9350 5.55566  14
   2  -2 -10 99.4221 4.42930  19
  -2   2  10 104.198 8.74046   9
   1  -2 -10 17.5397 3.03895  14
   1  -2 -10 14.1108 2.90044  13
   1  -2 -10 16.2141 1.95137  19
   1  -2 -10 15.3750 4.02676   1
   1  -2 -10 22.8475 4.60101   2
  -1   2  10 12.7709 4.33867   9
  -1   2  10 14.7771 2.74120   7
   0  -2 -10 148.663 8.73351   1
   0  -2 -10 137.841 8.89686   2
   0   2  10 154.638 8.79706   9
  -3  -2 -10 268.749 8.70986  11
  -3  -2 -10 276.731 9.20367  16
  -4  -2 -10 176.724 7.33272  16
  -4  -2 -10 168.168 6.81498  11
  -4  -2 -10 172.950 7.64322  17
  -5  -2 -10 165.838 6.32725  16
  -5  -2 -10 159.400 6.46858  17
   5  -3 -10 11.9285 2.22177  19
   5  -3 -10 13.0842 3.05718  15
  -5   3  10 13.9444 2.75607  13
   4  -3 -10 29.2318 3.42363  13
   4  -3 -10 30.7101 3.44050  19
   4  -3 -10 21.0306 4.35748  15
   3  -3 -10 176.754 7.27154  13
   3  -3 -10 173.382 9.00484  15
   3  -3 -10 177.626 6.48366  19
   3  -3 -10 180.313 7.12561  14
  -3   3  10 183.425 8.96430   8
  -3   3  10 161.602 10.1514   9
   2  -3 -10 62.3460 4.47801  13
   2  -3 -10 63.7606 3.74234  19
   2  -3 -10 62.1240 4.37930  14
   2  -3 -10 70.0217 7.42609   1
   2  -3 -10 68.1610 6.23386  15
  -2   3  10 65.7778 7.29943   9
   1  -3 -10 44.5129 5.95944   1
   1  -3 -10 50.2419 6.53720   2
   1  -3 -10 43.6675 5.13935  15
   1  -3 -10 42.0796 3.99521  13
   1  -3 -10 41.8590 2.89142  19
   1  -3 -10 35.0663 3.59341  14
  -1   3  10 38.5779 5.68299   9
   0  -3 -10 61.6953 6.80178   9
   0  -3 -10 46.8952 5.84574   1
  -1  -3 -10 202.672 10.4145   9
  -3  -3 -10 95.9519 6.22360  10
  -3  -3 -10 103.172 5.57691  11
  -3  -3 -10 106.806 5.94845  16
  -4  -3 -10 257.061 8.35466  11
  -4  -3 -10 259.642 9.68786  10
  -4  -3 -10 264.918 8.91574  16
  -5  -3 -10 341.987 9.39794  16
   5  -4 -10 19.5119 3.26032  15
  -5   4  10 19.7815 2.90033  13
   4  -4 -10 182.624 6.86389  19
   4  -4 -10 193.851 8.77382  15
   4  -4 -10 202.676 7.34703  13
   3  -4 -10 37.3096 3.60458  19
   3  -4 -10 26.0961 3.55982  13
   3  -4 -10 31.6614 3.57545  14
   3  -4 -10 33.4821 4.98505  15
  -3   4  10 27.9064 5.89428   9
  -3   4  10 39.0306 5.13783   8
   2  -4 -10 239.667 8.41276  13
   2  -4 -10 245.509 8.25850  14
   2  -4 -10 250.593 12.0884   1
   2  -4 -10 248.705 7.38232  19
   2  -4 -10 229.561 10.2518  15
  -2   4  10 248.533 12.2445   9
   1  -4 -10 54.0900 6.59442   1
   1  -4 -10 55.3543 5.34215  15
   1  -4 -10 45.1902 3.11025  19
   1  -4 -10 47.8601 3.95632  14
   0  -4 -10 77.8646 5.82828  15
   0  -4 -10 77.9182 3.46101  19
   0  -4 -10 92.3846 8.37614   9
   0  -4 -10 74.1702 7.15321   1
   0  -4 -10 81.1562 5.33745  14
  -1  -4 -10 53.0646 6.76138   9
  -1  -4 -10 63.0786 4.94569  10
  -1  -4 -10 52.2045 5.07670  15
  -2  -4 -10 22.5246 5.46923   9
  -2  -4 -10 29.2373 4.23887  15
  -2  -4 -10 29.4517 3.95576  10
  -3  -4 -10 11.4218 2.99717  11
  -3  -4 -10 13.1552 3.33092  15
  -3  -4 -10 8.32367 3.12586  10
  -3  -4 -10 11.8419 3.07739  16
  -4  -4 -10 26.9853 3.76335  15
  -4  -4 -10 27.8099 4.11718  10
  -4  -4 -10 34.9869 3.76710  11
  -4  -4 -10 22.0352 3.53800  16
  -5  -4 -10 -2.0514 2.30653  16
   5  -5 -10 36.0375 3.31893  15
   5  -5 -10 27.9835 2.74084  19
  -5   5  10 38.1920 3.13753  13
   4  -5 -10 49.2429 4.92943  15
   4  -5 -10 44.5859 3.80221  19
  -4   5  10 60.7307 4.49800  13
   3  -5 -10 374.402 10.4762  14
   3  -5 -10 351.269 10.5875  13
   3  -5 -10 345.620 12.1929  15
   3  -5 -10 370.309 10.0638  19
  -3   5  10 353.893 12.2856   8
   2  -5 -10 337.692 9.99802  13
   2  -5 -10 310.915 11.4773  15
   2  -5 -10 325.749 9.84473  14
   2  -5 -10 336.659 9.13476  19
   1  -5 -10 688.840 16.0081  14
   1  -5 -10 672.540 17.7823  15
   1  -5 -10 717.194 14.5445  19
   1  -5 -10 718.019 22.0821   9
   1  -5 -10 655.417 20.6092   1
   0  -5 -10 431.255 12.8696  10
   0  -5 -10 406.061 11.4766  14
   0  -5 -10 414.139 9.58994  19
   0  -5 -10 434.441 13.1126  15
   0  -5 -10 403.550 16.0642   9
   0  -5 -10 424.449 15.1855   1
  -1  -5 -10 488.159 14.5041  15
  -1  -5 -10 474.264 17.7006   9
  -1  -5 -10 496.575 13.0011  14
  -1  -5 -10 499.985 14.3840  10
  -1  -5 -10 500.555 9.82574  19
  -2  -5 -10 616.383 20.6198   9
  -2  -5 -10 620.848 17.0252  10
  -2  -5 -10 616.106 16.8133  15
  -2  -5 -10 628.829 14.9082  16
  -3  -5 -10 283.207 10.5466  10
  -3  -5 -10 263.339 10.1133  15
  -3  -5 -10 274.853 8.56006  11
  -3  -5 -10 263.592 8.87832  16
  -4  -5 -10 51.4093 4.18969  11
  -4  -5 -10 40.8938 4.14236  16
  -4  -5 -10 50.8377 4.66745  15
  -5  -5 -10 122.704 5.49742  16
  -5  -5 -10 111.701 5.19958  15
   5  -6 -10 1.13029 1.79099  15
  -5   6  10 4.34530 1.86280  13
   4  -6 -10 114.738 5.36632  19
   4  -6 -10 122.348 6.37079  15
  -4   6  10 129.238 5.98329  13
   3  -6 -10 113.792 7.07795  15
   3  -6 -10 109.208 5.45260  19
   3  -6 -10 123.316 5.89419  14
   2  -6 -10 2.69275 2.36099  14
   2  -6 -10 2.30533 2.44729  13
   2  -6 -10 2.70349 2.06758  19
   2  -6 -10 1.98720 3.01600  15
  -2   6  10 3.13630 4.22172   9
   1  -6 -10 124.052 7.23520  15
   1  -6 -10 138.162 5.57658  19
   1  -6 -10 134.560 11.0935   9
   1  -6 -10 144.771 7.34496  10
   1  -6 -10 130.860 6.42010  14
   1  -6 -10 124.143 8.96943   1
   0  -6 -10 3.49527 2.75403  15
   0  -6 -10 14.6599 4.98872   9
   0  -6 -10 4.54392 3.62675   1
   0  -6 -10 9.05123 2.09770  19
   0  -6 -10 1.61109 2.37985  14
   0  -6 -10 9.35590 3.15049  10
  -1  -6 -10 21.8481 5.48296   9
  -1  -6 -10 28.5481 4.21087  15
  -1  -6 -10 27.6290 2.56745  19
  -1  -6 -10 27.0055 4.23361  10
  -1  -6 -10 28.8393 3.80172  14
  -2  -6 -10 52.3248 5.49582  10
  -2  -6 -10 46.1516 7.18111   9
  -2  -6 -10 46.5467 2.68123  19
  -2  -6 -10 41.5115 4.27331  16
  -2  -6 -10 44.8228 4.86710  15
  -3  -6 -10 7.61595 1.36012  19
  -3  -6 -10 4.96860 3.14462  10
  -3  -6 -10 5.74447 2.84124  16
  -3  -6 -10 2.67511 2.89766  15
  -3  -6 -10 5.45351 2.71281  11
  -4  -6 -10 202.872 7.02816  11
  -4  -6 -10 204.977 7.54714  16
  -4  -6 -10 207.257 8.21896  15
  -5  -6 -10 1.13010 2.19349  16
  -5  -6 -10 3.04574 2.12118  15
   4  -7 -10 56.7338 3.98754  19
   4  -7 -10 60.8671 4.54574  15
  -4   7  10 59.3797 4.32627  13
   3  -7 -10 37.5618 3.58196  14
   3  -7 -10 45.1488 4.58227  15
   3  -7 -10 38.6967 3.81254  19
  -3   7  10 48.7701 4.40266  13
   2  -7 -10 39.1491 3.91754  19
   2  -7 -10 35.1882 4.50481  10
   2  -7 -10 36.9117 3.88733  14
   2  -7 -10 39.8255 4.56465  15
  -2   7  10 32.8007 5.55979   8
   1  -7 -10 -0.1541 3.95713   9
   1  -7 -10 3.60908 2.70172  15
   1  -7 -10 2.00360 2.84727  10
   1  -7 -10 1.41959 2.32466  14
   1  -7 -10 2.35874 2.07882  19
   0  -7 -10 221.844 8.40801  14
   0  -7 -10 220.570 12.3685   9
   0  -7 -10 221.302 6.87463  19
   0  -7 -10 219.366 8.87253  15
   0  -7 -10 223.547 9.48981  10
  -1  -7 -10 49.6555 5.40530  10
  -1  -7 -10 41.8368 3.12478  19
  -1  -7 -10 41.6757 4.27692  14
  -1  -7 -10 43.7389 4.45519  15
  -1  -7 -10 33.4282 6.36843   9
  -2  -7 -10 106.604 9.90325   9
  -2  -7 -10 107.716 6.48172  15
  -2  -7 -10 118.155 4.28968  19
  -2  -7 -10 106.837 6.99841  10
  -2  -7 -10 108.347 6.15336  16
  -3  -7 -10 154.703 7.28847  15
  -3  -7 -10 144.229 4.26028  19
  -3  -7 -10 145.593 6.81411  16
  -3  -7 -10 144.326 7.91277  10
  -4  -7 -10 27.3772 3.54993  15
  -4  -7 -10 29.2680 3.51876  16
  -5  -7 -10 55.0979 3.60599  16
  -5  -7 -10 61.9477 3.61011  15
   4  -8 -10 141.546 5.04037  19
   4  -8 -10 147.238 5.41883  15
  -4   8  10 143.897 5.16826  13
   3  -8 -10 237.933 8.28807  15
   3  -8 -10 244.932 7.75318  19
   2  -8 -10 88.9621 5.00563  19
   2  -8 -10 94.2481 5.49038  14
   2  -8 -10 90.4749 6.06682  10
   2  -8 -10 88.2287 5.83109  15
   1  -8 -10 157.685 6.16411  19
   1  -8 -10 160.579 7.43697  15
   1  -8 -10 147.187 7.62927  10
   1  -8 -10 156.367 6.91079  14
  -1   8  10 147.789 9.25821   8
   0  -8 -10 178.350 7.94145  15
   0  -8 -10 189.130 8.56316  10
   0  -8 -10 186.269 6.29129  19
   0  -8 -10 179.921 7.76560  14
  -1  -8 -10 195.015 8.10465  15
  -1  -8 -10 180.852 7.83651  14
  -1  -8 -10 183.389 7.41525  16
  -1  -8 -10 189.126 8.68845  10
  -1  -8 -10 192.307 6.06544  19
  -2  -8 -10 237.874 9.79252  10
  -2  -8 -10 221.923 8.05119  14
  -2  -8 -10 219.613 8.13790  16
  -2  -8 -10 216.639 8.43248  15
  -2  -8 -10 218.286 6.30909  19
  -3  -8 -10 20.1625 2.04428  19
  -3  -8 -10 22.2600 3.28966  15
  -3  -8 -10 23.7619 3.54814  16
  -4  -8 -10 100.281 5.02512  15
  -4  -8 -10 101.018 5.01180  16
   3  -9 -10 8.17736 2.03407  19
   3  -9 -10 3.44950 2.12615  15
   2  -9 -10 27.1394 3.45566  15
   2  -9 -10 23.7043 3.17332  14
   2  -9 -10 24.4379 3.01284  19
   1  -9 -10 7.47175 2.22436  19
   1  -9 -10 7.61965 2.67309  15
   1  -9 -10 9.76098 2.75137  14
   0  -9 -10 32.8400 3.83932  14
   0  -9 -10 27.9818 3.64655  15
   0  -9 -10 36.8807 3.24716  19
   0  -9 -10 24.9617 3.91262  10
  -1  -9 -10 198.385 7.73710  14
  -1  -9 -10 202.825 7.41655  16
  -1  -9 -10 196.717 8.48125  10
  -1  -9 -10 197.180 6.10577  19
  -1  -9 -10 201.199 7.93701  15
  -2  -9 -10 159.028 6.43422  14
  -2  -9 -10 163.721 5.22383  19
  -2  -9 -10 164.690 6.69550  16
  -2  -9 -10 153.863 6.70117  15
  -3  -9 -10 390.125 10.2276  15
  -3  -9 -10 382.895 10.0137  16
  -3  -9 -10 362.377 7.85951  19
  -4  -9 -10 270.060 7.09959  16
  -4  -9 -10 265.158 7.14572  15
   2 -10 -10 28.8075 2.77959  19
   2 -10 -10 27.6696 2.86899  15
   2 -10 -10 28.1104 2.76593  14
   1 -10 -10 5.57156 1.92822  19
   1 -10 -10 2.80748 2.19531  14
   1 -10 -10 5.90011 2.36922  15
   0 -10 -10 4.71603 2.31150  14
   0 -10 -10 8.89853 2.63106  15
   0 -10 -10 8.33493 2.03382  19
  -1 -10 -10 9.99219 2.68390  16
  -1 -10 -10 11.8239 2.55850  14
  -1 -10 -10 15.4078 2.84001  15
  -1 -10 -10 10.5419 1.95332  19
  -2 -10 -10 36.9344 2.57014  19
  -2 -10 -10 35.5640 3.27065  15
  -2 -10 -10 42.8820 3.55432  16
  -3 -10 -10 3.67466 1.98062  16
  -3 -10 -10 2.29988 1.69007  15
   1 -11 -10 64.7706 3.19441  19
   1 -11 -10 71.9128 3.78980  14
   0 -11 -10 84.6549 4.21027  14
   0 -11 -10 76.5844 3.43756  19
   0 -11 -10 79.5539 4.08666  15
  -1 -11 -10 259.131 6.24577  19
  -1 -11 -10 260.180 7.17340  15
  -1 -11 -10 263.929 6.92017  16
  -2 -11 -10 116.076 3.26549  19
   0   6 -11 35.9857 2.62057  13
  -1   6 -11 1.70795 1.30838  17
  -1   6 -11 2.96913 1.54714  13
   2   5 -11 49.1547 2.40809  19
   2   5 -11 53.3413 3.28362  14
  -2  -5  11 48.2666 2.93456  17
   1   5 -11 195.468 5.80691  14
   1   5 -11 194.966 5.80905  17
   1   5 -11 185.574 4.86125  19
   1   5 -11 183.082 5.91843  13
   0   5 -11 179.671 4.31590  19
   0   5 -11 176.745 6.08859  13
   0   5 -11 175.235 5.76427  17
  -1   5 -11 77.4930 4.03504  17
  -1   5 -11 77.3076 4.17794  13
  -2   5 -11 186.870 5.62689  13
  -2   5 -11 172.237 5.34233  17
   3   4 -11 13.7745 1.73880  19
   3   4 -11 13.0494 2.15098  14
   2   4 -11 39.2063 3.19381  13
   2   4 -11 38.6723 3.45130  14
   2   4 -11 41.3353 2.86611  19
  -2  -4  11 44.5606 3.18471  17
  -2  -4  11 41.4139 3.47649  12
   1   4 -11 6.41638 2.45136  13
   1   4 -11 8.45628 1.80853  19
   1   4 -11 10.8526 2.69830  14
   1   4 -11 3.45834 2.21722  17
  -1  -4  11 8.70866 2.69640  12
   0   4 -11 64.2736 4.53706  12
   0   4 -11 70.2225 3.06931  19
   0   4 -11 69.6976 4.47769  17
   0   4 -11 65.4578 4.69660  13
  -1   4 -11 99.6877 5.06777  17
  -1   4 -11 109.033 5.46372  12
  -1   4 -11 105.294 5.30723  13
  -2   4 -11 28.3120 3.09812  17
  -2   4 -11 27.7971 3.13431  13
  -2   4 -11 23.2914 3.12990  12
  -3   4 -11 171.823 5.33418  13
  -3   4 -11 168.488 5.47359  17
   3   3 -11 59.6036 3.32986  19
   3   3 -11 50.4630 3.75017  14
   3   3 -11 56.8839 3.69696  13
   2   3 -11 87.1934 5.20926  14
   2   3 -11 85.5956 4.14585  19
   2   3 -11 89.2776 5.15161  13
  -2  -3  11 80.2544 4.69398  17
  -2  -3  11 81.4449 5.03761  12
   1   3 -11 0.07140 2.34802  17
   1   3 -11 1.95452 1.67293  19
   1   3 -11 0.28006 2.49689  13
   1   3 -11 -1.8308 2.40528  12
   1   3 -11 -4.1993 2.51067  14
   0   3 -11 35.7979 3.92930  12
   0   3 -11 41.9284 4.23539  13
   0   3 -11 33.5425 2.44809  19
   0   3 -11 35.4607 3.83137  17
  -1   3 -11 5.46869 2.73803  17
  -1   3 -11 3.63926 2.77434  12
  -1   3 -11 3.25777 2.63295  13
  -2   3 -11 81.3744 5.08823  12
  -2   3 -11 97.6761 5.34534  13
  -2   3 -11 93.2684 5.22912  17
  -3   3 -11 31.9269 3.29193  17
  -3   3 -11 36.0612 3.16779  13
  -3   3 -11 36.3773 3.57260  12
  -4   3 -11 1.56340 1.57982  17
   4   2 -11 228.067 6.09502  19
   4   2 -11 232.349 6.49288  14
   3   2 -11 191.389 7.01300  13
   3   2 -11 195.634 6.18280  19
   3   2 -11 192.883 7.12774  14
  -3  -2  11 185.764 7.06196  12
   2   2 -11 431.304 11.6463  14
   2   2 -11 435.047 10.2500  19
   2   2 -11 423.321 11.8699  13
  -2  -2  11 417.150 11.6864  12
   1   2 -11 293.225 9.97633  13
   1   2 -11 305.137 9.67113  14
   1   2 -11 318.795 7.93149  19
   1   2 -11 315.224 10.2284  12
   0   2 -11 105.973 6.26553  12
   0   2 -11 116.424 6.49191  13
   0   2 -11 107.696 6.04303  17
   0   2 -11 102.304 3.75650  19
  -1   2 -11 282.130 9.45988  12
  -1   2 -11 295.001 9.28099  17
  -1   2 -11 287.136 9.66128  13
  -2   2 -11 85.3613 5.59290  13
  -2   2 -11 93.4080 5.69843  17
  -2   2 -11 82.9754 5.77386  12
  -3   2 -11 32.7276 3.83696  12
  -3   2 -11 42.6450 3.96986  17
  -4   2 -11 45.1755 3.37210  17
   4   1 -11 17.9779 2.71733  13
   4   1 -11 17.7271 2.32780  19
   4   1 -11 22.9485 2.80706  14
   3   1 -11 30.2384 2.99051  19
   3   1 -11 39.3724 3.98227  13
   3   1 -11 29.9297 3.58248  14
   2   1 -11 152.789 6.97399  13
   2   1 -11 145.109 5.41437  19
   2   1 -11 140.040 6.73248  14
   1   1 -11 37.8349 4.03131  14
   1   1 -11 34.6267 2.70872  19
   1   1 -11 35.7148 4.52005  12
   1   1 -11 34.6250 4.19103  13
   0   1 -11 61.1392 4.88136  13
   0   1 -11 63.5554 4.73450  14
   0   1 -11 66.7356 5.40508  12
   0   1 -11 62.0670 2.85847  19
  -1   1 -11 20.1124 3.60744  12
  -1   1 -11 24.8521 4.03246  17
  -1   1 -11 19.6941 3.44044  13
  -2   1 -11 40.7009 4.16910  13
  -2   1 -11 46.0329 4.66714  17
  -2   1 -11 35.6631 4.56373  12
  -3   1 -11 240.129 8.53669  17
  -3   1 -11 234.583 8.63465  12
  -4   1 -11 61.8848 4.39512  12
  -4   1 -11 58.7061 4.17401  17
   4   0 -11 119.989 5.66930  13
   4   0 -11 122.572 5.17748  14
   4   0 -11 118.075 4.76946  19
   3   0 -11 160.668 6.90843  13
   3   0 -11 154.780 5.62444  19
   3   0 -11 158.258 6.52506  14
   2   0 -11 89.1404 4.27779  19
   2   0 -11 98.8620 5.80277  14
   2   0 -11 79.5953 5.26324  13
   1   0 -11 126.998 6.58100  13
   1   0 -11 131.588 4.55225  19
   1   0 -11 127.560 6.39722  14
   0   0 -11 4.27720 2.59949  14
   0   0 -11 4.86077 2.72500  13
  -1   0 -11 5.22305 2.72788  13
  -2   0 -11 25.2890 4.33460  12
  -2   0 -11 29.8609 4.33757  17
  -3   0 -11 -0.3378 3.10034  12
  -3   0 -11 -1.9135 2.92971  17
  -4   0 -11 66.9432 4.69633  16
  -4   0 -11 56.8344 4.45167  17
  -4   0 -11 63.8148 4.71136  12
  -5   0 -11 6.51414 2.03331  17
   4  -1 -11 115.803 5.62589  13
   4  -1 -11 109.967 4.69803  19
   4  -1 -11 116.160 5.10259  14
   3  -1 -11 57.6405 4.49950  13
   3  -1 -11 50.6171 4.13063  14
   3  -1 -11 56.2490 3.62966  19
   2  -1 -11 414.506 9.62216  19
   2  -1 -11 392.430 11.0599  14
   2  -1 -11 403.700 11.4699  13
  -2   1  11 390.724 15.2634   9
   1  -1 -11 249.069 8.46971  14
   1  -1 -11 255.759 6.39739  19
   1  -1 -11 246.076 8.68329  13
   0  -1 -11 78.1109 5.57318  13
   0  -1 -11 81.8143 5.34162  14
   0   1  11 79.7309 8.03677   1
  -4  -1 -11 78.1170 5.50496  17
  -4  -1 -11 83.1997 5.00739  16
  -5  -1 -11 33.6942 2.98049  17
  -5  -1 -11 35.6674 3.04328  16
   4  -2 -11 47.5068 3.89490  13
   4  -2 -11 54.7168 3.62921  19
   4  -2 -11 59.1986 4.04349  14
   3  -2 -11 227.685 8.05255  13
   3  -2 -11 227.006 7.84913  14
   3  -2 -11 222.680 6.99741  19
  -3   2  11 216.582 9.63443   8
   2  -2 -11 132.752 4.99379  19
   2  -2 -11 128.155 6.27532  14
   2  -2 -11 135.409 6.41728  13
  -2   2  11 140.390 9.27050   9
   1  -2 -11 432.631 11.6595  14
   1  -2 -11 407.888 15.7131   1
   1  -2 -11 437.199 9.33763  19
   1  -2 -11 431.832 11.7359  13
  -1   2  11 444.225 15.7545   9
   0  -2 -11 43.7906 4.06960  14
   0  -2 -11 53.2233 4.33099  13
   0  -2 -11 52.9510 6.69463   1
  -4  -2 -11 193.578 6.96329  16
  -4  -2 -11 173.729 6.65040  11
  -5  -2 -11 121.996 4.86660  16
  -5   3  11 8.18850 2.16239  13
   4  -3 -11 19.1541 2.91999  13
   4  -3 -11 22.7244 2.83973  14
   4  -3 -11 17.6002 2.65796  19
   4  -3 -11 19.5634 3.67711  15
   3  -3 -11 27.8047 3.42571  13
   3  -3 -11 39.4971 4.92397  15
   3  -3 -11 42.4263 3.51721  19
   3  -3 -11 31.6804 3.54749  14
  -3   3  11 39.0813 5.29651   8
   2  -3 -11 12.5941 3.83864  15
   2  -3 -11 15.4885 3.03073  14
   2  -3 -11 9.51071 2.69423  13
   2  -3 -11 15.9983 2.38350  19
  -2   3  11 9.78589 4.48222   9
   1  -3 -11 0.28743 1.37065  19
   1  -3 -11 1.72814 3.59834   1
   1  -3 -11 2.09132 2.18581  14
   1  -3 -11 4.31934 2.35486  13
  -1   3  11 4.55276 3.70217   9
   0  -3 -11 241.591 8.32043  14
   0  -3 -11 235.399 11.3688   1
   0   3  11 226.418 11.3752   9
  -4  -3 -11 276.658 8.35411  11
  -4  -3 -11 277.741 8.63348  16
  -5  -3 -11 0.08976 2.05458  16
   4  -4 -11 245.229 7.71690  13
   4  -4 -11 260.346 9.01599  15
   4  -4 -11 238.523 7.22167  19
   3  -4 -11 538.217 15.3239  15
   3  -4 -11 553.639 13.7322  13
   3  -4 -11 575.178 12.8885  19
   3  -4 -11 552.322 13.3967  14
   2  -4 -11 221.250 9.38949  15
   2  -4 -11 229.153 8.16890  14
   2  -4 -11 231.184 6.95341  19
   2  -4 -11 219.155 8.02408  13
   1  -4 -11 28.9805 3.66010  14
   1  -4 -11 41.3469 3.85352  13
   1  -4 -11 36.7583 2.73667  19
   1  -4 -11 33.2665 4.53951  15
  -1   4  11 35.4154 5.78969   9
   0  -4 -11 225.450 11.7221   9
   0  -4 -11 231.537 8.21394  14
   0  -4 -11 216.965 11.0366   1
   0  -4 -11 231.268 5.56693  19
   0  -4 -11 229.586 9.35430  15
  -1  -4 -11 86.8752 8.52472   9
  -3  -4 -11 363.336 10.4898  16
  -3  -4 -11 368.410 11.7745  10
  -4  -4 -11 103.763 5.36598  16
  -5  -4 -11 89.3019 4.31189  16
   4  -5 -11 16.2207 2.46107  19
   4  -5 -11 19.2864 3.32580  15
  -4   5  11 15.4859 2.83259  13
   3  -5 -11 40.7361 3.78456  13
   3  -5 -11 50.3448 3.94331  14
   3  -5 -11 50.7255 4.96492  15
   3  -5 -11 41.9319 3.54037  19
   2  -5 -11 21.3654 3.24118  14
   2  -5 -11 15.1615 3.67716  15
   2  -5 -11 19.1308 3.20341  13
   2  -5 -11 22.2376 2.81457  19
   1  -5 -11 10.9307 2.91175  14
   1  -5 -11 7.56044 3.21604  15
   1  -5 -11 14.3692 2.26882  19
  -1   5  11 11.1552 4.57345   9
   0  -5 -11 3.48069 2.51171  14
   0  -5 -11 4.18676 1.70632  19
   0  -5 -11 4.77389 3.01408  15
   0  -5 -11 -0.6906 3.82892   9
  -1  -5 -11 94.1289 9.05289   9
  -1  -5 -11 88.9694 6.15446  15
  -1  -5 -11 93.7070 5.86146  14
  -2  -5 -11 397.852 12.4129  10
  -2  -5 -11 381.155 12.4170  15
  -3  -5 -11 25.8098 4.00848  10
  -3  -5 -11 33.4857 3.90109  16
  -3  -5 -11 29.7990 4.18789  15
  -4  -5 -11 129.513 5.80541  16
  -4  -5 -11 118.826 5.86308  15
  -5  -5 -11 142.282 5.18863  16
   4  -6 -11 119.796 5.55090  15
   4  -6 -11 107.985 4.60813  19
  -4   6  11 119.931 5.22497  13
   3  -6 -11 78.9224 4.41546  19
   3  -6 -11 72.7082 5.49167  15
   3  -6 -11 81.1389 4.89351  14
  -3   6  11 74.7373 5.06671  13
   2  -6 -11 138.825 6.48293  14
   2  -6 -11 139.671 7.40875  15
   2  -6 -11 149.744 5.76320  19
   1  -6 -11 14.9012 3.09741  14
   1  -6 -11 13.3692 3.33084  15
   1  -6 -11 11.0562 2.31937  19
  -1   6  11 10.0492 4.61064   9
   0  -6 -11 28.4591 4.13221  15
   0  -6 -11 25.0108 2.46794  19
   0  -6 -11 27.1830 4.01565  10
   0  -6 -11 15.4444 5.18370   9
   0  -6 -11 18.4448 3.26790  14
  -1  -6 -11 43.4379 4.65285  15
  -1  -6 -11 54.9690 5.31255  10
  -1  -6 -11 39.6234 6.69686   9
  -1  -6 -11 45.9438 4.36998  14
  -2  -6 -11 40.6660 4.58613  10
  -2  -6 -11 31.2610 4.40154  15
  -3  -6 -11 107.639 6.56764  15
  -3  -6 -11 117.818 5.82339  16
  -4  -6 -11 36.4766 3.60211  16
  -4  -6 -11 24.9267 3.32860  15
  -5  -6 -11 58.8224 3.51133  16
   4  -7 -11 19.7111 2.34354  19
   4  -7 -11 19.6840 2.60459  15
  -4   7  11 19.8425 2.56469  13
   3  -7 -11 117.085 5.34251  14
   3  -7 -11 114.651 5.03894  19
   3  -7 -11 114.826 5.95896  15
  -3   7  11 111.931 5.60761  13
   2  -7 -11 27.8311 3.43548  14
   2  -7 -11 26.0986 3.90850  15
   2  -7 -11 28.1629 3.21719  19
   1  -7 -11 205.575 6.67209  19
   1  -7 -11 194.264 7.76057  14
   1  -7 -11 200.600 8.43415  15
   0  -7 -11 139.319 6.75096  14
   0  -7 -11 138.342 4.98155  19
   0  -7 -11 131.357 7.29272  10
   0  -7 -11 127.685 10.6911   9
   0  -7 -11 122.869 6.94745  15
  -1  -7 -11 22.9162 2.12623  19
  -1  -7 -11 17.3458 3.49024  15
  -1  -7 -11 19.1192 3.88502  10
  -1  -7 -11 26.8151 3.78961  14
  -2  -7 -11 108.124 6.74797  10
  -2  -7 -11 103.249 6.26614  15
  -2  -7 -11 105.170 5.81881  16
  -3  -7 -11 5.97715 2.66152  15
  -3  -7 -11 -0.3995 2.35115  16
  -4  -7 -11 12.0928 2.63769  15
  -4  -7 -11 16.6613 2.80611  16
   3  -8 -11 61.3646 3.61782  19
   3  -8 -11 57.5266 4.26356  15
   2  -8 -11 355.482 10.0003  14
   2  -8 -11 349.609 9.12591  19
   2  -8 -11 339.698 10.3546  15
   1  -8 -11 361.069 10.9754  15
   1  -8 -11 352.204 9.06664  19
   1  -8 -11 351.581 10.4037  14
   0  -8 -11 512.295 11.1074  19
   0  -8 -11 510.932 13.4662  14
   0  -8 -11 500.003 13.7499  15
  -1  -8 -11 268.587 9.41669  15
  -1  -8 -11 270.710 6.68367  19
  -1  -8 -11 246.871 10.0104  10
  -1  -8 -11 281.313 9.26319  14
  -2  -8 -11 144.345 6.22195  16
  -2  -8 -11 144.283 6.66368  15
  -3  -8 -11 229.294 7.78387  15
  -3  -8 -11 227.347 7.34562  16
  -4  -8 -11 253.961 7.18074  15
  -4  -8 -11 252.168 6.99829  16
   3  -9 -11 7.53152 1.96508  15
   3  -9 -11 3.70067 1.51456  19
   2  -9 -11 36.4450 3.27610  14
   2  -9 -11 34.9232 2.87564  19
   2  -9 -11 37.1631 3.45458  15
   1  -9 -11 2.57917 1.72933  19
   1  -9 -11 1.89546 2.30401  15
   1  -9 -11 2.97832 2.31718  14
   0  -9 -11 67.3704 3.51935  19
   0  -9 -11 72.1631 4.98121  15
   0  -9 -11 72.1910 5.00501  14
  -1  -9 -11 7.23187 2.55276  15
  -1  -9 -11 3.37968 1.52291  19
  -1  -9 -11 6.22236 2.54153  14
  -2  -9 -11 2.57335 2.40816  16
  -2  -9 -11 7.35322 2.39315  15
  -3  -9 -11 43.7373 3.29417  15
  -3  -9 -11 50.4803 3.54460  16
   2 -10 -11 243.700 6.42944  14
   2 -10 -11 240.921 6.63000  15
   2 -10 -11 223.380 5.84906  19
   1 -10 -11 194.426 5.51566  19
   1 -10 -11 194.209 6.45043  14
   1 -10 -11 205.475 6.70390  15
   0 -10 -11 4.34905 2.21508  15
   0 -10 -11 4.64388 2.10543  14
   0 -10 -11 7.27856 1.67561  19
  -1 -10 -11 186.572 4.77256  19
  -1 -10 -11 183.404 6.52994  15
  -1 -10 -11 172.854 6.17483  14
  -2 -10 -11 114.417 4.84178  15
  -2 -10 -11 114.242 4.58410  16
   1 -11 -11 2.86064 1.49041  14
   1 -11 -11 3.24206 1.22455  19
   0 -11 -11 18.3762 1.59510  19
   0 -11 -11 19.4662 2.18850  15
   0 -11 -11 15.7345 2.03437  14
  -1 -11 -11 113.209 4.18703  15
   2   4 -12 55.0900 3.11089  14
   1   4 -12 33.7702 2.83101  13
   0   4 -12 109.708 4.82470  13
   0   4 -12 99.5605 4.26433  17
  -1   4 -12 -0.0476 1.89722  13
  -1   4 -12 1.84686 1.81904  17
  -2   4 -12 16.2622 2.13698  13
  -2   4 -12 16.0043 2.05673  17
   3   3 -12 99.5193 2.83235  19
   3   3 -12 110.213 4.12340  14
   2   3 -12 39.9790 3.16545  13
   2   3 -12 43.1849 2.25790  19
   2   3 -12 41.9402 3.27134  14
   1   3 -12 107.746 5.18335  13
   1   3 -12 106.486 4.98126  14
   1   3 -12 101.864 3.12314  19
  -1  -3  12 98.5960 5.02151  12
   0   3 -12 19.1314 2.83003  17
   0   3 -12 15.4904 2.85469  13
   0   3 -12 19.9034 3.11384  12
  -1   3 -12 29.0974 3.42208  12
  -1   3 -12 28.2831 3.07706  17
  -1   3 -12 31.0427 3.45119  13
  -2   3 -12 64.3880 3.95165  17
  -2   3 -12 61.8309 3.99766  13
   3   2 -12 144.912 5.40315  14
   3   2 -12 140.952 4.19427  19
   3   2 -12 146.332 5.24038  13
   2   2 -12 246.270 6.24669  19
   2   2 -12 264.303 8.21569  13
   2   2 -12 258.687 7.96252  14
   1   2 -12 62.2969 4.33822  14
   1   2 -12 68.5549 4.84011  13
   1   2 -12 59.4433 2.78387  19
  -1  -2  12 64.2424 4.64201  12
   0   2 -12 201.628 7.73390  13
   0   2 -12 207.466 7.63954  12
  -1   2 -12 295.995 9.20664  12
  -1   2 -12 299.315 8.82907  17
  -1   2 -12 295.738 9.28519  13
  -2   2 -12 65.2943 4.36577  17
  -2   2 -12 58.7904 4.31575  12
  -2   2 -12 61.4991 4.42770  13
  -3   2 -12 184.331 5.95461  17
   4   1 -12 28.3650 1.88495  19
   3   1 -12 103.416 5.13651  13
   3   1 -12 103.643 5.10317  14
   3   1 -12 111.555 4.01651  19
   2   1 -12 -4.3263 2.08347  14
   2   1 -12 1.73480 1.40332  19
   2   1 -12 5.72022 2.50254  13
   1   1 -12 5.21076 1.42328  19
   1   1 -12 4.98964 2.79042  14
   1   1 -12 0.94516 2.43911  13
   0   1 -12 5.32824 2.83606  13
  -1   1 -12 7.93775 3.18688  12
  -1   1 -12 9.58885 3.02278  13
  -2   1 -12 76.7185 5.20310  12
  -2   1 -12 81.0072 5.07584  17
  -3   1 -12 4.82824 2.63506  12
  -3   1 -12 8.22572 2.67759  17
  -4   1 -12 27.8108 2.50345  17
   4   0 -12 82.3517 3.31328  19
   4   0 -12 101.014 4.28448  13
   4   0 -12 88.9814 3.90440  14
   3   0 -12 61.0684 4.47731  13
   3   0 -12 60.0493 4.08679  14
   3   0 -12 60.8072 3.34266  19
   2   0 -12 92.7812 5.49041  14
   2   0 -12 90.2030 5.38129  13
   2   0 -12 98.5137 3.90021  19
   1   0 -12 177.955 7.33823  13
   1   0 -12 184.793 7.22543  14
   1   0 -12 175.362 4.68892  19
   0   0 -12 31.7993 3.97108  14
   0   0 -12 24.3715 3.62951  13
  -1   0 -12 335.140 10.1160  13
  -3   0 -12 102.719 5.47552  17
  -4   0 -12 101.196 4.50278  17
   4  -1 -12 54.4761 3.45141  14
   4  -1 -12 53.0392 2.92292  19
   4  -1 -12 56.3611 3.81105  13
   3  -1 -12 172.737 6.70046  13
   3  -1 -12 163.169 6.38822  14
   3  -1 -12 169.180 5.39558  19
   2  -1 -12 73.6693 3.57124  19
   2  -1 -12 69.3135 4.87351  13
   2  -1 -12 77.8073 5.24194  14
   1  -1 -12 219.081 8.02611  14
   1  -1 -12 210.173 7.86325  13
   1  -1 -12 223.144 5.36853  19
   0  -1 -12 330.226 10.0044  14
   0  -1 -12 332.832 10.0292  13
   4  -2 -12 9.34940 2.28933  13
   4  -2 -12 11.0921 2.12571  14
   4  -2 -12 5.41042 1.63772  19
   3  -2 -12 -0.2998 2.10059  14
   3  -2 -12 -1.3771 1.50135  19
   3  -2 -12 2.77455 2.13389  13
   2  -2 -12 25.0739 2.45816  19
   2  -2 -12 25.7720 3.51565  14
   2  -2 -12 32.2754 3.49254  13
   1  -2 -12 293.093 9.27813  14
   1  -2 -12 279.972 9.16978  13
   1  -2 -12 291.437 6.50510  19
   0  -2 -12 110.935 5.83169  14
   0  -2 -12 104.032 5.68064  13
   4  -3 -12 166.261 5.30574  14
   4  -3 -12 163.847 5.75292  13
   4  -3 -12 158.610 5.00687  19
   3  -3 -12 171.931 5.62508  19
   3  -3 -12 167.089 6.48563  14
   3  -3 -12 165.369 6.43424  13
   2  -3 -12 385.397 10.8043  14
   2  -3 -12 397.807 10.9845  13
   2  -3 -12 399.991 9.19029  19
   1  -3 -12 152.476 4.42590  19
   1  -3 -12 135.116 6.28943  13
   1  -3 -12 150.657 6.61343  14
   0  -3 -12 192.338 7.51424  14
  -4  -3 -12 17.6884 2.75534  16
   4  -4 -12 10.9643 2.48561  15
   4  -4 -12 4.24336 1.55473  19
   3  -4 -12 110.539 6.12546  15
   3  -4 -12 107.399 5.32090  14
   3  -4 -12 104.697 5.19774  13
   3  -4 -12 110.116 4.52212  19
   2  -4 -12 43.2212 4.54545  15
   2  -4 -12 44.3691 3.12808  19
   2  -4 -12 48.6118 3.95443  13
   2  -4 -12 52.1920 4.17721  14
   1  -4 -12 331.943 11.0288  15
   1  -4 -12 339.257 7.72790  19
   1  -4 -12 326.071 9.94131  14
   0  -4 -12 282.867 9.10565  14
   0   4  12 260.681 12.4863   9
  -4  -4 -12 204.995 6.58223  16
   4  -5 -12 66.7393 4.05150  15
   4  -5 -12 60.4444 3.06860  19
  -4   5  12 53.8984 3.69685  13
   3  -5 -12 50.9536 4.40638  15
   3  -5 -12 47.5408 3.60876  13
   3  -5 -12 47.1138 3.26793  19
   3  -5 -12 52.5514 3.80641  14
   2  -5 -12 234.093 7.80054  13
   2  -5 -12 228.245 7.89072  14
   2  -5 -12 223.883 6.63565  19
   2  -5 -12 220.848 8.83182  15
   1  -5 -12 71.2609 5.41402  15
   1  -5 -12 71.4653 3.59143  19
   1  -5 -12 59.7158 4.45211  14
   0  -5 -12 133.512 7.24900  15
   0  -5 -12 129.942 6.40411  14
  -1  -5 -12 19.1729 3.78451  15
  -1  -5 -12 15.6563 3.28425  14
  -2  -5 -12 1.76716 2.81907  15
  -4  -5 -12 26.5397 2.96681  16
   4  -6 -12 28.7277 2.68710  15
   4  -6 -12 26.9226 2.17653  19
  -4   6  12 26.0808 2.51780  13
   3  -6 -12 59.3257 4.12737  14
   3  -6 -12 61.8942 4.64635  15
   3  -6 -12 58.1501 3.43101  19
  -3   6  12 57.2252 3.92125  13
   2  -6 -12 56.2024 4.82811  15
   2  -6 -12 58.5279 3.62959  19
   2  -6 -12 54.5952 4.11967  14
   1  -6 -12 5.37912 2.89481  15
   1  -6 -12 10.5396 2.87770  14
   1  -6 -12 5.61142 1.96732  19
   0  -6 -12 137.667 6.68246  14
   0  -6 -12 142.964 7.31767  15
  -1  -6 -12 7.18035 3.03992  15
  -1  -6 -12 -0.8828 2.56310  14
  -2  -6 -12 22.6158 3.80559  15
  -3  -6 -12 106.055 5.09494  16
  -3  -6 -12 99.7418 5.66086  15
  -4  -6 -12 56.0764 3.64856  16
  -4  -6 -12 48.4792 3.52225  15
   3  -7 -12 168.434 6.34518  15
   3  -7 -12 166.866 5.27264  19
   3  -7 -12 178.546 5.91404  14
   2  -7 -12 307.759 9.58845  15
   2  -7 -12 299.248 8.95730  14
   2  -7 -12 301.082 7.84382  19
   1  -7 -12 246.321 9.00221  15
   1  -7 -12 269.652 8.76382  14
   1  -7 -12 258.537 6.81844  19
   0  -7 -12 21.5279 1.93368  19
   0  -7 -12 23.7354 3.72883  15
   0  -7 -12 21.3715 3.39186  14
  -1  -7 -12 160.408 7.16986  14
  -1  -7 -12 160.996 7.35179  15
  -2  -7 -12 31.2712 3.86576  15
  -3  -7 -12 220.928 7.58325  15
  -3  -7 -12 207.673 6.71771  16
  -4  -7 -12 222.551 6.37752  15
  -4  -7 -12 225.515 6.21518  16
   3  -8 -12 0.49640 1.24410  19
   3  -8 -12 0.48924 1.79990  15
   2  -8 -12 18.0333 2.94409  15
   2  -8 -12 15.7648 2.08758  19
   2  -8 -12 17.3814 2.81606  14
   1  -8 -12 2.01925 1.55318  19
   1  -8 -12 4.60163 2.42882  15
   1  -8 -12 0.08798 2.13210  14
   0  -8 -12 2.89614 2.46392  14
   0  -8 -12 3.22605 2.42291  15
   0  -8 -12 4.07114 1.39220  19
  -1  -8 -12 -1.3770 2.08255  15
  -1  -8 -12 4.43724 2.45283  14
  -2  -8 -12 1.76933 2.14642  15
  -3  -8 -12 116.166 5.10651  15
  -3  -8 -12 114.032 4.67004  16
   2  -9 -12 128.199 5.09837  15
   2  -9 -12 130.244 4.92208  14
   2  -9 -12 120.287 3.83338  19
   1  -9 -12 359.116 7.82313  19
   1  -9 -12 363.373 9.63386  14
   1  -9 -12 375.284 9.89217  15
   0  -9 -12 106.962 5.41066  15
   0  -9 -12 112.353 5.39471  14
   0  -9 -12 116.720 3.46534  19
  -1  -9 -12 13.2013 2.45007  14
  -1  -9 -12 9.66286 2.37499  15
  -2  -9 -12 24.3115 2.75833  15
  -3  -9 -12 20.5842 2.19880  15
   1 -10 -12 34.4845 2.65021  14
   1 -10 -12 38.6237 1.94183  19
   1 -10 -12 33.7209 2.77430  15
   0 -10 -12 33.4105 2.77465  14
   0 -10 -12 37.8140 2.98878  15
  -1 -10 -12 83.3619 4.14615  15
  -1 -10 -12 83.2676 3.89285  14
  -2 -10 -12 3.69433 1.59267  15
   0   3 -13 102.127 4.46509  13
  -1   3 -13 244.246 6.74368  13
   2   2 -13 10.1452 2.09908  14
   2   2 -13 14.9050 2.26456  13
   1   2 -13 12.5619 2.38050  14
   1   2 -13 13.9619 2.51112  13
   0   2 -13 37.6470 3.41579  13
  -1   2 -13 5.67872 2.21677  13
  -2   2 -13 8.01614 1.90923  17
   3   1 -13 105.800 4.12619  13
   2   1 -13 74.8432 4.33381  13
   2   1 -13 76.8130 4.45261  14
   1   1 -13 197.034 7.03899  13
   1   1 -13 195.700 6.82611  14
   0   1 -13 119.016 5.61924  13
  -1   1 -13 205.202 7.10176  13
   3   0 -13 77.2607 4.00976  14
   2   0 -13 127.395 5.59915  14
   2   0 -13 117.619 5.41665  13
   1   0 -13 11.9462 2.79424  13
   1   0 -13 15.4257 2.87782  14
   0   0 -13 107.027 5.47525  13
  -1   0 -13 93.0310 5.16365  13
   3  -1 -13 48.6696 2.46024  19
   3  -1 -13 56.2374 3.74002  14
   3  -1 -13 50.4741 3.67386  13
   2  -1 -13 44.1149 3.71808  14
   2  -1 -13 50.9783 3.80076  13
   1  -1 -13 120.969 5.88444  14
   1  -1 -13 132.285 5.95319  13
   0  -1 -13 60.2512 4.29256  14
   0  -1 -13 64.8242 4.74350  13
   3  -2 -13 10.7493 1.64378  19
   3  -2 -13 14.4633 2.46301  14
   3  -2 -13 12.8928 2.37591  13
   2  -2 -13 212.094 7.29817  13
   2  -2 -13 220.560 7.31333  14
   2  -2 -13 218.017 5.18234  19
   1  -2 -13 86.2713 5.10081  14
   1  -2 -13 91.2297 5.05608  13
   0  -2 -13 24.9570 3.31316  13
   0  -2 -13 26.3719 3.51699  14
   3  -3 -13 158.139 5.62570  14
   3  -3 -13 155.201 4.46993  19
   3  -3 -13 152.234 5.68243  13
   2  -3 -13 167.880 6.53170  14
   2  -3 -13 176.195 6.51621  13
   2  -3 -13 178.737 4.67302  19
   1  -3 -13 130.991 6.09766  14
   1  -3 -13 124.792 5.66427  13
   0  -3 -13 282.146 8.90746  14
   3  -4 -13 16.6021 2.44065  13
   3  -4 -13 15.2794 2.48690  14
   3  -4 -13 15.1618 1.83491  19
   2  -4 -13 26.7205 3.02950  13
   2  -4 -13 31.6637 2.29773  19
   2  -4 -13 26.2258 3.14861  14
   1  -4 -13 17.4730 2.97313  14
   0  -4 -13 12.0183 2.92376  14
   3  -5 -13 98.6661 4.85570  15
   3  -5 -13 104.464 3.61197  19
   3  -5 -13 109.275 4.65706  14
   2  -5 -13 74.8685 5.02565  15
   2  -5 -13 75.2482 4.34042  13
   2  -5 -13 75.5862 4.58713  14
   2  -5 -13 73.7775 3.24282  19
   1  -5 -13 52.9777 4.44166  15
   1  -5 -13 52.9468 4.07258  14
   0  -5 -13 213.057 7.86027  14
   0  -5 -13 225.034 8.30049  15
   3  -6 -13 176.103 4.57051  19
   3  -6 -13 183.305 5.66669  14
  -3   6  13 178.382 5.60170  13
   2  -6 -13 50.6648 4.08818  15
   2  -6 -13 58.3785 4.17456  14
   2  -6 -13 55.9073 2.80020  19
   1  -6 -13 281.196 8.76155  14
   1  -6 -13 302.043 9.52114  15
   0  -6 -13 257.422 8.51688  14
   0  -6 -13 259.628 8.88370  15
  -1  -6 -13 362.698 10.8779  15
  -1  -6 -13 374.744 10.2818  14
  -2  -6 -13 84.3389 5.11446  15
   3  -7 -13 2.33196 1.69027  15
   2  -7 -13 29.6583 2.99170  14
   2  -7 -13 24.8138 3.03147  15
   1  -7 -13 27.7875 3.46443  15
   1  -7 -13 26.1025 3.11826  14
   0  -7 -13 160.186 6.68003  15
   0  -7 -13 152.281 6.37343  14
  -1  -7 -13 186.329 7.27032  15
  -1  -7 -13 184.428 6.86371  14
  -2  -7 -13 9.32283 2.49377  15
  -3  -7 -13 120.024 4.79435  15
   2  -8 -13 31.1992 2.79933  14
   2  -8 -13 38.3404 3.05200  15
   1  -8 -13 138.942 5.76727  15
   1  -8 -13 140.842 5.70752  14
   0  -8 -13 94.1423 4.92498  14
   0  -8 -13 83.9178 4.85883  15
  -1  -8 -13 77.4922 4.55591  15
  -1  -8 -13 75.3072 4.37873  14
  -2  -8 -13 1.88421 1.82580  15
   1  -9 -13 246.494 7.03725  15
   0  -9 -13 51.0996 3.54636  14
   0  -9 -13 51.2314 3.57406  15
  -1  -9 -13 202.549 5.89986  14
   0   2 -14 9.27104 1.91916  13
   1   1 -14 86.1148 4.10393  13
   0   1 -14 105.180 4.62103  13
  -1   1 -14 147.613 4.98170  13
   2   0 -14 5.31698 1.84977  13
   2   0 -14 5.83923 1.90478  14
   1   0 -14 53.1837 3.61415  14
   1   0 -14 64.8769 3.94566  13
   0   0 -14 44.4721 3.40153  13
   2  -1 -14 4.69791 1.91603  13
   2  -1 -14 3.73822 1.87364  14
   1  -1 -14 18.6362 2.65860  14
   1  -1 -14 24.4461 2.83876  13
   0  -1 -14 43.1240 3.40823  13
   2  -2 -14 239.940 7.01821  13
   2  -2 -14 239.192 7.02311  14
   1  -2 -14 253.351 7.42575  13
   1  -2 -14 245.369 7.52620  14
   3  -3 -14 7.22931 1.79715  14
   3  -3 -14 2.47118 1.54078  13
   2  -3 -14 18.1617 2.39823  13
   2  -3 -14 15.4762 2.42487  14
   1  -3 -14 74.6561 4.13059  13
   1  -3 -14 68.8620 4.31030  14
   0  -3 -14 2.95244 2.17962  14
   2  -4 -14 116.966 4.64280  13
   2  -4 -14 119.244 4.95947  14
   1  -4 -14 75.8124 4.47689  14
   0  -4 -14 60.6319 4.36638  14
   2  -5 -14 26.8166 2.74193  14
   1  -5 -14 184.753 6.49389  14
   0  -5 -14 88.8376 4.83666  14
   2  -6 -14 107.381 4.57735  14
   2  -6 -14 110.023 4.65948  15
   1  -6 -14 119.374 5.26054  15
   1  -6 -14 121.274 5.20371  14
   0  -6 -14 116.487 5.30526  15
   0  -6 -14 121.535 5.32704  14
   2  -7 -14 2.41983 1.68240  14
   1  -7 -14 4.53443 1.97286  14
   1  -7 -14 2.07346 1.92502  15
   0  -7 -14 4.02919 2.11038  14
   0  -7 -14 4.63079 2.06968  15
  -1  -7 -14 2.23124 1.87133  15
   1  -8 -14 215.279 6.12733  14
   1  -8 -14 213.196 6.21677  15
   0  -8 -14 184.004 5.94349  15
   1  -2 -15 156.950 5.00492  14
   1  -3 -15 3.37377 1.77704  14
   1  -4 -15 1.81097 1.68899  14
   0  -5 -15 103.000 4.29681  14
   1  -6 -15 4.01570 1.68200  14
   0   0   0    0.00    0.00   0
;
_shelx_res_checksum              69610
_shelx_res_file
;
TITL Structure-E IN P-1
CELL 1.54178 5.98353 10.44003 12.69659 73.3334 88.1124 88.7915
ZERR 1 0.00048 0.00094 0.00196 0.0049 0.0068 0.0064
LATT 1

SFAC C H Cl N O Pd
UNIT 28 20 6 4 6 1

L.S. 12
PLAN  5
SIZE 0.153 0.054 0.046
TEMP -173.12
HTAB C14 O3
REM SOLUTION 1 R1 0.189, ALPHA = 0.1091 IN P-1
REM C15 N2 O5 PD0.5
REM FCF_FILTER (MSL, UW-MADISON) INSERTED 6 OMIT INSTRUCTIONS
REM FOR OUTLIER REFLECTIONS WITH THE CUTOFF VALUE OF 4.72129.
REM The weighting scheme has been updated.
REM ============ Updated instructions ============
BOND $H
NTOR
CONF
LIST 4
MORE -1
REM ================================================
fmap 2
acta 134
OMIT 1 3 2
OMIT -1 -2 1
OMIT 1 2 2
OMIT 0 2 4
OMIT 1 1 6
OMIT 2 2 0
REM <HKL>E:/XRAY/STRUCTURAL%20SOLUTIONS/STAHL/Structure-E/Structure-E.HKL</HKL>

WGHT    0.030600    0.472200
FVAR       0.46088
PD1   6    0.000000    0.000000    0.000000    10.50000    0.01124    0.01183 =
         0.00984   -0.00360    0.00019    0.00115
CL1   3   -0.034365   -0.473932    0.347913    11.00000    0.02540    0.03242 =
         0.04119   -0.02287    0.01019   -0.00558
CL2   3   -0.026194   -0.677635    0.234634    11.00000    0.02310    0.02139 =
         0.02603   -0.01000   -0.00406   -0.00103
CL3   3    0.389404   -0.589182    0.301058    11.00000    0.01774    0.02235 =
         0.03794   -0.00633   -0.00687    0.00195
O1    5    0.171679    0.111841   -0.524373    11.00000    0.02442    0.02908 =
         0.01440   -0.00751    0.00350   -0.00254
O2    5   -0.197920   -0.157356    0.007941    11.00000    0.01412    0.01530 =
         0.02097   -0.00671    0.00020   -0.00020
O3    5    0.082879   -0.307901    0.045341    11.00000    0.01957    0.01838 =
         0.02171   -0.00489   -0.00267    0.00281
N1    4    0.164817   -0.023330   -0.134392    11.00000    0.01269    0.01414 =
         0.01360   -0.00532    0.00116    0.00053
N2    4   -0.257748    0.151054   -0.211151    11.00000    0.01388    0.01568 =
         0.01971   -0.00772    0.00122   -0.00076
C1    1    0.358971   -0.094711   -0.120915    11.00000    0.01613    0.01597 =
         0.01868   -0.00486   -0.00086    0.00029
AFIX  43
H1    2    0.411742   -0.131712   -0.048597    11.00000   -1.20000
AFIX   0
C2    1    0.483202   -0.115748   -0.208398    11.00000    0.01351    0.01624 =
         0.02255   -0.00836    0.00064    0.00066
AFIX  43
H2    2    0.616491   -0.168269   -0.195149    11.00000   -1.20000
AFIX   0
C3    1    0.414221   -0.060535   -0.315504    11.00000    0.01570    0.01565 =
         0.02110   -0.00929    0.00550   -0.00355
AFIX  43
H3    2    0.497372   -0.073806   -0.376635    11.00000   -1.20000
AFIX   0
C4    1    0.219118    0.014514   -0.328841    11.00000    0.01630    0.01476 =
         0.01559   -0.00661    0.00207   -0.00337
C5    1    0.105947    0.094739   -0.430249    11.00000    0.01688    0.01778 =
         0.01673   -0.00673    0.00122   -0.00490
C6    1   -0.098042    0.153412   -0.389994    11.00000    0.01683    0.01638 =
         0.01611   -0.00699    0.00085   -0.00260
C7    1   -0.268466    0.233990   -0.445669    11.00000    0.02146    0.01772 =
         0.01630   -0.00445   -0.00330   -0.00262
AFIX  43
H7    2   -0.273040    0.260687   -0.523677    11.00000   -1.20000
AFIX   0
C8    1   -0.432343    0.273600   -0.381100    11.00000    0.01741    0.01719 =
         0.02309   -0.00564   -0.00435    0.00026
AFIX  43
H8    2   -0.552223    0.329963   -0.414890    11.00000   -1.20000
AFIX   0
C9    1   -0.421259    0.230895   -0.267049    11.00000    0.01491    0.01633 =
         0.02459   -0.00906   -0.00033    0.00019
AFIX  43
H9    2   -0.536517    0.259821   -0.225582    11.00000   -1.20000
AFIX   0
C10   1   -0.102197    0.115990   -0.275131    11.00000    0.01612    0.01289 =
         0.01432   -0.00503   -0.00050   -0.00271
C11   1    0.098625    0.030223   -0.236950    11.00000    0.01294    0.01252 =
         0.01493   -0.00522    0.00117   -0.00244
C12   1   -0.114921   -0.277717    0.029519    11.00000    0.02018    0.01646 =
         0.01093   -0.00417    0.00032    0.00084
C13   1   -0.287877   -0.383846    0.034392    11.00000    0.02405    0.01676 =
         0.02842   -0.00634   -0.00102   -0.00111
AFIX 137
H13A  2   -0.345532   -0.419226    0.110152    11.00000   -1.50000
H13B  2   -0.218455   -0.456588    0.009840    11.00000   -1.50000
H13C  2   -0.411229   -0.344196   -0.013672    11.00000   -1.50000
AFIX   0

C14   1    0.117279   -0.540789    0.253693    11.00000    0.01830    0.01791 =
         0.02008   -0.00564   -0.00044    0.00037
AFIX  13
H14   2    0.129896   -0.470171    0.181477    11.00000   -1.20000
AFIX   0
HKLF 4

REM  Structure-E IN P-1
REM R1 =  0.0226 for    2686 Fo > 4sig(Fo)  and  0.0245 for all    2820 data
REM    206 parameters refined using      0 restraints

END

WGHT      0.0306      0.4722

REM Highest difference peak  0.497,  deepest hole -0.316,  1-sigma level  0.069
Q1    1   0.0378 -0.5192  0.4026  11.00000  0.05    0.50
Q2    1   0.1318 -0.0376  0.0190  11.00000  0.05    0.46
Q3    1   0.0433 -0.0169  0.0768  11.00000  0.05    0.45
Q4    1   0.0023  0.0793 -0.2436  11.00000  0.05    0.37
Q5    1   0.1647  0.0243 -0.2789  11.00000  0.05    0.35
;
_shelx_space_group_comment
;
The symmetry employed for this shelxl refinement is uniquely defined
by the following loop, which should always be used as a source of
symmetry information in preference to the above space-group names.
They are only intended as comments.
;
_shelxl_version_number           2012-4
loop_
_space_group_symop_operation_xyz
'x, y, z'
'-x, -y, -z'
loop_
_atom_site_label
_atom_site_type_symbol
_atom_site_fract_x
_atom_site_fract_y
_atom_site_fract_z
_atom_site_U_iso_or_equiv
_atom_site_adp_type
_atom_site_occupancy
_atom_site_site_symmetry_order
_atom_site_calc_flag
_atom_site_refinement_flags
Pd1 Pd 0.0000 0.0000 0.0000 0.01089(7) Uani 1 2 d SD
Cl1 Cl -0.03436(10) -0.47393(6) 0.34791(6) 0.03061(15) Uani 1 1 d D
Cl2 Cl -0.02619(9) -0.67764(5) 0.23463(5) 0.02275(13) Uani 1 1 d D
Cl3 Cl 0.38940(9) -0.58918(5) 0.30106(5) 0.02638(14) Uani 1 1 d D
O1 O 0.1717(3) 0.11184(16) -0.52437(13) 0.0224(3) Uani 1 1 d D
O2 O -0.1979(2) -0.15736(14) 0.00794(13) 0.0165(3) Uani 1 1 d D
O3 O 0.0829(3) -0.30790(15) 0.04534(13) 0.0201(3) Uani 1 1 d D
N1 N 0.1648(3) -0.02333(17) -0.13439(14) 0.0132(4) Uani 1 1 d D
N2 N -0.2577(3) 0.15105(18) -0.21115(15) 0.0159(4) Uani 1 1 d D
C1 C 0.3590(4) -0.0947(2) -0.12091(19) 0.0169(4) Uani 1 1 d D
H1 H 0.4117 -0.1317 -0.0486 0.020 Uiso 1 1 calc RD
C2 C 0.4832(4) -0.1157(2) -0.20840(19) 0.0169(4) Uani 1 1 d D
H2 H 0.6165 -0.1683 -0.1951 0.020 Uiso 1 1 calc RD
C3 C 0.4142(4) -0.0605(2) -0.31550(19) 0.0167(4) Uani 1 1 d D
H3 H 0.4974 -0.0738 -0.3766 0.020 Uiso 1 1 calc RD
C4 C 0.2191(4) 0.0145(2) -0.32884(18) 0.0151(4) Uani 1 1 d D
C5 C 0.1059(4) 0.0947(2) -0.43025(18) 0.0167(4) Uani 1 1 d D
C6 C -0.0980(4) 0.1534(2) -0.38999(18) 0.0159(4) Uani 1 1 d D
C7 C -0.2685(4) 0.2340(2) -0.44567(19) 0.0185(5) Uani 1 1 d D
H7 H -0.2730 0.2607 -0.5237 0.022 Uiso 1 1 calc RD
C8 C -0.4323(4) 0.2736(2) -0.38110(19) 0.0192(5) Uani 1 1 d D
H8 H -0.5522 0.3300 -0.4149 0.023 Uiso 1 1 calc RD
C9 C -0.4213(4) 0.2309(2) -0.26705(19) 0.0180(5) Uani 1 1 d D
H9 H -0.5365 0.2598 -0.2256 0.022 Uiso 1 1 calc RD
C10 C -0.1022(3) 0.1160(2) -0.27513(18) 0.0142(4) Uani 1 1 d D
C11 C 0.0986(3) 0.0302(2) -0.23695(17) 0.0132(4) Uani 1 1 d D
C12 C -0.1149(4) -0.2777(2) 0.02952(17) 0.0158(4) Uani 1 1 d D
C13 C -0.2879(4) -0.3838(2) 0.0344(2) 0.0231(5) Uani 1 1 d D
H13A H -0.3455 -0.4192 0.1102 0.035 Uiso 1 1 calc RD
H13B H -0.2185 -0.4566 0.0098 0.035 Uiso 1 1 calc RD
H13C H -0.4112 -0.3442 -0.0137 0.035 Uiso 1 1 calc RD
C14 C 0.1173(4) -0.5408(2) 0.25369(19) 0.0187(5) Uani 1 1 d D
H14 H 0.1299 -0.4702 0.1815 0.022 Uiso 1 1 calc RD
loop_
_atom_site_aniso_label
_atom_site_aniso_U_11
_atom_site_aniso_U_22
_atom_site_aniso_U_33
_atom_site_aniso_U_23
_atom_site_aniso_U_13
_atom_site_aniso_U_12
Pd1 0.01124(11) 0.01183(11) 0.00984(12) -0.00360(7) 0.00019(7) 0.00115(7)
Cl1 0.0254(3) 0.0324(3) 0.0412(4) -0.0229(3) 0.0102(3) -0.0056(2)
Cl2 0.0231(3) 0.0214(3) 0.0260(3) -0.0100(2) -0.0041(2) -0.0010(2)
Cl3 0.0177(3) 0.0223(3) 0.0379(3) -0.0063(2) -0.0069(2) 0.0019(2)
O1 0.0244(8) 0.0291(9) 0.0144(9) -0.0075(6) 0.0035(7) -0.0025(7)
O2 0.0141(7) 0.0153(7) 0.0210(8) -0.0067(6) 0.0002(6) -0.0002(6)
O3 0.0196(8) 0.0184(8) 0.0217(9) -0.0049(6) -0.0027(6) 0.0028(6)
N1 0.0127(8) 0.0141(8) 0.0136(9) -0.0053(7) 0.0012(7) 0.0005(7)
N2 0.0139(8) 0.0157(9) 0.0197(10) -0.0077(7) 0.0012(7) -0.0008(7)
C1 0.0161(10) 0.0160(10) 0.0187(12) -0.0049(8) -0.0009(8) 0.0003(8)
C2 0.0135(10) 0.0162(10) 0.0225(12) -0.0084(9) 0.0006(8) 0.0007(8)
C3 0.0157(10) 0.0157(10) 0.0211(12) -0.0093(8) 0.0055(9) -0.0035(8)
C4 0.0163(10) 0.0148(10) 0.0156(11) -0.0066(8) 0.0021(8) -0.0034(8)
C5 0.0169(10) 0.0178(11) 0.0167(12) -0.0067(8) 0.0012(9) -0.0049(8)
C6 0.0168(10) 0.0164(10) 0.0161(11) -0.0070(8) 0.0009(8) -0.0026(8)
C7 0.0215(11) 0.0177(10) 0.0163(12) -0.0045(8) -0.0033(9) -0.0026(9)
C8 0.0174(10) 0.0172(11) 0.0231(13) -0.0056(9) -0.0044(9) 0.0003(8)
C9 0.0149(10) 0.0163(10) 0.0246(13) -0.0091(9) -0.0003(9) 0.0002(8)
C10 0.0161(10) 0.0129(10) 0.0143(11) -0.0050(8) -0.0005(8) -0.0027(8)
C11 0.0129(9) 0.0125(10) 0.0149(11) -0.0052(8) 0.0012(8) -0.0024(8)
C12 0.0202(11) 0.0165(10) 0.0109(11) -0.0042(8) 0.0003(8) 0.0008(8)
C13 0.0241(12) 0.0168(11) 0.0284(13) -0.0063(9) -0.0010(10) -0.0011(9)
C14 0.0183(11) 0.0179(11) 0.0201(12) -0.0056(9) -0.0004(9) 0.0004(8)
loop_
_atom_type_symbol
_atom_type_description
_atom_type_scat_dispersion_real
_atom_type_scat_dispersion_imag
_atom_type_scat_source
C C 0.0181 0.0091 'International Tables Vol C Tables 4.2.6.8 and 6.1.1.4'
H H 0.0000 0.0000 'International Tables Vol C Tables 4.2.6.8 and 6.1.1.4'
Cl Cl 0.3639 0.7018 'International Tables Vol C Tables 4.2.6.8 and 6.1.1.4'
N N 0.0311 0.0180 'International Tables Vol C Tables 4.2.6.8 and 6.1.1.4'
O O 0.0492 0.0322 'International Tables Vol C Tables 4.2.6.8 and 6.1.1.4'
Pd Pd 0.1215 3.9337 'International Tables Vol C Tables 4.2.6.8 and 6.1.1.4'
loop_
_geom_angle_atom_site_label_1
_geom_angle_atom_site_label_2
_geom_angle_atom_site_label_3
_geom_angle
_geom_angle_site_symmetry_1
_geom_angle_site_symmetry_3
O2 Pd1 O2 180.0 . 2
N1 Pd1 O2 88.58(6) . 2
N1 Pd1 O2 91.42(6) 2 2
N1 Pd1 O2 88.58(6) 2 .
N1 Pd1 O2 91.42(6) . .
N1 Pd1 N1 180.0 . 2
C12 O2 Pd1 120.77(13) . .
C1 N1 Pd1 118.58(15) . .
C11 N1 Pd1 124.16(14) . .
C11 N1 C1 117.24(18) . .
C10 N2 C9 114.0(2) . .
N1 C1 H1 118.7 . .
N1 C1 C2 122.5(2) . .
C2 C1 H1 118.7 . .
C1 C2 H2 119.8 . .
C1 C2 C3 120.4(2) . .
C3 C2 H2 119.8 . .
C2 C3 H3 121.6 . .
C4 C3 C2 116.8(2) . .
C4 C3 H3 121.6 . .
C3 C4 C5 131.1(2) . .
C3 C4 C11 120.2(2) . .
C11 C4 C5 108.62(18) . .
O1 C5 C4 126.8(2) . .
O1 C5 C6 127.9(2) . .
C4 C5 C6 105.27(18) . .
C7 C6 C5 131.6(2) . .
C7 C6 C10 119.2(2) . .
C10 C6 C5 109.19(19) . .
C6 C7 H7 121.9 . .
C6 C7 C8 116.3(2) . .
C8 C7 H7 121.9 . .
C7 C8 H8 119.9 . .
C7 C8 C9 120.1(2) . .
C9 C8 H8 119.9 . .
N2 C9 C8 124.5(2) . .
N2 C9 H9 117.7 . .
C8 C9 H9 117.7 . .
N2 C10 C6 125.9(2) . .
N2 C10 C11 126.0(2) . .
C6 C10 C11 108.06(18) . .
N1 C11 C4 122.85(19) . .
N1 C11 C10 128.35(19) . .
C4 C11 C10 108.79(18) . .
O2 C12 C13 113.72(18) . .
O3 C12 O2 125.3(2) . .
O3 C12 C13 120.94(19) . .
C12 C13 H13A 109.5 . .
C12 C13 H13B 109.5 . .
C12 C13 H13C 109.5 . .
H13A C13 H13B 109.5 . .
H13A C13 H13C 109.5 . .
H13B C13 H13C 109.5 . .
Cl1 C14 Cl3 110.31(13) . .
Cl1 C14 H14 108.6 . .
Cl2 C14 Cl1 109.88(12) . .
Cl2 C14 Cl3 110.76(12) . .
Cl2 C14 H14 108.6 . .
Cl3 C14 H14 108.6 . .
loop_
_geom_bond_atom_site_label_1
_geom_bond_atom_site_label_2
_geom_bond_distance
_geom_bond_site_symmetry_2
Pd1 O2 2.0226(14) 2
Pd1 O2 2.0225(14) .
Pd1 N1 2.0152(17) 2
Pd1 N1 2.0151(17) .
Cl1 C14 1.767(2) .
Cl2 C14 1.761(2) .
Cl3 C14 1.767(2) .
O1 C5 1.210(3) .
O2 C12 1.298(3) .
O3 C12 1.226(3) .
N1 C1 1.356(3) .
N1 C11 1.331(3) .
N2 C9 1.352(3) .
N2 C10 1.329(3) .
C1 H1 0.9500 .
C1 C2 1.383(3) .
C2 H2 0.9500 .
C2 C3 1.389(3) .
C3 H3 0.9500 .
C3 C4 1.380(3) .
C4 C5 1.494(3) .
C4 C11 1.399(3) .
C5 C6 1.494(3) .
C6 C7 1.385(3) .
C6 C10 1.397(3) .
C7 H7 0.9500 .
C7 C8 1.389(3) .
C8 H8 0.9500 .
C8 C9 1.391(3) .
C9 H9 0.9500 .
C10 C11 1.492(3) .
C12 C13 1.519(3) .
C13 H13A 0.9800 .
C13 H13B 0.9800 .
C13 H13C 0.9800 .
C14 H14 1.0000 .
loop_
_geom_hbond_atom_site_label_D
_geom_hbond_atom_site_label_H
_geom_hbond_atom_site_label_A
_geom_hbond_distance_DH
_geom_hbond_distance_HA
_geom_hbond_distance_DA
_geom_hbond_angle_DHA
C14 H14 O3 1.00 2.07 3.046(3) 165.9
loop_
_geom_torsion_atom_site_label_1
_geom_torsion_atom_site_label_2
_geom_torsion_atom_site_label_3
_geom_torsion_atom_site_label_4
_geom_torsion
Pd1 O2 C12 O3 -0.9(3)
Pd1 O2 C12 C13 178.91(14)
Pd1 N1 C1 C2 -179.97(16)
Pd1 N1 C11 C4 178.65(15)
Pd1 N1 C11 C10 0.1(3)
O1 C5 C6 C7 3.9(4)
O1 C5 C6 C10 -175.4(2)
N1 C1 C2 C3 1.6(3)
N2 C10 C11 N1 -2.4(3)
N2 C10 C11 C4 178.95(19)
C1 N1 C11 C4 0.6(3)
C1 N1 C11 C10 -177.93(19)
C1 C2 C3 C4 -0.1(3)
C2 C3 C4 C5 175.3(2)
C2 C3 C4 C11 -1.1(3)
C3 C4 C5 O1 -2.0(4)
C3 C4 C5 C6 -179.5(2)
C3 C4 C11 N1 0.9(3)
C3 C4 C11 C10 179.63(18)
C4 C5 C6 C7 -178.6(2)
C4 C5 C6 C10 2.1(2)
C5 C4 C11 N1 -176.24(18)
C5 C4 C11 C10 2.5(2)
C5 C6 C7 C8 -178.4(2)
C5 C6 C10 N2 179.24(19)
C5 C6 C10 C11 -0.6(2)
C6 C7 C8 C9 -0.9(3)
C6 C10 C11 N1 177.5(2)
C6 C10 C11 C4 -1.2(2)
C7 C6 C10 N2 -0.2(3)
C7 C6 C10 C11 179.96(19)
C7 C8 C9 N2 0.2(3)
C9 N2 C10 C6 -0.5(3)
C9 N2 C10 C11 179.30(19)
C10 N2 C9 C8 0.5(3)
C10 C6 C7 C8 0.9(3)
C11 N1 C1 C2 -1.8(3)
C11 C4 C5 O1 174.7(2)
C11 C4 C5 C6 -2.8(2)
