#------------------------------------------------------------------------------
#$Date: 2019-11-25 15:52:20 +0200 (Mon, 25 Nov 2019) $
#$Revision: 241251 $
#$URL: file:///home/coder/svn-repositories/cod/cif/4/13/08/4130898.cif $
#------------------------------------------------------------------------------
#
# This file is available in the Crystallography Open Database (COD),
# http://www.crystallography.net/
#
# All data on this site have been placed in the public domain by the
# contributors.
#
data_4130898
loop_
_publ_author_name
'Zhylitskaya, Halina'
'Cybi\'nska, Joanna'
'Chmielewski, Piotr'
'Lis, Tadeusz'
'St\;epie\'n, Marcin'
_publ_section_title
;
 Bandgap Engineering in \p-Extended Pyrroles. A Modular Approach to
 Electron-Deficient Chromophores with Multi-Redox Activity.
;
_journal_issue                   35
_journal_name_full               'Journal of the American Chemical Society'
_journal_page_first              11390
_journal_page_last               11398
_journal_paper_doi               10.1021/jacs.6b07826
_journal_volume                  138
_journal_year                    2016
_chemical_formula_moiety         'C16 H7 N O3'
_chemical_formula_sum            'C16 H7 N O3'
_chemical_formula_weight         261.23
_space_group_crystal_system      triclinic
_space_group_IT_number           2
_space_group_name_Hall           '-P 1'
_space_group_name_H-M_alt        'P -1'
_atom_sites_solution_hydrogens   geom
_audit_creation_method           SHELXL-2013
_cell_angle_alpha                88.49(4)
_cell_angle_beta                 69.51(5)
_cell_angle_gamma                67.04(5)
_cell_formula_units_Z            2
_cell_length_a                   7.2916(15)
_cell_length_b                   8.7529(16)
_cell_length_c                   9.7443(17)
_cell_measurement_reflns_used    1010
_cell_measurement_temperature    80(2)
_cell_measurement_theta_max      30.5
_cell_measurement_theta_min      3.1
_cell_volume                     532.0(4)
_computing_cell_refinement
'CrysAlis RED; Oxford-Diffraction Poland, 2003'
_computing_data_collection
'CrysAlis CCD; Oxford-Diffraction Poland, 2003'
_computing_data_reduction
'CrysAlis RED; Oxford-Diffraction Poland, 2003'
_computing_structure_refinement  'SHELXL-2013 (Sheldrick, 2013)'
_computing_structure_solution    'SHELXS-97 (Sheldrick, 1990)'
_diffrn_ambient_temperature      80(2)
_diffrn_measured_fraction_theta_full 0.998
_diffrn_measured_fraction_theta_max 0.905
_diffrn_measurement_device_type  'Xcalibur, Ruby'
_diffrn_measurement_method       '\w scans'
_diffrn_radiation_type           MoK\a
_diffrn_radiation_wavelength     0.71073
_diffrn_reflns_av_R_equivalents  0.0300
_diffrn_reflns_av_unetI/netI     0.0725
_diffrn_reflns_Laue_measured_fraction_full 0.998
_diffrn_reflns_Laue_measured_fraction_max 0.905
_diffrn_reflns_limit_h_max       7
_diffrn_reflns_limit_h_min       -9
_diffrn_reflns_limit_k_max       12
_diffrn_reflns_limit_k_min       -12
_diffrn_reflns_limit_l_max       8
_diffrn_reflns_limit_l_min       -13
_diffrn_reflns_number            4297
_diffrn_reflns_point_group_measured_fraction_full 0.998
_diffrn_reflns_point_group_measured_fraction_max 0.905
_diffrn_reflns_theta_full        25.500
_diffrn_reflns_theta_max         30.480
_diffrn_reflns_theta_min         3.177
_diffrn_source                   'Enhance (Mo) X-ray Source'
_exptl_absorpt_coefficient_mu    0.115
_exptl_absorpt_correction_type   none
_exptl_crystal_colour            BROWN-YELLOW
_exptl_crystal_density_diffrn    1.631
_exptl_crystal_description       NEEDLE
_exptl_crystal_F_000             268
_exptl_crystal_size_max          0.456
_exptl_crystal_size_mid          0.050
_exptl_crystal_size_min          0.030
_refine_diff_density_max         0.341
_refine_diff_density_min         -0.338
_refine_diff_density_rms         0.072
_refine_ls_extinction_method     none
_refine_ls_goodness_of_fit_ref   1.048
_refine_ls_hydrogen_treatment    constr
_refine_ls_matrix_type           full
_refine_ls_number_parameters     181
_refine_ls_number_reflns         2932
_refine_ls_number_restraints     0
_refine_ls_restrained_S_all      1.048
_refine_ls_R_factor_all          0.1073
_refine_ls_R_factor_gt           0.0675
_refine_ls_shift/su_max          0.000
_refine_ls_shift/su_mean         0.000
_refine_ls_structure_factor_coef Fsqd
_refine_ls_weighting_details
;
 w=1/[\s^2^(Fo^2^)+(0.0816P)^2^]
 where P=(Fo^2^+2Fc^2^)/3
;
_refine_ls_weighting_scheme      calc
_refine_ls_wR_factor_gt          0.1526
_refine_ls_wR_factor_ref         0.1820
_reflns_Friedel_coverage         0.000
_reflns_number_gt                1933
_reflns_number_total             2932
_reflns_threshold_expression     'I > 2\s(I)'
_cod_data_source_file            ja6b07826_si_003.cif
_cod_data_source_block           HZ103
_cod_depositor_comments
;
The following automatic conversions were performed:

data item '_exptl_absorpt_correction_type' value 'NONE' was changed
to 'none' in accordance with the
/home/saulius/struct/COD-crude-data/automatic-downloads/DataCite-retrospective/ACS/depositions/lib/dictionaries/cif_core.dic
dictionary named 'cif_core.dic' version 2.4.2 last updated on
2011-04-26.

Automatic conversion script
Id: cif_fix_values 6909 2019-04-08 15:41:33Z antanas 
;
_cod_original_cell_volume        532.0(3)
_cod_database_code               4130898
_shelx_space_group_comment
;
The symmetry employed for this shelxl refinement is uniquely defined
by the following loop, which should always be used as a source of
symmetry information in preference to the above space-group names.
They are only intended as comments.
;
_shelx_estimated_absorpt_t_min   0.949
_shelx_estimated_absorpt_t_max   0.997
_shelxl_version_number           2013-2
_shelx_res_file
;
TITL HZ103       in P-1
CELL  0.71073   7.2916   8.7529   9.7443   88.49    69.51    67.04
ZERR    2.000   0.0015   0.0016   0.0017    0.04     0.05     0.05
LATT  1
SFAC C H N O
UNIT 32 14 2 6
ACTA 51
TEMP -193
SIZE 0.03 0.05 0.456
CONF
EQIV $1 x-1, y+1, z+1
HTAB N1 O3_$1
HTAB N1 O4_$1
EQIV $2 x, y, z+1
HTAB C4 O1_$2

HTAB 1.9
L.S. 10
BOND $H
FMAP 2
PLAN 20
WGHT    0.081600
FVAR       4.41323
N1    3    0.374584    0.862007    0.934450    11.00000    0.02433    0.02580 =
         0.01659   -0.00549    0.00123   -0.00983
AFIX  43
H1    2    0.304120    0.928892    1.018571    11.00000   -1.20000
AFIX   0
C1    1    0.355911    0.907161    0.801978    11.00000    0.02059    0.01982 =
         0.02452    0.00174   -0.00407   -0.00743
AFIX  43
H1A   2    0.266671    1.013062    0.785592    11.00000   -1.20000
AFIX   0
C2    1    0.490983    0.769783    0.698213    11.00000    0.01801    0.02132 =
         0.01676   -0.00063   -0.00123   -0.00991
C3    1    0.594270    0.638087    0.771469    11.00000    0.01765    0.01951 =
         0.01632   -0.00008   -0.00246   -0.00948
C4    1    0.517079    0.699493    0.918127    11.00000    0.02126    0.02508 =
         0.01765    0.00116   -0.00258   -0.01098
AFIX  43
H4    2    0.555434    0.640269    0.993844    11.00000   -1.20000
AFIX   0
C5    1    0.569979    0.706336    0.540996    11.00000    0.01469    0.01959 =
         0.01539    0.00086   -0.00225   -0.00813
C6    1    0.541492    0.765841    0.413979    11.00000    0.01832    0.01774 =
         0.02381    0.00280   -0.00712   -0.00631
AFIX  43
H6    2    0.448323    0.878726    0.417002    11.00000   -1.20000
AFIX   0
C7    1    0.651912    0.657581    0.279718    11.00000    0.02062    0.02297 =
         0.01665    0.00422   -0.00672   -0.00997
AFIX  43
H7    2    0.630807    0.699561    0.193046    11.00000   -1.20000
AFIX   0
C8    1    0.790019    0.492249    0.269718    11.00000    0.01738    0.02297 =
         0.01664    0.00133   -0.00410   -0.01066
C9    1    0.825667    0.429684    0.397480    11.00000    0.01624    0.02021 =
         0.01475    0.00012   -0.00263   -0.01030
C10   1    0.966314    0.264697    0.400649    11.00000    0.01626    0.01784 =
         0.01736    0.00013   -0.00270   -0.00784
C11   1    0.987678    0.216041    0.533030    11.00000    0.01649    0.01651 =
         0.01872    0.00125   -0.00395   -0.00526
AFIX  43
H11   2    1.081752    0.104770    0.534108    11.00000   -1.20000
AFIX   0
C12   1    0.874194    0.326549    0.665761    11.00000    0.01900    0.02270 =
         0.01690    0.00520   -0.00626   -0.01050
AFIX  43
H12   2    0.891926    0.290260    0.754808    11.00000   -1.20000
AFIX   0
C13   1    0.737202    0.487885    0.664753    11.00000    0.01660    0.01779 =
         0.01664    0.00174   -0.00403   -0.00828
C14   1    0.715250    0.537136    0.528810    11.00000    0.01315    0.01824 =
         0.01696    0.00132   -0.00319   -0.00655
C15   1    0.898942    0.375801    0.132493    11.00000    0.01802    0.02330 =
         0.01671    0.00257   -0.00233   -0.01163
C16   1    1.084641    0.153609    0.261308    11.00000    0.01935    0.02342 =
         0.01693    0.00439   -0.00410   -0.01228
O1    4    0.876089    0.400456    0.015694    11.00000    0.02933    0.03035 =
         0.01558    0.00183   -0.00552   -0.01415
O3    4    1.046652    0.215387    0.136749    11.00000    0.02103    0.02349 =
         0.01544   -0.00008   -0.00306   -0.00824
O4    4    1.214216    0.009941    0.242015    11.00000    0.02470    0.01937 =
         0.01982   -0.00300   -0.00097   -0.00548
HKLF 4

REM  HZ103       in P-1
REM R1 =  0.0675 for    1933 Fo > 4sig(Fo)  and  0.1073 for all    2932 data
REM    181 parameters refined using      0 restraints

END

WGHT      0.0814      0.0000

REM Instructions for potential hydrogen bonds
HTAB N1 O3_$1
HTAB N1 O4_$1
HTAB C4 O1_$2

REM Highest difference peak  0.341,  deepest hole -0.338,  1-sigma level  0.072
Q1    1   0.8735  0.4635  0.3214  11.00000  0.05    0.34
Q2    1   0.8704  0.3508  0.3981  11.00000  0.05    0.34
Q3    1   0.7736  0.4936  0.4601  11.00000  0.05    0.34
Q4    1   0.7568  0.3844  0.6589  11.00000  0.05    0.30
Q5    1   0.1973  1.0429  0.8104  11.00000  0.05    0.28
Q6    1   0.8976  0.2566  0.6114  11.00000  0.05    0.28
Q7    1   0.8434  0.4310  0.6834  11.00000  0.05    0.28
Q8    1   0.6403  0.6227  0.5270  11.00000  0.05    0.28
Q9    1   0.6273  0.7432  0.4642  11.00000  0.05    0.27
Q10   1   1.0971  0.0362  0.2177  11.00000  0.05    0.27
Q11   1   1.0177  0.1983  0.3342  11.00000  0.05    0.27
Q12   1   0.5202  0.7665  0.6180  11.00000  0.05    0.26
Q13   1   0.6707  0.5633  0.2713  11.00000  0.05    0.26
Q14   1   0.7546  0.4451  0.3435  11.00000  0.05    0.26
Q15   1   1.3492 -0.0030  0.2847  11.00000  0.05    0.25
Q16   1   0.8375  0.4278  0.2206  11.00000  0.05    0.25
Q17   1   1.1946  0.1133  0.2833  11.00000  0.05    0.24
Q18   1   0.5906  0.7080  0.3546  11.00000  0.05    0.24
Q19   1   0.6948  0.5216  0.5591  11.00000  0.05    0.24
Q20   1   1.1461  0.2885  0.4532  11.00000  0.05    0.23
;
_shelx_res_checksum              86268
_shelx_hkl_file
;
   0   0   2 4794.14 154.520   3
   0   0  -2 5185.30 135.906   1
   0   0  -2 4956.02 180.177   2
   0   0  -3 382.981 43.6571   1
   0   0   3 418.727 51.6183   3
   0   0  -3 358.011 64.7580   2
   0   0   4 8032.79 276.742   3
   0   0  -4 7979.87 256.742   1
   0   0  -4 8397.44 309.362   2
   0   0  -5 277.830 71.5124   2
   0   0  -5 391.238 59.7755   1
   0   0  -6 2567.21 152.541   1
   0   0  -6 2020.36 185.193   2
   0   0  -7 1385.96 117.012   1
   0   0  -7 1365.29 163.398   2
   0   0  -8 989.416 152.662   2
   0   0  -8 824.001 95.8065   1
   0   0  -9 100.970 75.8892   2
   0   0 -10 138.581 78.9962   2
   0   0 -11 323.089 96.3046   2
   0   0 -12 214.398 104.128   2
   0   1 -12 861.675 185.480   2
   0   1 -11 76.1466 98.9442   2
   0   1 -10 10.4801 60.9676   2
   0   1  -9-16.4279 56.9022   2
   0   1  -9 60.5235 41.0910   1
   0   1  -8 41.2611 34.3217   1
   0   1  -8 12.0102 54.6457   2
   0   1  -7 3926.46 290.171   2
   0   1  -7 4103.54 235.113   1
   0   1  -6 3013.31 185.603   1
   0  -1   5 1950.53 125.853   3
   0   1  -5 2159.40 145.252   1
   0  -1   4 815.381 72.3766   3
   0   1  -4 893.392 83.1166   1
   0  -1   3 661.697 54.1051   3
   0   1  -3 700.515 70.6872   1
   0  -1   3 668.185 58.6280   1
   0   1  -2 9615.40 260.068   1
   0  -1   2 9565.13 206.821   3
   0  -1   2 9682.58 251.561   1
   0   1  -1 73262.8 1235.74   1
   0  -1   1 70779.3 1236.52   1
   0   1   1 11191.5 259.782   2
   0   1   1 10630.5 261.192   3
   0  -1  -1 10478.4 256.990   2
   0   1   2 54186.4 1002.42   2
   0  -1  -2 53974.4 1016.80   2
   0   1   2 55203.0 1011.89   3
   0  -1  -3 27080.0 628.709   2
   0   1   3 27798.3 620.910   2
   0   1   3 26221.8 614.973   3
   0  -1  -4-36.1141 40.4141   2
   0  -1  -4-19.6344 14.7973   1
   0  -1  -5 75.1163 51.6105   2
   0  -1  -5 71.2960 26.8188   1
   0  -1  -6 2011.28 187.728   2
   0  -1  -6 2196.23 116.750   1
   0  -1  -7 55.5571 60.4256   2
   0  -1  -7 71.4631 25.5707   1
   0  -1  -8 927.592 85.3963   1
   0  -1  -8 1014.70 150.896   2
   0  -1  -9 682.339 131.070   2
   0  -1 -10 157.259 80.0283   2
   0  -1 -11 396.656 106.068   2
   0  -1 -12 740.597 162.746   2
   0   2 -12 1152.97 202.532   2
   0   2 -11 499.754 144.071   2
   0   2 -10 1049.25 154.909   1
   0   2 -10 1307.10 193.262   2
   0   2  -9 312.750 103.879   2
   0   2  -9 459.317 105.593   1
   0   2  -8 1243.36 150.427   1
   0   2  -7 1220.79 138.787   1
   0   2  -6 160.779 60.0937   1
   0  -2   6 61.4973 26.6590   3
   0  -2   5 191.514 36.3053   3
   0   2  -5 225.867 62.9515   1
   0  -2   4 37486.6 707.777   3
   0   2  -4 37854.8 836.224   1
   0  -2   3 7341.53 171.303   3
   0   2  -3 7336.98 265.995   1
   0  -2   3 7588.64 264.455   1
   0   2  -2 4957.54 199.355   1
   0  -2   2 5519.57 208.523   1
   0   2  -1 11608.1 314.061   1
   0   2  -1 11961.8 315.589   2
   0  -2   1 11826.8 312.042   1
   0   2   0 12066.8 281.991   3
   0  -2   0 12486.2 322.230   2
   0   2   0 11860.4 308.251   1
   0   2   0 12224.1 318.219   2
   0  -2   0 12871.1 307.278   1
   0   2   1 789.579 56.4440   1
   0   2   1 912.490 73.9441   3
   0  -2  -1 782.215 74.9556   2
   0   2   1 746.593 67.3315   2
   0  -2  -1 848.365 60.7147   1
   0  -2  -2 10341.2 239.150   1
   0  -2  -2 9392.08 312.814   2
   0   2   2 10401.9 312.817   2
   0   2   2 10285.2 316.196   3
   0   2   2 10400.1 235.086   1
   0  -2  -3 17857.5 357.256   1
   0  -2  -3 18728.7 504.279   2
   0  -2  -4 50.7098 16.3221   1
   0  -2  -4 81.1673 59.6715   2
   0  -2  -5 2539.97 96.1846   1
   0  -2  -6 102.903 17.5163   1
   0  -2  -6 129.891 21.4141   1
   0  -2  -6 243.201 79.9447   2
   0  -2  -7 870.124 55.6386   1
   0  -2  -7 1560.39 184.055   2
   0  -2  -8 645.855 135.094   2
   0  -2  -9 1139.78 180.572   2
   0  -2 -10 180.436 105.763   2
   0  -2 -11 1549.63 217.551   2
   0   3 -12 216.932 114.880   2
   0   3 -11 10.8196 75.3906   2
   0   3 -10 338.394 114.755   2
   0   3 -10 228.265 88.4340   1
   0   3  -9 2681.88 250.364   1
   0   3  -8 130.035 60.6088   1
   0   3  -7 5.66689 62.3308   1
   0  -3   6 1419.70 93.4688   3
   0   3  -6 1555.77 165.875   1
   0  -3   5 10500.5 265.835   3
   0   3  -5 11099.3 417.261   1
   0   3  -4 678.721 96.9408   1
   0  -3   4 562.036 35.8564   3
   0   3  -3 110.274 57.9522   1
   0   3  -2 2024.78 142.994   1
   0  -3   1 8851.28 316.428   2
   0   3  -1 9049.71 215.759   3
   0   3  -1 8954.19 305.949   1
   0   3  -1 8816.42 291.907   2
   0  -3   1 9554.89 308.731   1
   0  -3   0 131.841 40.8257   1
   0   3   0 121.496 30.0140   3
   0  -3   0 88.8962 54.8220   2
   0   3   0 121.293 42.8089   2
   0   3   0 119.613 41.8287   1
   0   3   1-2.31853 22.9646   1
   0   3   1 42.8174 29.3097   3
   0  -3  -1 70.8766 33.5001   1
   0  -3  -1 67.7528 49.6964   2
   0  -3  -2 3125.10 140.308   1
   0   3   2 2971.26 130.316   1
   0  -3  -2 2830.23 181.048   2
   0  -3  -3 29.5001 40.9651   2
   0  -3  -3 34.2240 18.4034   1
   0   3   3 6.33661 17.7902   1
   0  -3  -4 5185.26 274.418   2
   0  -3  -4 4052.43 138.387   1
   0  -3  -5 452.654 105.412   2
   0  -3  -5 175.639 21.4537   1
   0  -3  -6 3716.53 271.271   2
   0  -3  -7 243.987 86.9934   2
   0  -3  -8 525.296 131.811   2
   0  -3  -9 243.454 81.4576   2
   0  -3 -10 104.012 87.8906   2
   0  -3 -11 300.661 117.983   2
   0   4 -11 178.712 102.135   2
   0   4 -11 252.309 106.857   1
   0   4 -10 232.480 91.7378   1
   0   4  -9 599.552 126.423   1
   0   4  -8 3107.48 269.612   1
   0   4  -7 330.181 89.4913   1
   0  -4   6 7.11643 7.56589   3
   0   4  -6 8.59439 40.9015   1
   0   4  -5 11.6913 40.9506   1
   0   4  -4 5479.41 295.215   1
   0   4  -3 73.5947 47.5961   1
   0   4  -2 12.5352 11.0050   3
   0   4  -2 26.0529 40.7480   1
   0   4  -1 39786.9 761.290   3
   0  -4   1 39773.0 920.474   2
   0   4  -1 40326.0 907.472   1
   0  -4   0 3263.63 202.382   2
   0   4   0 2854.60 149.152   3
   0   4   0 3102.72 182.109   1
   0  -4  -1 6986.07 315.591   2
   0   4   1 6738.57 266.365   1
   0  -4  -1 7329.00 276.754   1
   0  -4  -2 1001.78 122.063   2
   0  -4  -2 1075.76 96.4710   1
   0   4   2 955.299 86.1388   1
   0   4   3 1013.73 82.0499   1
   0  -4  -3 1039.96 130.483   2
   0  -4  -3 985.547 84.4762   1
   0  -4  -4 711.406 63.4196   1
   0  -4  -4 765.277 118.296   2
   0  -4  -5 2270.70 205.697   2
   0  -4  -5 1418.28 73.6337   1
   0  -4  -6 701.490 122.033   2
   0  -4  -7 336.009 105.780   2
   0  -4  -8 1707.40 212.253   2
   0  -4  -9 209.783 82.8582   2
   0  -4 -10 97.0134 82.7085   2
   0   5 -11 134.528 109.855   1
   0   5 -10 82.0158 59.4054   1
   0   5  -9 44.0590 79.8011   1
   0   5  -8 5015.60 364.157   1
   0   5  -7 3598.04 286.591   1
   0   5  -6 386.280 85.3174   1
   0   5  -5 127.653 66.3487   1
   0   5  -4 195.855 75.1287   1
   0   5  -3 482.229 91.8093   1
   0   5  -2 2560.23 104.009   3
   0   5  -2 2633.71 208.246   1
   0  -5   1 4866.22 274.887   2
   0   5  -1 4707.06 263.523   1
   0   5  -1 4709.60 188.512   3
   0   5   0 176.253 61.4278   1
   0  -5   0 62.9899 55.4498   2
   0   5   1 315.450 69.4798   1
   0  -5  -1 359.826 86.9876   2
   0  -5  -2 3008.45 237.634   2
   0   5   2 2863.58 172.960   1
   0   5   3 252.561 56.3276   1
   0  -5  -3 163.651 40.1758   1
   0  -5  -3 143.019 66.5016   2
   0  -5  -4 190.466 66.7069   2
   0  -5  -4 194.692 43.3218   1
   0  -5  -5 2557.62 233.745   2
   0  -5  -6 560.522 125.177   2
   0  -5  -7 1399.96 198.250   2
   0  -5  -8 1312.49 202.764   2
   0  -5  -9 224.139 97.4980   2
   0  -5 -10 79.0971 85.6782   2
   0   6 -11 256.773 114.993   1
   0   6 -10 80.7051 69.7847   1
   0   6  -9 810.885 140.973   1
   0   6  -8 520.729 127.294   1
   0   6  -7 1318.94 186.152   1
   0   6  -6 144.560 84.2062   1
   0   6  -5 19759.3 710.025   1
   0   6  -4 4999.30 318.971   1
   0   6  -3 1085.70 144.565   1
   0   6  -2 1641.85 173.041   1
   0   6  -2 1462.55 85.3545   3
   0   6  -1 559.679 106.839   1
   0  -6   1 424.741 107.847   2
   0   6  -1 521.379 68.1132   3
   0  -6   0 445.564 102.028   2
   0   6   0 499.610 99.8307   1
   0  -6  -1 55.7437 56.4198   2
   0   6   1 108.703 56.8603   1
   0   6   2 14132.6 468.058   1
   0  -6  -2 13504.5 566.307   2
   0  -6  -3 5189.35 337.739   2
   0   6   3 5182.51 244.186   1
   0  -6  -4 807.107 144.646   2
   0   6   4 646.411 84.1086   1
   0  -6  -5-15.0188 64.9892   2
   0  -6  -6 446.519 117.504   2
   0  -6  -7 171.368 78.8098   2
   0  -6  -8 69.7842 73.3252   2
   0  -6  -9 166.309 119.966   2
   0   7 -11-53.3591 91.0370   1
   0   7 -10 669.242 159.083   1
   0   7  -9 42.7867 60.8293   1
   0   7  -8 289.215 108.063   1
   0   7  -7 1573.32 208.812   1
   0   7  -6 3483.85 297.226   1
   0   7  -5 4108.22 310.293   1
   0   7  -4 318.467 96.0472   1
   0   7  -3 538.497 122.527   1
   0   7  -2 1409.97 173.009   1
   0   7  -1 429.024 101.712   1
   0  -7   1 398.586 103.907   2
   0  -7   0 577.048 136.398   2
   0   7   0 314.492 86.3485   1
   0   7   1 1236.37 158.321   1
   0  -7  -1 1107.88 180.200   2
   0   7   2 1778.44 170.729   1
   0  -7  -2 1637.84 212.165   2
   0   7   3 169.202 52.5986   1
   0  -7  -3 143.239 75.8992   2
   0  -7  -4 963.630 160.817   2
   0  -7  -5 265.843 112.745   2
   0  -7  -6 614.692 126.423   2
   0  -7  -7 216.978 117.852   2
   0  -7  -8 229.804 127.446   2
   0   8  -9 109.314 65.8401   1
   0   8  -8 443.289 132.623   1
   0   8  -7 126.014 93.6850   1
   0   8  -6 302.196 112.334   1
   0   8  -5 1617.96 212.094   1
   0   8  -4 998.939 167.167   1
   0   8  -3 1249.05 183.278   1
   0   8  -2 5236.14 363.952   1
   0   8  -1 754.175 149.084   1
   0  -8   1 592.380 128.557   2
   0  -8   0 1833.88 238.236   2
   0   8   0 2219.45 239.971   1
   0  -8  -1-82.8218 64.9041   2
   0   8   1-32.2952 57.0116   1
   0  -8  -2-92.3051 76.8532   2
   0   8   2 54.9421 53.9256   1
   0  -8  -3 270.831 95.0404   2
   0  -8  -4-72.9033 82.1805   2
   0  -8  -5 952.415 178.445   2
   0  -8  -6 1026.76 199.746   2
   0  -8  -7 320.271 131.534   2
   0   9  -8 334.765 114.031   1
   0   9  -7 137.652 81.6150   1
   0   9  -6-2.11895 53.0122   1
   0   9  -5 272.164 101.858   1
   0   9  -4-63.8962 52.7194   1
   0   9  -3 1135.85 180.619   1
   0   9  -2 83.9453 74.6577   1
   0   9  -1 52.2781 71.1646   1
   0   9   0 745.247 149.369   1
   0  -9   0 595.128 142.821   2
   0  -9  -1 1052.39 195.923   2
   0   9   1 1529.07 209.292   1
   0   9   2 226.609 92.5772   1
   0  -9  -2 110.564 103.179   2
   0  -9  -3 139.270 75.8506   2
   0  -9  -4-0.23076 72.4154   2
   0  -9  -5 781.751 183.044   2
   0  10  -6 826.417 178.374   1
   0  10  -5 419.939 118.616   1
   0  10  -4 870.882 173.688   1
   0  10  -3 238.127 105.499   1
   0  10  -2 151.401 90.9598   1
   0  10  -1 54.0000 78.5767   1
   0  10   0 232.255 93.8722   1
   0 -10   0 187.264 98.2866   2
   0 -10  -1 699.388 174.919   2
   0  10   1 958.227 180.454   1
   0 -10  -2 255.674 146.183   2
   0 -10  -3 53.2008 88.8694   2
   0  11  -3 963.216 197.701   1
   0  11  -2 113.303 84.4352   1
   0  11  -1-25.3416 59.2149   1
   1 -10  -1 599.783 186.101   2
   1 -10   0 111.429 78.1425   2
  -1  10  -1-15.0543 65.5378   1
  -1  10  -2 142.852 95.6980   1
  -1  10  -3 89.6160 76.0726   1
  -1  10  -4 467.359 138.982   1
  -1  10  -5 122.612 106.756   1
   1  -9  -4 528.496 161.549   2
   1  -9  -3 2164.56 276.039   2
   1  -9  -2 756.031 199.779   2
   1  -9  -1 572.270 156.399   2
   1  -9   0 129.727 85.4692   2
  -1   9   0 130.518 89.1134   1
  -1   9  -1 8.83533 72.7341   1
  -1   9  -2 231.809 92.2921   1
  -1   9  -3 173.019 97.4177   1
  -1   9  -4 51.1151 66.2132   1
  -1   9  -5 73.1403 79.9343   1
  -1   9  -6 102.422 73.8214   1
  -1   9  -7 433.236 134.725   1
   1  -8  -5 185.758 104.362   2
   1  -8  -4 84.6905 86.2986   2
   1  -8  -3 4.44286 95.9610   2
   1  -8  -2 20.1998 75.1091   2
  -1   8   1-9.42022 49.5540   1
   1  -8  -1 46.3875 71.1310   2
  -1   8   0-4.78129 73.0510   1
   1  -8   0 54.3485 76.2330   2
  -1   8  -1 224.073 94.1833   1
   1  -8   1 106.926 75.8582   2
  -1   8  -2 942.803 159.148   1
  -1   8  -3 385.643 117.083   1
  -1   8  -4 1.89514 48.6195   1
  -1   8  -5 142.987 93.2930   1
  -1   8  -6 83.9266 80.3527   1
  -1   8  -7 229.451 99.1014   1
  -1   8  -8-77.9335 74.1714   1
  -1   8  -9 361.828 116.307   1
   1  -7  -7 282.953 113.258   2
   1  -7  -6 1638.51 246.174   2
   1  -7  -5 4116.71 358.180   2
   1  -7  -4 497.836 143.696   2
   1  -7  -3 248.179 92.5021   2
   1  -7  -2 1334.08 189.933   2
  -1   7   2 1264.18 149.137   1
   1  -7  -1 183.274 81.4553   2
  -1   7   1 73.6702 47.3188   1
  -1   7   0 1048.06 158.904   1
   1  -7   0 987.851 166.237   2
  -1   7  -1 674.654 130.190   1
   1  -7   1 457.775 131.757   2
  -1   7  -2 1048.02 158.089   1
  -1   7  -3 151.161 84.6917   1
  -1   7  -4 3673.53 296.368   1
  -1   7  -5 461.890 116.775   1
  -1   7  -6 37.3926 48.0097   1
  -1   7  -7 845.003 163.887   1
  -1   7  -8 12.6173 69.4058   1
  -1   7  -9 835.805 187.922   1
  -1   7 -10 1267.53 222.315   1
   1  -6  -8 1241.21 228.833   2
   1  -6  -7 106.668 85.1521   2
   1  -6  -6 771.977 156.256   2
   1  -6  -5-90.5147 83.3286   2
   1  -6  -4 855.278 158.442   2
  -1   6   3 600.803 85.3460   1
   1  -6  -3 383.888 105.856   2
   1  -6  -2 20806.3 769.105   2
  -1   6   2 21967.0 624.491   1
   1  -6  -1 324.042 115.417   2
  -1   6   1 155.163 59.5807   1
  -1   6   0 160.589 76.0293   1
   1  -6   0 27.5798 56.7911   2
   1  -6   1 1036.32 152.139   2
  -1   6  -1 1268.27 161.485   1
  -1   6  -2 186.130 77.5856   1
  -1   6  -3 4295.39 298.954   1
  -1   6  -3 4047.93 143.513   3
  -1   6  -4 299.633 83.1879   1
  -1   6  -5-8.69415 57.2297   1
  -1   6  -6 3678.48 293.649   1
  -1   6  -7 249.529 83.9051   1
  -1   6  -8 79.5744 72.4827   1
  -1   6  -9-5.10701 56.7462   1
  -1   6 -10 542.243 153.583   1
  -1   6 -11 450.188 137.868   1
   1  -5  -9 817.674 181.327   2
   1  -5  -8-9.89041 66.2884   2
   1  -5  -7 426.055 115.927   2
   1  -5  -6 361.756 109.708   2
   1  -5  -5 13.0661 54.4839   2
   1  -5  -4-50.7543 49.7351   2
  -1   5   3 27529.7 623.686   1
   1  -5  -3 24680.0 819.306   2
   1  -5  -2 13495.9 548.819   2
  -1   5   2 14046.5 432.659   1
   1  -5  -1 4736.58 314.779   2
  -1   5   1 4799.82 252.601   1
  -1   5   0 7185.93 335.588   1
   1  -5   0 6500.30 356.992   2
  -1   5  -1 1391.80 152.098   1
   1  -5   1 1486.95 170.561   2
  -1   5  -2 1902.66 179.379   1
  -1   5  -2 1788.78 104.661   3
  -1   5  -3 1522.55 74.2256   3
  -1   5  -3 1352.45 152.251   1
  -1   5  -3 1154.71 68.3916   3
  -1   5  -4 150.928 70.7987   1
  -1   5  -5 4938.45 306.694   1
  -1   5  -6 4825.48 319.488   1
  -1   5  -7 32.7867 53.7897   1
  -1   5  -8 9.14515 49.7488   1
  -1   5  -9 122.838 77.9303   1
  -1   5 -10 125.297 92.9202   1
  -1   5 -11 90.6577 75.4503   1
  -1   5 -12 1230.00 212.768   1
   1  -4  -9-55.2485 77.7715   2
   1  -4  -8 163.195 94.3043   2
   1  -4  -7 166.426 96.1427   2
   1  -4  -6 961.552 161.343   2
   1  -4  -5 527.296 115.866   2
   1  -4  -4 48.0219 55.3385   2
   1  -4  -3 1325.83 157.260   2
  -1   4   3 1313.82 84.4030   1
   1  -4  -2 1155.79 95.2137   1
   1  -4  -2 1357.05 156.320   2
  -1   4   2 1315.67 103.209   1
   1  -4  -1 12383.0 386.068   1
  -1   4   1 13450.8 400.709   1
   1  -4  -1 11975.4 473.583   2
  -1   4   0 1535.63 138.424   1
   1  -4   0 1388.45 148.168   2
  -1   4  -1 5757.51 275.343   1
   1  -4   1 6447.05 316.051   2
  -1   4  -2 4606.34 246.813   1
  -1   4  -2 4366.59 155.262   3
  -1   4  -3 3048.51 107.619   3
  -1   4  -3 3809.14 230.167   1
  -1   4  -3 3839.73 104.372   3
  -1   4  -4 31.6249 55.5201   1
  -1   4  -5 827.030 117.756   1
  -1   4  -6 2503.44 211.332   1
  -1   4  -7 805.613 133.207   1
  -1   4  -8 1012.91 153.678   1
  -1   4  -9 1725.67 226.647   1
  -1   4 -10 803.251 156.140   1
  -1   4 -11-55.0709 64.8980   1
  -1   4 -12 31.1874 79.6546   2
  -1   4 -12 57.8816 58.5993   1
   1  -3 -10 241.168 101.057   2
   1  -3  -9 365.965 117.628   2
   1  -3  -8 57.5843 80.8092   2
   1  -3  -7 4406.92 339.084   2
   1  -3  -6 4657.14 326.134   2
   1  -3  -5 16.7755 60.5062   2
   1  -3  -4 2343.49 199.061   2
  -1   3   3 143.023 18.9295   1
   1  -3  -3 239.859 63.0722   2
   1  -3  -2 242.088 68.5810   2
  -1   3   2 307.247 42.0502   1
  -1   3   1-44.5590 34.2193   1
   1  -3  -1 3.51248 50.3638   2
   1  -3  -1 6.41501 17.6253   1
   1  -3   0 14568.9 399.517   1
   1  -3   0 14789.6 452.203   2
  -1   3   0 13634.4 390.877   1
   1  -3   1 8141.52 294.745   1
   1  -3   1 8834.32 331.398   2
  -1   3  -1 7835.63 288.086   1
  -1   3  -2 1957.34 141.062   1
  -1   3  -3 1990.07 67.6866   3
  -1   3  -3 2798.06 179.997   1
  -1   3  -4 2143.23 171.408   1
   1  -3   5 526.726 41.4340   3
  -1   3  -5 954.127 122.066   1
  -1   3  -6 2983.22 234.186   1
   1  -3   6 2690.45 117.018   3
  -1   3  -7 921.812 143.837   1
   1  -3   7 813.369 69.0489   3
  -1   3  -8 225.504 72.7043   1
  -1   3  -9 682.555 140.691   1
  -1   3 -10 243.060 90.0347   1
  -1   3 -11 152.607 107.632   2
  -1   3 -11 28.7282 88.1890   1
  -1   3 -12 956.181 178.829   2
   1  -2 -11 224.114 111.077   2
   1  -2 -10 228.424 116.302   2
   1  -2  -9 146.613 86.8757   2
   1  -2  -8 141.106 93.2531   2
   1  -2  -7 2786.13 249.472   2
   1  -2  -6 139.545 76.5278   2
   1  -2  -5 475.666 100.970   2
   1  -2  -4 350.466 80.8689   2
   1  -2  -3 13882.7 457.560   2
   1  -2  -2 106.777 51.8012   2
  -1   2   2-7.39319 13.0998   1
  -1   2   1 2.99124 20.1739   1
   1  -2  -1-34.5432 39.9630   2
  -1   2   1 16.7514 24.0007   2
   1  -2   0 1218.78 101.297   2
  -1   2   0 1207.02 90.6913   2
  -1   2   0 1238.92 85.9572   1
   1  -2   1 101.531 59.3812   2
  -1   2  -1 69.1818 37.9825   2
  -1   2  -1 43.2576 36.6090   1
   1  -2   1 65.1995 29.2870   1
  -1   2  -2 594.829 73.2775   2
  -1   2  -2 415.874 66.0014   1
   1  -2   2 374.093 52.4803   1
  -1   2  -2 366.542 36.2690   3
  -1   2  -3 8570.23 317.512   1
  -1   2  -3 8805.01 190.600   3
  -1   2  -4 299.650 33.3650   3
   1  -2   4 232.504 32.1260   3
  -1   2  -4 341.533 69.7229   1
  -1   2  -5 89.9230 44.3314   1
   1  -2   5 11.8329 16.9098   3
  -1   2  -6 1389.64 154.503   1
   1  -2   6 1165.66 91.3180   3
  -1   2  -7 53.6014 38.4367   1
  -1   2  -8-4.09097 54.5517   1
  -1   2  -9 125.388 68.7335   1
  -1   2 -10 166.013 79.8818   1
  -1   2 -10 230.565 95.4553   2
  -1   2 -11 303.690 104.191   2
  -1   2 -11 278.727 101.489   1
  -1   2 -12 1651.67 227.193   2
   1  -1 -11 378.199 120.088   2
   1  -1 -10 2835.88 294.643   2
   1  -1  -9 5.14114 73.4455   2
   1  -1  -8 20.7921 65.0712   2
   1  -1  -7 17.0492 53.5073   2
   1  -1  -6 2448.46 208.639   2
   1  -1  -5 1847.95 175.243   2
   1  -1  -4 16126.3 521.228   2
   1  -1  -3 30651.3 733.712   2
   1  -1  -2 6145.99 238.954   2
  -1   1   2 6771.36 237.513   2
  -1   1   1 2757.56 81.7598   1
  -1   1   1 3041.72 136.026   2
   1  -1  -1 2891.08 138.830   2
  -1   1   0 2032.14 94.6779   2
   1  -1   0 2292.77 109.926   2
   1  -1   1 21698.1 478.355   2
  -1   1  -1 22527.2 462.819   2
  -1   1  -2 9641.07 271.990   1
   1  -1   2 9066.74 222.254   3
  -1   1  -2 9718.61 213.365   3
  -1   1  -3 201.370 29.7655   3
  -1   1  -3 113.259 38.5504   1
   1  -1   3 213.848 31.6437   3
  -1   1  -4 469.582 52.0574   3
   1  -1   4 358.874 44.8489   3
  -1   1  -4 409.856 67.5762   1
   1  -1   5 35645.7 749.457   3
  -1   1  -5 35921.9 830.218   1
  -1   1  -5 36368.6 757.876   3
  -1   1  -6 1700.80 159.526   1
  -1   1  -7 198.487 71.2197   1
  -1   1  -8 2705.71 239.200   2
  -1   1  -8 2190.56 201.314   1
  -1   1  -9 6.16762 45.2302   1
  -1   1  -9-48.5289 67.9320   2
  -1   1 -10 20.9832 71.1749   2
  -1   1 -10 34.3876 51.4433   1
  -1   1 -11 270.386 101.091   2
  -1   1 -12 189.072 80.0170   2
   1   0 -11 2223.03 264.619   2
   1   0 -10-208.627 99.8932   2
   1   0  -9 1636.09 206.544   2
   1   0  -8-33.1216 53.8455   2
   1   0  -7 4830.13 311.054   2
   1   0  -7 5373.71 212.593   1
   1   0  -6 348.511 51.4637   1
   1   0  -6 406.509 96.4902   2
   1   0  -5 281.948 41.3838   1
   1   0  -5 203.980 62.5285   2
   1   0  -4 3041.60 195.872   2
   1   0  -4 3311.23 133.022   1
  -1   0   3 4979.05 144.323   1
   1   0  -3 4591.51 218.414   2
   1   0  -3 4465.55 145.616   1
   1   0  -2 2007.18 122.279   2
  -1   0   2 2435.84 133.944   2
   1   0  -2 1791.01 73.6111   1
  -1   0   2 1605.87 67.9649   1
  -1   0   1 174.692 19.8601   1
  -1   0   1 182.048 34.5822   2
   1   0  -1 75.7122 32.7066   2
   1   0   0 385.961 29.8653   2
  -1   0   0 423.398 30.9158   2
   1   0   1 26.8094 18.9316   3
  -1   0  -1 19.0393 19.0173   3
  -1   0  -2 5992.33 167.724   3
   1   0   2 5586.32 170.007   3
   1   0   3 2715.65 120.270   3
  -1   0  -3 2801.21 125.680   3
   1   0   4 1199.42 91.7172   3
  -1   0  -4 1292.26 99.7115   3
  -1   0  -5 1029.03 115.808   2
  -1   0  -5 1045.19 100.177   3
  -1   0  -5 1079.20 97.2289   1
  -1   0  -6 7911.39 355.190   2
  -1   0  -6 7799.82 314.518   1
  -1   0  -7 1549.31 157.782   2
  -1   0  -7 1848.19 159.828   1
  -1   0  -8 29991.4 822.958   1
  -1   0  -8 31967.5 893.113   2
  -1   0  -9 1367.94 150.807   1
  -1   0  -9 1502.51 180.103   2
  -1   0 -10 2003.85 232.428   2
  -1   0 -10 1682.76 165.317   1
  -1   0 -11 219.487 79.5329   2
  -1   0 -12 455.880 125.938   2
   1   1 -11 58.1543 72.9833   2
   1   1 -10 587.524 147.992   2
   1   1  -9 2342.22 253.940   2
   1   1  -8 24625.2 652.245   1
   1   1  -8 25015.9 838.647   2
   1   1  -7 30226.9 731.745   1
   1   1  -7 29185.9 886.761   2
   1   1  -6-43.9774 48.6527   2
   1   1  -6 57.0446 39.3195   1
   1   1  -5 450.356 89.1097   2
  -1  -1   5 514.301 63.5856   1
   1   1  -5 542.652 69.3543   1
   1   1  -4 2426.88 177.979   2
   1   1  -4 2353.84 135.370   1
  -1  -1   4 2591.58 138.512   1
   1   1  -3 929.309 74.8755   1
  -1  -1   3 937.201 72.3895   1
  -1  -1   2 220.421 36.7288   1
   1   1  -2 212.122 34.8931   1
  -1  -1   1 4664.92 152.797   1
   1   1  -1 5014.83 153.084   1
   1   1   0 304.739 33.4544   3
  -1  -1  -1 5731.95 127.398   2
  -1  -1  -1 5333.28 159.874   3
   1   1   1 5327.35 163.381   3
   1   1   1 5125.56 126.591   2
   1   1   2 87.0806 30.5204   3
   1   1   2 79.5110 30.5427   2
  -1  -1  -2 86.7951 30.3651   2
  -1  -1  -2 117.866 33.4287   3
  -1  -1  -3 1815.40 113.347   3
  -1  -1  -3 2025.77 119.096   2
   1   1   3 2116.91 135.186   2
   1   1   3 1919.08 118.477   3
  -1  -1  -4 2571.54 164.836   2
   1   1   4 2902.85 159.688   3
  -1  -1  -4 2802.37 164.671   3
  -1  -1  -5 46.7577 38.7388   3
  -1  -1  -5 90.9249 48.3257   2
  -1  -1  -6 25.1996 41.6743   2
  -1  -1  -7 14404.5 524.322   2
  -1  -1  -7 14345.2 444.575   1
  -1  -1  -8 25870.7 703.631   1
  -1  -1  -8 29295.3 823.979   2
  -1  -1  -9 1135.58 122.993   1
  -1  -1  -9 1232.08 164.333   2
  -1  -1 -10 1750.85 204.675   2
  -1  -1 -11 27.5418 50.7395   2
  -1  -1 -12 212.929 92.8504   2
   1   2 -11 174.909 113.066   2
   1   2 -10 744.448 163.148   2
   1   2  -9-100.613 62.3332   2
   1   2  -9 59.9616 58.8253   1
   1   2  -8 16102.6 670.825   2
   1   2  -8 15373.4 531.824   1
   1   2  -7 2578.08 246.926   2
   1   2  -7 2526.33 193.439   1
   1   2  -6 5425.08 276.045   1
   1   2  -5 171.370 54.6504   1
   1   2  -4 5910.61 256.714   1
   1   2  -3 2419.22 149.443   1
  -1  -2   3 2546.40 138.585   1
   1   2  -2 5466.50 212.616   1
  -1  -2   2 5370.19 200.259   1
   1   2  -1 1537.14 100.969   1
  -1  -2   1 1781.24 103.422   1
  -1  -2   1 1766.48 78.1113   3
   1   2  -1 1656.49 79.1884   3
  -1  -2   0 705.686 52.3204   3
   1   2   0 704.065 51.2391   3
   1   2   0 694.770 64.7762   1
  -1  -2   0 758.611 58.4521   2
  -1  -2   0 767.864 68.6187   1
   1   2   0 752.923 55.1844   2
   1   2   1 283.497 40.0571   2
  -1  -2  -1 298.274 47.7791   3
  -1  -2  -1 272.368 45.3847   1
   1   2   1 250.183 40.8590   3
  -1  -2  -1 266.499 39.8339   2
   1   2   1 227.545 41.0366   1
  -1  -2  -2 1677.75 116.063   3
  -1  -2  -2 1673.15 97.6883   1
   1   2   2 1892.35 103.469   2
  -1  -2  -2 1713.70 104.366   2
   1   2   2 1899.79 112.918   3
  -1  -2  -3 3939.21 154.663   1
   1   2   3 3950.93 174.420   2
  -1  -2  -3 3816.60 179.971   2
  -1  -2  -3 4039.64 198.219   3
   1   2   3 4049.24 192.680   3
  -1  -2  -4 10315.0 363.814   2
  -1  -2  -4 10718.2 381.764   3
  -1  -2  -5 2152.59 173.772   3
  -1  -2  -5 2312.74 181.623   2
  -1  -2  -6 2803.01 220.319   2
  -1  -2  -7 254.802 47.6988   1
  -1  -2  -7 293.371 84.5498   2
  -1  -2  -8 30.6652 31.4391   1
  -1  -2  -8 68.1399 76.2520   2
  -1  -2  -9 1064.43 159.899   2
  -1  -2 -10 143.344 76.6984   2
  -1  -2 -11 4245.84 345.775   2
  -1  -2 -12 254.587 121.231   2
   1   3 -11 1164.65 200.730   2
   1   3 -10 21.2686 74.7822   2
   1   3  -9 154.225 70.6168   1
   1   3  -9 327.142 117.614   2
   1   3  -8 1973.40 189.764   1
   1   3  -7 160.848 52.8530   1
   1   3  -6 1466.87 156.418   1
   1   3  -5 22267.2 664.891   1
   1   3  -4 434.466 81.9223   1
  -1  -3   3 1154.46 72.1274   3
   1   3  -3 1302.54 120.792   1
  -1  -3   2 2489.01 100.567   3
   1   3  -2 2235.58 153.644   1
   1   3  -1 10071.0 304.009   2
   1   3  -1 10244.3 331.837   1
  -1  -3   1 11211.9 346.945   1
  -1  -3   1 10625.1 252.704   3
   1   3  -1 10098.5 244.615   3
  -1  -3   0 2098.24 128.055   2
  -1  -3   0 1997.78 108.223   3
   1   3   0 2116.43 101.461   3
   1   3   0 2131.59 123.784   2
   1   3   0 2039.76 128.763   1
  -1  -3   0 2091.76 132.805   1
  -1  -3  -1 1216.42 95.8695   3
  -1  -3  -1 1141.38 93.5620   2
   1   3   1 1237.43 90.7017   3
   1   3   1 1220.20 98.8702   1
   1   3   1 1329.92 93.7943   2
  -1  -3  -1 1402.63 102.873   1
   1   3   2 4938.63 195.249   1
  -1  -3  -2 5394.46 207.018   1
   1   3   2 4902.30 204.824   2
  -1  -3  -2 5065.90 217.288   2
  -1  -3  -2 4929.19 217.843   3
   1   3   2 4853.51 214.067   3
  -1  -3  -3 19730.4 469.094   1
  -1  -3  -3 19814.1 549.313   3
  -1  -3  -3 18484.4 510.137   2
  -1  -3  -4 20203.3 570.307   2
  -1  -3  -4 20634.8 604.540   3
  -1  -3  -4 20211.6 488.432   1
  -1  -3  -5 398.344 52.5139   1
  -1  -3  -5 508.314 93.7388   2
  -1  -3  -6 887.633 77.8031   1
  -1  -3  -6 1398.50 165.129   2
  -1  -3  -7 86.7523 66.1926   2
  -1  -3  -8 48.8832 75.4007   2
  -1  -3  -9 292.996 115.477   2
  -1  -3 -10 1564.09 206.504   2
  -1  -3 -11 685.358 140.315   2
  -1  -3 -12 129.010 116.373   2
   1   4 -11 61.0366 60.9523   2
   1   4 -10 660.158 164.015   2
   1   4 -10 517.243 115.611   1
   1   4  -9 23.8828 40.8689   1
   1   4  -8 279.779 88.9999   1
   1   4  -7 120.260 74.3043   1
   1   4  -6 78.0821 67.5777   1
  -1  -4   6 39.5583 21.6838   3
   1   4  -5 159.822 51.0787   1
  -1  -4   5 239.432 37.0518   3
   1   4  -4 20.0563 39.6086   1
  -1  -4   4 49.5049 19.2291   3
  -1  -4   3 7419.59 195.513   3
   1   4  -3 7119.37 322.600   1
  -1  -4   2 1156.73 65.9526   3
   1   4  -2 1109.67 119.927   1
   1   4  -2 1133.84 68.3782   3
   1   4  -1 8.37476 15.4502   3
  -1  -4   1 33.4338 22.0081   3
   1   4  -1 2.31529 34.4270   1
   1   4   0 382.801 53.1182   3
  -1  -4   0 286.093 51.4447   3
  -1  -4   0 455.038 78.1134   2
   1   4   0 300.759 63.1370   1
  -1  -4  -1 95.6353 43.8325   1
  -1  -4  -1 78.5097 48.3402   2
   1   4   1 48.3723 28.9232   3
   1   4   1 142.539 50.0371   1
  -1  -4  -1 19.5120 33.1847   3
  -1  -4  -2 789.921 104.097   2
  -1  -4  -2 723.804 98.6787   3
   1   4   2 693.604 80.1283   1
  -1  -4  -2 735.637 85.6426   1
   1   4   3 5824.32 233.263   1
  -1  -4  -3 5841.36 296.456   3
  -1  -4  -3 6622.37 257.400   1
  -1  -4  -3 5796.61 280.048   2
  -1  -4  -4 882.145 84.9987   1
  -1  -4  -4 728.606 112.001   2
  -1  -4  -5 270.667 81.5449   2
  -1  -4  -5 267.421 49.2863   1
  -1  -4  -6 56.0558 63.5219   2
  -1  -4  -6 38.9194 27.9795   1
  -1  -4  -7 4982.50 346.016   2
  -1  -4  -8 98.4152 95.1864   2
  -1  -4  -9 253.503 95.1977   2
  -1  -4 -10 65.1300 76.3219   2
  -1  -4 -11 516.479 131.350   2
   1   5 -11 176.389 109.036   2
   1   5 -10-86.4410 61.6808   1
   1   5  -9 538.284 128.108   1
   1   5  -8 1161.85 172.466   1
   1   5  -7 1520.98 192.282   1
  -1  -5   6 2179.20 99.1078   3
   1   5  -6 2349.58 221.514   1
  -1  -5   5 955.507 51.5731   3
  -1  -5   5 1001.89 47.3261   3
   1   5  -5 1328.92 161.376   1
   1   5  -4 533.844 109.453   1
   1   5  -3 1884.94 179.983   1
  -1  -5   3 1673.08 69.1022   3
   1   5  -2 2178.49 178.020   1
  -1  -5   2 2197.57 102.777   3
   1   5  -2 2317.84 107.249   3
   1   5  -1 7461.87 334.872   1
  -1  -5   1 7578.95 255.681   3
   1   5  -1 7300.46 226.732   3
   1   5   0 10545.6 324.312   3
  -1  -5   0 10579.2 357.871   3
  -1  -5   0 11074.7 411.940   2
   1   5   0 10848.5 398.463   1
  -1  -5  -1-18.7311 48.3084   2
   1   5   1-49.5491 36.5855   1
  -1  -5  -1-3.74369 34.0916   3
  -1  -5  -2 1078.23 120.275   3
   1   5   2 1162.84 117.777   1
  -1  -5  -2 1171.08 135.362   2
   1   5   3 34.5338 24.2776   1
  -1  -5  -3 65.0130 56.8690   2
  -1  -5  -4 2179.00 198.520   2
  -1  -5  -5 336.846 90.4823   2
  -1  -5  -6 2891.28 254.813   2
  -1  -5  -7 4882.99 341.277   2
  -1  -5  -8 151.886 80.1686   2
  -1  -5  -9 226.713 101.713   2
  -1  -5 -10-46.8367 78.4996   2
   1   6 -11-81.0402 56.2108   1
   1   6 -10 807.521 166.786   1
   1   6  -9 641.806 146.771   1
   1   6  -8 701.857 141.674   1
   1   6  -7 672.176 134.171   1
   1   6  -6 2098.91 220.328   1
   1   6  -5 2219.28 219.185   1
   1   6  -4 141.149 65.4950   1
   1   6  -3 2014.92 196.700   1
   1   6  -2 816.169 63.0449   3
   1   6  -2 953.367 134.715   1
   1   6  -1 1213.68 88.3526   3
   1   6  -1 1165.63 144.235   1
   1   6   0 1137.68 131.240   1
  -1  -6   0 1238.74 143.280   2
  -1  -6  -1 10398.8 437.280   2
   1   6   1 9861.93 394.605   1
  -1  -6  -2 1326.48 159.794   2
   1   6   2 1602.92 152.460   1
   1   6   3 5467.38 263.543   1
  -1  -6  -3 5717.21 342.999   2
   1   6   4 985.463 104.324   1
  -1  -6  -4 951.266 148.299   2
  -1  -6  -5 148.426 63.2837   2
  -1  -6  -6 164.828 95.9267   2
  -1  -6  -7 102.455 77.9467   2
  -1  -6  -8-7.17540 76.5386   2
  -1  -6  -9-44.4461 68.0912   2
  -1  -6 -10 1273.73 217.764   2
   1   7 -11 267.038 111.582   1
   1   7 -10 44.4152 57.0208   1
   1   7  -9 48.5432 91.9110   1
   1   7  -8 110.018 57.0963   1
   1   7  -7 207.104 93.6976   1
   1   7  -6 2291.23 243.793   1
   1   7  -5 5638.86 370.616   1
   1   7  -4 54.7512 70.8140   1
   1   7  -3 1280.26 165.002   1
   1   7  -2 2144.12 106.363   3
   1   7  -2 2609.73 234.690   1
   1   7  -1 399.915 87.8748   1
   1   7   0 1763.20 181.810   1
  -1  -7   0 1757.49 187.145   2
  -1  -7  -1 3397.49 272.126   2
   1   7   1 3399.11 240.778   1
  -1  -7  -2 7030.89 403.463   2
   1   7   2 7634.48 372.039   1
   1   7   3 29684.4 782.121   1
  -1  -7  -3 29289.8 934.514   2
  -1  -7  -4-20.1500 55.5892   2
   1   7   4-62.5841 39.0420   1
  -1  -7  -5 48.5834 91.8124   2
  -1  -7  -6 295.044 101.489   2
  -1  -7  -7 181.305 114.487   2
  -1  -7  -8 163.953 122.263   2
  -1  -7  -9 187.702 123.520   2
   1   8  -9 165.639 73.8115   1
   1   8  -8 282.718 106.487   1
   1   8  -7 288.995 91.2548   1
   1   8  -6 707.013 150.081   1
   1   8  -5-70.9313 64.4314   1
   1   8  -4 190.608 87.0951   1
   1   8  -3 3307.16 290.153   1
   1   8  -2 156.264 68.2988   1
   1   8  -1 1574.36 194.356   1
  -1  -8   0-45.6658 71.7015   2
   1   8   0 114.711 59.1996   1
   1   8   1 126.443 56.8170   1
  -1  -8  -1-16.0692 67.1364   2
  -1  -8  -2 7680.16 458.247   2
   1   8   2 8857.81 431.203   1
   1   8   3 1276.24 150.191   1
  -1  -8  -3 1029.86 164.014   2
   1   8   4 170.643 52.3899   1
  -1  -8  -4 430.560 124.398   2
  -1  -8  -5 219.586 107.114   2
  -1  -8  -6 1899.74 240.762   2
  -1  -8  -7 698.078 163.833   2
  -1  -8  -8 1105.68 219.244   2
   1   9  -8 268.958 114.017   1
   1   9  -7 627.226 147.826   1
   1   9  -6-25.6880 77.1763   1
   1   9  -5 435.592 117.509   1
   1   9  -4 1950.29 232.150   1
   1   9  -3 30.3504 48.8605   1
   1   9  -2 785.959 145.628   1
   1   9  -1 547.761 124.081   1
  -1  -9   0 1086.54 173.707   2
   1   9   0 1014.48 163.347   1
  -1  -9  -1 145.394 87.3915   2
   1   9   1 116.890 79.3809   1
  -1  -9  -2 456.701 129.497   2
   1   9   2 615.396 124.287   1
   1   9   3 477.840 98.6438   1
  -1  -9  -3 531.555 128.336   2
  -1  -9  -4 326.268 116.220   2
  -1  -9  -5 2095.99 262.990   2
  -1  -9  -6 1549.95 232.426   2
   1  10  -6 280.540 108.339   1
   1  10  -5 182.579 96.3803   1
   1  10  -4 150.508 87.8033   1
   1  10  -3 177.361 98.2430   1
   1  10  -2 317.061 114.272   1
   1  10  -1-108.685 61.3923   1
   1  10   0 197.620 86.4259   1
  -1 -10  -1 198.088 117.737   2
   1  10   1 168.734 96.6175   1
   1  10   2 640.684 136.931   1
  -1 -10  -2 497.332 143.798   2
  -1 -10  -3 61.3849 103.578   2
  -1 -10  -4 751.173 176.789   2
  -1 -10  -5-34.1585 69.6367   2
   1  11  -4 37.5211 61.8563   1
   1  11  -3-60.6122 76.3006   1
   1  11  -2 197.840 92.4342   1
   1  11  -1 106.144 82.9201   1
   1  11   0-112.006 77.7949   1
  -1 -11  -1 196.143 117.551   2
   1  11   1 215.272 98.0128   1
  -1 -11  -2 729.097 195.225   2
  -2  10  -2 1987.84 267.035   1
  -2  10  -3 1941.93 255.847   1
  -2  10  -4 1093.74 200.780   1
   2  -9  -2 821.671 188.411   2
   2  -9  -1 674.750 173.005   2
   2  -9   0 214.031 117.069   2
   2  -9   1 565.326 183.010   2
  -2   9  -1 662.172 150.534   1
  -2   9  -2 153.176 98.4542   1
  -2   9  -3 185.347 113.073   1
  -2   9  -4-132.713 83.7167   1
  -2   9  -5 1000.61 183.195   1
  -2   9  -6 1169.63 196.349   1
   2  -8  -4 418.729 142.988   2
   2  -8  -3 53.5759 87.2268   2
   2  -8  -2 127.917 89.6720   2
   2  -8  -1 1120.16 216.698   2
   2  -8   0 98.4735 120.047   2
  -2   8   0 112.999 86.4398   1
   2  -8   1 446.506 115.883   2
  -2   8  -1 527.502 129.720   1
  -2   8  -2 160.266 74.1122   1
  -2   8  -3 372.127 110.726   1
  -2   8  -4 387.522 136.502   1
  -2   8  -5 42.5219 61.9744   1
  -2   8  -6 1038.03 187.459   1
  -2   8  -7 268.162 116.524   1
  -2   8  -8 187.959 108.182   1
   2  -7  -5 814.520 177.161   2
   2  -7  -4 197.100 127.023   2
   2  -7  -3 175.691 103.119   2
   2  -7  -2 616.121 162.206   2
   2  -7  -1 626.262 158.311   2
  -2   7   1 779.234 139.538   1
  -2   7   0 548.693 122.849   1
   2  -7   0 294.045 111.192   2
   2  -7   1 59.4770 62.4436   2
  -2   7  -1 193.788 86.8766   1
  -2   7  -2-52.3651 55.1118   1
  -2   7  -3 3584.61 303.182   1
  -2   7  -4 103.507 72.5365   1
  -2   7  -5-23.9297 51.3579   1
  -2   7  -6 161.611 87.6772   1
  -2   7  -7 399.377 122.461   1
  -2   7  -8 364.069 120.736   1
  -2   7  -9 567.417 151.048   1
  -2   7 -10 87.4200 103.917   1
   2  -6  -7 213.680 114.054   2
   2  -6  -6 662.859 157.017   2
   2  -6  -5 1025.81 191.111   2
   2  -6  -4 129.745 88.2210   2
   2  -6  -3-7.04550 68.7625   2
  -2   6   2 145.836 61.8817   1
   2  -6  -2 89.0470 79.7591   2
  -2   6   1-7.62166 38.4076   1
   2  -6  -1-42.3458 65.8221   2
  -2   6   0 5493.08 344.785   1
   2  -6   0 5019.34 352.162   2
   2  -6   1 286.157 91.1489   2
  -2   6  -1 376.633 102.499   1
  -2   6  -2 4067.86 293.709   1
   2  -6   2 4218.67 328.840   2
  -2   6  -3 1943.00 201.260   1
  -2   6  -4 2100.11 218.256   1
  -2   6  -5 985.740 149.643   1
  -2   6  -6 21.8178 55.4785   1
  -2   6  -7-0.43398 49.9857   1
  -2   6  -8 175.991 99.0190   1
  -2   6  -9-126.143 71.9942   1
  -2   6 -10 268.116 120.965   1
  -2   6 -11 1134.44 215.734   1
   2  -5  -8 128.244 96.1220   2
   2  -5  -7 336.945 124.037   2
   2  -5  -6 814.855 170.981   2
   2  -5  -5 259.808 73.4635   2
   2  -5  -4 1343.91 187.815   2
   2  -5  -3 191.687 76.2876   2
   2  -5  -2 4630.42 328.237   2
  -2   5   2 4788.98 243.858   1
   2  -5  -1 13.1685 66.8447   2
  -2   5   1 221.491 71.0428   1
  -2   5   0 743.095 119.940   1
   2  -5   0 518.352 122.707   2
   2  -5   1-26.8142 59.1766   2
  -2   5  -1-48.9000 45.4012   1
   2  -5   2 888.203 142.551   2
  -2   5  -2 992.323 142.537   1
  -2   5  -3-51.9361 48.1735   1
  -2   5  -4 1020.68 67.4852   3
  -2   5  -4 1019.15 74.5333   3
  -2   5  -4 1047.72 140.382   1
  -2   5  -5 7545.14 398.445   1
  -2   5  -6 11300.8 515.199   1
  -2   5  -7 2408.96 235.653   1
  -2   5  -8 285.623 103.651   1
  -2   5  -9-36.4328 69.7778   1
  -2   5 -10 312.377 115.664   1
  -2   5 -11 131.326 103.512   1
  -2   5 -12 208.511 100.057   1
   2  -4  -9 20.0584 65.0763   2
   2  -4  -8-271.742 110.604   2
   2  -4  -7-48.1810 72.3695   2
   2  -4  -6-25.7865 78.5131   2
   2  -4  -5 132.836 86.5507   2
   2  -4  -4 1778.00 201.595   2
   2  -4  -3 2541.11 229.347   2
  -2   4   3 1480.21 81.2422   1
  -2   4   2 14206.9 411.230   1
   2  -4  -2 14774.8 557.531   2
   2  -4  -1 151.157 76.6013   2
  -2   4   1 160.275 40.3454   1
   2  -4   0 405.822 95.8565   2
  -2   4   0 387.529 68.6630   1
   2  -4   1 226.966 83.1229   2
  -2   4  -1 103.520 35.3313   1
   2  -4   2 1291.86 154.252   2
  -2   4  -2 1129.26 129.867   1
  -2   4  -3 776.820 75.9483   3
  -2   4  -3 625.310 104.020   1
  -2   4  -4 1420.29 83.1202   3
  -2   4  -4 1422.61 161.822   1
  -2   4  -5 15427.3 306.626   3
  -2   4  -5 15107.4 577.661   1
  -2   4  -6-42.1497 67.7564   1
  -2   4  -7 1979.36 211.264   1
  -2   4  -8 1677.72 202.928   1
  -2   4  -9 1985.09 228.258   1
  -2   4 -10 153.095 86.4366   1
  -2   4 -11 32.6123 77.0401   1
  -2   4 -12 246.872 123.993   1
   2  -3  -9 157.130 100.634   2
   2  -3  -8 1343.93 214.090   2
   2  -3  -7 1936.40 229.948   2
   2  -3  -6 636.179 122.265   2
   2  -3  -5 1025.20 169.624   2
   2  -3  -4 51.1165 61.2435   2
   2  -3  -3 530.188 91.8417   2
  -2   3   2 1015.67 79.5389   1
   2  -3  -2 1015.05 125.332   2
   2  -3  -1 58.4568 54.9922   2
  -2   3   1 161.567 47.3591   1
   2  -3   0-12.2628 45.8337   2
  -2   3   0-12.7036 28.3254   1
  -2   3  -1 11404.1 387.228   1
   2  -3   1 10386.3 406.813   2
  -2   3  -2 10685.4 393.223   1
   2  -3   2 10784.8 393.836   2
  -2   3  -3 770.442 79.3543   3
  -2   3  -3 797.778 117.041   1
  -2   3  -4 1895.38 92.4668   3
  -2   3  -4 1728.62 173.933   1
  -2   3  -5 277.303 88.4948   1
  -2   3  -5 171.954 20.8368   3
  -2   3  -6 63.7616 22.2603   3
  -2   3  -6 87.2432 65.2737   1
  -2   3  -7 3665.69 283.735   1
  -2   3  -8 4632.36 338.693   1
  -2   3  -9 272.542 101.488   1
  -2   3 -10 261.810 99.5234   1
  -2   3 -11 91.7143 89.8232   1
  -2   3 -12 2.45335 79.7460   1
  -2   3 -12 391.686 124.563   2
   2  -2 -10-13.5653 61.7928   2
   2  -2  -9 238.058 105.834   2
   2  -2  -8 1017.26 176.692   2
   2  -2  -7 69.0503 78.0153   2
   2  -2  -6 1408.86 195.013   2
   2  -2  -5 2748.60 248.050   2
   2  -2  -4-81.4535 71.5580   2
   2  -2  -3 384.891 90.7479   2
   2  -2  -2 437.954 84.9491   2
  -2   2   2 429.063 42.4720   1
  -2   2   1 9755.77 275.042   1
   2  -2  -1 9553.14 352.819   2
   2  -2   0 554.983 83.2030   2
  -2   2   0 534.901 62.3519   1
  -2   2  -1 32226.7 706.780   1
  -2   2  -1 32046.6 694.123   2
   2  -2   1 31193.9 740.348   2
  -2   2  -2 930.123 94.2671   3
  -2   2  -2 963.135 101.289   2
  -2   2  -2 943.639 99.4678   1
   2  -2   2 953.894 100.808   2
  -2   2  -3 1797.43 147.460   1
  -2   2  -3 1754.84 109.690   3
   2  -2   4 4464.61 180.802   3
  -2   2  -4 5029.62 169.914   3
  -2   2  -4 5136.26 269.779   1
  -2   2  -5 7.05834 21.6178   3
  -2   2  -5-23.8336 54.6912   1
   2  -2   5 15.0758 19.6167   3
  -2   2  -6-29.6706 42.0336   1
   2  -2   6 18.5592 24.2222   3
  -2   2  -6-18.2011 23.9379   3
  -2   2  -7 106.436 39.4283   3
   2  -2   7 59.4808 30.3054   3
  -2   2  -7 92.1133 53.6519   1
  -2   2  -8 2448.19 256.159   1
  -2   2  -9 531.548 122.610   1
  -2   2 -10 34.3573 66.9303   1
  -2   2 -11 272.914 93.5161   2
  -2   2 -11 29.9496 61.0663   1
  -2   2 -12 233.396 108.472   2
  -2   2 -12-12.8610 56.6748   1
  -2   2 -13 46.4217 60.0756   2
   2  -1 -10 165.517 89.7043   2
   2  -1  -9 101.827 96.5200   2
   2  -1  -8 640.342 146.711   2
   2  -1  -7 11.9814 70.7490   2
   2  -1  -6 3320.99 264.337   2
   2  -1  -5 145.647 83.1573   2
   2  -1  -4 6952.30 339.162   2
   2  -1  -3 7.94528 41.8448   2
  -2   1   2 5.77097 9.79541   1
   2  -1  -2 66.3120 38.1917   2
   2  -1  -1 20.4806 33.8060   2
  -2   1   1 58.9160 35.0808   2
  -2   1   0 2927.56 136.437   2
   2  -1   0 3064.41 150.168   2
   2  -1   1 1651.29 107.883   2
  -2   1  -1 1757.72 95.9580   2
  -2   1  -2-12.7883 30.3207   3
  -2   1  -2 17.2650 29.7123   2
   2  -1   3 570.782 63.3702   3
  -2   1  -3 568.897 59.3736   3
   2  -1   4 2557.33 140.196   3
  -2   1  -4 2365.31 119.073   3
  -2   1  -5 26104.0 709.535   1
   2  -1   5 25594.9 592.659   3
  -2   1  -5 26412.8 587.227   3
   2  -1   6 1582.06 114.720   3
  -2   1  -6 1708.44 171.414   1
  -2   1  -6 1772.24 122.927   3
  -2   1  -7-23.2973 37.6412   3
  -2   1  -7 18.0539 47.2554   1
  -2   1  -8 88.1048 55.8624   1
  -2   1  -9 4263.18 329.672   1
  -2   1  -9 4256.72 347.033   2
  -2   1 -10 43.1517 54.7885   1
  -2   1 -10 200.473 92.7440   2
  -2   1 -11 20.4400 53.1115   1
  -2   1 -11 81.5725 62.7694   2
  -2   1 -12-25.1322 55.5098   2
  -2   1 -13 1686.23 243.251   2
   2   0 -10 194.869 101.194   2
   2   0  -9 807.809 153.882   2
   2   0  -8 204.380 90.3405   2
   2   0  -7 1210.97 164.454   2
   2   0  -6 255.467 78.2283   2
   2   0  -5 332.345 82.3977   2
  -2   0   4 256.276 39.7125   1
   2   0  -4 329.467 94.5759   2
   2   0  -3 12322.3 407.767   2
  -2   0   3 11257.1 276.854   1
   2   0  -2 14610.3 424.888   2
  -2   0   2 17137.0 443.548   2
  -2   0   2 15462.4 344.230   1
  -2   0   1 7646.48 210.642   1
   2   0  -1 7027.89 229.413   2
  -2   0   1 7508.04 235.699   2
  -2   0   0 8167.31 213.779   2
   2   0   0 8242.56 220.642   2
  -2   0  -1 6095.51 217.899   3
   2   0   1 7050.25 175.871   2
  -2   0  -1 6286.87 159.918   2
  -2   0  -2 5556.94 170.729   2
  -2   0  -2 5783.95 200.578   3
   2   0   2 6162.62 208.183   3
   2   0   3 1502.35 101.281   3
  -2   0  -3 1241.91 90.1135   3
  -2   0  -4 23359.3 542.775   3
   2   0   4 23849.1 549.391   3
  -2   0  -5 28.2551 30.2076   3
   2   0   5 22.0819 29.2007   3
  -2   0  -6 93.8475 40.4551   3
  -2   0  -7 1998.15 177.912   1
  -2   0  -7 2041.61 166.196   3
  -2   0  -7 1952.24 192.552   2
  -2   0  -8 125.881 62.0984   2
  -2   0  -8 124.130 65.9052   1
  -2   0  -9 731.865 134.524   1
  -2   0  -9 630.846 130.298   2
  -2   0 -10 1077.44 166.759   1
  -2   0 -10 961.421 151.686   2
  -2   0 -11 761.905 150.849   2
  -2   0 -11 288.929 89.2214   1
  -2   0 -12 757.656 146.803   2
  -2   0 -13 1599.37 226.143   2
   2   1 -11 39.8968 81.2220   2
   2   1 -10 327.595 112.514   2
   2   1  -9 390.706 121.254   2
   2   1  -8 696.860 140.764   2
   2   1  -7 166.415 49.7512   1
   2   1  -7 169.509 85.9483   2
  -2  -1   6 1084.04 92.4643   1
   2   1  -6 950.468 98.6454   1
   2   1  -6 1084.91 147.621   2
  -2  -1   5 350.641 56.8100   1
   2   1  -5 209.896 73.6891   2
   2   1  -5 317.739 57.5316   1
   2   1  -4 544.829 66.2455   1
   2   1  -4 565.820 95.4707   2
  -2  -1   4 571.750 63.0312   1
   2   1  -3 6201.37 274.530   2
  -2  -1   3 6518.75 219.116   1
   2   1  -3 6624.95 226.927   1
   2   1  -2 23275.3 561.588   2
   2   1  -2 22970.3 512.602   1
  -2  -1   2 23883.1 512.875   1
   2   1  -1 3978.06 163.403   1
   2   1  -1 4006.86 165.852   2
  -2  -1   1 4834.89 179.314   1
  -2  -1   0 38533.2 784.984   3
   2   1   0 37990.7 691.256   2
  -2  -1   0 39573.3 764.571   1
   2   1   1 199786. 3396.65   3
  -2  -1  -1 211131. 3410.74   3
  -2  -1  -2 3973.00 167.961   3
  -2  -1  -2 3916.08 119.471   2
   2   1   2 4580.71 185.039   3
  -2  -1  -3 4566.26 195.627   3
  -2  -1  -3 4645.91 174.491   2
   2   1   3 5061.81 205.240   3
   2   1   4 1595.87 120.493   3
  -2  -1  -4 1452.19 111.453   2
  -2  -1  -4 1635.81 120.772   3
  -2  -1  -5 3133.52 189.460   3
  -2  -1  -5 3136.27 180.511   2
  -2  -1  -6 1836.69 160.360   2
  -2  -1  -6 2144.92 162.874   3
  -2  -1  -7 6464.15 324.619   3
  -2  -1  -7 5834.64 311.884   2
  -2  -1  -8 154.275 68.2797   1
  -2  -1  -8 289.208 81.6120   2
  -2  -1  -9 100.572 68.9616   1
  -2  -1  -9 134.794 61.7968   2
  -2  -1 -10 97.5653 59.7913   1
  -2  -1 -10 47.2722 59.4027   2
  -2  -1 -11 119.577 84.4593   2
  -2  -1 -12 676.157 146.170   2
  -2  -1 -13 94.5516 79.8860   2
   2   2 -11 264.424 122.318   2
   2   2 -10 94.5978 92.5944   2
   2   2  -9 169.794 87.7439   2
   2   2  -8 690.910 136.004   2
   2   2  -7 1094.88 122.662   1
   2   2  -7 1185.43 163.999   2
   2   2  -6 2790.17 244.913   2
   2   2  -6 2849.48 188.979   1
   2   2  -5 124.976 45.6537   1
   2   2  -5 139.672 62.4023   2
   2   2  -4 6691.06 273.794   1
   2   2  -3 1860.64 126.544   1
  -2  -2   3 1484.46 114.407   1
   2   2  -2 3066.30 168.484   1
  -2  -2   2 3543.00 171.447   1
  -2  -2   1 2302.09 126.911   3
   2   2  -1 2206.69 136.010   1
  -2  -2   1 2337.08 138.230   1
   2   2   0 539834. 8440.05   3
  -2  -2   0 525702. 8458.43   3
   2   2   0 544585. 8488.02   1
   2   2   1 16196.1 398.493   3
  -2  -2  -1 15771.1 324.525   2
  -2  -2  -1 15499.0 394.574   3
  -2  -2  -1 16302.5 420.207   1
   2   2   1 16083.5 422.663   1
   2   2   1 15909.7 310.619   2
  -2  -2  -2 786.035 81.0091   3
   2   2   2 746.756 53.9891   2
  -2  -2  -2 792.000 53.7067   2
   2   2   2 798.385 77.0166   3
  -2  -2  -2 782.174 82.3248   1
   2   2   3 857.972 89.9585   3
  -2  -2  -3 836.677 92.7178   3
   2   2   3 660.409 65.7520   2
  -2  -2  -3 800.009 67.3376   2
  -2  -2  -4 1665.28 136.090   3
   2   2   4 1911.61 134.978   2
  -2  -2  -4 1509.04 118.814   2
  -2  -2  -5 367.929 75.6937   3
  -2  -2  -5 475.931 77.1244   2
  -2  -2  -6 546.738 99.1599   3
  -2  -2  -6 718.963 99.2812   2
  -2  -2  -7 621.010 100.710   3
  -2  -2  -7 631.536 104.832   2
  -2  -2  -8 573.468 119.200   2
  -2  -2  -9 16.8408 31.2106   1
  -2  -2  -9 31.6287 49.6349   2
  -2  -2 -10 43.6055 48.4893   2
  -2  -2 -11-55.0132 71.0135   2
  -2  -2 -12 43.8721 70.2096   2
   2   3 -11 460.701 147.292   2
   2   3 -10 103.127 78.1885   2
   2   3  -9 229.560 118.901   2
   2   3  -8 315.479 105.364   2
   2   3  -8 297.924 79.4670   1
   2   3  -7 921.199 126.195   1
   2   3  -7 982.452 173.258   2
   2   3  -6 1953.23 175.097   1
   2   3  -5 838.692 105.734   1
   2   3  -4 11.1363 37.3690   1
   2   3  -3 1439.03 121.041   1
  -2  -3   2 637.571 70.6679   3
   2   3  -2 607.367 74.0074   1
   2   3  -1 1083.06 84.0309   3
  -2  -3   1 869.628 82.5899   3
   2   3  -1 886.359 96.7125   1
  -2  -3   0 959.204 84.5883   3
   2   3   0 1080.49 83.3277   3
   2   3   0 1100.50 101.335   1
  -2  -3   0 950.257 99.8176   1
   2   3   0 974.435 75.7452   2
   2   3   1 14639.6 386.571   3
  -2  -3  -1 14006.1 387.409   3
   2   3   1 14067.9 345.269   2
   2   3   1 13886.7 408.600   1
  -2  -3  -1 15556.8 428.915   1
  -2  -3  -1 14447.9 349.678   2
  -2  -3  -2 34582.6 694.141   2
  -2  -3  -2 34147.5 766.845   3
   2   3   2 34535.3 754.514   3
   2   3   2 34240.5 767.191   1
   2   3   2 34584.4 692.368   2
  -2  -3  -2 35475.5 765.444   1
  -2  -3  -3 26066.1 624.238   1
  -2  -3  -3 26534.2 667.087   3
   2   3   3 27234.8 600.261   2
  -2  -3  -3 26223.1 596.860   2
  -2  -3  -4 2224.47 166.665   3
  -2  -3  -4 1733.70 121.640   1
  -2  -3  -4 2087.97 144.169   2
  -2  -3  -5 68.7123 42.1654   3
  -2  -3  -5 22.3730 47.3051   2
  -2  -3  -6 1844.20 163.906   2
  -2  -3  -6 1520.97 162.608   3
  -2  -3  -7 29.1459 52.4874   3
  -2  -3  -7 128.567 73.6525   2
  -2  -3  -8 2075.22 203.076   2
  -2  -3  -9 233.595 85.2528   2
  -2  -3 -10 5.27197 53.6090   2
  -2  -3 -11 184.878 89.8024   2
  -2  -3 -12 1201.53 188.511   2
   2   4 -11 137.558 104.549   2
   2   4 -10 629.148 164.630   2
   2   4  -9 163.434 76.0107   1
   2   4  -9 159.510 88.8767   2
   2   4  -8 1845.43 199.466   1
   2   4  -7 352.479 84.5656   1
   2   4  -6 111.066 57.9629   1
   2   4  -5 353.641 89.6934   1
   2   4  -4 18768.6 607.911   1
  -2  -4   4 19097.4 490.056   3
   2   4  -3 5110.20 271.286   1
  -2  -4   3 5008.30 213.450   3
  -2  -4   2 303.605 53.5432   3
   2   4  -2 333.951 70.0722   1
   2   4  -1 1634.80 104.198   3
  -2  -4   1 1641.54 113.962   3
   2   4  -1 1411.38 127.863   1
   2   4   0 1464.48 100.941   3
   2   4   0 1394.22 130.383   1
   2   4   0 1397.81 105.142   2
  -2  -4   0 1476.43 110.794   3
   2   4   1 590.081 70.3546   2
  -2  -4  -1 542.349 77.7276   3
   2   4   1 609.850 70.2932   3
   2   4   1 531.724 76.9892   1
  -2  -4  -1 505.068 67.8673   2
   2   4   2 1155.79 97.1979   2
   2   4   2 1030.74 104.967   1
  -2  -4  -2 1006.55 96.5680   2
  -2  -4  -2 1097.52 112.792   3
  -2  -4  -3 8501.73 346.523   3
  -2  -4  -3 8591.27 316.125   2
  -2  -4  -4-4.88056 41.3548   3
  -2  -4  -4 19.6492 35.4757   2
  -2  -4  -5 7013.89 325.364   2
  -2  -4  -5 7524.51 379.320   3
  -2  -4  -6 41.5376 51.5271   3
  -2  -4  -6 1.70848 45.7219   2
  -2  -4  -7 2088.15 204.169   2
  -2  -4  -8 471.936 112.539   2
  -2  -4  -9 1475.71 193.483   2
  -2  -4 -10 199.943 90.0924   2
  -2  -4 -11 1185.59 198.875   2
  -2  -4 -12 39.0270 73.9296   2
   2   5 -10 339.223 128.114   2
   2   5  -9 1242.44 175.401   1
   2   5  -8 50.0375 48.4081   1
   2   5  -7 393.064 95.7701   1
  -2  -5   6 846.821 86.9528   3
   2   5  -6 813.893 138.889   1
  -2  -5   5 2113.22 133.372   3
   2   5  -5 2102.27 199.716   1
  -2  -5   4 50.9136 32.0180   3
   2   5  -4 74.2067 46.0502   1
  -2  -5   3 403.864 57.4447   3
   2   5  -3 234.910 75.6423   1
  -2  -5   2 1132.18 90.6732   3
   2   5  -2 925.264 120.464   1
   2   5  -1 6227.04 226.643   3
   2   5  -1 5815.14 294.694   1
  -2  -5   1 5875.77 233.519   3
  -2  -5   0 2010.58 143.164   3
   2   5   0 1982.05 125.474   3
   2   5   0 1898.68 163.352   1
  -2  -5  -1 179.673 53.9483   3
   2   5   1 180.841 56.8929   1
  -2  -5  -1 126.477 50.3965   2
  -2  -5  -2 4228.06 237.000   3
   2   5   2 4080.46 229.560   1
  -2  -5  -2 4235.50 230.007   2
  -2  -5  -3 51.4955 57.2837   3
  -2  -5  -3 31.4789 39.1759   2
   2   5   3-1.37616 27.5050   1
  -2  -5  -4 624.994 102.950   2
  -2  -5  -4 512.118 96.6838   3
  -2  -5  -5 214.764 76.7530   2
  -2  -5  -5 102.984 57.6437   3
  -2  -5  -6 3032.55 263.368   3
  -2  -5  -6 2917.35 232.889   2
  -2  -5  -7 781.260 130.894   2
  -2  -5  -8 338.371 101.161   2
  -2  -5  -9 618.516 142.782   2
  -2  -5 -10-2.85565 59.4555   2
  -2  -5 -11 490.790 137.512   2
   2   6 -10 174.918 96.5385   1
   2   6  -9 620.569 139.308   1
   2   6  -8 1853.08 230.916   1
   2   6  -7 609.154 128.507   1
   2   6  -6 202.529 74.0384   1
  -2  -6   5 58.7090 24.1118   3
   2   6  -5 63.3128 51.2425   1
   2   6  -4 3018.77 247.100   1
  -2  -6   4 2713.97 130.787   3
  -2  -6   3 369.005 49.6854   3
   2   6  -3 350.388 81.8261   1
   2   6  -2 545.950 61.6130   3
   2   6  -2 518.674 94.7097   1
  -2  -6   2 506.186 67.5755   3
  -2  -6   1 16569.3 455.719   3
   2   6  -1 15903.0 422.824   3
   2   6  -1 16408.3 559.864   1
   2   6   0 2602.41 204.947   1
  -2  -6   0 2583.47 194.219   2
  -2  -6   0 2823.74 183.096   3
   2   6   1 2798.85 207.628   1
  -2  -6  -1 2492.29 189.777   2
  -2  -6  -1 2365.05 182.259   3
   2   6   2 776.723 106.711   1
  -2  -6  -2 808.271 111.777   2
  -2  -6  -2 841.411 117.198   3
  -2  -6  -3 126.281 58.7754   3
   2   6   3 137.423 48.2534   1
  -2  -6  -3 149.095 61.9438   2
  -2  -6  -4 1195.74 150.079   3
   2   6   4 1138.54 124.088   1
  -2  -6  -4 1344.05 162.056   2
  -2  -6  -5 1300.42 155.305   2
  -2  -6  -5 1083.24 161.812   3
  -2  -6  -6 79.5857 63.5530   2
  -2  -6  -7 147.016 63.3248   2
  -2  -6  -8 1915.94 227.466   2
  -2  -6  -9 754.885 150.490   2
  -2  -6 -10-26.0648 81.6807   2
  -2  -6 -11-98.9209 98.9888   2
   2   7 -10 28.0982 83.9031   1
   2   7  -9 160.069 72.8240   1
   2   7  -8 3455.87 332.075   1
   2   7  -7 2576.43 275.042   1
   2   7  -6 665.891 130.240   1
   2   7  -5 466.414 115.560   1
   2   7  -4 1027.51 154.335   1
  -2  -7   3 40.6554 26.3619   3
   2   7  -3-73.9175 64.9028   1
  -2  -7   2 289.955 50.1044   3
   2   7  -2 298.143 76.1324   1
  -2  -7   1 481.422 80.6782   3
   2   7  -1 499.983 97.2818   1
  -2  -7   0 292.086 79.1860   3
   2   7   0 366.082 89.4099   1
  -2  -7  -1 617.575 101.715   3
  -2  -7  -1 588.581 108.164   2
   2   7   1 742.671 119.010   1
   2   7   2 2987.07 221.922   1
  -2  -7  -2 3048.92 242.419   2
  -2  -7  -2 2770.11 227.738   3
   2   7   3 2206.60 183.682   1
  -2  -7  -3 2424.32 223.296   2
  -2  -7  -3 2137.95 209.873   3
   2   7   4 1201.19 135.343   1
  -2  -7  -4 1157.15 159.505   2
  -2  -7  -5 2729.01 246.616   2
  -2  -7  -6 245.750 93.7995   2
  -2  -7  -7 357.022 105.254   2
  -2  -7  -8 553.451 129.391   2
  -2  -7  -9 198.644 101.547   2
  -2  -7 -10 268.459 143.707   2
   2   8  -9 99.7531 80.0135   1
   2   8  -8 227.668 103.411   1
   2   8  -7 625.831 142.439   1
   2   8  -6 533.665 127.675   1
   2   8  -5 13565.3 631.128   1
   2   8  -4 5510.45 383.158   1
   2   8  -3 1524.03 190.606   1
   2   8  -2 463.657 110.914   1
  -2  -8   1 375.605 71.7359   3
   2   8  -1 527.283 105.823   1
   2   8   0 236.596 94.2147   1
  -2  -8   0 175.442 58.9726   3
  -2  -8  -1 550.383 108.143   2
   2   8   1 665.929 134.057   1
   2   8   2 5343.23 322.893   1
  -2  -8  -2 5455.86 351.151   2
  -2  -8  -3 4370.42 322.181   2
   2   8   3 4565.94 281.720   1
  -2  -8  -4 128.420 81.1209   2
   2   8   4 14.9570 33.5062   1
  -2  -8  -5-152.895 78.8311   2
  -2  -8  -6 392.213 111.912   2
  -2  -8  -7 399.855 125.922   2
  -2  -8  -8 172.129 107.724   2
  -2  -8  -9 108.139 86.6821   2
   2   9  -8 7.05962 73.9219   1
   2   9  -7 710.316 165.833   1
   2   9  -6 419.531 134.389   1
   2   9  -5 1130.60 191.958   1
   2   9  -4 70.1387 52.3568   1
   2   9  -3 720.278 145.722   1
   2   9  -2 1590.31 207.675   1
   2   9  -1 1133.86 173.516   1
   2   9   0 57.9890 63.9665   1
   2   9   1 2411.55 244.256   1
  -2  -9  -1 2121.74 229.565   2
   2   9   2 70.7006 47.9523   1
  -2  -9  -2 239.210 100.869   2
   2   9   3 226.842 77.8426   1
  -2  -9  -3 109.297 85.8995   2
  -2  -9  -4 508.283 131.688   2
   2   9   4 538.180 106.200   1
  -2  -9  -5 38.1480 68.3601   2
  -2  -9  -6 810.147 165.599   2
  -2  -9  -7 56.7616 74.3173   2
  -2  -9  -8 421.795 138.796   2
   2  10  -6 382.770 127.095   1
   2  10  -5 1071.11 191.808   1
   2  10  -4 392.559 123.996   1
   2  10  -3 689.275 148.687   1
   2  10  -2 3640.43 322.501   1
   2  10  -1 589.617 133.137   1
   2  10   0 360.264 111.191   1
   2  10   1-21.0917 49.8480   1
  -2 -10  -1 115.289 84.6187   2
  -2 -10  -2 67.4548 66.8524   2
   2  10   2 38.3245 44.0823   1
   2  10   3 543.221 115.265   1
  -2 -10  -3 441.980 141.557   2
  -2 -10  -4-16.0821 83.0031   2
  -2 -10  -5 622.487 161.676   2
  -2 -10  -6 492.936 155.086   2
   2  11  -4-84.1699 63.4282   1
   2  11  -3 213.088 100.026   1
   2  11  -2 431.279 137.633   1
   2  11  -1 9.94282 77.1221   1
   2  11   0 546.782 148.611   1
   2  11   1 780.167 163.484   1
   2  11   2 54.5523 57.8033   1
  -2 -11  -2 123.776 97.6443   2
  -2 -11  -3-52.3557 63.9832   2
  -2 -11  -4 37.9063 95.4492   2
   2  12  -1 46.0560 75.5380   1
   2  12   0 615.734 147.102   1
   2  12   1 243.745 108.311   1
  -3   9  -3 112.470 82.6445   1
  -3   9  -4 89.2803 72.7084   1
  -3   9  -5 1673.85 236.950   1
   3  -8  -2 1586.34 257.287   2
   3  -8  -1 1246.29 228.365   2
   3  -8   0 182.161 126.920   2
   3  -8   1 67.2444 80.7232   2
  -3   8  -2 33.5130 62.5491   1
  -3   8  -3 143.098 93.7893   1
  -3   8  -4 223.544 98.2321   1
  -3   8  -5 241.648 95.9767   1
  -3   8  -6 111.230 81.5595   1
  -3   8  -7 331.470 124.149   1
   3  -7  -4 436.340 127.723   2
   3  -7  -3 1335.62 217.584   2
   3  -7  -2 404.284 131.313   2
   3  -7  -1 736.294 164.753   2
   3  -7   0 179.051 94.9326   2
  -3   7  -1 452.837 123.581   1
   3  -7   1 167.451 87.6146   2
   3  -7   2 197.812 88.6439   2
  -3   7  -2 243.108 98.9093   1
  -3   7  -3 187.676 96.1409   1
  -3   7  -4-90.4025 48.3319   1
  -3   7  -5 66.1990 54.2200   1
  -3   7  -6 43.1999 76.5176   1
  -3   7  -7 682.712 139.804   1
  -3   7  -8 50.8691 94.5663   1
  -3   7  -9 219.260 107.850   1
   3  -6  -5 860.704 184.520   2
   3  -6  -4 228.035 111.952   2
   3  -6  -3 40.3897 83.4324   2
   3  -6  -2-48.9790 65.9590   2
   3  -6  -1 303.967 122.877   2
  -3   6   0 218.177 93.6819   1
   3  -6   0-34.6349 63.2615   2
  -3   6  -1 745.342 135.720   1
   3  -6   1 462.325 126.610   2
   3  -6   2 1076.90 178.050   2
  -3   6  -2 762.633 145.171   1
  -3   6  -3 446.511 74.7273   3
  -3   6  -3 520.008 118.359   1
  -3   6  -4 105.434 67.9886   1
  -3   6  -5 379.625 106.104   1
  -3   6  -6-11.3213 54.4488   1
  -3   6  -7 179.950 78.2736   1
  -3   6  -8 255.061 91.1169   1
  -3   6  -9 545.680 142.585   1
  -3   6 -10 763.515 183.959   1
   3  -5  -7 412.932 135.050   2
   3  -5  -6 1274.40 203.513   2
   3  -5  -5 3987.85 359.300   2
   3  -5  -4 645.208 150.012   2
   3  -5  -3-39.1852 61.4000   2
   3  -5  -2 769.611 145.500   2
  -3   5   1 69.0012 36.1633   1
   3  -5  -1 246.584 102.902   2
   3  -5   0 370.844 102.032   2
  -3   5   0 537.275 99.8532   1
   3  -5   1 146.153 83.2423   2
  -3   5  -1 96.0131 40.6451   1
   3  -5   2 1403.21 173.307   2
  -3   5  -2 865.707 133.134   1
  -3   5  -3 153.841 64.6134   1
  -3   5  -3 202.138 50.0233   3
  -3   5  -4 5679.94 273.130   3
  -3   5  -4 5080.17 340.206   1
  -3   5  -5 311.784 108.230   1
  -3   5  -6-97.5743 88.1268   1
  -3   5  -7 201.833 87.1767   1
  -3   5  -8 6.53151 72.9558   1
  -3   5  -9 564.045 146.470   1
  -3   5 -10 775.471 178.406   1
  -3   5 -11 62.1782 70.0818   1
   3  -4  -7 30.9915 73.7759   2
   3  -4  -6 166.539 105.102   2
   3  -4  -5-80.7514 88.7804   2
   3  -4  -4 473.069 117.430   2
   3  -4  -3 162.571 89.7642   2
   3  -4  -2 29418.6 892.876   2
  -3   4   2 27405.8 697.886   1
   3  -4  -1 1722.18 189.269   2
  -3   4   1 1822.62 161.732   1
   3  -4   0 689.454 127.708   2
  -3   4   0 559.044 94.2425   1
   3  -4   1 251.309 88.5991   2
  -3   4  -1 202.486 48.6170   1
  -3   4  -2 135.318 70.3060   1
   3  -4   2 126.292 75.6770   2
  -3   4  -3 3619.07 266.865   1
  -3   4  -3 3615.31 211.416   3
  -3   4  -4 737.456 92.6123   3
  -3   4  -4 650.708 123.476   1
  -3   4  -5 110.216 34.7590   3
  -3   4  -5 134.805 80.4112   1
  -3   4  -6 8881.77 253.095   3
  -3   4  -6 9050.40 491.475   1
  -3   4  -7 8.51185 68.5050   1
  -3   4  -8 137.980 81.9391   1
  -3   4  -9 53.9611 80.1672   1
  -3   4 -10 617.090 166.951   1
  -3   4 -11 130.650 72.0632   1
  -3   4 -12 760.730 177.759   1
   3  -3  -8 105.406 78.3756   2
   3  -3  -7 361.090 125.376   2
   3  -3  -6 163.964 91.6349   2
   3  -3  -5-7.28862 69.9193   2
   3  -3  -4-43.1794 53.9470   2
   3  -3  -3 11062.8 481.300   2
   3  -3  -2 13103.0 503.942   2
  -3   3   2 12171.8 372.277   1
   3  -3  -1 3322.06 243.364   2
  -3   3   1 3603.72 199.769   1
  -3   3   0 9871.11 369.351   1
   3  -3   0 9874.02 421.534   2
  -3   3  -1 1887.74 160.021   1
   3  -3   1 2050.12 174.040   2
  -3   3  -2 604.096 101.968   1
   3  -3   2 610.426 108.477   2
  -3   3  -3 550.311 109.347   1
  -3   3  -3 508.434 85.6839   3
  -3   3  -4 532.535 104.849   1
  -3   3  -4 674.642 85.2629   3
  -3   3  -5 2365.60 231.040   1
  -3   3  -5 2224.78 129.159   3
  -3   3  -6 5962.28 212.947   3
  -3   3  -6 6021.91 377.560   1
  -3   3  -7 26.8077 26.4478   3
  -3   3  -7 97.5677 69.0614   1
  -3   3  -8 3.53826 30.9258   3
  -3   3  -8-55.7988 64.9533   1
  -3   3  -9 801.172 163.883   1
  -3   3 -10 12.2630 65.5725   1
  -3   3 -11 159.480 72.9002   1
  -3   3 -12 330.188 124.200   1
  -3   3 -13 1321.93 243.619   1
   3  -2  -9 0.24147 69.2380   2
   3  -2  -8 113.021 86.3760   2
   3  -2  -7-81.5715 70.6396   2
   3  -2  -6 1864.05 227.454   2
   3  -2  -5 1573.32 191.898   2
   3  -2  -4 721.540 124.615   2
  -3   2   3 23.1107 10.1614   1
   3  -2  -3-5.82978 48.2224   2
  -3   2   3-3.59467 5.21576   1
   3  -2  -2 963.098 133.178   2
  -3   2   2 939.650 77.1476   1
  -3   2   1 5706.53 217.808   1
   3  -2  -1 5574.44 289.448   2
  -3   2   0 351.306 61.1952   1
   3  -2   0 267.511 62.4521   2
   3  -2   1 10967.3 379.928   2
  -3   2  -2 7782.50 327.635   3
   3  -2   2 7782.20 316.559   2
  -3   2  -3 4175.51 232.036   3
  -3   2  -3 4028.61 250.415   1
  -3   2  -4 472.874 73.8915   3
  -3   2  -4 458.478 98.2584   1
  -3   2  -5 317.740 54.8560   3
  -3   2  -5 253.667 78.0212   1
  -3   2  -6 2478.97 232.071   1
   3  -2   6 2057.72 139.792   3
  -3   2  -6 2600.35 143.948   3
  -3   2  -7 1808.31 207.936   1
  -3   2  -7 1981.09 133.939   3
  -3   2  -8 867.297 159.178   1
  -3   2  -8 961.578 102.564   3
  -3   2  -9 2750.59 291.390   1
  -3   2  -9 3057.91 204.530   3
  -3   2 -10 33.8746 66.0466   1
  -3   2 -11 40.9835 88.5592   1
  -3   2 -12 23.4999 57.0814   1
  -3   2 -12 150.388 92.8154   2
  -3   2 -13 363.702 124.348   2
  -3   2 -13 218.351 99.7786   1
   3  -1  -9 146.238 90.0095   2
   3  -1  -8 123.123 85.2431   2
   3  -1  -7 2188.05 238.565   2
   3  -1  -6 5383.26 361.049   2
   3  -1  -5 101.749 61.8368   2
   3  -1  -4 720.204 131.438   2
   3  -1  -3-16.8946 60.8616   2
  -3   1   3 15.5370 8.76270   1
   3  -1  -2 150.352 51.8560   2
  -3   1   2 139.204 28.2971   1
   3  -1  -1 62.8011 32.2424   2
   3  -1   0 6134.11 252.506   2
  -3   1  -1 1989.04 114.489   2
   3  -1   1 2193.87 136.890   2
  -3   1  -2 598.006 82.7334   3
  -3   1  -2 587.795 64.4452   2
   3  -1   2 664.790 80.3510   2
  -3   1  -3 2325.42 162.047   3
  -3   1  -3 2586.89 152.870   2
  -3   1  -4 3955.71 193.898   3
   3  -1   4 4174.25 209.018   3
  -3   1  -5 619.077 70.0060   3
  -3   1  -6 2503.11 157.855   3
  -3   1  -7 675.145 85.7570   3
  -3   1  -7 715.213 142.469   1
  -3   1  -8-35.9097 46.6993   1
  -3   1  -8 38.7293 42.8514   3
  -3   1  -9 707.631 147.436   1
  -3   1  -9 594.980 97.1792   3
  -3   1 -10 600.330 123.835   2
  -3   1 -10 456.467 135.409   1
  -3   1 -11 858.693 165.021   1
  -3   1 -11 868.254 153.444   2
  -3   1 -12 204.682 89.0857   1
  -3   1 -12 380.643 113.702   2
  -3   1 -13 22.5173 62.5862   2
   3   0 -10 524.033 155.159   2
   3   0  -9 136.871 107.505   2
   3   0  -8 275.051 102.403   2
   3   0  -7 749.756 148.304   2
   3   0  -6 216.109 82.7969   2
   3   0  -5 64.0352 46.3447   2
  -3   0   4 81.5647 22.3695   1
   3   0  -4 178.675 55.7737   2
   3   0  -3 15407.6 496.077   2
  -3   0   3 13618.7 342.509   1
  -3   0   2 609.443 58.9739   1
   3   0  -2 662.647 88.2701   2
   3   0  -1 44.9984 29.5482   2
  -3   0   1 66.0331 32.7842   1
  -3   0   1 10.6481 27.4779   2
  -3   0   0 704.875 64.8774   2
   3   0   0 705.509 68.2832   2
   3   0   1 128.988 31.4751   2
  -3   0  -1 146.881 30.7092   2
  -3   0  -1 123.687 45.0714   3
  -3   0  -2 35.2179 40.9570   3
  -3   0  -2 22.5133 14.9891   2
  -3   0  -3 2229.47 142.640   3
  -3   0  -3 2446.60 127.774   2
  -3   0  -4 176.273 46.0190   3
  -3   0  -5 314.989 60.2067   3
  -3   0  -6 5364.27 249.821   3
  -3   0  -7 102.446 49.6057   3
  -3   0  -8-23.1202 34.5232   3
  -3   0  -8 1.71278 58.9182   2
  -3   0  -8 23.5050 50.4097   1
  -3   0  -9 802.427 158.492   1
  -3   0  -9 1015.93 135.844   3
  -3   0  -9 1195.12 153.146   2
  -3   0 -10-17.8009 62.6640   1
  -3   0 -10-2.13948 57.2882   2
  -3   0 -11 345.147 100.660   2
  -3   0 -11 379.015 118.864   1
  -3   0 -12 1463.30 225.940   1
  -3   0 -12 2190.39 247.737   2
  -3   0 -13 228.421 93.4537   2
   3   1 -10 3018.90 330.300   2
   3   1  -9-51.3002 65.2391   2
   3   1  -8 35.6809 71.5574   2
   3   1  -7 19.2992 54.9378   2
   3   1  -6 1569.85 188.555   2
   3   1  -5 1962.55 194.087   2
  -3  -1   5 2574.42 144.240   1
   3   1  -4 4461.91 266.717   2
  -3  -1   4 4246.54 184.598   1
   3   1  -3 16391.4 507.835   2
  -3  -1   3 15837.1 415.639   1
   3   1  -2 4111.48 208.687   2
  -3  -1   2 4464.54 196.671   1
   3   1  -1 2451.23 133.338   2
  -3  -1   1 2698.50 148.104   1
   3   1   0 1230.64 75.8804   2
  -3  -1   0 1340.23 125.430   3
  -3  -1   0 1452.86 107.635   1
  -3  -1  -1 12630.1 386.653   3
   3   1   1 11227.6 232.023   2
  -3  -1  -1 11099.6 237.740   2
  -3  -1  -2 6708.77 263.328   3
  -3  -1  -3 56.7358 35.9287   3
  -3  -1  -4 83.8407 35.8031   3
  -3  -1  -5 19804.6 573.798   2
  -3  -1  -5 22721.6 581.880   3
  -3  -1  -6 923.245 110.729   3
  -3  -1  -6 1027.56 108.727   2
  -3  -1  -7 960.583 123.933   2
  -3  -1  -7 1038.11 121.825   3
  -3  -1  -8 1046.86 136.575   2
  -3  -1  -8 1288.76 150.852   3
  -3  -1  -9 707.933 121.473   3
  -3  -1  -9 624.630 110.814   2
  -3  -1 -10 81.7339 72.9959   1
  -3  -1 -10 75.6750 69.0156   2
  -3  -1 -11 134.564 86.7290   1
  -3  -1 -11 31.4863 52.3810   2
  -3  -1 -12-143.100 78.6782   2
  -3  -1 -13 237.183 88.4321   2
   3   2 -10-93.1106 82.3480   2
   3   2  -9 1259.07 203.974   2
   3   2  -8 61.2390 80.1824   2
   3   2  -7 11337.5 546.141   2
   3   2  -6 1011.58 115.780   1
   3   2  -6 997.915 147.997   2
   3   2  -5 72.5098 46.7180   1
   3   2  -5-24.9960 56.7533   2
   3   2  -4 245.647 58.9878   1
   3   2  -4 219.400 69.8764   2
   3   2  -3 2102.42 144.953   1
   3   2  -3 2008.70 167.790   2
   3   2  -2 632.131 80.7192   1
   3   2  -2 562.725 78.7641   2
   3   2  -1 443.666 69.1627   1
  -3  -2   1 517.527 83.7509   3
   3   2  -1 517.434 65.9864   2
  -3  -2   0 3801.75 204.152   3
   3   2   0 3684.31 150.421   2
  -3  -2  -1 254.298 64.6258   3
  -3  -2  -2 1065.81 100.114   3
  -3  -2  -3 1499.66 124.186   3
  -3  -2  -3 1728.78 75.5779   2
  -3  -2  -4 133.709 53.7686   3
  -3  -2  -4 176.007 38.9456   2
  -3  -2  -5 1441.79 121.189   2
  -3  -2  -5 1504.86 146.165   3
  -3  -2  -6 4758.84 237.017   2
  -3  -2  -6 4464.37 260.598   3
  -3  -2  -7 1004.05 116.572   2
  -3  -2  -7 1120.86 140.911   3
  -3  -2  -8 37888.0 974.778   2
  -3  -2  -8 37567.5 1007.96   3
  -3  -2  -9 7486.81 383.343   2
  -3  -2  -9 6901.85 384.412   3
  -3  -2 -10 1185.65 164.966   1
  -3  -2 -10 1450.86 193.516   2
  -3  -2 -11 162.897 81.6753   2
  -3  -2 -12 288.388 96.0246   2
  -3  -2 -13 1057.13 179.973   2
   3   3 -10 242.012 98.7351   2
   3   3  -9 3171.34 313.827   2
   3   3  -8 10200.9 551.522   2
   3   3  -7 25600.7 890.090   2
   3   3  -7 27122.8 781.958   1
   3   3  -6 41.7138 57.0888   1
   3   3  -6-33.3007 60.9942   2
   3   3  -5 982.050 131.196   1
   3   3  -5 1181.58 163.333   2
   3   3  -4 847.198 118.880   1
   3   3  -3 77.3391 44.6484   1
   3   3  -2 70.0516 34.9439   1
  -3  -3   2 213.487 60.2653   3
   3   3  -1 336.938 63.2818   1
  -3  -3   1 443.551 72.1684   3
   3   3   0 68.7355 47.2908   1
  -3  -3   0 61.7219 31.9703   3
  -3  -3  -1 1904.20 140.080   3
   3   3   1 1875.94 151.771   1
   3   3   1 2227.86 95.3211   2
   3   3   2 281.644 35.5153   2
  -3  -3  -2 289.947 60.6712   3
  -3  -3  -2 288.895 33.5771   2
   3   3   3 753.761 66.3992   2
  -3  -3  -3 830.961 100.594   3
  -3  -3  -3 910.254 65.5776   2
  -3  -3  -4 958.157 117.028   3
   3   3   4 837.468 83.8767   2
  -3  -3  -4 978.390 82.9746   2
  -3  -3  -5-4.84913 42.0000   3
  -3  -3  -5 11.1533 27.0757   2
  -3  -3  -6-74.0042 48.7325   3
  -3  -3  -6 17.5533 36.5998   2
  -3  -3  -7 3217.52 223.836   2
  -3  -3  -7 2692.84 224.822   3
  -3  -3  -8 22237.9 704.112   2
  -3  -3  -8 20518.9 726.322   3
  -3  -3  -9 499.226 110.763   3
  -3  -3  -9 737.250 126.642   2
  -3  -3 -10 2316.62 239.696   2
  -3  -3 -11 173.998 74.8167   2
  -3  -3 -12-216.724 91.5694   2
  -3  -3 -13 108.657 99.0235   2
   3   4 -10-174.680 94.6075   2
   3   4  -9 105.771 69.7765   2
   3   4  -8 3794.20 332.900   2
   3   4  -8 3737.35 276.609   1
   3   4  -7 2481.23 263.962   2
   3   4  -7 2596.26 219.694   1
   3   4  -6 1534.82 169.011   1
   3   4  -5 108.178 69.7595   1
  -3  -4   5 82.1260 58.2571   3
  -3  -4   4 6574.29 311.119   3
   3   4  -4 6520.48 328.122   1
  -3  -4   3 1572.97 139.825   3
   3   4  -3 1612.42 154.067   1
  -3  -4   2 1276.76 119.102   3
   3   4  -2 1293.85 133.322   1
  -3  -4   1 1217.29 113.576   3
   3   4  -1 1211.25 125.524   1
   3   4   0 569.111 79.1188   1
  -3  -4   0 652.782 87.2940   3
   3   4   0 666.721 67.7767   2
   3   4   1 122.736 46.5206   1
   3   4   1 176.116 36.4152   2
  -3  -4  -1 125.659 46.7665   3
   3   4   2 544.571 94.9036   1
  -3  -4  -2 669.924 97.9912   3
   3   4   2 615.405 62.6054   2
  -3  -4  -2 646.125 66.2399   2
   3   4   3 2218.71 132.577   2
  -3  -4  -3 2422.42 135.884   2
  -3  -4  -3 2309.03 179.887   3
  -3  -4  -4 9923.84 408.321   3
  -3  -4  -4 10347.4 337.159   2
  -3  -4  -5 4724.47 282.001   3
  -3  -4  -5 4680.49 235.467   2
  -3  -4  -6 2707.75 196.034   2
  -3  -4  -6 2949.35 233.042   3
  -3  -4  -7 420.815 96.4097   2
  -3  -4  -7 433.803 105.111   3
  -3  -4  -8 92.5984 63.9225   2
  -3  -4  -8 9.23214 54.1699   3
  -3  -4  -9 12.2546 62.2368   3
  -3  -4  -9 238.577 85.4467   2
  -3  -4 -10-67.9261 73.1001   2
  -3  -4 -11 5019.17 372.828   2
  -3  -4 -12 52.5318 111.458   2
   3   5 -10 653.930 154.873   2
   3   5  -9 196.903 105.180   2
   3   5  -8 388.227 88.6737   1
  -3  -5   7 475.111 92.2586   3
   3   5  -7 534.700 114.648   1
  -3  -5   6 637.098 102.052   3
   3   5  -6 671.761 127.731   1
  -3  -5   5 6961.55 314.692   3
   3   5  -5 6223.89 366.794   1
  -3  -5   4 201.706 54.9067   3
   3   5  -4 161.916 70.8275   1
  -3  -5   3 863.067 101.941   3
   3   5  -3 813.140 121.846   1
  -3  -5   2 25.2078 39.8909   3
   3   5  -2 156.775 74.9114   1
   3   5  -1 2444.53 193.368   1
  -3  -5   1 2261.81 164.989   3
  -3  -5   0 897.576 102.893   3
   3   5   0 869.081 114.378   1
  -3  -5  -1 186.950 53.3954   3
   3   5   1 234.508 65.0053   1
   3   5   2 1413.91 139.338   1
  -3  -5  -2 1217.20 111.586   2
  -3  -5  -2 1528.90 150.535   3
  -3  -5  -3 3693.05 242.899   3
  -3  -5  -3 3660.14 202.143   2
  -3  -5  -4 10603.3 379.953   2
  -3  -5  -4 9790.60 429.422   3
  -3  -5  -5 42.6953 48.0935   2
  -3  -5  -5-3.88293 45.1162   3
  -3  -5  -6 271.701 72.4327   2
  -3  -5  -6 336.761 93.0674   3
  -3  -5  -7 58.9027 49.4379   3
  -3  -5  -7 39.5543 45.1284   2
  -3  -5  -8 120.074 68.8405   2
  -3  -5  -8-34.7669 58.4129   3
  -3  -5  -9 48.6233 71.7404   2
  -3  -5 -10 518.926 113.424   2
  -3  -5 -11 424.251 128.722   2
  -3  -5 -12 111.571 78.1430   2
   3   6  -9 194.273 91.7946   1
   3   6  -8 681.023 136.871   1
   3   6  -7-78.9374 67.0988   1
   3   6  -6 555.938 108.685   1
  -3  -6   5 339.038 63.2658   3
   3   6  -5 362.331 103.777   1
  -3  -6   4-22.5691 32.2647   3
   3   6  -4 19.7791 51.4287   1
  -3  -6   3 2394.67 167.068   3
   3   6  -3 2613.21 225.859   1
  -3  -6   2 857.217 104.059   3
   3   6  -2 1038.91 140.343   1
  -3  -6   1 41.4802 37.0069   3
   3   6  -1 58.1471 39.4120   1
  -3  -6   0 27.2036 45.3563   3
   3   6   0 40.3733 50.5578   1
  -3  -6  -1 173.873 60.2020   3
   3   6   1 249.689 65.4825   1
  -3  -6  -1 169.649 51.6550   2
  -3  -6  -2 565.234 95.8654   3
   3   6   2 645.828 98.1656   1
  -3  -6  -2 602.204 92.9199   2
   3   6   3 1765.44 168.876   1
  -3  -6  -3 1693.27 154.619   2
  -3  -6  -3 1703.88 177.901   3
  -3  -6  -4 813.838 131.521   3
  -3  -6  -4 954.371 129.877   2
  -3  -6  -5 44.3846 46.1696   3
  -3  -6  -5 44.8178 41.6116   2
  -3  -6  -6-30.8294 52.4203   2
  -3  -6  -6-35.0147 79.0434   3
  -3  -6  -7 5962.10 346.231   2
  -3  -6  -7 5879.14 395.198   3
  -3  -6  -8 610.721 112.540   2
  -3  -6  -9 35.7338 61.2800   2
  -3  -6 -10-65.1408 80.8076   2
  -3  -6 -11 738.820 160.779   2
   3   7  -9 17.7229 64.8137   1
   3   7  -8 1178.59 189.610   1
   3   7  -7 1301.19 196.776   1
   3   7  -6 973.526 166.423   1
   3   7  -5 1440.36 188.678   1
   3   7  -4-18.4047 64.5457   1
  -3  -7   4 63.1668 24.2011   3
  -3  -7   3 598.831 80.3179   3
   3   7  -3 720.054 131.007   1
   3   7  -2 1248.97 165.045   1
  -3  -7   2 1331.61 126.358   3
   3   7  -1 3145.60 250.656   1
  -3  -7   1 3029.85 204.928   3
   3   7   0 4645.15 300.307   1
  -3  -7   0 4090.80 247.242   3
   3   7   1-6.89861 51.0265   1
  -3  -7  -1-76.0318 45.3546   2
  -3  -7  -1 8.51740 42.7962   3
   3   7   2 1150.32 142.283   1
  -3  -7  -2 1237.52 154.050   2
  -3  -7  -2 1171.04 147.288   3
  -3  -7  -3 79.2368 52.1537   3
  -3  -7  -3 58.7620 43.2505   2
   3   7   3-82.7595 49.9163   1
  -3  -7  -4 485.592 111.669   3
  -3  -7  -4 712.146 121.563   2
  -3  -7  -5 333.780 105.757   3
  -3  -7  -5 415.376 97.2846   2
  -3  -7  -6 1184.76 160.092   2
  -3  -7  -6 1010.26 167.716   3
  -3  -7  -7 3309.08 268.534   2
  -3  -7  -7 3295.58 315.262   3
  -3  -7  -8 234.602 92.9243   2
  -3  -7  -9 424.532 133.378   2
  -3  -7 -10 300.648 119.427   2
   3   8  -9 51.6014 101.740   1
   3   8  -8 238.805 93.3453   1
   3   8  -7 456.268 117.021   1
   3   8  -6 876.018 152.888   1
   3   8  -5 2759.62 275.523   1
   3   8  -4 1187.58 172.846   1
   3   8  -3 578.231 131.504   1
  -3  -8   2 69.5601 47.1259   3
   3   8  -2 26.5096 50.8836   1
  -3  -8   1 56.9109 49.3850   3
   3   8  -1 89.4820 70.2159   1
  -3  -8   0 394.767 90.9759   3
   3   8   0 520.847 109.984   1
  -3  -8  -1 3704.58 259.999   3
   3   8   1 4191.34 294.968   1
  -3  -8  -2 1063.37 147.097   3
   3   8   2 799.040 125.482   1
  -3  -8  -2 1021.95 141.900   2
   3   8   3 6638.84 358.316   1
  -3  -8  -3 7073.94 393.518   2
  -3  -8  -3 6896.85 401.097   3
   3   8   4 4647.39 290.157   1
  -3  -8  -4 4294.96 313.114   2
  -3  -8  -4 4356.42 332.691   3
  -3  -8  -5 55.6999 60.7617   3
  -3  -8  -5 81.1206 81.7070   2
  -3  -8  -6 133.373 88.5313   2
  -3  -8  -7 49.3829 57.6215   2
  -3  -8  -8 240.617 118.670   2
  -3  -8  -9 70.9966 92.1377   2
  -3  -8 -10 1846.00 243.492   2
   3   9  -8 286.243 124.630   1
   3   9  -7 404.569 127.607   1
   3   9  -6 541.138 138.331   1
   3   9  -5 3294.91 313.335   1
   3   9  -4 219.817 89.5658   1
   3   9  -3 469.319 110.534   1
   3   9  -2 2089.96 232.775   1
   3   9  -1 134.880 72.2990   1
  -3  -9   0 170.327 72.3621   3
   3   9   0 85.8746 60.8408   1
  -3  -9  -1 1168.38 157.153   3
   3   9   1 1378.08 180.074   1
   3   9   2 2102.48 215.641   1
  -3  -9  -2 1867.00 204.369   2
  -3  -9  -2 1849.06 204.645   3
   3   9   3 16840.9 629.403   1
  -3  -9  -3 17711.6 701.018   2
  -3  -9  -3 16328.1 674.897   3
  -3  -9  -4-21.0569 74.0317   2
   3   9   4-16.4734 52.9814   1
  -3  -9  -5 60.9918 69.9728   2
  -3  -9  -6 256.833 102.958   2
  -3  -9  -7 61.8037 75.4213   2
  -3  -9  -8 156.707 106.323   2
   3  10  -6 106.983 68.7397   1
   3  10  -5 64.6762 78.5100   1
   3  10  -4 52.0967 66.3389   1
   3  10  -3 2141.17 256.477   1
   3  10  -2 183.122 90.1028   1
   3  10  -1 1454.26 206.654   1
   3  10   0 170.481 89.4302   1
   3  10   1-10.8302 51.0508   1
  -3 -10  -2 1543.92 201.861   2
   3  10   2 1573.46 202.429   1
   3  10   3 1101.71 163.956   1
  -3 -10  -3 990.474 181.664   2
   3  10   4 56.5837 43.9981   1
  -3 -10  -4 57.8415 63.6375   2
  -3 -10  -5 126.369 63.1745   2
  -3 -10  -6 2113.79 263.867   2
  -3 -10  -7 936.123 176.518   2
   3  11  -4 483.528 129.117   1
   3  11  -3 46.0105 62.8713   1
   3  11  -2 664.826 146.307   1
   3  11  -1 239.667 106.439   1
   3  11   0 880.181 164.378   1
   3  11   1 70.9261 79.7437   1
   3  11   2 122.946 65.6809   1
   3  11   3 154.356 70.1066   1
  -3 -11  -3 67.3508 79.4097   2
  -3 -11  -4 256.551 123.788   2
  -3 -11  -5 330.288 132.437   2
   3  12   0 144.208 76.6480   1
   3  12   1 148.426 102.028   1
   3  12   2 583.600 138.846   1
   4  -8   1 442.973 127.125   2
  -4   8  -3 1117.78 183.510   1
  -4   8  -4 1270.17 202.937   1
  -4   8  -5 140.052 81.3401   1
  -4   8  -6 797.916 174.664   1
   4  -7  -2 640.789 150.169   2
   4  -7  -1 595.707 157.229   2
   4  -7   0 52.5443 86.5408   2
   4  -7   1 771.639 163.365   2
  -4   7  -2 104.671 82.8890   1
  -4   7  -3 50.8681 65.2017   1
  -4   7  -4 42.1828 54.4028   1
  -4   7  -5 1138.17 184.825   1
  -4   7  -6 1322.41 213.256   1
  -4   7  -7 288.720 125.890   1
  -4   7  -8 134.439 107.753   1
   4  -6  -4 212.771 102.340   2
   4  -6  -3 20.3200 79.5551   2
   4  -6  -2 186.824 120.434   2
   4  -6  -1 146.451 101.031   2
   4  -6   0 145.042 84.8951   2
   4  -6   1 902.607 173.858   2
  -4   6  -1 785.591 133.321   1
   4  -6   2 75.1261 71.4570   2
  -4   6  -2 30.9414 51.0206   1
  -4   6  -3 266.466 93.5680   1
  -4   6  -4 98.7154 61.5953   1
  -4   6  -5-43.8291 52.1712   1
  -4   6  -6 647.347 153.514   1
  -4   6  -7 144.211 86.9960   1
  -4   6  -8 171.537 90.5796   1
  -4   6  -9-81.8702 69.7537   1
   4  -5  -5 610.947 152.721   2
   4  -5  -4 340.205 135.871   2
   4  -5  -3 51.3938 63.1538   2
   4  -5  -2 920.917 178.081   2
   4  -5  -1 424.075 124.261   2
   4  -5   0-20.9302 59.1139   2
  -4   5   0-48.5860 48.8642   1
   4  -5   1-61.5588 70.1487   2
  -4   5  -1-35.9248 50.3303   1
  -4   5  -2-58.9964 71.3026   1
   4  -5   2 92.1898 61.1886   2
  -4   5  -3 4910.21 278.698   3
  -4   5  -3 4573.05 338.367   1
  -4   5  -4 377.401 103.720   1
  -4   5  -4 472.805 92.8286   3
  -4   5  -5 98.1991 65.4908   1
  -4   5  -6 587.238 139.774   1
  -4   5  -7 1367.67 215.762   1
  -4   5  -8 300.525 121.912   1
  -4   5  -9 829.168 182.516   1
  -4   5 -10-105.270 84.9805   1
  -4   5 -11 394.655 137.792   1
   4  -4  -6 411.595 138.930   2
   4  -4  -5 748.813 161.668   2
   4  -4  -4-17.0009 63.0267   2
   4  -4  -3 159.072 76.3277   2
   4  -4  -2 130.217 81.7864   2
   4  -4  -1 2.09727 70.5127   2
  -4   4   1 157.550 66.3129   1
   4  -4   0 4357.30 316.712   2
  -4   4   0 4183.85 265.251   1
  -4   4  -1-95.5082 67.6609   1
   4  -4   1 68.3544 54.2798   2
   4  -4   2 2047.85 198.089   2
  -4   4  -2 1891.63 203.604   1
  -4   4  -3 2018.07 175.856   3
  -4   4  -3 2306.46 234.455   1
  -4   4  -4 2974.83 217.133   3
  -4   4  -4 2475.27 259.773   1
  -4   4  -5 160.150 47.7014   3
  -4   4  -5 265.300 106.171   1
  -4   4  -6 1004.67 101.740   3
  -4   4  -6 938.563 175.298   1
  -4   4  -7 239.782 127.797   1
  -4   4  -8 142.408 90.8375   1
  -4   4  -9 135.005 93.7754   1
  -4   4 -10 42.6922 105.104   1
  -4   4 -11 568.185 160.111   1
  -4   4 -12 305.152 123.100   1
   4  -3  -7 39.1676 81.2984   2
   4  -3  -6 349.805 112.720   2
   4  -3  -5 284.576 109.777   2
   4  -3  -4 575.622 127.894   2
   4  -3  -3 262.400 100.887   2
   4  -3  -2 4992.33 331.369   2
   4  -3  -1 2233.58 210.504   2
  -4   3   1 1911.82 158.320   1
   4  -3   0 331.813 85.5457   2
  -4   3   0 159.249 60.0668   1
  -4   3  -1 60.5431 54.8184   1
   4  -3   1 47.1746 52.2708   2
   4  -3   2 423.676 104.073   2
  -4   3  -2 538.542 105.007   3
  -4   3  -2 430.887 93.3392   1
  -4   3  -3 518.441 96.8047   3
  -4   3  -3 458.891 102.680   1
  -4   3  -4 1632.48 160.283   3
  -4   3  -4 1501.59 186.535   1
  -4   3  -5 10686.9 530.716   1
  -4   3  -5 10793.6 399.757   3
  -4   3  -6 22461.9 584.794   3
  -4   3  -6 22126.0 836.478   1
  -4   3  -7 1473.90 214.741   1
  -4   3  -7 1393.09 109.925   3
  -4   3  -8 772.256 162.073   1
  -4   3  -9 67.8071 85.1333   1
  -4   3 -10 20.6904 81.7780   1
  -4   3 -11 116.489 106.437   1
  -4   3 -12 275.635 131.607   1
  -4   3 -13 622.311 171.120   2
   4  -2  -8-11.1161 59.5712   2
   4  -2  -7 113.396 62.0785   2
   4  -2  -6-26.6372 60.1644   2
   4  -2  -5 145.572 71.2351   2
   4  -2  -4 1659.15 199.929   2
   4  -2  -3 262.479 84.5862   2
  -4   2   2 5381.94 226.403   1
   4  -2  -2 6590.37 338.695   2
   4  -2  -1 716.539 112.450   2
  -4   2   1 540.585 74.8251   1
   4  -2   0 80.0505 48.0170   2
   4  -2   1 40.1969 36.5673   2
   4  -2   2 63.7780 50.5507   2
  -4   2  -2 39.7261 47.5476   3
  -4   2  -3 691.899 110.706   3
  -4   2  -4 86.0946 62.0381   3
  -4   2  -5 5715.78 274.659   3
  -4   2  -5 5521.54 362.404   1
  -4   2  -6-25.3559 69.1639   1
  -4   2  -6-39.2983 36.7771   3
  -4   2  -7 2000.33 232.314   1
  -4   2  -7 1958.35 143.393   3
  -4   2  -8 3267.79 302.436   1
  -4   2  -8 2776.30 182.156   3
  -4   2  -9 3120.36 307.880   1
  -4   2  -9 3676.24 218.538   3
  -4   2 -10 329.144 119.032   1
  -4   2 -11 180.123 99.8076   1
  -4   2 -12 91.8776 84.6847   1
  -4   2 -12 63.1579 88.6455   2
  -4   2 -13 407.628 159.447   1
  -4   2 -13 361.553 125.760   2
   4  -1  -8 1356.45 219.684   2
   4  -1  -7 1824.38 233.844   2
   4  -1  -6 403.742 119.536   2
   4  -1  -5 126.854 70.5439   2
   4  -1  -4 301.143 82.9612   2
   4  -1  -3 1075.30 139.524   2
  -4   1   2 89.0866 33.6449   1
   4  -1  -2 117.745 46.2322   2
   4  -1  -1 95.9389 46.7144   2
   4  -1   0 12.6264 31.7716   2
  -4   1  -1 7803.24 358.351   3
   4  -1   1 7005.94 283.381   2
  -4   1  -2 11606.9 450.331   3
   4  -1   2 12587.6 391.046   2
  -4   1  -3 88.0776 41.5526   3
  -4   1  -4 2469.17 181.017   3
  -4   1  -5 1047.26 111.270   3
  -4   1  -6 76.9365 28.7338   3
  -4   1  -7 2060.88 158.033   3
  -4   1  -8 2928.52 272.805   1
  -4   1  -8 3017.89 201.035   3
  -4   1  -9 774.666 108.671   3
  -4   1  -9 683.271 144.566   1
  -4   1 -10 376.326 77.0433   3
  -4   1 -10 164.240 79.4591   1
  -4   1 -11 118.175 82.3941   1
  -4   1 -11 179.399 83.1123   2
  -4   1 -12 166.692 82.0882   1
  -4   1 -12 51.0458 70.1752   2
  -4   1 -13 447.270 150.737   1
  -4   1 -13 249.050 112.576   2
   4   0  -9 187.910 114.421   2
   4   0  -8 390.639 139.355   2
   4   0  -7 51.0636 61.8029   2
   4   0  -6 612.906 131.372   2
   4   0  -5 2246.77 226.754   2
   4   0  -4 29.5356 63.8769   2
  -4   0   3 26.0836 18.1742   1
   4   0  -3 93.1507 53.0302   2
   4   0  -2 294.364 69.5474   2
  -4   0   2 125.643 27.3104   1
   4   0  -1 4930.48 232.852   2
   4   0   0-13.9020 28.0756   2
  -4   0   0-1.81211 25.7460   2
  -4   0  -1 8575.43 365.886   3
  -4   0  -1 7833.33 247.927   2
   4   0   1 7995.51 261.888   2
  -4   0  -2 1327.25 141.851   3
  -4   0  -2 1206.50 76.3806   2
   4   0   2 1071.52 84.0592   2
  -4   0  -3 2993.29 205.047   3
  -4   0  -3 3064.87 128.255   2
  -4   0  -4 1189.49 123.822   3
  -4   0  -4 1238.86 102.503   2
  -4   0  -5 437.526 82.2971   3
  -4   0  -6 200.641 59.7519   3
  -4   0  -7 120.332 60.5153   3
  -4   0  -8 1757.28 156.314   3
  -4   0  -9 231.488 62.1371   3
  -4   0  -9 197.748 71.7093   2
  -4   0 -10-7.04738 42.8699   3
  -4   0 -10 66.4947 57.3506   1
  -4   0 -10 148.867 73.5948   2
  -4   0 -11-22.8228 49.8048   3
  -4   0 -11-134.634 78.8739   1
  -4   0 -11-126.753 66.7095   2
  -4   0 -12-46.3905 58.0845   2
  -4   0 -12 0.47455 64.4916   1
  -4   0 -13 18.9512 72.8618   1
  -4   0 -13 88.2422 55.0339   2
   4   1  -9 106.045 66.0182   2
   4   1  -8 351.270 103.457   2
   4   1  -7 51.9263 72.8218   2
   4   1  -6 1732.37 203.275   2
   4   1  -5-0.27214 49.2777   2
   4   1  -4 3771.36 263.669   2
   4   1  -3 59.6129 51.2118   2
   4   1  -2 1519.02 130.685   2
   4   1  -1 408.112 58.8086   2
  -4  -1   0 1412.22 151.038   3
   4   1   0 1466.39 94.2727   2
   4   1   1 5.47077 17.0579   2
  -4  -1  -1 49.9796 49.0299   3
  -4  -1  -1-14.0851 20.0538   2
  -4  -1  -2 1672.76 157.065   3
  -4  -1  -2 1321.15 55.1158   2
  -4  -1  -3 89.8599 16.0489   2
  -4  -1  -3 77.3014 41.6919   3
  -4  -1  -4 1916.20 150.714   3
  -4  -1  -4 1849.45 105.240   2
  -4  -1  -5 22381.6 615.246   3
  -4  -1  -6 607.106 90.1234   3
  -4  -1  -6 523.484 92.4484   2
  -4  -1  -7 224.976 66.3013   3
  -4  -1  -7 203.144 57.5906   2
  -4  -1  -8-75.0871 51.9154   3
  -4  -1  -8 8.86832 46.6972   2
  -4  -1  -9 4686.77 308.554   2
  -4  -1  -9 4503.51 285.703   3
  -4  -1 -10 176.910 82.8826   3
  -4  -1 -10 114.257 64.2414   2
  -4  -1 -11 155.154 75.0873   3
  -4  -1 -11 151.116 74.8797   1
  -4  -1 -11 79.1274 72.4241   2
  -4  -1 -12 58.1988 59.6289   1
  -4  -1 -12 3.22487 48.8476   2
  -4  -1 -13 1525.36 231.168   2
   4   2  -9 61.2009 66.9970   2
   4   2  -8 57.4730 54.4189   2
   4   2  -7 572.425 122.532   2
   4   2  -6 116.856 65.6685   2
   4   2  -5 73.2344 46.2761   2
   4   2  -4 110.107 62.3258   2
   4   2  -3 2893.01 202.350   2
   4   2  -2 6435.91 282.718   2
  -4  -2   1 6003.70 306.491   3
   4   2  -1 5863.83 226.265   2
  -4  -2   0 1384.61 140.582   3
   4   2   0 1245.21 79.6025   2
   4   2   1 1.23723 5.96569   2
  -4  -2  -1 84.3638 61.3994   3
  -4  -2  -2 151.650 54.2652   3
  -4  -2  -3 190.815 59.8373   3
  -4  -2  -4 3122.04 198.924   3
  -4  -2  -4 3388.72 118.143   2
  -4  -2  -5-0.20140 32.9304   3
  -4  -2  -5-13.7608 24.7663   2
  -4  -2  -6 145.558 63.0477   3
  -4  -2  -6 157.575 46.9177   2
  -4  -2  -7 1457.29 144.527   2
  -4  -2  -7 1507.82 158.015   3
  -4  -2  -8 365.319 78.5098   2
  -4  -2  -8 411.177 90.5116   3
  -4  -2  -9 966.345 137.746   3
  -4  -2  -9 703.068 122.069   2
  -4  -2 -10 829.601 135.773   3
  -4  -2 -10 960.008 140.455   2
  -4  -2 -11 533.630 115.927   3
  -4  -2 -11 189.273 67.2864   1
  -4  -2 -11 457.496 104.518   2
  -4  -2 -12 138.913 76.7190   2
  -4  -2 -13 1283.60 195.272   2
   4   3  -9 519.928 142.603   2
   4   3  -8 308.147 111.700   2
   4   3  -7 159.969 85.0257   2
   4   3  -6 29.0008 29.6847   1
   4   3  -6 98.9904 72.4631   2
   4   3  -5 547.301 95.9470   1
   4   3  -5 505.388 101.897   2
   4   3  -4 555.972 91.9077   1
   4   3  -4 538.164 97.0177   2
   4   3  -3 337.414 80.2414   1
  -4  -3   3 442.923 93.8209   3
   4   3  -3 296.502 74.3140   2
  -4  -3   2 3794.61 244.382   3
   4   3  -2 4023.52 223.581   2
   4   3  -2 3680.43 231.657   1
  -4  -3   1 1986.20 171.479   3
   4   3  -1 2078.13 136.372   2
  -4  -3   0 11678.2 445.784   3
   4   3   0 13051.3 347.352   2
  -4  -3  -1 133833. 2452.46   3
   4   3   1 130475. 2192.58   2
   4   3   1 134590. 2182.08   2
  -4  -3  -2-46.4146 47.7741   3
  -4  -3  -3 2226.10 170.026   3
  -4  -3  -3 1421.27 69.7229   2
  -4  -3  -4 659.768 96.1772   3
  -4  -3  -4 773.449 57.2620   2
  -4  -3  -5 2197.52 122.370   2
  -4  -3  -5 1985.07 175.352   3
  -4  -3  -6 1224.81 107.830   2
  -4  -3  -6 1209.98 143.330   3
  -4  -3  -7 5128.44 256.546   2
  -4  -3  -7 4579.87 292.884   3
  -4  -3  -8 765.151 128.126   3
  -4  -3  -8 935.497 127.977   2
  -4  -3  -9 185.297 64.8251   3
  -4  -3  -9 196.600 77.0709   2
  -4  -3 -10 84.7487 88.6389   3
  -4  -3 -10 34.2457 58.7484   2
  -4  -3 -11-97.4643 85.3285   3
  -4  -3 -11 69.8531 94.2667   2
  -4  -3 -12 98.4117 74.7844   2
  -4  -3 -13 237.201 111.808   2
   4   4  -9-193.911 116.804   2
   4   4  -8 215.995 97.9023   2
   4   4  -7 268.260 91.1110   2
  -4  -4   6 1470.67 170.498   3
   4   4  -6 1553.70 195.124   2
   4   4  -6 1369.65 160.143   1
   4   4  -5 144.832 73.6974   1
  -4  -4   5 100.185 72.7315   3
   4   4  -5 165.562 72.4909   2
  -4  -4   4 3200.28 233.800   3
   4   4  -4 3506.68 263.967   2
   4   4  -4 2955.99 236.422   1
   4   4  -3 727.192 106.403   1
  -4  -4   3 843.288 121.011   3
   4   4  -2 638.736 105.528   1
  -4  -4   2 796.529 113.525   3
  -4  -4   1 4368.45 255.691   3
   4   4  -1 3852.75 238.175   1
   4   4   0 97393.6 1955.54   1
   4   4   0 100197. 1758.89   2
  -4  -4   0 98996.4 1918.87   3
  -4  -4  -1 5247.34 274.045   3
   4   4   1 5649.45 185.967   2
   4   4   2 162.664 29.6880   2
  -4  -4  -2 209.701 59.4262   3
  -4  -4  -3 2021.79 170.975   3
   4   4   3 1767.40 100.848   2
  -4  -4  -3 2192.90 107.530   2
  -4  -4  -4 105.468 33.0304   2
  -4  -4  -4 160.804 61.4905   3
   4   4   4 124.055 34.7065   2
  -4  -4  -5 127.090 58.8255   3
  -4  -4  -5 106.891 40.3034   2
  -4  -4  -6 48.4697 31.5759   2
  -4  -4  -6 56.0128 54.9797   3
  -4  -4  -7 54.2972 36.9626   2
  -4  -4  -7 30.6025 60.4411   3
  -4  -4  -8 287.201 73.9346   2
  -4  -4  -8 293.828 84.5529   3
  -4  -4  -9 89.6669 58.3950   3
  -4  -4  -9 41.0264 54.3314   2
  -4  -4 -10 172.179 69.4698   3
  -4  -4 -10 291.784 92.2505   2
  -4  -4 -11 144.519 60.8762   2
  -4  -4 -12 69.4678 73.3298   2
  -4  -4 -13 358.368 108.843   2
   4   5  -9 358.965 113.015   2
   4   5  -8 432.196 129.219   2
   4   5  -7 26.4610 47.5846   1
  -4  -5   7-78.5954 53.1253   3
   4   5  -7-29.2337 67.7286   2
   4   5  -6 651.335 109.513   1
  -4  -5   6 909.548 135.991   3
   4   5  -5 216.414 73.5459   1
  -4  -5   5 215.656 73.4109   3
   4   5  -4-55.0019 50.2938   1
  -4  -5   4-55.8337 40.0925   3
  -4  -5   3 2583.78 207.592   3
   4   5  -3 2639.03 217.084   1
   4   5  -2 241.893 66.6531   1
  -4  -5   2 284.904 73.0570   3
   4   5  -1 765.547 114.115   1
  -4  -5   1 644.997 95.7147   3
   4   5   0 25.7904 42.6123   1
  -4  -5   0-5.49453 43.3978   3
  -4  -5  -1 7651.34 348.499   3
   4   5   1 7659.62 362.140   1
   4   5   1 8121.27 269.958   2
  -4  -5  -2 8138.87 361.438   3
   4   5   2 7079.24 238.581   2
   4   5   3 7727.13 264.288   2
  -4  -5  -3 8317.36 280.779   2
  -4  -5  -3 8692.25 386.221   3
  -4  -5  -4 3346.77 174.559   2
  -4  -5  -4 3306.20 247.273   3
  -4  -5  -5 182.565 76.1180   3
  -4  -5  -5 258.542 59.7971   2
  -4  -5  -6 139.940 47.2878   2
  -4  -5  -6 172.571 82.7017   3
  -4  -5  -7 32.8766 33.5317   2
  -4  -5  -7 105.399 72.9294   3
  -4  -5  -8 1763.57 176.091   2
  -4  -5  -8 2001.29 222.564   3
  -4  -5  -9-61.7370 50.4425   2
  -4  -5  -9 30.8250 65.3610   3
  -4  -5 -10-32.1101 66.5491   3
  -4  -5 -10-49.7754 74.8021   2
  -4  -5 -11 331.717 117.115   2
  -4  -5 -12 1224.75 200.604   2
   4   6  -9 122.969 74.8285   2
   4   6  -8 1360.01 186.185   1
   4   6  -8 1390.01 218.154   2
   4   6  -7 9.04678 52.4660   1
   4   6  -6 8.09876 72.1784   1
  -4  -6   5 492.035 96.7760   3
   4   6  -5 479.460 105.856   1
  -4  -6   4 5756.74 300.824   3
   4   6  -4 5870.90 359.499   1
  -4  -6   3 2121.78 174.296   3
   4   6  -3 2242.10 211.906   1
  -4  -6   2-28.5254 36.7083   3
   4   6  -2 41.9670 70.8336   1
   4   6  -1 67.0549 53.0134   1
  -4  -6   1-9.66709 42.2419   3
   4   6   0 53.4437 43.0495   1
  -4  -6   0 37.8003 37.9935   3
   4   6   1 496.625 87.1157   1
  -4  -6  -1 586.374 106.647   3
   4   6   2-30.6471 58.7787   1
  -4  -6  -2-28.2066 49.2652   3
  -4  -6  -3 1394.94 124.997   2
  -4  -6  -3 1526.19 171.420   3
  -4  -6  -4 17.2810 52.0103   3
  -4  -6  -4 73.9288 42.6792   2
  -4  -6  -5 4624.65 254.850   2
  -4  -6  -5 4457.10 315.487   3
  -4  -6  -6 58.3947 42.3685   2
  -4  -6  -6-8.18385 53.8401   3
  -4  -6  -7 958.599 156.185   3
  -4  -6  -7 1151.03 146.193   2
  -4  -6  -8 268.514 93.7116   3
  -4  -6  -8 348.143 95.2176   2
  -4  -6  -9 841.203 162.034   3
  -4  -6  -9 856.859 143.066   2
  -4  -6 -10 382.561 106.634   2
  -4  -6 -11 371.986 115.361   2
  -4  -6 -12 45.6205 59.4122   2
   4   7  -9 459.995 143.233   2
   4   7  -8-71.4189 61.0100   1
   4   7  -7 780.544 165.773   1
   4   7  -6 460.685 128.486   1
   4   7  -5 256.372 102.957   1
  -4  -7   4 50.1095 41.7299   3
   4   7  -4 54.1541 50.9754   1
  -4  -7   3 792.203 108.525   3
   4   7  -3 708.978 137.160   1
  -4  -7   2 52.0411 33.0104   3
   4   7  -2 123.207 75.4321   1
  -4  -7   1 2300.74 198.703   3
   4   7  -1 2250.07 215.150   1
   4   7   0 3354.48 261.863   1
  -4  -7   0 3608.32 250.652   3
  -4  -7  -1 302.966 80.4187   3
   4   7   1 227.471 78.6844   1
   4   7   2 2403.53 210.567   1
  -4  -7  -2 2356.71 177.399   2
  -4  -7  -2 2554.92 224.931   3
   4   7   3-57.6070 49.9736   1
  -4  -7  -3 68.5731 58.8525   3
  -4  -7  -3 64.8396 52.4377   2
  -4  -7  -4 191.798 63.1041   3
  -4  -7  -4 152.592 59.2882   2
  -4  -7  -5 23.6488 64.4927   3
  -4  -7  -5 95.5883 60.6261   2
  -4  -7  -6 1488.49 165.939   2
  -4  -7  -6 1566.15 204.494   3
  -4  -7  -7 620.110 136.473   3
  -4  -7  -7 789.959 126.737   2
  -4  -7  -8 139.282 88.2496   3
  -4  -7  -8 59.6995 56.0366   2
  -4  -7  -9 336.287 103.610   2
  -4  -7  -9 451.692 121.536   3
  -4  -7 -10 79.2210 77.9850   2
  -4  -7 -11 125.405 92.1736   2
   4   8  -8 673.761 152.586   1
   4   8  -7 1101.55 203.275   1
   4   8  -6 363.709 114.944   1
   4   8  -5 190.159 94.1116   1
   4   8  -4 555.430 126.665   1
   4   8  -3 314.833 96.4092   1
  -4  -8   2 415.830 90.2162   3
   4   8  -2 495.029 121.057   1
   4   8  -1 4519.13 324.348   1
  -4  -8   1 4340.24 272.098   3
   4   8   0 1198.43 165.751   1
  -4  -8   0 1107.01 149.514   3
  -4  -8  -1 793.263 124.655   3
   4   8   1 775.434 129.606   1
  -4  -8  -2 181.154 70.2097   3
   4   8   2 139.322 65.3475   1
   4   8   3 101.187 58.7615   1
  -4  -8  -3 113.338 58.8091   3
  -4  -8  -3 277.342 79.5948   2
  -4  -8  -4 244.636 85.3473   3
  -4  -8  -4 406.389 99.3443   2
  -4  -8  -5 338.798 110.932   3
  -4  -8  -5 388.254 100.818   2
  -4  -8  -6 101.677 77.9379   3
  -4  -8  -6 199.421 77.2114   2
  -4  -8  -7 166.042 91.2664   3
  -4  -8  -7 204.557 79.9470   2
  -4  -8  -8 911.563 152.764   2
  -4  -8  -8 863.404 168.778   3
  -4  -8  -9 824.212 154.227   2
  -4  -8 -10 96.8130 90.9949   2
   4   9  -7 1248.81 204.541   1
   4   9  -6 251.580 110.659   1
   4   9  -5 552.084 137.410   1
   4   9  -4 3733.90 344.710   1
   4   9  -3 557.009 146.829   1
   4   9  -2 76.3603 51.7354   1
  -4  -9   1 17.2841 47.2026   3
   4   9  -1 17.1625 46.3560   1
  -4  -9   0 302.530 85.9864   3
   4   9   0 328.653 94.2469   1
  -4  -9  -1 548.032 107.498   3
   4   9   1 558.068 116.475   1
   4   9   2 1323.36 175.076   1
  -4  -9  -2 1448.25 183.221   3
   4   9   3 3660.98 284.928   1
  -4  -9  -3 3291.35 263.080   2
  -4  -9  -3 3155.30 281.074   3
  -4  -9  -4 2120.69 214.884   2
  -4  -9  -4 1913.26 230.673   3
  -4  -9  -5 1134.17 179.738   3
  -4  -9  -5 916.958 156.986   2
  -4  -9  -6 8.63335 68.5385   3
  -4  -9  -6 70.0622 68.3245   2
  -4  -9  -7 138.433 84.3241   2
  -4  -9  -7-17.3239 64.4523   3
  -4  -9  -8 362.166 113.283   2
  -4  -9  -9-7.55783 55.6046   2
   4  10  -6 1028.22 209.850   1
   4  10  -5 6312.77 479.064   1
   4  10  -4 3985.49 368.098   1
   4  10  -3 844.025 169.924   1
   4  10  -2 128.595 80.9012   1
   4  10  -1 572.128 123.501   1
   4  10   0-34.7269 46.8324   1
  -4 -10  -1 759.448 139.645   3
   4  10   1 873.810 151.038   1
  -4 -10  -2 443.061 96.8051   3
   4  10   2 897.652 149.076   1
   4  10   3 1934.05 218.182   1
  -4 -10  -3 1616.77 202.736   2
  -4 -10  -3 1784.38 224.306   3
  -4 -10  -4-20.7481 59.3584   3
  -4 -10  -4 1.30872 69.9622   2
  -4 -10  -5-84.9497 66.2857   2
  -4 -10  -5 83.3041 77.7077   3
  -4 -10  -6 357.129 112.269   2
  -4 -10  -7 241.802 102.337   2
  -4 -10  -8 171.718 85.7954   2
   4  11  -3 391.339 115.804   1
   4  11  -2 1099.43 185.073   1
   4  11  -1 1546.35 217.879   1
   4  11   0 191.149 88.6369   1
   4  11   1 1682.55 221.886   1
   4  11   2-73.2804 61.2744   1
   4  11   3 191.755 76.0663   1
  -4 -11  -4 107.299 77.4405   2
  -4 -11  -5-78.8112 68.3009   2
  -4 -11  -6 249.096 103.375   2
   4  12   0-124.007 82.1610   1
   4  12   1 163.524 80.1460   1
   4  12   2 108.444 64.3034   1
   4  12   3 397.373 122.286   1
  -4 -12  -4 14.6964 74.3212   2
   5  -7   0 65.5083 68.1311   2
   5  -7   1-108.799 96.5617   2
  -5   7  -4 5.52662 60.2108   1
  -5   7  -5 1255.12 214.404   1
  -5   7  -6 57.6859 77.6839   1
   5  -6  -2 1367.54 213.477   2
   5  -6  -1 1208.75 204.432   2
   5  -6   0 29.5345 75.8293   2
   5  -6   1 110.016 83.3284   2
   5  -6   2-103.822 66.9742   2
  -5   6  -3 130.893 66.9641   1
  -5   6  -4-50.2466 61.8884   1
  -5   6  -5 168.754 106.884   1
  -5   6  -6 339.538 118.103   1
  -5   6  -7 585.215 152.482   1
  -5   6  -8 52.9519 75.2644   1
   5  -5  -4 143.290 107.969   2
   5  -5  -3 478.398 139.804   2
   5  -5  -2 76.8497 64.6842   2
   5  -5  -1 183.436 90.9900   2
   5  -5   0 45.4503 85.2748   2
   5  -5   1 429.446 109.734   2
  -5   5  -2-2.45758 40.3087   3
   5  -5   2-14.6382 59.8482   2
  -5   5  -3 307.355 87.4998   1
  -5   5  -3 240.529 71.3371   3
  -5   5  -4 235.366 111.407   1
  -5   5  -5 67.6597 97.6622   1
  -5   5  -6 105.343 114.552   1
  -5   5  -7 711.831 185.149   1
  -5   5  -8 253.818 136.054   1
  -5   5  -9 190.742 116.825   1
   5  -4  -5 1172.73 201.112   2
   5  -4  -4 554.633 137.185   2
   5  -4  -3 48.5569 80.4924   2
   5  -4  -2 180.446 73.8952   2
   5  -4  -1 738.299 138.360   2
   5  -4   0 66.5032 61.2667   2
  -5   4  -1 580.337 118.946   1
   5  -4   1 676.195 130.860   2
  -5   4  -2 930.912 138.814   3
   5  -4   2 785.721 135.342   2
  -5   4  -2 676.530 129.362   1
  -5   4  -3 385.949 85.0634   3
  -5   4  -3 401.270 117.606   1
  -5   4  -4 49.4201 42.1749   3
  -5   4  -4 279.541 108.289   1
  -5   4  -5 1208.41 149.959   3
  -5   4  -5 898.707 185.522   1
  -5   4  -6 18.6277 69.7169   1
  -5   4  -7 35.6852 81.7927   1
  -5   4  -8 1099.97 215.937   1
  -5   4  -9 431.783 155.957   1
  -5   4 -10 1079.27 233.028   1
  -5   4 -11 1461.29 262.573   1
   5  -3  -6 271.918 122.660   2
   5  -3  -5 2062.14 247.359   2
   5  -3  -4 329.645 102.648   2
   5  -3  -3 259.051 102.568   2
   5  -3  -2 209.245 87.3061   2
   5  -3  -1 1333.27 171.040   2
   5  -3   0 381.222 93.8187   2
  -5   3   0 209.984 67.9401   1
  -5   3  -1 95.3498 67.5380   1
   5  -3   1-17.1660 47.0451   2
  -5   3  -2 837.231 133.914   3
   5  -3   2 689.662 120.874   2
  -5   3  -2 612.727 127.142   1
  -5   3  -3 55.3001 34.6737   3
  -5   3  -3-94.9956 85.6738   1
  -5   3  -4 5611.94 402.858   1
  -5   3  -4 6045.28 348.775   3
  -5   3  -5 460.121 90.4716   3
  -5   3  -5 282.431 112.641   1
  -5   3  -6 127.665 56.2996   3
  -5   3  -6-82.8017 90.6021   1
  -5   3  -7 26.0698 28.5922   3
  -5   3  -7 74.3418 97.7882   1
  -5   3  -8 463.928 151.952   1
  -5   3  -9 54.8476 84.0307   1
  -5   3 -10 247.614 109.553   1
  -5   3 -11 257.572 137.991   1
  -5   3 -12 704.375 200.445   1
   5  -2  -7 80.0955 65.3601   2
   5  -2  -6 178.079 110.631   2
   5  -2  -5 310.786 100.063   2
   5  -2  -4 83.7695 64.9072   2
   5  -2  -3 56.8439 43.9503   2
   5  -2  -2 22929.5 750.345   2
  -5   2   1 3171.89 211.079   1
   5  -2  -1 3817.66 266.808   2
   5  -2   0 566.327 109.239   2
  -5   2   0 558.538 96.1174   1
   5  -2   1 33.3536 39.5968   2
  -5   2  -1-37.3231 60.0430   3
   5  -2   2 28.4550 43.0190   2
  -5   2  -2-51.4826 48.3022   3
  -5   2  -3 1998.70 204.844   3
  -5   2  -4 589.459 115.396   3
  -5   2  -5 392.550 95.9337   3
  -5   2  -6 9484.70 398.701   3
  -5   2  -6 8668.11 491.505   1
  -5   2  -7 599.679 134.383   1
  -5   2  -7 497.663 77.2337   3
  -5   2  -8 143.412 60.5131   3
  -5   2  -8 20.5891 66.4232   1
  -5   2  -9 255.611 112.301   1
  -5   2 -10 298.891 125.101   1
  -5   2 -11-90.2539 77.3066   1
  -5   2 -12 270.543 125.768   1
  -5   2 -13 4983.50 390.714   2
   5  -1  -7 93.8266 79.5949   2
   5  -1  -6 39.8596 62.8797   2
   5  -1  -5-101.914 63.6947   2
   5  -1  -4 35.1230 50.4135   2
   5  -1  -3 1649.97 181.038   2
   5  -1  -2 6134.67 327.529   2
   5  -1  -1 1639.68 162.586   2
   5  -1   0 6448.64 312.886   2
  -5   1  -1 1155.64 157.104   3
   5  -1   1 1091.30 114.934   2
   5  -1   2-61.4229 34.9420   2
  -5   1  -2 35.9128 38.1375   3
  -5   1  -3 19.4229 49.0569   3
  -5   1  -4 770.636 124.138   3
  -5   1  -5 116.041 51.4603   3
  -5   1  -6 4015.99 251.381   3
  -5   1  -7 171.752 56.6575   3
  -5   1  -8 45.4648 47.3538   3
  -5   1  -9 1236.99 197.769   1
  -5   1  -9 1542.50 152.511   3
  -5   1 -10 62.3219 43.1753   3
  -5   1 -10 40.9527 62.9938   1
  -5   1 -11 349.741 114.424   2
  -5   1 -11 427.081 119.225   1
  -5   1 -12 185.399 110.212   1
  -5   1 -12 99.3457 62.2880   2
  -5   1 -13 265.377 112.481   1
  -5   1 -13 577.909 135.049   2
   5   0  -8 95.4779 87.4875   2
   5   0  -7-9.39376 63.4537   2
   5   0  -6 1925.49 237.284   2
   5   0  -5 2620.56 255.043   2
   5   0  -4 523.911 115.547   2
   5   0  -3 630.512 106.999   2
   5   0  -2 581.681 95.2186   2
   5   0  -1 946.949 110.363   2
   5   0   0 17.9706 35.4370   2
  -5   0   0 36.5801 55.4674   3
  -5   0  -1 7543.82 380.998   3
   5   0   1 7521.48 271.383   2
  -5   0  -2 4270.22 286.748   3
  -5   0  -2 3924.89 158.175   2
   5   0   2 4161.71 189.187   2
  -5   0  -3 1947.53 199.377   3
  -5   0  -3 1744.86 95.9419   2
  -5   0  -4 443.934 48.9075   2
  -5   0  -4 561.992 95.9180   3
  -5   0  -5 138.202 41.2029   2
  -5   0  -5 127.094 58.2640   3
  -5   0  -6 1606.35 162.060   3
  -5   0  -7 2311.72 193.948   3
  -5   0  -8 644.148 112.684   3
  -5   0  -9 2407.09 203.496   3
  -5   0 -10-20.5056 48.4322   3
  -5   0 -10 57.5101 61.3625   1
  -5   0 -10-68.5579 59.3348   2
  -5   0 -11 199.826 78.1200   3
  -5   0 -11 91.9861 66.0491   1
  -5   0 -11 160.385 75.4168   2
  -5   0 -12 213.410 109.424   1
  -5   0 -12 191.573 85.3323   2
  -5   0 -13 545.413 125.607   2
  -5   0 -13 451.069 144.106   1
   5   1  -8-99.8113 85.7761   2
   5   1  -7 390.654 123.401   2
   5   1  -6 3026.13 282.900   2
   5   1  -5 326.194 98.1557   2
   5   1  -4 168.003 67.8621   2
   5   1  -3-7.18251 43.1044   2
   5   1  -2 603.553 91.9496   2
   5   1  -1 38.4274 32.4016   2
  -5  -1   1 7.44251 44.4758   3
  -5  -1   0 969.072 138.737   3
   5   1   0 999.070 93.7458   2
   5   1   1 132.377 32.1508   2
  -5  -1  -1 144.340 63.6923   3
  -5  -1  -1 169.574 39.3976   2
  -5  -1  -2 24.4235 52.4926   3
  -5  -1  -2-1.52833 14.8480   2
  -5  -1  -3 1034.45 139.857   3
  -5  -1  -3 723.973 43.6567   2
  -5  -1  -4 2823.19 213.669   3
  -5  -1  -4 2564.58 96.0779   2
  -5  -1  -5 379.302 82.0780   3
  -5  -1  -5 397.061 57.5680   2
  -5  -1  -6 416.533 80.1211   3
  -5  -1  -7 140.753 53.7653   3
  -5  -1  -7 187.942 64.5106   2
  -5  -1  -8 214.115 69.1718   3
  -5  -1  -8 82.4706 55.0502   2
  -5  -1  -9 286.428 83.4740   3
  -5  -1  -9 454.189 99.4835   2
  -5  -1 -10 84.6363 50.0180   3
  -5  -1 -10-40.6528 58.7612   2
  -5  -1 -11 877.718 141.905   3
  -5  -1 -11 1293.36 173.799   2
  -5  -1 -11 594.397 133.345   1
  -5  -1 -12 125.988 67.2417   3
  -5  -1 -12 42.3187 61.4927   1
  -5  -1 -12 37.2981 45.0082   2
  -5  -1 -13 415.336 112.452   1
  -5  -1 -13 305.431 97.1824   2
   5   2  -8 208.947 95.2120   2
   5   2  -7 42.0881 58.0620   2
   5   2  -6 130.663 62.4055   2
   5   2  -5 350.946 94.0752   2
   5   2  -4 108.269 53.5349   2
   5   2  -3 9091.66 389.451   2
  -5  -2   2 1266.89 165.711   3
   5   2  -2 1428.78 133.383   2
  -5  -2   1 35.5406 57.1768   3
   5   2  -1 10.2883 24.8145   2
   5   2   0 141.163 33.9953   2
  -5  -2   0 206.480 76.1157   3
   5   2   1 56.1334 14.4852   2
  -5  -2  -1 37.0316 68.0232   3
  -5  -2  -2 639.454 113.449   3
  -5  -2  -3 19.1806 40.5976   3
  -5  -2  -4 81.5673 50.0446   3
  -5  -2  -5 396.358 83.8523   3
  -5  -2  -5 394.935 39.6364   2
  -5  -2  -6 5309.20 299.801   3
  -5  -2  -6 5546.45 211.850   2
  -5  -2  -7-16.8453 39.8467   3
  -5  -2  -7 48.7392 38.4761   2
  -5  -2  -8-27.2374 60.2028   3
  -5  -2  -8-42.0866 37.5884   2
  -5  -2  -9 1186.42 155.778   3
  -5  -2  -9 1456.46 155.532   2
  -5  -2 -10 186.741 71.5993   3
  -5  -2 -10 225.880 80.9769   2
  -5  -2 -11 141.221 60.8528   3
  -5  -2 -11 283.098 88.4585   2
  -5  -2 -12 1249.32 178.575   3
  -5  -2 -12 1434.85 185.321   2
  -5  -2 -12 760.436 147.474   1
  -5  -2 -13 142.426 77.7507   2
   5   3  -9 171.381 84.2094   2
   5   3  -8 95.4231 72.8399   2
   5   3  -7 76.7399 58.8382   2
   5   3  -6 76.4056 53.5683   2
   5   3  -5 917.658 145.345   2
  -5  -3   4 650.426 123.022   3
   5   3  -4 746.338 118.609   2
  -5  -3   3 4676.21 316.964   3
   5   3  -3 4605.32 265.878   2
  -5  -3   2 1666.46 175.982   3
   5   3  -2 1800.93 149.348   2
  -5  -3   1 1059.96 150.283   3
   5   3  -1 1029.70 95.1176   2
  -5  -3   0 585.849 117.176   3
   5   3   0 589.934 57.3580   2
  -5  -3  -1 2821.96 219.669   3
   5   3   1 2261.99 65.2772   2
  -5  -3  -2 1761.10 164.895   3
  -5  -3  -3 221.544 66.6996   3
  -5  -3  -4 66.5210 42.4277   3
  -5  -3  -5 5831.92 314.768   3
  -5  -3  -5 6576.81 179.672   2
  -5  -3  -6 192.438 69.2264   3
  -5  -3  -6 204.382 42.0224   2
  -5  -3  -7 1111.47 148.696   3
  -5  -3  -7 1165.69 105.775   2
  -5  -3  -8 85.4141 52.1728   3
  -5  -3  -8 219.722 55.0575   2
  -5  -3  -9 4100.24 257.458   2
  -5  -3  -9 3582.12 282.455   3
  -5  -3 -10-2.30146 45.5925   3
  -5  -3 -10 110.231 74.0197   2
  -5  -3 -11 543.887 123.513   3
  -5  -3 -11 557.810 124.004   2
  -5  -3 -12-60.1498 56.1960   3
  -5  -3 -12-47.5364 49.9250   2
  -5  -3 -13 236.546 83.9838   2
   5   4  -9 561.682 144.505   2
  -5  -4   8 141.630 74.5089   3
   5   4  -8 108.352 73.2983   2
  -5  -4   7 10686.9 538.968   3
   5   4  -7 10546.6 542.357   2
  -5  -4   6 4139.54 312.844   3
   5   4  -6 4216.87 316.783   2
  -5  -4   5-62.2609 54.7064   3
   5   4  -5-51.9787 54.1541   1
   5   4  -5-54.1545 51.9834   2
  -5  -4   4 175.748 71.8750   3
   5   4  -4 93.4787 57.3354   1
   5   4  -4 155.865 72.9471   2
  -5  -4   3 779.739 131.569   3
   5   4  -3 633.666 107.491   1
   5   4  -3 617.562 99.8448   2
  -5  -4   2 276.361 79.3828   3
   5   4  -2 179.405 57.6130   2
  -5  -4   1 428.503 103.007   3
   5   4  -1 397.403 65.7134   2
  -5  -4   0 2878.01 230.849   3
   5   4   0 2945.23 147.193   2
   5   4   1 124.612 23.5724   2
  -5  -4  -1 126.240 52.9455   3
   5   4   1 114.583 24.7505   2
  -5  -4  -2 247.257 73.5266   3
  -5  -4  -3 702.825 116.355   3
  -5  -4  -4 674.246 106.569   3
  -5  -4  -4 432.411 39.7534   2
  -5  -4  -5 1014.31 135.394   3
  -5  -4  -5 1081.05 74.0792   2
  -5  -4  -6 1151.02 94.3095   2
  -5  -4  -6 1162.16 153.457   3
  -5  -4  -7 623.687 78.1333   2
  -5  -4  -7 479.320 101.786   3
  -5  -4  -8 22731.7 623.584   2
  -5  -4  -8 22225.9 765.528   3
  -5  -4  -9 10125.5 420.739   2
  -5  -4  -9 10239.9 500.927   3
  -5  -4 -10 639.349 133.096   3
  -5  -4 -10 692.958 121.091   2
  -5  -4 -11-15.7566 55.2755   3
  -5  -4 -11 201.274 74.6890   2
  -5  -4 -12 42.4969 69.5080   3
  -5  -4 -12 94.7189 65.9332   2
   5   5  -8 1952.35 251.493   2
  -5  -5   7 12528.7 574.637   3
   5   5  -7 12398.1 607.434   2
   5   5  -6 31.7749 65.3307   1
  -5  -5   6 99.3008 70.7609   3
   5   5  -6 33.4272 58.1827   2
   5   5  -5 701.684 123.758   1
  -5  -5   5 969.080 153.686   3
   5   5  -5 981.181 151.553   2
   5   5  -4 267.908 74.6587   1
  -5  -5   4 343.904 95.2448   3
   5   5  -4 145.969 74.7157   2
   5   5  -3 191.473 76.1993   1
  -5  -5   3 237.411 90.4760   3
   5   5  -2 72.2152 53.1867   1
  -5  -5   2 24.8741 57.6551   3
   5   5  -1-7.30414 45.0024   1
  -5  -5   1 15.9454 45.2011   3
  -5  -5   0 52.6106 54.9019   3
   5   5   0 45.3340 48.1989   1
   5   5   1 372.598 46.4330   2
  -5  -5  -1 243.418 65.3273   3
   5   5   2 224.806 33.5927   2
  -5  -5  -2 230.753 71.6384   3
  -5  -5  -3 129.800 67.6274   3
   5   5   3 81.1199 23.8578   2
  -5  -5  -4 140.103 57.7851   3
  -5  -5  -4 150.365 40.1468   2
   5   5   4 102.354 31.9834   2
  -5  -5  -5 246.035 81.3888   3
  -5  -5  -5 113.493 36.9616   2
  -5  -5  -6 68.5293 34.3891   2
  -5  -5  -6 64.8184 64.3498   3
  -5  -5  -7 47.7252 45.0922   2
  -5  -5  -7-7.31064 44.4041   3
  -5  -5  -8 5989.56 290.188   2
  -5  -5  -8 6571.40 398.834   3
  -5  -5  -9 319.006 76.8978   2
  -5  -5  -9 261.866 80.2393   3
  -5  -5 -10 1640.87 171.702   2
  -5  -5 -10 1699.63 217.910   3
  -5  -5 -11 160.463 71.7194   2
  -5  -5 -11 86.0423 85.2155   3
  -5  -5 -12 452.620 102.432   2
  -5  -5 -12 280.509 88.4917   3
   5   6  -8 662.302 145.254   2
   5   6  -7 1653.80 220.896   2
   5   6  -6 95.5392 65.8844   1
   5   6  -6 16.8233 65.4358   2
   5   6  -5 52.0760 58.7781   1
  -5  -6   5 109.970 68.0662   3
  -5  -6   4 4167.36 300.182   3
   5   6  -4 3898.34 293.916   1
   5   6  -3 892.239 138.382   1
  -5  -6   3 893.172 126.004   3
   5   6  -2 144.493 64.1865   1
  -5  -6   2 89.0236 60.4436   3
   5   6  -1 333.304 85.2412   1
  -5  -6   1 322.636 94.4567   3
   5   6   0 243.751 81.9923   1
  -5  -6   0 344.305 85.5660   3
   5   6   1-20.0646 41.0202   1
  -5  -6  -1 16.1078 42.5461   3
  -5  -6  -2 140.507 59.3161   3
  -5  -6  -3 909.124 137.446   3
  -5  -6  -4 4221.24 212.487   2
  -5  -6  -4 4286.09 298.621   3
  -5  -6  -5 4253.00 218.619   2
  -5  -6  -5 4273.27 309.171   3
  -5  -6  -6 768.208 145.525   3
  -5  -6  -6 744.140 98.2178   2
  -5  -6  -7 873.904 153.308   3
  -5  -6  -7 754.905 104.375   2
  -5  -6  -8 136.376 81.7297   3
  -5  -6  -8 49.5972 49.8833   2
  -5  -6  -9 12.3740 42.3717   2
  -5  -6  -9 26.4376 66.9713   3
  -5  -6 -10-82.1957 68.1577   2
  -5  -6 -10 17.0440 58.2333   3
  -5  -6 -11 3247.87 266.610   2
  -5  -6 -11 3547.25 338.670   3
   5   7  -8 7.11467 72.9967   2
   5   7  -7 178.601 73.0185   1
   5   7  -7 219.655 96.5297   2
   5   7  -6 57.8833 57.8397   1
   5   7  -5 1094.10 169.677   1
   5   7  -4 107.382 67.0478   1
  -5  -7   4 30.4800 49.1682   3
   5   7  -3 415.949 104.688   1
  -5  -7   3 437.440 98.2684   3
   5   7  -2 70.6538 55.6492   1
  -5  -7   2 194.564 62.0411   3
   5   7  -1 183.381 63.8718   1
  -5  -7   1 393.703 81.1536   3
   5   7   0 164.055 75.4649   1
  -5  -7   0 198.031 68.0671   3
   5   7   1 17.5401 43.9882   1
  -5  -7  -1 24.2787 48.5962   3
  -5  -7  -2 432.181 103.475   3
   5   7   2 413.312 105.788   1
  -5  -7  -3 410.300 107.922   3
  -5  -7  -4 3056.83 201.229   2
  -5  -7  -4 3163.76 280.417   3
  -5  -7  -5-61.8292 59.4712   3
  -5  -7  -5-18.6241 34.8773   2
  -5  -7  -6 58.3130 60.2579   3
  -5  -7  -6 124.040 55.9597   2
  -5  -7  -7 228.795 89.4117   3
  -5  -7  -7 249.664 81.0975   2
  -5  -7  -8 767.049 159.771   3
  -5  -7  -8 503.524 99.3599   2
  -5  -7  -9 68.6161 61.6643   3
  -5  -7  -9 105.414 57.4947   2
  -5  -7 -10 66.2671 66.7245   3
  -5  -7 -10 8.22607 54.5819   2
   5   8  -7-95.5352 67.8918   1
   5   8  -6 674.450 153.130   1
   5   8  -5 259.745 91.9249   1
   5   8  -4-57.5562 72.6548   1
  -5  -8   3 424.759 90.7047   3
   5   8  -3 566.445 131.973   1
   5   8  -2 685.792 132.941   1
  -5  -8   2 694.466 115.040   3
   5   8  -1 3.66753 56.2510   1
  -5  -8   1 44.4627 46.1178   3
   5   8   0 67.1930 51.5882   1
  -5  -8   0 90.5245 52.7301   3
   5   8   1 271.236 87.2119   1
  -5  -8  -1 363.601 106.296   3
   5   8   2 217.946 78.1932   1
  -5  -8  -2 302.497 98.4652   3
  -5  -8  -3 903.753 154.742   3
  -5  -8  -4 301.063 86.8229   3
  -5  -8  -4 424.541 92.3080   2
  -5  -8  -5 460.632 122.914   3
  -5  -8  -5 497.333 98.0822   2
  -5  -8  -6 11.0558 55.6822   3
  -5  -8  -6 163.673 76.0407   2
  -5  -8  -7 4054.64 290.632   2
  -5  -8  -7 4393.86 369.905   3
  -5  -8  -8 1127.93 189.948   3
  -5  -8  -8 769.724 133.861   2
  -5  -8  -9 64.8341 70.8070   3
  -5  -8  -9 99.1335 55.4991   2
   5   9  -7 428.604 141.342   1
   5   9  -6 403.729 130.555   1
   5   9  -5 1307.89 197.905   1
   5   9  -4 323.273 113.473   1
   5   9  -3 243.955 106.223   1
   5   9  -2 802.390 155.813   1
  -5  -9   1 843.483 140.444   3
   5   9  -1 894.388 164.299   1
   5   9   0 1497.14 191.896   1
  -5  -9   0 1348.29 177.565   3
   5   9   1 71.2315 60.1836   1
  -5  -9  -1 94.9963 64.5370   3
   5   9   2 791.080 149.784   1
  -5  -9  -2 736.509 140.356   3
  -5  -9  -3 47.7379 70.4251   3
   5   9   3 25.3169 41.8082   1
  -5  -9  -4 32.2397 71.4754   3
  -5  -9  -4 56.2844 55.9217   2
  -5  -9  -5-101.540 94.7807   3
  -5  -9  -5 176.625 65.0747   2
  -5  -9  -6 64.2443 58.3225   3
  -5  -9  -6 201.077 64.6689   2
  -5  -9  -7 1397.11 210.908   3
  -5  -9  -7 1175.73 165.655   2
  -5  -9  -8 58.5696 77.9553   3
  -5  -9  -8 107.381 67.4634   2
   5  10  -5 1942.53 265.298   1
   5  10  -4 1316.13 213.862   1
   5  10  -3 56.9495 87.5719   1
   5  10  -2 142.894 92.7314   1
   5  10  -1 116.761 63.9943   1
   5  10   0 120.505 80.3099   1
  -5 -10  -1 1309.49 179.755   3
   5  10   1 1150.54 176.438   1
   5  10   2 768.347 140.852   1
  -5 -10  -2 680.893 135.475   3
   5  10   3 4987.85 363.679   1
  -5 -10  -3 3953.29 331.657   3
  -5 -10  -4 4890.07 343.012   2
  -5 -10  -4 5065.75 389.763   3
  -5 -10  -5-32.9134 55.9414   3
  -5 -10  -5 81.0950 83.9806   2
  -5 -10  -6 117.796 77.5541   3
  -5 -10  -6 127.673 100.863   2
  -5 -10  -7 45.3895 78.8097   3
  -5 -10  -7 147.225 87.4143   2
   5  11  -2 1296.95 207.728   1
   5  11  -1-3.23731 58.9617   1
   5  11   0 107.825 71.5403   1
   5  11   1 350.881 99.9185   1
   5  11   2 360.543 113.550   1
   5  11   3 7503.83 470.568   1
  -5 -11  -3 5861.16 427.458   3
  -5 -11  -4 109.042 91.8482   3
  -5 -11  -5 164.805 98.4833   3
  -5 -11  -5 184.079 90.1230   2
  -5 -11  -6-19.6431 60.8678   3
   5  12   2 241.198 100.573   1
   5  12   3 540.066 136.030   1
   6  -6   1 457.441 135.579   2
  -6   6  -4 754.162 168.625   1
  -6   6  -5 130.783 97.4867   1
  -6   6  -6 960.466 204.254   1
   6  -5  -1 209.275 79.0305   2
   6  -5   0 227.926 99.2422   2
   6  -5   1 177.142 76.3287   2
  -6   5  -1 182.971 83.8114   3
  -6   5  -2 82.5130 56.6359   3
   6  -5   2 11.9713 58.6451   2
  -6   5  -3-152.508 111.397   1
  -6   5  -4 423.357 159.244   1
  -6   5  -5 926.329 202.147   1
  -6   5  -6 842.705 216.740   1
  -6   5  -7 1055.68 223.669   1
  -6   5  -8 253.290 143.040   1
   6  -4  -3 66.5049 67.7835   2
   6  -4  -2 93.0393 77.4003   2
   6  -4  -1 35.1707 75.2497   2
   6  -4   0 0.26816 48.7809   2
   6  -4   1 826.381 137.198   2
  -6   4  -1 760.331 143.067   3
  -6   4  -2-69.4586 90.0704   1
  -6   4  -2 128.643 68.5394   3
   6  -4   2 101.893 64.0647   2
  -6   4  -3 40.8709 53.3693   3
  -6   4  -3 158.153 100.199   1
  -6   4  -4 180.731 73.3313   3
  -6   4  -4 322.182 130.764   1
  -6   4  -5 151.037 115.094   1
  -6   4  -6 348.221 122.022   1
  -6   4  -7 43.9056 79.0102   1
  -6   4  -8 102.697 119.978   1
  -6   4  -9 311.242 113.834   1
   6  -3  -4 292.431 119.243   2
   6  -3  -3 77.8466 67.4878   2
   6  -3  -2 511.006 120.587   2
   6  -3  -1 133.062 90.8852   2
   6  -3   0 41.8368 45.8338   2
  -6   3  -1 412.725 107.924   1
   6  -3   1 307.266 86.9833   2
  -6   3  -1 179.291 68.3240   3
  -6   3  -2 268.853 96.5578   1
  -6   3  -2 134.028 62.7783   3
   6  -3   2 275.408 89.8214   2
  -6   3  -3 5224.72 413.140   1
  -6   3  -3 5206.51 344.808   3
  -6   3  -4 819.257 145.207   3
  -6   3  -4 671.434 163.491   1
  -6   3  -5 616.964 131.644   3
  -6   3  -5 225.190 105.638   1
  -6   3  -6 550.066 114.048   3
  -6   3  -6 602.801 174.682   1
  -6   3  -7 1505.87 252.299   1
  -6   3  -8 52.9633 81.4260   1
  -6   3  -9 315.145 125.542   1
  -6   3 -10 302.657 145.717   1
   6  -2  -5 494.443 124.983   2
   6  -2  -4 205.461 88.9345   2
   6  -2  -3 372.649 116.085   2
   6  -2  -2 140.560 75.4998   2
   6  -2  -1 886.772 135.963   2
  -6   2   0 1814.41 203.293   1
  -6   2   0 2293.62 261.524   3
   6  -2   0 2118.89 200.082   2
  -6   2  -1 152.969 77.9207   1
   6  -2   1 111.526 60.6690   2
  -6   2  -1 39.4255 54.8612   3
  -6   2  -2 339.156 89.8959   3
   6  -2   2 430.584 94.8723   2
  -6   2  -3 2066.25 219.480   3
  -6   2  -4 1447.12 182.308   3
  -6   2  -5 47.7162 43.1037   3
  -6   2  -6 4087.59 284.380   3
  -6   2  -6 3200.32 323.021   1
  -6   2  -7 1027.14 131.197   3
  -6   2  -7 866.923 173.698   1
  -6   2  -8 350.048 76.8164   3
  -6   2  -8 305.723 106.462   1
  -6   2  -9 88.8826 80.3543   1
  -6   2 -10-45.0993 54.6816   1
  -6   2 -11 502.845 146.698   1
   6  -1  -6 50.4074 70.8127   2
   6  -1  -5 228.727 104.293   2
   6  -1  -4 336.826 96.4622   2
   6  -1  -3 418.593 95.8211   2
   6  -1  -2 2594.18 225.861   2
   6  -1  -1 3473.31 244.176   2
   6  -1   0-94.3700 53.2337   2
  -6   1   0-71.6109 68.2782   3
   6  -1   1 85.5423 53.2654   2
  -6   1  -1 4.58534 45.9345   3
  -6   1  -2-31.9449 49.2116   3
   6  -1   2 77.0211 48.6597   2
  -6   1  -3 929.074 160.218   3
  -6   1  -4 259.690 64.6500   3
  -6   1  -5 4943.44 336.625   3
  -6   1  -6 20973.8 717.403   3
  -6   1  -7 32.1571 54.9925   3
  -6   1  -8 1322.88 155.231   3
  -6   1  -9 66.8750 71.9345   1
  -6   1  -9 256.912 87.5923   3
  -6   1 -10 138.113 94.7729   1
  -6   1 -11 117.616 77.1317   1
  -6   1 -12 91.4523 75.2223   1
   6   0  -6 101.363 77.0199   2
   6   0  -5 85.0535 69.7350   2
   6   0  -4 661.833 120.724   2
   6   0  -3-81.5739 48.8265   2
   6   0  -2 1336.83 145.473   2
   6   0  -1 372.293 80.5950   2
  -6   0   1 514.513 126.762   3
   6   0   0 74.5462 52.6240   2
  -6   0   0 25.7507 53.4608   3
   6   0   1 84.9400 38.1254   2
  -6   0  -1 41.7207 62.7062   3
  -6   0  -2 419.684 117.789   3
   6   0   2 285.468 50.5108   2
  -6   0  -3 885.856 157.783   3
  -6   0  -4 173.156 73.2688   3
  -6   0  -5 220.133 81.3274   3
  -6   0  -6 146.474 74.1302   3
  -6   0  -7 652.970 117.533   3
  -6   0  -8 3045.04 240.207   3
  -6   0  -9 4135.45 288.506   3
  -6   0 -10 94.0087 56.7404   3
  -6   0 -11 74.1724 76.3962   1
  -6   0 -12 82.2191 69.5385   1
  -6   0 -13 142.046 78.0700   1
   6   1  -7 779.489 158.466   2
   6   1  -6 102.950 70.8352   2
   6   1  -5 146.923 99.6169   2
   6   1  -4 416.413 95.4880   2
   6   1  -3 533.178 102.915   2
   6   1  -2 52.2735 65.8583   2
  -6  -1   2 81.7647 87.8640   3
   6   1  -1 160.908 49.9125   2
  -6  -1   1 33.4760 45.1352   3
   6   1   0 265.897 54.6228   2
  -6  -1   0 333.835 97.6094   3
  -6  -1  -1 2503.73 240.850   3
   6   1   1 2050.52 117.028   2
  -6  -1  -2 7776.66 430.976   3
  -6  -1  -3 280.190 86.5124   3
  -6  -1  -4 682.298 125.913   3
  -6  -1  -5 1012.22 146.686   3
  -6  -1  -6 303.149 82.9086   3
  -6  -1  -7 465.925 95.6417   3
  -6  -1  -7 396.971 74.6990   2
  -6  -1  -8 1385.88 140.766   2
  -6  -1  -8 1342.31 160.624   3
  -6  -1  -9 1267.24 165.582   3
  -6  -1 -10 349.859 101.566   3
  -6  -1 -11 85.8404 52.1695   3
  -6  -1 -12 112.321 57.4876   3
  -6  -1 -12 211.542 106.786   1
  -6  -1 -13 124.982 82.8457   1
   6   2  -7 140.360 76.3343   2
   6   2  -6 432.081 112.591   2
   6   2  -5 1395.39 184.280   2
  -6  -2   4 47.3959 77.9715   3
   6   2  -4 118.345 71.8823   2
  -6  -2   3 421.042 117.998   3
   6   2  -3 380.092 96.2267   2
   6   2  -2 238.744 60.7874   2
  -6  -2   2 211.726 87.0742   3
  -6  -2   1 1562.79 193.472   3
   6   2  -1 1391.45 116.290   2
   6   2   0 165.696 36.2648   2
  -6  -2   0 246.350 84.4351   3
  -6  -2  -1 1040.98 154.745   3
   6   2   1 645.486 50.9517   2
  -6  -2  -2 253.386 84.6171   3
  -6  -2  -3 1468.04 178.387   3
  -6  -2  -4 40.8744 52.0596   3
  -6  -2  -5 986.330 144.652   3
  -6  -2  -6 628.271 115.431   3
  -6  -2  -7 13.0712 39.6146   3
  -6  -2  -7 54.8555 28.7527   2
  -6  -2  -8 767.262 130.894   3
  -6  -2  -9  6.3487 57.8886   3
  -6  -2 -10 363.197 101.772   3
  -6  -2 -11 72.0919 58.5162   3
  -6  -2 -12 130.377 84.7484   3
  -6  -2 -13 41.7057 63.0767   3
  -6  -2 -13 0.11094 65.2244   1
  -6  -3   7 57.6379 59.6646   3
   6   3  -7 69.3071 76.1502   2
  -6  -3   6 681.588 149.513   3
   6   3  -6 816.710 156.909   2
  -6  -3   5 175.572 84.1568   3
   6   3  -5 42.3341 60.8921   2
  -6  -3   4 848.009 156.964   3
   6   3  -4 1132.72 158.234   2
  -6  -3   3-14.1277 48.5660   3
   6   3  -3 84.4674 64.7800   2
  -6  -3   2 1719.22 193.890   3
   6   3  -2 1753.04 148.329   2
  -6  -3   1 540.112 119.968   3
   6   3  -1 546.465 72.1733   2
   6   3   0 194.266 33.0661   2
  -6  -3   0 253.633 94.2960   3
  -6  -3  -1 170.971 85.1113   3
  -6  -3  -2 2178.96 208.146   3
  -6  -3  -3 104.254 57.1623   3
  -6  -3  -4 579.433 109.428   3
  -6  -3  -5 10586.9 468.234   3
  -6  -3  -6 74.9861 50.9854   3
  -6  -3  -7 345.901 95.2152   3
  -6  -3  -8-17.0142 48.3626   3
  -6  -3  -9 2631.26 245.652   3
  -6  -3 -10 9.06915 44.7761   3
  -6  -3 -11 121.185 69.0957   3
  -6  -3 -12 188.179 91.9907   3
  -6  -3 -13 1132.58 172.086   3
  -6  -4   7 217.547 83.1396   3
   6   4  -7 273.287 76.4564   2
  -6  -4   6 67.6157 68.0015   3
   6   4  -6 7.55698 47.8523   2
  -6  -4   5 98.5350 53.8822   3
   6   4  -5 95.0858 43.3280   2
  -6  -4   4 239.675 95.3525   3
   6   4  -4 90.6504 47.9683   2
  -6  -4   3 461.106 111.849   3
   6   4  -3 360.826 76.5940   2
  -6  -4   2 2026.49 224.651   3
   6   4  -2 1953.49 160.041   2
  -6  -4   1 2666.29 260.143   3
   6   4  -1 2630.03 157.425   2
  -6  -4   0 123.530 57.0664   3
   6   4   0 116.698 29.0206   2
  -6  -4  -1 1808.14 199.014   3
  -6  -4  -2 1948.38 197.078   3
  -6  -4  -3 430.919 100.397   3
  -6  -4  -4 15.2757 41.9692   3
  -6  -4  -5-19.6449 42.0203   3
  -6  -4  -6 149.115 70.7286   3
  -6  -4  -7 704.095 127.054   3
  -6  -4  -8 1512.54 192.974   3
  -6  -4  -9 472.247 118.777   3
  -6  -4 -10 421.909 109.139   3
  -6  -4 -11 382.490 111.884   3
  -6  -4 -12-23.0039 53.7937   3
  -6  -5   7 60.1033 55.8269   3
  -6  -5   6 111.914 66.5871   3
   6   5  -6-41.6485 65.8136   2
  -6  -5   5 750.440 142.665   3
   6   5  -5 632.717 129.922   2
  -6  -5   4 200.506 77.0126   3
   6   5  -4 348.754 94.5604   2
  -6  -5   3 118.235 67.5806   3
   6   5  -3 32.2548 49.5425   2
  -6  -5   2 584.213 130.137   3
   6   5  -2 364.393 72.7662   2
  -6  -5   1 1273.22 173.530   3
   6   5  -1 1212.12 115.540   2
  -6  -5   0 1932.53 203.867   3
   6   5   0 2219.93 132.698   2
  -6  -5  -1 61184.1 1462.62   3
  -6  -5  -2 1096.08 154.876   3
  -6  -5  -3 581.030 115.994   3
  -6  -5  -4 100.492 45.8601   3
  -6  -5  -5 621.080 117.891   3
  -6  -5  -6 742.247 130.860   3
  -6  -5  -7 1518.82 190.001   3
  -6  -5  -8 714.821 139.836   3
  -6  -5  -9 208.992 96.7711   3
  -6  -5 -10 160.982 60.9546   3
  -6  -5 -11 91.0157 71.3208   3
  -6  -5 -12-14.9330 67.3824   3
   6   6  -5 11.4176 59.0363   1
  -6  -6   5 113.553 58.7149   3
   6   6  -5 53.3045 48.5036   2
   6   6  -4 1188.18 168.948   1
  -6  -6   4 1492.64 206.470   3
   6   6  -4 1516.05 188.144   2
  -6  -6   3 262.682 96.6091   3
   6   6  -3 237.648 88.5781   1
   6   6  -3 185.577 60.5065   2
  -6  -6   2-61.7816 64.6709   3
   6   6  -2-64.5244 44.6858   1
  -6  -6   1 1920.04 207.869   3
  -6  -6   0 14519.3 589.286   3
  -6  -6  -1 1237.84 160.870   3
  -6  -6  -2 204.776 75.0455   3
  -6  -6  -3 1757.36 189.240   3
  -6  -6  -4 698.436 132.420   3
  -6  -6  -5 51.6883 60.3660   3
  -6  -6  -6 92.2071 77.5226   3
  -6  -6  -7 97.0551 68.3602   3
  -6  -6  -8 330.980 104.792   3
  -6  -6  -9 233.642 89.0148   3
  -6  -6 -10 47.6550 63.0352   3
  -6  -6 -11-14.6360 69.1526   3
   6   7  -6 275.658 104.770   1
   6   7  -5 7.69788 68.5415   1
   6   7  -4 52.8026 51.9226   1
  -6  -7   4 32.2605 51.1613   3
  -6  -7   3 1818.25 205.030   3
   6   7  -3 1935.92 226.284   1
   6   7  -2 983.039 160.814   1
  -6  -7   2 849.211 138.896   3
   6   7  -1 587.660 129.717   1
  -6  -7   1 557.670 116.558   3
  -6  -7   0 13.2041 44.6095   3
   6   7   0 202.578 69.8325   1
  -6  -7  -1 3019.12 260.025   3
  -6  -7  -2 1052.50 160.325   3
  -6  -7  -3 1780.09 210.010   3
  -6  -7  -4 2028.50 223.397   3
  -6  -7  -5 292.652 96.6483   3
  -6  -7  -6 145.177 82.1733   3
  -6  -7  -7 121.006 76.1049   3
  -6  -7  -8 1493.38 206.256   3
  -6  -7  -9-112.060 57.9022   3
  -6  -7 -10 39.6787 57.8171   3
   6   8  -6 21.9366 42.5551   1
   6   8  -5 152.081 90.8459   1
   6   8  -4 1211.24 194.829   1
   6   8  -3 703.954 136.201   1
  -6  -8   3 457.292 100.623   3
   6   8  -2-73.3675 46.5091   1
  -6  -8   2 66.7096 59.3978   3
   6   8  -1 54.3447 55.7345   1
  -6  -8   1-17.7176 47.7990   3
   6   8   0 538.509 131.871   1
  -6  -8   0 691.468 128.432   3
  -6  -8  -1 66.7693 63.6789   3
   6   8   1 83.9396 64.4022   1
  -6  -8  -2 130.915 69.7408   3
  -6  -8  -3 63.1590 87.6102   3
  -6  -8  -4 119.871 80.8385   3
  -6  -8  -5 1431.28 209.658   3
  -6  -8  -6 213.110 92.8353   3
  -6  -8  -7 366.596 109.831   3
  -6  -8  -8 163.686 85.3703   3
  -6  -8  -9 491.997 133.158   3
   6   9  -5 115.914 61.7658   1
   6   9  -4 18.0771 49.8816   1
   6   9  -3 727.075 145.894   1
   6   9  -2 74.9306 70.5478   1
   6   9  -1 551.781 123.777   1
  -6  -9   1 513.335 102.686   3
   6   9   0 2780.03 277.457   1
  -6  -9   0 2691.16 253.521   3
   6   9   1 287.405 90.9895   1
  -6  -9  -1 344.435 98.2833   3
  -6  -9  -2 1277.44 196.870   3
  -6  -9  -3 121.502 100.158   3
  -6  -9  -4 178.088 96.2743   3
  -6  -9  -5 112.766 82.9301   3
  -6  -9  -6 1013.05 188.803   3
  -6  -9  -7 328.455 118.473   3
  -6  -9  -8 69.6308 95.9461   3
   6  10  -4 104.815 84.1038   1
   6  10  -3 34.8202 54.3585   1
   6  10  -2 295.693 114.427   1
   6  10  -1 1080.54 182.696   1
   6  10   0 374.553 115.239   1
   6  10   1 228.223 84.5396   1
  -6 -10  -1 106.829 73.5091   3
  -6 -10  -2 44.7258 50.7921   3
   6  10   2-15.9838 75.7977   1
  -6 -10  -3 799.261 171.995   3
  -6 -10  -4 72.0025 68.6975   3
  -6 -10  -5 119.974 100.999   3
  -6 -10  -6 388.616 125.464   3
  -6 -10  -7 319.266 138.899   3
   6  11  -1-16.6879 69.5384   1
   6  11   0 374.540 122.991   1
   6  11   1 514.706 138.510   1
   6  11   2 198.977 88.5439   1
  -6 -11  -3 1687.87 224.615   3
  -6 -11  -4 1571.89 232.722   3
  -6 -11  -5 248.794 96.8656   3
  -6 -11  -6 63.4414 92.6201   3
  -7   5  -5 1240.31 264.386   1
  -7   5  -6 93.7378 117.750   1
  -7   4   0 14.8573 51.9901   3
  -7   4  -1 186.056 88.1345   3
  -7   4  -2 145.113 65.4917   3
  -7   4  -3 132.517 53.7457   3
  -7   4  -4-60.9690 82.9997   1
  -7   4  -5 323.415 160.750   1
  -7   4  -6 464.067 182.670   1
  -7   4  -7 396.526 165.663   1
  -7   3   1 328.980 137.594   3
  -7   3   0 122.399 78.5459   3
  -7   3  -1 116.454 70.7030   3
  -7   3  -2 38.8713 56.4740   3
  -7   3  -3 408.798 104.624   3
  -7   3  -3 509.237 142.216   1
  -7   3  -4-29.1412 61.3843   3
  -7   3  -4 80.6647 65.5588   1
  -7   3  -5 159.455 72.4991   3
  -7   3  -5-82.0039 79.0303   1
  -7   3  -6-46.2621 75.3621   1
  -7   3  -7 234.542 95.1879   1
  -7   3  -8 120.985 66.4515   1
  -7   3  -9 309.846 116.109   1
  -7   2   2 323.356 137.924   3
  -7   2   1 963.755 194.161   3
  -7   2   0 281.994 107.008   3
  -7   2  -1 317.665 100.919   3
  -7   2  -2 831.744 198.465   1
  -7   2  -2 458.564 110.970   3
  -7   2  -3 301.221 115.609   1
  -7   2  -3 363.735 104.780   3
  -7   2  -4-83.8106 67.6924   3
  -7   2  -4-158.596 113.806   1
  -7   2  -5 1630.37 202.278   3
  -7   2  -5 1354.17 225.893   1
  -7   2  -6 140.364 62.8202   3
  -7   2  -6 25.0342 67.0866   1
  -7   2  -7 3.65734 77.7737   1
  -7   2  -7-14.6951 49.7512   3
  -7   2  -8 978.055 183.039   1
  -7   2  -9 127.386 91.6738   1
  -7   2 -10 570.638 139.510   1
  -7   1   3 73.2272 82.8347   3
  -7   1   2-74.4132 64.8469   3
  -7   1   1 4413.26 387.369   3
  -7   1   0 479.533 123.399   3
  -7   1  -1 78.8655 61.2344   3
  -7   1  -2 457.617 128.440   3
  -7   1  -3 134.010 74.6135   3
  -7   1  -4 3311.72 292.439   3
  -7   1  -5 142.909 51.1889   3
  -7   1  -6 170.407 69.9188   3
  -7   1  -7 1225.32 178.434   3
  -7   1  -8 105.997 61.6641   3
  -7   1  -9-45.0148 56.7696   1
  -7   1 -10 58.6464 64.2522   1
  -7   1 -11 183.260 85.2193   1
  -7   0   4 228.361 118.365   3
  -7   0   3 122.614 97.8292   3
  -7   0   2 15684.2 761.335   3
  -7   0   1 5334.13 400.102   3
  -7   0   0 299.679 102.712   3
  -7   0  -1 132.974 83.4565   3
  -7   0  -2-43.7845 53.6070   3
  -7   0  -3 919.772 171.274   3
  -7   0  -4 175.600 73.6754   3
  -7   0  -5 702.254 143.244   3
  -7   0  -6 5826.12 388.436   3
  -7   0  -7 1606.40 202.709   3
  -7   0  -8-30.7551 46.8262   3
  -7   0  -9 183.129 75.3810   3
  -7   0 -10 109.556 63.5222   3
  -7   0 -11 20.4945 75.7383   1
  -7  -1   4 138.937 113.457   3
  -7  -1   3 100.501 75.7653   3
  -7  -1   2 1771.63 236.335   3
  -7  -1   1 1035.12 174.533   3
  -7  -1   0 3320.97 311.886   3
  -7  -1  -1 459.136 122.004   3
  -7  -1  -2 386.853 106.689   3
  -7  -1  -3 140.881 89.1687   3
  -7  -1  -4 419.368 100.938   3
  -7  -1  -5-3.98564 53.1993   3
  -7  -1  -6 1719.77 208.240   3
  -7  -1  -7 297.481 96.8042   3
  -7  -1  -8 73.7109 68.5400   3
  -7  -1  -9 1622.33 192.123   3
  -7  -1 -10 365.501 95.5639   3
  -7  -1 -11 223.475 86.7824   3
  -7  -1 -12 102.402 89.4788   1
  -7  -2   5 3052.35 350.398   3
  -7  -2   4-34.9463 76.2333   3
  -7  -2   3 602.817 143.133   3
  -7  -2   2 414.964 118.164   3
  -7  -2   1 79.7246 74.0121   3
  -7  -2   0-0.17260 69.7079   3
  -7  -2  -1 4034.54 333.710   3
  -7  -2  -2 1160.65 181.430   3
  -7  -2  -3 672.517 141.778   3
  -7  -2  -4 392.034 106.918   3
  -7  -2  -5 60.8631 77.1482   3
  -7  -2  -6 887.134 160.295   3
  -7  -2  -7 1690.80 200.211   3
  -7  -2  -8 171.364 65.4649   3
  -7  -2  -9 1212.15 176.993   3
  -7  -2 -10 278.344 93.3850   3
  -7  -2 -11 454.636 113.137   3
  -7  -2 -12-91.8922 56.8685   3
  -7  -3   5 135.365 77.8863   3
  -7  -3   4 98.8472 79.2027   3
  -7  -3   3 159.547 84.5872   3
  -7  -3   2 1142.08 187.147   3
  -7  -3   1 48.6512 59.4997   3
  -7  -3   0 132.540 75.6145   3
  -7  -3  -1 0.08401 66.6039   3
  -7  -3  -2-81.7056 66.3718   3
  -7  -3  -3 440.233 115.481   3
  -7  -3  -4 1103.35 159.683   3
  -7  -3  -5 175.493 77.4854   3
  -7  -3  -6 41.6682 45.6119   3
  -7  -3  -7-47.6571 44.5794   3
  -7  -3  -8 199.070 75.1321   3
  -7  -3  -9 149.860 90.5736   3
  -7  -3 -10 201.516 87.3755   3
  -7  -3 -11 497.517 120.828   3
  -7  -3 -12 107.695 66.7519   3
  -7  -4   6 261.119 86.8208   3
  -7  -4   5 529.626 121.024   3
  -7  -4   4 284.668 111.984   3
  -7  -4   3 4246.19 353.744   3
  -7  -4   2 1453.21 207.776   3
  -7  -4   1 140.453 85.5047   3
  -7  -4   0-9.75250 73.3538   3
  -7  -4  -1-21.3199 64.8853   3
  -7  -4  -2 660.456 125.111   3
  -7  -4  -3 305.709 96.1546   3
  -7  -4  -4 17.3645 61.1675   3
  -7  -4  -5 345.894 90.4455   3
  -7  -4  -6 3272.01 275.375   3
  -7  -4  -7 54.3872 61.3601   3
  -7  -4  -8 101.840 76.5160   3
  -7  -4  -9 501.435 107.688   3
  -7  -4 -10 56.4329 54.5024   3
  -7  -4 -11 108.254 70.3523   3
  -7  -4 -12 362.608 122.570   3
  -7  -5   6 397.303 117.852   3
  -7  -5   5 120.212 71.6938   3
  -7  -5   4 94.4289 72.7472   3
  -7  -5   3 1261.96 198.456   3
  -7  -5   2 888.236 172.433   3
  -7  -5   1 505.080 120.826   3
  -7  -5   0 236.962 101.113   3
  -7  -5  -1 230.000 83.3807   3
  -7  -5  -2 356.694 102.424   3
  -7  -5  -3 112.672 65.7755   3
  -7  -5  -4 123.577 64.2389   3
  -7  -5  -5 1041.23 155.854   3
  -7  -5  -6-100.448 74.0186   3
  -7  -5  -7 777.068 138.321   3
  -7  -5  -8-3.90103 43.6740   3
  -7  -5  -9 6174.91 414.393   3
  -7  -5 -10 539.137 125.268   3
  -7  -5 -11 746.172 149.310   3
  -7  -6   5 71.0642 69.1347   3
  -7  -6   4 30.5061 76.6643   3
  -7  -6   3 177.716 96.5626   3
  -7  -6   2-37.8113 64.7691   3
  -7  -6   1 221.616 93.0631   3
  -7  -6   0 983.927 164.534   3
  -7  -6  -1-21.3838 60.4060   3
  -7  -6  -2 191.254 77.9651   3
  -7  -6  -3 350.707 84.6177   3
  -7  -6  -4 342.922 107.204   3
  -7  -6  -5 294.275 95.9673   3
  -7  -6  -6 180.634 76.8861   3
  -7  -6  -7 412.741 120.005   3
  -7  -6  -8 7961.94 472.961   3
  -7  -6  -9 7343.91 457.208   3
  -7  -6 -10 86.7555 71.8188   3
  -7  -6 -11 173.217 70.7833   3
  -7  -7   4 70.9192 49.6682   3
  -7  -7   3 595.024 141.264   3
  -7  -7   2 57.7449 74.6956   3
  -7  -7   1 77.6457 65.7427   3
  -7  -7   0-30.9174 66.2495   3
  -7  -7  -1 36.4024 57.7566   3
  -7  -7  -2 167.664 69.8513   3
  -7  -7  -3 29.8989 63.0197   3
  -7  -7  -4 95.1245 57.0096   3
  -7  -7  -5 316.301 102.899   3
  -7  -7  -6 439.033 120.836   3
  -7  -7  -7 559.155 141.146   3
  -7  -7  -8 1351.46 197.636   3
  -7  -7  -9 81.1949 61.9154   3
  -7  -7 -10 618.379 149.367   3
  -7  -8   3 441.100 109.239   3
  -7  -8   2-62.8578 56.4228   3
  -7  -8   1 56.5591 51.3405   3
  -7  -8   0 89.5023 68.1461   3
  -7  -8  -1 31.4088 53.2440   3
  -7  -8  -2 77.6387 81.2601   3
  -7  -8  -3 380.313 105.393   3
  -7  -8  -4 1157.40 193.103   3
  -7  -8  -5 2268.38 256.653   3
  -7  -8  -6 68.9301 78.6837   3
  -7  -8  -7 471.575 127.085   3
  -7  -8  -8 114.806 67.8943   3
  -7  -8  -9 137.621 83.9314   3
   7   9  -4 59.7811 48.9778   1
   7   9  -3 67.0191 82.2270   1
   7   9  -2 82.5716 84.7771   1
  -7  -9   1 51.9634 66.3253   3
   7   9  -1 110.721 59.8391   1
  -7  -9   0 35.8593 47.1718   3
  -7  -9  -1 32.2265 78.0929   3
  -7  -9  -2 118.976 88.7814   3
  -7  -9  -3 165.649 87.7054   3
  -7  -9  -4 1081.84 190.044   3
  -7  -9  -5 156.174 90.0019   3
  -7  -9  -6 152.678 76.5175   3
  -7  -9  -7 409.493 137.984   3
  -7  -9  -8 1113.50 204.448   3
   7  10  -2 419.265 117.248   1
   7  10  -1 103.353 73.5076   1
  -7 -10   0-12.7394 47.1030   3
   7  10   0 106.493 57.6301   1
  -7 -10  -1 255.505 105.417   3
  -7 -10  -2 195.647 106.907   3
  -7 -10  -3 273.285 103.254   3
  -7 -10  -4 357.062 124.587   3
  -7 -10  -5 423.778 132.607   3
  -7 -10  -6 61.5187 78.5438   3
  -7 -10  -7 1882.07 262.517   3
  -7 -11  -2 329.336 99.7166   3
  -7 -11  -3 4.77242 52.3498   3
  -7 -11  -4 310.409 124.869   3
  -7 -11  -5 25.8165 62.0586   3
  -8   3  -2-39.9703 40.8811   3
  -8   3  -3 245.806 78.5255   3
  -8   3  -4 399.171 162.092   1
  -8   3  -4-63.3478 44.2655   3
  -8   3  -5 366.640 136.554   1
  -8   3  -6 275.303 129.743   1
  -8   2  -1 205.582 93.7493   3
  -8   2  -2-82.0722 64.5975   3
  -8   2  -3 144.671 86.3709   3
  -8   2  -3 245.928 139.039   1
  -8   2  -4 406.258 96.8911   3
  -8   2  -4 534.539 143.902   1
  -8   2  -5 22.7559 120.819   1
  -8   2  -6 5.99122 45.3006   3
  -8   2  -6 180.655 107.166   1
  -8   2  -7 139.394 97.6538   1
  -8   2  -8  9.4097 65.4778   1
  -8   1   0 173.608 76.5163   3
  -8   1  -1 998.551 184.357   3
  -8   1  -2 82.2735 54.8641   3
  -8   1  -3 3458.32 324.460   3
  -8   1  -4 718.173 149.843   3
  -8   1  -5 456.565 117.257   3
  -8   1  -6-17.8478 43.3586   3
  -8   1  -7 569.214 131.057   3
  -8   1  -8 18.8862 44.6529   3
  -8   1  -9-63.5912 89.5246   1
  -8   0   1 1953.24 272.445   3
  -8   0   0 351.162 106.952   3
  -8   0  -1-24.4966 52.6427   3
  -8   0  -2 93.0739 94.3004   3
  -8   0  -3 1221.19 196.102   3
  -8   0  -4 394.769 108.048   3
  -8   0  -5 331.348 100.279   3
  -8   0  -6 5313.97 399.647   3
  -8   0  -7 3696.49 327.613   3
  -8   0  -8 73.6245 61.6056   3
  -8   0  -9-10.7406 63.8699   3
  -8  -1   2 1062.89 203.773   3
  -8  -1   1 3431.27 337.639   3
  -8  -1   0 165.527 87.2850   3
  -8  -1  -1 64.3937 73.8664   3
  -8  -1  -2-42.6549 72.0359   3
  -8  -1  -3 398.314 122.714   3
  -8  -1  -4 155.117 74.4779   3
  -8  -1  -5 851.301 163.000   3
  -8  -1  -6 10227.1 554.379   3
  -8  -1  -7-83.8941 71.8484   3
  -8  -1  -8 1224.81 190.450   3
  -8  -1  -9 218.325 89.4296   3
  -8  -1 -10 241.438 93.2266   3
  -8  -2   2 131.787 81.8639   3
  -8  -2   1 115.072 87.4768   3
  -8  -2   0 56.3108 81.6345   3
  -8  -2  -1 181.355 87.9606   3
  -8  -2  -2 728.944 161.188   3
  -8  -2  -3 1021.80 174.908   3
  -8  -2  -4 97.7688 76.0523   3
  -8  -2  -5 199.724 105.298   3
  -8  -2  -6 59.4579 56.6994   3
  -8  -2  -7 103.847 69.0941   3
  -8  -2  -8 1916.61 233.106   3
  -8  -2  -9 3261.28 308.843   3
  -8  -2 -10 62.7228 76.0792   3
  -8  -2 -11 2.87901 52.1833   3
  -8  -3   3 166.408 102.371   3
  -8  -3   2-85.0709 63.9420   3
  -8  -3   1 7.90805 61.8112   3
  -8  -3   0 159.018 76.0940   3
  -8  -3  -1 475.615 128.838   3
  -8  -3  -2 3239.54 309.581   3
  -8  -3  -3 825.346 164.857   3
  -8  -3  -4-15.6664 70.8642   3
  -8  -3  -5 426.005 114.942   3
  -8  -3  -6 78.5777 64.0862   3
  -8  -3  -7 123.458 76.0877   3
  -8  -3  -8 431.890 123.253   3
  -8  -3  -9 1219.71 190.006   3
  -8  -3 -10 87.4978 69.2948   3
  -8  -3 -11 40.5166 60.1752   3
  -8  -3 -12 8.33140 51.8523   3
  -8  -4   3 520.245 142.260   3
  -8  -4   2 358.744 126.296   3
  -8  -4   1 246.152 120.991   3
  -8  -4   0 409.903 111.103   3
  -8  -4  -1 159.189 78.6068   3
  -8  -4  -2-32.8682 60.5430   3
  -8  -4  -3 73.5695 72.2400   3
  -8  -4  -4-14.7652 63.8077   3
  -8  -4  -5 1461.51 198.421   3
  -8  -4  -6 1214.57 183.389   3
  -8  -4  -7 22.5346 54.3918   3
  -8  -4  -8 197.305 81.4067   3
  -8  -4  -9 106.667 84.0006   3
  -8  -4 -10 906.358 171.097   3
  -8  -4 -11 30.8059 52.7304   3
  -8  -5   4 135.588 75.4976   3
  -8  -5   3-145.189 90.3066   3
  -8  -5   2 1301.60 210.609   3
  -8  -5   1 384.216 123.734   3
  -8  -5   0-46.1152 76.3284   3
  -8  -5  -1-46.6914 62.7006   3
  -8  -5  -2 751.153 145.308   3
  -8  -5  -3 252.539 101.439   3
  -8  -5  -4 49.9297 55.5422   3
  -8  -5  -5 3336.32 296.554   3
  -8  -5  -6 101.847 82.7265   3
  -8  -5  -7 256.831 108.187   3
  -8  -5  -8 13.7416 55.0626   3
  -8  -5  -9 915.464 167.060   3
  -8  -5 -10 224.362 89.8242   3
  -8  -6   4 23.5556 66.1732   3
  -8  -6   3 86.7790 68.5088   3
  -8  -6   2 647.156 146.556   3
  -8  -6   1 744.619 150.603   3
  -8  -6   0-32.9493 54.9587   3
  -8  -6  -1 2649.09 282.337   3
  -8  -6  -2 5161.67 389.421   3
  -8  -6  -3-35.6867 54.9497   3
  -8  -6  -4 98.1666 62.6315   3
  -8  -6  -5 23.1817 70.6112   3
  -8  -6  -6 92.1535 49.1345   3
  -8  -6  -7 520.473 126.675   3
  -8  -6  -8 1815.55 225.329   3
  -8  -6  -9-18.4830 73.0456   3
  -8  -6 -10 15.1543 56.5915   3
  -8  -7   4 118.224 86.8304   3
  -8  -7   3 128.662 94.5847   3
  -8  -7   2 45.0488 80.7921   3
  -8  -7   1 447.768 132.412   3
  -8  -7   0 202.782 94.9217   3
  -8  -7  -1 22146.6 856.574   3
  -8  -7  -2 1227.73 189.116   3
  -8  -7  -3 87.6972 71.4630   3
  -8  -7  -4 87.9814 78.9440   3
  -8  -7  -5 142.585 84.6899   3
  -8  -7  -6 380.625 107.645   3
  -8  -7  -7 373.785 117.612   3
  -8  -7  -8 333.207 114.951   3
  -8  -7  -9 197.718 93.9291   3
  -8  -8   3-50.4588 68.2823   3
  -8  -8   2 105.120 78.7190   3
  -8  -8   1 445.936 125.865   3
  -8  -8   0 1571.99 217.608   3
  -8  -8  -1 190.209 98.8029   3
  -8  -8  -2 573.345 135.849   3
  -8  -8  -3 978.944 172.205   3
  -8  -8  -4 683.538 149.904   3
  -8  -8  -5 262.443 105.464   3
  -8  -8  -6-7.11678 60.2453   3
  -8  -8  -7-42.4605 53.9180   3
  -8  -8  -8 201.948 101.955   3
  -8  -9   1 111.424 80.1492   3
  -8  -9   0 138.854 82.7154   3
  -8  -9  -1 726.954 154.684   3
  -8  -9  -2 0.20528 46.9799   3
  -8  -9  -3 175.428 95.4909   3
  -8  -9  -4 709.678 159.465   3
  -8  -9  -5 417.732 146.365   3
  -8  -9  -6 251.367 109.680   3
  -8  -9  -7 87.2740 88.2697   3
  -8 -10  -1 45.0332 46.5080   3
  -8 -10  -2 194.907 113.876   3
  -8 -10  -3 120.146 73.5147   3
  -8 -10  -4 25.9768 78.2629   3
  -8 -10  -5 181.682 107.327   3
  -8 -11  -3 79.0982 70.0835   3
  -9   1  -4 145.450 86.4919   3
  -9   1  -5 77.2827 65.0224   3
  -9   1  -6 144.115 75.8984   3
  -9   1  -7 487.538 128.595   3
  -9   0  -3 247.744 102.186   3
  -9   0  -4 23.7207 62.1311   3
  -9   0  -5 1424.72 218.867   3
  -9   0  -6 115.848 80.7395   3
  -9   0  -7 300.613 115.508   3
  -9   0  -8 712.639 148.668   3
  -9  -1  -2 289.279 125.328   3
  -9  -1  -3-166.180 99.6607   3
  -9  -1  -4 1413.90 207.590   3
  -9  -1  -5 227.905 103.258   3
  -9  -1  -6-48.3189 67.8439   3
  -9  -1  -7 1868.25 250.570   3
  -9  -1  -8 98.8621 62.5397   3
  -9  -1  -9 97.1670 91.1160   3
  -9  -2  -1 567.802 142.401   3
  -9  -2  -2 85.5374 70.6998   3
  -9  -2  -3 160.297 88.2671   3
  -9  -2  -4 220.787 104.475   3
  -9  -2  -5 968.572 174.963   3
  -9  -2  -6 1623.59 234.949   3
  -9  -2  -7 1340.36 213.921   3
  -9  -2  -8-70.1088 67.9026   3
  -9  -2  -9 18.4429 61.7990   3
  -9  -2 -10 120.945 81.2154   3
  -9  -3   0 1572.53 240.223   3
  -9  -3  -1 142.283 89.2504   3
  -9  -3  -2 482.620 125.438   3
  -9  -3  -3 171.838 90.3558   3
  -9  -3  -4 193.325 88.9534   3
  -9  -3  -5 219.263 105.074   3
  -9  -3  -6 786.971 157.771   3
  -9  -3  -7 88.8454 65.3085   3
  -9  -3  -8 174.164 93.1847   3
  -9  -3  -9 842.329 163.027   3
  -9  -3 -10 546.885 140.726   3
  -9  -4   0-74.8966 74.3364   3
  -9  -4  -1 1567.41 227.312   3
  -9  -4  -2 467.399 140.196   3
  -9  -4  -3 193.141 90.2673   3
  -9  -4  -4 152.257 101.429   3
  -9  -4  -5 229.270 88.9032   3
  -9  -4  -6 551.394 140.786   3
  -9  -4  -7 750.724 167.533   3
  -9  -4  -8 37.0832 62.0673   3
  -9  -4  -9 335.806 112.067   3
  -9  -5   1 223.031 124.990   3
  -9  -5   0 64.9609 83.6898   3
  -9  -5  -1 84.9758 77.2455   3
  -9  -5  -2 220.439 110.478   3
  -9  -5  -3 86.4626 88.9021   3
  -9  -5  -4 148.896 85.1293   3
  -9  -5  -5 59.5218 69.0281   3
  -9  -5  -6 79.7043 84.7866   3
  -9  -5  -7 193.025 82.7526   3
  -9  -5  -8 227.135 104.723   3
  -9  -5  -9 51.7883 77.4903   3
  -9  -6   1-91.1157 67.3973   3
  -9  -6   0-146.815 101.307   3
  -9  -6  -1 47.3396 111.968   3
  -9  -6  -2 583.874 154.316   3
  -9  -6  -3 156.014 77.2194   3
  -9  -6  -4-39.2406 60.0061   3
  -9  -6  -5 138.131 52.5872   3
  -9  -6  -6 1570.70 213.875   3
  -9  -6  -7 18.7097 67.5440   3
  -9  -6  -8 225.530 103.342   3
  -9  -7   1 406.474 136.955   3
  -9  -7   0 170.338 115.830   3
  -9  -7  -1 77.0464 74.0387   3
  -9  -7  -2 62.8869 57.7653   3
  -9  -7  -3 70.0274 74.8713   3
  -9  -7  -4-66.6616 54.2988   3
  -9  -7  -5 202.578 94.3596   3
  -9  -7  -6-82.4607 66.3572   3
  -9  -7  -7 248.527 124.334   3
  -9  -8   1 197.450 106.014   3
  -9  -8   0 322.088 116.731   3
  -9  -8  -1 174.903 101.124   3
  -9  -8  -2 77.9394 72.5829   3
  -9  -8  -3 80.0876 74.5213   3
  -9  -8  -4 167.286 86.8915   3
  -9  -8  -5 56.9755 52.6997   3
  -9  -8  -6 144.870 79.3599   3
  -9  -9   0-60.0938 68.2920   3
  -9  -9  -1 72.2222 67.0781   3
  -9  -9  -2 114.452 69.7812   3
  -9  -9  -3 0.92969 59.9634   3
  -9  -9  -4 91.8097 78.9454   3
   0   0   0    0.00    0.00   0
;
_shelx_hkl_checksum              1139
loop_
_space_group_symop_operation_xyz
'x, y, z'
'-x, -y, -z'
loop_
_atom_site_label
_atom_site_type_symbol
_atom_site_fract_x
_atom_site_fract_y
_atom_site_fract_z
_atom_site_U_iso_or_equiv
_atom_site_adp_type
_atom_site_occupancy
_atom_site_site_symmetry_order
_atom_site_calc_flag
_atom_site_refinement_flags_posn
_atom_site_refinement_flags_adp
N1 N 0.3746(3) 0.8620(2) 0.9344(2) 0.0248(5) Uani 1 1 d . .
H1 H 0.3041 0.9289 1.0186 0.030 Uiso 1 1 calc R U
C1 C 0.3559(4) 0.9072(3) 0.8020(3) 0.0231(5) Uani 1 1 d . .
H1A H 0.2667 1.0131 0.7856 0.028 Uiso 1 1 calc R U
C2 C 0.4910(3) 0.7698(3) 0.6982(2) 0.0195(5) Uani 1 1 d . .
C3 C 0.5943(3) 0.6381(3) 0.7715(2) 0.0183(5) Uani 1 1 d . .
C4 C 0.5171(4) 0.6995(3) 0.9181(2) 0.0221(5) Uani 1 1 d . .
H4 H 0.5554 0.6403 0.9938 0.027 Uiso 1 1 calc R U
C5 C 0.5700(3) 0.7063(3) 0.5410(2) 0.0171(4) Uani 1 1 d . .
C6 C 0.5415(3) 0.7658(3) 0.4140(2) 0.0205(5) Uani 1 1 d . .
H6 H 0.4483 0.8787 0.4170 0.025 Uiso 1 1 calc R U
C7 C 0.6519(3) 0.6576(3) 0.2797(2) 0.0198(5) Uani 1 1 d . .
H7 H 0.6308 0.6996 0.1930 0.024 Uiso 1 1 calc R U
C8 C 0.7900(3) 0.4922(3) 0.2697(2) 0.0188(5) Uani 1 1 d . .
C9 C 0.8257(3) 0.4297(3) 0.3975(2) 0.0170(5) Uani 1 1 d . .
C10 C 0.9663(3) 0.2647(3) 0.4006(2) 0.0178(4) Uani 1 1 d . .
C11 C 0.9877(3) 0.2160(3) 0.5330(2) 0.0184(5) Uani 1 1 d . .
H11 H 1.0818 0.1048 0.5341 0.022 Uiso 1 1 calc R U
C12 C 0.8742(3) 0.3265(3) 0.6658(2) 0.0190(5) Uani 1 1 d . .
H12 H 0.8919 0.2903 0.7548 0.023 Uiso 1 1 calc R U
C13 C 0.7372(3) 0.4879(3) 0.6648(2) 0.0172(4) Uani 1 1 d . .
C14 C 0.7153(3) 0.5371(3) 0.5288(2) 0.0167(4) Uani 1 1 d . .
C15 C 0.8989(3) 0.3758(3) 0.1325(2) 0.0195(5) Uani 1 1 d . .
C16 C 1.0846(3) 0.1536(3) 0.2613(2) 0.0195(5) Uani 1 1 d . .
O1 O 0.8761(3) 0.4005(2) 0.01569(17) 0.0252(4) Uani 1 1 d . .
O3 O 1.0467(2) 0.21539(19) 0.13675(16) 0.0213(4) Uani 1 1 d . .
O4 O 1.2142(2) 0.00994(19) 0.24202(17) 0.0245(4) Uani 1 1 d . .
loop_
_atom_site_aniso_label
_atom_site_aniso_U_11
_atom_site_aniso_U_22
_atom_site_aniso_U_33
_atom_site_aniso_U_23
_atom_site_aniso_U_13
_atom_site_aniso_U_12
N1 0.0243(10) 0.0258(11) 0.0166(10) -0.0055(8) 0.0012(8) -0.0098(9)
C1 0.0206(11) 0.0198(11) 0.0245(12) 0.0017(9) -0.0041(9) -0.0074(9)
C2 0.0180(10) 0.0213(11) 0.0168(11) -0.0006(9) -0.0012(9) -0.0099(9)
C3 0.0176(10) 0.0195(11) 0.0163(10) -0.0001(8) -0.0025(8) -0.0095(9)
C4 0.0213(11) 0.0251(12) 0.0177(11) 0.0012(9) -0.0026(9) -0.0110(10)
C5 0.0147(10) 0.0196(11) 0.0154(10) 0.0009(8) -0.0023(8) -0.0081(9)
C6 0.0183(11) 0.0177(11) 0.0238(12) 0.0028(9) -0.0071(9) -0.0063(9)
C7 0.0206(11) 0.0230(11) 0.0167(10) 0.0042(9) -0.0067(9) -0.0100(9)
C8 0.0174(11) 0.0230(12) 0.0166(11) 0.0013(9) -0.0041(9) -0.0107(9)
C9 0.0162(10) 0.0202(11) 0.0148(10) 0.0001(8) -0.0026(8) -0.0103(9)
C10 0.0163(10) 0.0178(11) 0.0174(11) 0.0001(9) -0.0027(8) -0.0078(9)
C11 0.0165(10) 0.0165(10) 0.0187(11) 0.0012(8) -0.0040(8) -0.0053(8)
C12 0.0190(11) 0.0227(11) 0.0169(10) 0.0052(9) -0.0063(9) -0.0105(9)
C13 0.0166(10) 0.0178(11) 0.0166(10) 0.0017(8) -0.0040(8) -0.0083(9)
C14 0.0131(10) 0.0182(11) 0.0170(11) 0.0013(9) -0.0032(8) -0.0066(8)
C15 0.0180(11) 0.0233(12) 0.0167(11) 0.0026(9) -0.0023(9) -0.0116(9)
C16 0.0193(11) 0.0234(11) 0.0169(11) 0.0044(9) -0.0041(9) -0.0123(9)
O1 0.0293(9) 0.0303(9) 0.0156(8) 0.0018(7) -0.0055(7) -0.0142(8)
O3 0.0210(8) 0.0235(9) 0.0154(8) -0.0001(6) -0.0031(6) -0.0082(7)
O4 0.0247(9) 0.0194(8) 0.0198(8) -0.0030(7) -0.0010(7) -0.0055(7)
loop_
_atom_type_symbol
_atom_type_description
_atom_type_scat_dispersion_real
_atom_type_scat_dispersion_imag
_atom_type_scat_source
C C 0.0033 0.0016 'International Tables Vol C Tables 4.2.6.8 and 6.1.1.4'
H H 0.0000 0.0000 'International Tables Vol C Tables 4.2.6.8 and 6.1.1.4'
N N 0.0061 0.0033 'International Tables Vol C Tables 4.2.6.8 and 6.1.1.4'
O O 0.0106 0.0060 'International Tables Vol C Tables 4.2.6.8 and 6.1.1.4'
loop_
_geom_angle_atom_site_label_1
_geom_angle_atom_site_label_2
_geom_angle_atom_site_label_3
_geom_angle
C4 N1 C1 111.1(2)
C4 N1 H1 124.5
C1 N1 H1 124.5
C2 C1 N1 106.8(2)
C2 C1 H1A 126.6
N1 C1 H1A 126.6
C1 C2 C3 107.7(2)
C1 C2 C5 144.0(2)
C3 C2 C5 108.37(19)
C4 C3 C2 107.4(2)
C4 C3 C13 143.2(2)
C2 C3 C13 109.36(19)
N1 C4 C3 107.0(2)
N1 C4 H4 126.5
C3 C4 H4 126.5
C6 C5 C14 117.7(2)
C6 C5 C2 137.9(2)
C14 C5 C2 104.43(19)
C5 C6 C7 119.4(2)
C5 C6 H6 120.3
C7 C6 H6 120.3
C8 C7 C6 122.4(2)
C8 C7 H7 118.8
C6 C7 H7 118.8
C7 C8 C9 119.2(2)
C7 C8 C15 123.1(2)
C9 C8 C15 117.7(2)
C14 C9 C8 117.8(2)
C14 C9 C10 117.7(2)
C8 C9 C10 124.5(2)
C11 C10 C9 119.6(2)
C11 C10 C16 123.1(2)
C9 C10 C16 117.2(2)
C10 C11 C12 122.1(2)
C10 C11 H11 119.0
C12 C11 H11 119.0
C13 C12 C11 119.2(2)
C13 C12 H12 120.4
C11 C12 H12 120.4
C12 C13 C14 118.6(2)
C12 C13 C3 137.2(2)
C14 C13 C3 104.17(19)
C9 C14 C5 123.5(2)
C9 C14 C13 122.9(2)
C5 C14 C13 113.7(2)
O1 C15 O3 115.7(2)
O1 C15 C8 127.8(2)
O3 C15 C8 116.55(19)
O4 C16 O3 115.5(2)
O4 C16 C10 126.6(2)
O3 C16 C10 117.9(2)
C16 O3 C15 125.88(18)
loop_
_geom_bond_atom_site_label_1
_geom_bond_atom_site_label_2
_geom_bond_distance
N1 C4 1.368(3)
N1 C1 1.377(3)
N1 H1 0.8800
C1 C2 1.372(3)
C1 H1A 0.9500
C2 C3 1.436(3)
C2 C5 1.471(3)
C3 C4 1.375(3)
C3 C13 1.463(3)
C4 H4 0.9500
C5 C6 1.381(3)
C5 C14 1.424(3)
C6 C7 1.411(3)
C6 H6 0.9500
C7 C8 1.385(3)
C7 H7 0.9500
C8 C9 1.413(3)
C8 C15 1.468(3)
C9 C14 1.386(3)
C9 C10 1.415(3)
C10 C11 1.389(3)
C10 C16 1.459(3)
C11 C12 1.409(3)
C11 H11 0.9500
C12 C13 1.378(3)
C12 H12 0.9500
C13 C14 1.425(3)
C15 O1 1.209(3)
C15 O3 1.408(3)
C16 O4 1.213(3)
C16 O3 1.388(3)
loop_
_geom_hbond_atom_site_label_D
_geom_hbond_atom_site_label_H
_geom_hbond_atom_site_label_A
_geom_hbond_distance_DH
_geom_hbond_distance_HA
_geom_hbond_distance_DA
_geom_hbond_angle_DHA
_geom_hbond_site_symmetry_A
N1 H1 O3 0.88 2.47 3.228(4) 144.6 1_466
N1 H1 O4 0.88 2.10 2.932(3) 158.3 1_466
C4 H4 O1 0.95 2.53 3.297(3) 137.7 1_556
loop_
_geom_torsion_atom_site_label_1
_geom_torsion_atom_site_label_2
_geom_torsion_atom_site_label_3
_geom_torsion_atom_site_label_4
_geom_torsion
C4 N1 C1 C2 -0.3(2)
N1 C1 C2 C3 -0.1(2)
N1 C1 C2 C5 179.9(3)
C1 C2 C3 C4 0.5(2)
C5 C2 C3 C4 -179.54(17)
C1 C2 C3 C13 178.96(18)
C5 C2 C3 C13 -1.1(2)
C1 N1 C4 C3 0.6(2)
C2 C3 C4 N1 -0.6(2)
C13 C3 C4 N1 -178.2(3)
C1 C2 C5 C6 1.6(5)
C3 C2 C5 C6 -178.4(2)
C1 C2 C5 C14 -179.0(3)
C3 C2 C5 C14 1.0(2)
C14 C5 C6 C7 1.4(3)
C2 C5 C6 C7 -179.3(2)
C5 C6 C7 C8 -0.3(3)
C6 C7 C8 C9 -1.3(3)
C6 C7 C8 C15 177.23(18)
C7 C8 C9 C14 1.5(3)
C15 C8 C9 C14 -177.02(17)
C7 C8 C9 C10 -178.51(18)
C15 C8 C9 C10 2.9(3)
C14 C9 C10 C11 0.5(3)
C8 C9 C10 C11 -179.44(19)
C14 C9 C10 C16 -178.91(17)
C8 C9 C10 C16 1.1(3)
C9 C10 C11 C12 -0.4(3)
C16 C10 C11 C12 178.93(18)
C10 C11 C12 C13 0.2(3)
C11 C12 C13 C14 0.0(3)
C11 C12 C13 C3 -179.8(2)
C4 C3 C13 C12 -1.9(5)
C2 C3 C13 C12 -179.5(2)
C4 C3 C13 C14 178.2(3)
C2 C3 C13 C14 0.7(2)
C8 C9 C14 C5 -0.4(3)
C10 C9 C14 C5 179.63(18)
C8 C9 C14 C13 179.63(19)
C10 C9 C14 C13 -0.3(3)
C6 C5 C14 C9 -1.0(3)
C2 C5 C14 C9 179.43(18)
C6 C5 C14 C13 178.90(18)
C2 C5 C14 C13 -0.6(2)
C12 C13 C14 C9 0.1(3)
C3 C13 C14 C9 179.95(18)
C12 C13 C14 C5 -179.90(17)
C3 C13 C14 C5 0.0(2)
C7 C8 C15 O1 -5.2(3)
C9 C8 C15 O1 173.3(2)
C7 C8 C15 O3 175.42(18)
C9 C8 C15 O3 -6.1(3)
C11 C10 C16 O4 -0.7(3)
C9 C10 C16 O4 178.64(19)
C11 C10 C16 O3 178.74(18)
C9 C10 C16 O3 -1.9(3)
O4 C16 O3 C15 177.83(17)
C10 C16 O3 C15 -1.7(3)
O1 C15 O3 C16 -173.71(18)
C8 C15 O3 C16 5.8(3)
