#------------------------------------------------------------------------------
#$Date: 2019-11-25 12:12:36 +0200 (Mon, 25 Nov 2019) $
#$Revision: 240833 $
#$URL: file:///home/coder/svn-repositories/cod/cif/4/13/03/4130389.cif $
#------------------------------------------------------------------------------
#
# This file is available in the Crystallography Open Database (COD),
# http://www.crystallography.net/
#
# All data on this site have been placed in the public domain by the
# contributors.
#
data_4130389
loop_
_publ_author_name
'Topi\'c, Filip'
'Rissanen, Kari'
_publ_section_title
;
 Systematic Construction of Ternary Cocrystals by Orthogonal and Robust
 Hydrogen and Halogen Bonds.
;
_journal_issue                   20
_journal_name_full               'Journal of the American Chemical Society'
_journal_page_first              6610
_journal_page_last               6616
_journal_paper_doi               10.1021/jacs.6b02854
_journal_volume                  138
_journal_year                    2016
_chemical_formula_moiety         'C16 H24 O6, 2(C6 F5 I), C H4 N2 S'
_chemical_formula_sum            'C29 H28 F10 I2 N2 O6 S'
_chemical_formula_weight         976.39
_space_group_crystal_system      triclinic
_space_group_IT_number           1
_space_group_name_Hall           'P 1'
_space_group_name_H-M_alt        'P 1'
_atom_sites_solution_hydrogens   geom
_atom_sites_solution_primary     iterative
_atom_sites_solution_secondary   difmap
_audit_creation_method           SHELXL-2014/7
_cell_angle_alpha                80.3533(6)
_cell_angle_beta                 75.0509(8)
_cell_angle_gamma                70.2282(7)
_cell_formula_units_Z            1
_cell_length_a                   8.95370(10)
_cell_length_b                   9.51900(10)
_cell_length_c                   11.48720(10)
_cell_measurement_reflns_used    3694
_cell_measurement_temperature    170.0(1)
_cell_measurement_theta_max      26.733
_cell_measurement_theta_min      0.407
_cell_volume                     886.677(16)
_computing_cell_refinement       'HKL Scalepack (Otwinowski & Minor, 1997)'
_computing_data_collection       'Collect (Bruker AXS BV, 1997-2004)'
_computing_data_reduction
'HKL Denzo and Scalepack (Otwinowski & Minor, 1997)'
_computing_publication_material  'WinGX (Farrugia, 2012)'
_computing_structure_refinement  'SHELXL-2014/7 (Sheldrick, 2015)'
_computing_structure_solution    'SHELXT-2014/5 (Sheldrick, 2015)'
_diffrn_ambient_temperature      170.0(1)
_diffrn_detector_area_resol_mean 9
_diffrn_measured_fraction_theta_full 0.996
_diffrn_measured_fraction_theta_max 0.981
_diffrn_measurement_device       '95mm CCD camera on \k-goniostat'
_diffrn_measurement_device_type  'Bruker-Nonius KappaCCD with APEXII detector'
_diffrn_measurement_method       '\f scans + \w scans'
_diffrn_radiation_monochromator  'horizonally mounted graphite crystal'
_diffrn_radiation_source         'fine-focus sealed tube'
_diffrn_radiation_type           MoK\a
_diffrn_radiation_wavelength     0.71073
_diffrn_reflns_av_R_equivalents  0.0228
_diffrn_reflns_av_unetI/netI     0.0366
_diffrn_reflns_Laue_measured_fraction_full 0.996
_diffrn_reflns_Laue_measured_fraction_max 0.981
_diffrn_reflns_limit_h_max       11
_diffrn_reflns_limit_h_min       -11
_diffrn_reflns_limit_k_max       12
_diffrn_reflns_limit_k_min       -11
_diffrn_reflns_limit_l_max       14
_diffrn_reflns_limit_l_min       -14
_diffrn_reflns_number            16139
_diffrn_reflns_point_group_measured_fraction_full 0.996
_diffrn_reflns_point_group_measured_fraction_max 0.981
_diffrn_reflns_theta_full        25.250
_diffrn_reflns_theta_max         27.327
_diffrn_reflns_theta_min         2.476
_exptl_absorpt_coefficient_mu    1.928
_exptl_absorpt_correction_T_max  0.7455
_exptl_absorpt_correction_T_min  0.6395
_exptl_absorpt_correction_type   multi-scan
_exptl_absorpt_process_details   'SADABS 2008 (Sheldrick, 1996)'
_exptl_crystal_colour            colourless
_exptl_crystal_density_diffrn    1.829
_exptl_crystal_density_method    'not measured'
_exptl_crystal_description       plate
_exptl_crystal_F_000             476
_exptl_crystal_size_max          0.220
_exptl_crystal_size_mid          0.210
_exptl_crystal_size_min          0.090
_refine_diff_density_max         0.403
_refine_diff_density_min         -0.489
_refine_diff_density_rms         0.047
_refine_ls_abs_structure_details
;
 Refined as an inversion twin.
;
_refine_ls_abs_structure_Flack   0.040(16)
_refine_ls_extinction_method     none
_refine_ls_goodness_of_fit_ref   1.070
_refine_ls_hydrogen_treatment    constr
_refine_ls_matrix_type           full
_refine_ls_number_parameters     452
_refine_ls_number_reflns         6389
_refine_ls_number_restraints     3
_refine_ls_restrained_S_all      1.070
_refine_ls_R_factor_all          0.0310
_refine_ls_R_factor_gt           0.0261
_refine_ls_shift/su_max          0.000
_refine_ls_shift/su_mean         0.000
_refine_ls_structure_factor_coef Fsqd
_refine_ls_weighting_details
'w=1/[\s^2^(Fo^2^)+0.2965P] where P=(Fo^2^+2Fc^2^)/3'
_refine_ls_weighting_scheme      calc
_refine_ls_wR_factor_gt          0.0553
_refine_ls_wR_factor_ref         0.0572
_reflns_Friedel_coverage         1.000
_reflns_Friedel_fraction_full    0.996
_reflns_Friedel_fraction_max     0.981
_reflns_number_gt                5778
_reflns_number_total             6389
_reflns_threshold_expression     'I > 2\s(I)'
_cod_data_source_file            ja6b02854_si_002.cif
_cod_data_source_block           beta_B_C_1-2_170K
_cod_original_cell_volume        886.678(16)
_cod_database_code               4130389
_shelx_shelxl_version_number     2014/7
_shelx_space_group_comment
;
The symmetry employed for this shelxl refinement is uniquely defined
by the following loop, which should always be used as a source of
symmetry information in preference to the above space-group names.
They are only intended as comments.
;
_shelx_estimated_absorpt_t_min   0.676
_shelx_estimated_absorpt_t_max   0.846
_shelx_res_file
;

    shelxl.res created by SHELXL-2014/7


TITL b18c6_tu_2pfib
CELL  0.71073   8.9537   9.5190  11.4872   80.3533   75.0509   70.2282
ZERR     1.00   0.0001   0.0001   0.0001    0.0006    0.0008    0.0007

LATT -1

SFAC  C    H    F    I    N    O    S
UNIT  29   28   10   2    2    6    1

OMIT -3 180.00
OMIT  0   0  -1

ACTA 50.50
L.S. 50
PLAN 10
FMAP 2
MERG 2
BOND $H
CONF

SIZE 0.09 0.21 0.22
TEMP -103.00

TWIN

WGHT    0.000000    0.296500
BASF   0.03975
FVAR       0.96002
MOLE    1
C1A   1    0.467658    0.799331    0.571537    11.00000    0.05948    0.05088 =
         0.04462   -0.00031   -0.00852   -0.02636
N1A   5    0.447497    0.872408    0.466505    11.00000    0.07244    0.05641 =
         0.04381    0.00162   -0.00899   -0.01604
AFIX  93
H1A1  2    0.360528    0.950151    0.462131    11.00000   -1.20000
H1A2  2    0.520931    0.843722    0.400368    11.00000   -1.20000
AFIX   0
N2A   5    0.352147    0.848788    0.667378    11.00000    0.07454    0.08462 =
         0.04967    0.00735   -0.00639   -0.00229
AFIX  93
H2A1  2    0.267287    0.927075    0.658522    11.00000   -1.20000
H2A2  2    0.360391    0.803306    0.739803    11.00000   -1.20000
AFIX   0
S1A   7    0.633438    0.648790    0.589909    11.00000    0.06769    0.07125 =
         0.05435    0.00428   -0.00556   -0.01096
MOLE    3
C1C   1    0.541537    0.848607    0.087828    11.00000    0.04056    0.04856 =
         0.04645   -0.00474   -0.00969   -0.01112
C2C   1    0.553373    0.797454   -0.021570    11.00000    0.05906    0.05993 =
         0.05334   -0.01292   -0.01539   -0.01411
AFIX  43
H2C   2    0.503109    0.724748   -0.023405    11.00000   -1.20000
AFIX   0
C3C   1    0.638838    0.852526   -0.128727    11.00000    0.06398    0.07961 =
         0.05004   -0.01835   -0.01163   -0.00366
AFIX  43
H3C   2    0.645667    0.817906   -0.203416    11.00000   -1.20000
AFIX   0
C4C   1    0.711670    0.954479   -0.126797    11.00000    0.07036    0.06601 =
         0.04435   -0.00272    0.00654   -0.00851
AFIX  43
H4C   2    0.770174    0.990626   -0.200327    11.00000   -1.20000
AFIX   0
C5C   1    0.702606    1.007645   -0.018962    11.00000    0.05412    0.05347 =
         0.05185    0.00293   -0.00016   -0.01815
AFIX  43
H5C   2    0.753993    1.080122   -0.018946    11.00000   -1.20000
AFIX   0
C6C   1    0.617370    0.953983    0.089835    11.00000    0.04372    0.04783 =
         0.03761   -0.00235   -0.00768   -0.01066
C7C   1    0.383069    0.694683    0.200844    11.00000    0.06643    0.05456 =
         0.06790   -0.01587   -0.00983   -0.03037
AFIX  23
H7C1  2    0.463659    0.604605    0.164046    11.00000   -1.20000
H7C2  2    0.297005    0.735330    0.153703    11.00000   -1.20000
AFIX   0
C8C   1    0.310423    0.653544    0.329086    11.00000    0.07318    0.04981 =
         0.07110   -0.00293   -0.00556   -0.03272
AFIX  23
H8C1  2    0.271046    0.567121    0.332683    11.00000   -1.20000
H8C2  2    0.394643    0.623379    0.377709    11.00000   -1.20000
AFIX   0
C9C   1    0.101167    0.735029    0.495970    11.00000    0.07052    0.06740 =
         0.07030   -0.00261   -0.00421   -0.03592
AFIX  23
H9C1  2    0.179811    0.699057    0.549453    11.00000   -1.20000
H9C2  2    0.057894    0.652777    0.493872    11.00000   -1.20000
AFIX   0
C10C  1   -0.033035    0.865871    0.543864    11.00000    0.06205    0.09447 =
         0.10629   -0.02558   -0.01044   -0.02269
AFIX  23
H10A  2   -0.097424    0.915033    0.481648    11.00000   -1.20000
H10B  2   -0.105691    0.831906    0.615374    11.00000   -1.20000
AFIX   0
C11C  1   -0.045348    1.118528    0.538475    11.00000    0.07374    0.08299 =
         0.09711    0.01676   -0.01052   -0.01291
AFIX  23
H11A  2   -0.164539    1.146116    0.569384    11.00000   -1.20000
H11B  2   -0.023404    1.130385    0.448981    11.00000   -1.20000
AFIX   0
C12C  1    0.019845    1.218186    0.582188    11.00000    0.08366    0.05532 =
         0.10749   -0.01171   -0.00681   -0.00131
AFIX  23
H12A  2   -0.028434    1.322977    0.550791    11.00000   -1.20000
H12B  2   -0.010597    1.212651    0.671644    11.00000   -1.20000
AFIX   0
C13C  1    0.255948    1.294988    0.536499    11.00000    0.10727    0.05094 =
         0.05463   -0.00703   -0.01494   -0.02190
AFIX  23
H13A  2    0.224928    1.334983    0.616473    11.00000   -1.20000
H13B  2    0.210797    1.377028    0.477694    11.00000   -1.20000
AFIX   0
C14C  1    0.435986    1.239420    0.497632    11.00000    0.11062    0.07281 =
         0.05596   -0.01028   -0.02505   -0.04321
AFIX  23
H14A  2    0.482987    1.316530    0.506197    11.00000   -1.20000
H14B  2    0.480037    1.147987    0.549249    11.00000   -1.20000
AFIX   0
C15C  1    0.645782    1.132471    0.336220    11.00000    0.07420    0.06701 =
         0.06913   -0.00097   -0.03032   -0.03965
AFIX  23
H15A  2    0.677828    1.036196    0.385981    11.00000   -1.20000
H15B  2    0.710260    1.194935    0.345089    11.00000   -1.20000
AFIX   0
C16C  1    0.678137    1.104403    0.205996    11.00000    0.05867    0.05552 =
         0.06050   -0.00074   -0.01299   -0.03338
AFIX  23
H16A  2    0.632838    1.198466    0.157515    11.00000   -1.20000
H16B  2    0.796582    1.065559    0.172815    11.00000   -1.20000
AFIX   0
O1C   6    0.460111    0.804227    0.198002    11.00000    0.06591    0.05654 =
         0.04907   -0.00399   -0.01172   -0.03591
O2C   6    0.180165    0.775224    0.378180    11.00000    0.06977    0.05213 =
         0.06501    0.00371   -0.00886   -0.02526
O3C   6    0.026306    0.971877    0.577503    11.00000    0.07393    0.06271 =
         0.09757   -0.01106   -0.02825   -0.01172
O4C   6    0.191925    1.176364    0.543682    11.00000    0.08469    0.04543 =
         0.07191   -0.00302   -0.00647   -0.01362
O5C   6    0.478495    1.206803    0.375491    11.00000    0.08009    0.06357 =
         0.04755   -0.00486   -0.01954   -0.02824
O6C   6    0.601282    0.996385    0.202168    11.00000    0.06044    0.05281 =
         0.04581    0.00126   -0.00922   -0.03202
MOLE    5
C1S   1    0.903498    0.569956    0.131124    11.00000    0.04318    0.04140 =
         0.05745   -0.00442   -0.00562   -0.00614
C2S   1    0.872860    0.469339    0.074051    11.00000    0.05302    0.03837 =
         0.08427    0.00087   -0.01306   -0.01617
C3S   1    0.918401    0.463507   -0.049186    11.00000    0.06238    0.05745 =
         0.08045   -0.02179   -0.02138   -0.00824
C4S   1    0.995476    0.560327   -0.118343    11.00000    0.06725    0.07055 =
         0.05970   -0.01167   -0.00543    0.00134
C5S   1    1.026315    0.662190   -0.065033    11.00000    0.05309    0.05205 =
         0.07219    0.00236    0.00822   -0.01292
C6S   1    0.981616    0.664620    0.057661    11.00000    0.04385    0.04135 =
         0.07259   -0.00359   -0.01074   -0.01157
F1S   3    0.798511    0.371847    0.139206    11.00000    0.10332    0.06947 =
         0.10963    0.00059   -0.00759   -0.05577
F2S   3    0.889734    0.361824   -0.101618    11.00000    0.11931    0.09362 =
         0.13219   -0.04713   -0.04509   -0.03186
F3S   3    1.037764    0.556919   -0.237622    11.00000    0.12089    0.12545 =
         0.05875   -0.01746   -0.00096   -0.01219
F4S   3    1.099079    0.761038   -0.133332    11.00000    0.08755    0.07864 =
         0.10984    0.00807    0.01799   -0.03549
F5S   3    1.011286    0.768887    0.107461    11.00000    0.06982    0.06405 =
         0.11323   -0.01936   -0.00698   -0.03488
I1S   4    0.815831    0.587791    0.318018    11.00000    0.06109    0.06335 =
         0.06187   -0.00221   -0.01030   -0.01050
MOLE    6
C1T   1    0.355588    0.296066    0.937050    11.00000    0.05526    0.04023 =
         0.05853   -0.00218   -0.01987   -0.01226
C2T   1    0.315400    0.320609    1.057386    11.00000    0.05415    0.04262 =
         0.06388   -0.01726   -0.01859   -0.00326
C3T   1    0.229150    0.240278    1.142736    11.00000    0.05341    0.06123 =
         0.05677   -0.01055   -0.01497    0.00088
C4T   1    0.181294    0.135021    1.108477    11.00000    0.05160    0.05328 =
         0.07421    0.00945   -0.01816   -0.01263
C5T   1    0.220571    0.109429    0.989789    11.00000    0.07467    0.04726 =
         0.07321    0.00164   -0.03179   -0.01948
C6T   1    0.306286    0.188026    0.905340    11.00000    0.07234    0.04182 =
         0.05801   -0.00744   -0.02825   -0.01048
F1T   3    0.356510    0.427213    1.092020    11.00000    0.09884    0.07488 =
         0.09680   -0.03269   -0.03327   -0.03068
F2T   3    0.188247    0.270506    1.258777    11.00000    0.09014    0.11374 =
         0.05173   -0.01719   -0.00890   -0.00639
F3T   3    0.095160    0.057928    1.190718    11.00000    0.07699    0.09478 =
         0.09722    0.02956   -0.00872   -0.03345
F4T   3    0.171489    0.005416    0.956190    11.00000    0.13021    0.07486 =
         0.12827    0.00030   -0.05814   -0.05780
F5T   3    0.341098    0.159180    0.789002    11.00000    0.13318    0.07233 =
         0.05959   -0.00954   -0.03270   -0.03446
I1T   4    0.477457    0.424832    0.803915    11.00000    0.06838    0.05610 =
         0.07294    0.00178   -0.01274   -0.01931

HKLF    4

REM  b18c6_tu_2pfib
REM R1 =  0.0261 for    5778 Fo > 4sig(Fo)  and  0.0310 for all    6389 data
REM    452 parameters refined using      3 restraints

END

WGHT      0.0000      0.2965

REM Highest difference peak  0.403,  deepest hole -0.489,  1-sigma level  0.047
Q1    1   0.4948  0.4576  0.8594  11.00000  0.05    0.40
Q2    1   0.8090  0.5236  0.2813  11.00000  0.05    0.36
Q3    1   0.7857  0.5729  0.2566  11.00000  0.05    0.34
Q4    1   0.5923  0.6156  0.5416  11.00000  0.05    0.22
Q5    1   0.1424  0.1348  1.2256  11.00000  0.05    0.22
Q6    1   0.4282  0.5603  0.7827  11.00000  0.05    0.19
Q7    1   0.8607  0.4634  0.3442  11.00000  0.05    0.19
Q8    1   0.8882  0.5974  0.2993  11.00000  0.05    0.18
Q9    1   1.1498  0.8773 -0.0983  11.00000  0.05    0.18
Q10   1   0.6653  0.9808  0.1555  11.00000  0.05    0.18
;
_shelx_res_checksum              44587
_shelx_hkl_file
;
  -1   0   0 436.114  22.091   3
  -1   0   0 431.656  24.345   4
  -1   0   0 448.559  25.131   5
  -1   0   0 428.885  21.523   7
  -1   0   0 443.318  23.537   1
  -1   0   0 443.517  23.629   2
  -2   0   0 1525.93   74.93   2
  -2   0   0 1562.52   77.94   5
  -2   0   0 1484.18   79.25   3
  -2   0   0 1504.37   75.90   4
  -2   0   0 1486.07   77.25   7
   2   0   0 1620.11   76.26   7
   2   0   0 1692.62   80.22   5
   2   0   0 1628.69   77.05   2
   2   0   0 1641.30   89.79   1
  -3   0   0 1932.18   97.65   3
  -3   0   0 1905.30   90.47   7
  -3   0   0 1914.43   93.88   4
  -3   0   0 1896.60   97.63   1
  -3   0   0 1956.61  112.63   5
  -3   0   0 1968.18   94.44   2
   3   0   0 1913.64  104.10   5
   3   0   0 1935.48   98.65   1
   3   0   0 1859.01   83.00   2
  -4   0   0 176.129   9.770   7
  -4   0   0 194.849   9.655   5
  -4   0   0 168.306   8.800   2
  -4   0   0 189.730  12.944   3
  -4   0   0 184.006   8.854   4
  -4   0   0 180.346   9.430   1
   4   0   0 149.924  10.979   2
   4   0   0 155.680   9.191   1
   4   0   0 169.291  10.346   5
  -5   0   0 1096.38   61.19   5
  -5   0   0 1073.20   51.45   4
  -5   0   0 1102.64   69.09   1
  -5   0   0 1088.56   46.80   2
  -5   0   0 1064.46   55.74   7
  -5   0   0 1067.45   52.18   3
   5   0   0 1086.70   59.66   1
   5   0   0 1044.07   56.70   5
   5   0   0 980.235  52.202   2
  -6   0   0 1636.26   82.14   3
  -6   0   0 1665.80   79.68   7
  -6   0   0 1636.87   83.88   5
  -6   0   0 1627.12   88.29   4
  -6   0   0 1712.89   75.33   2
   6   0   0 1755.79   76.17   5
   6   0   0 1730.71   83.46   1
   6   0   0 1676.71   86.65   1
  -7   0   0 254.447  13.013   5
  -7   0   0 246.265  13.807   2
  -7   0   0 242.714  13.888   7
  -7   0   0 262.664  13.385   3
   7   0   0 219.625  11.883   1
   7   0   0 218.857  11.165   5
   7   0   0 227.268  12.255   1
  -8   0   0 122.937   6.797   5
  -8   0   0 107.692   9.256   7
  -8   0   0 114.298   9.127   3
  -8   0   0 114.823   8.624   2
   8   0   0 119.992   7.177   1
   8   0   0 115.682   7.276   1
   8   0   0 130.054  11.402   5
  -9   0   0 79.4296  8.1736   3
  -9   0   0 90.1913  8.1675   2
  -9   0   0 58.6277  8.1767   7
 -10   0   0 10.7212  6.5594   7
 -10   0   0 9.39704 6.00468   3
 -10   1   0 33.6778  8.9836   7
  -9   1   0 61.6861  8.4020   7
   8  -1   0 4.83760 2.54211   1
  -8   1   0 2.09242 3.70313   7
  -8   1   0 -0.1259  2.9329   5
   7  -1   0 388.489  20.136   1
   7  -1   0 367.186  21.820   5
  -7   1   0 388.433  22.471   3
  -7   1   0 378.184  18.908   7
  -7   1   0 381.992  22.351   5
  -7   1   0 374.157  20.773   1
  -7   1   0 371.072  18.138   2
   6  -1   0 492.624  28.356   1
   6  -1   0 516.241  28.113   5
  -6   1   0 500.725  24.008   3
  -6   1   0 476.979  24.680   2
  -6   1   0 513.996  24.731   7
  -6   1   0 483.997  24.893   4
  -6   1   0 485.539  25.274   5
  -6   1   0 496.535  25.503   1
   5  -1   0 13.1748  3.5964   2
   5  -1   0 17.5164  2.6985   5
   5  -1   0 18.7670  2.3734   1
   5  -1   0 18.7502  3.5657   7
  -5   1   0 20.6720  3.0869   5
  -5   1   0 16.6941  3.2139   7
  -5   1   0 26.6851  3.9926   3
  -5   1   0 16.6586  2.8091   1
  -5   1   0 16.4604  3.0404   4
   4  -1   0 2629.46  138.37   1
   4  -1   0 2620.46  120.62   7
   4  -1   0 2557.26  108.79   2
   4  -1   0 2570.58  122.04   3
   4  -1   0 2618.23  133.04   5
  -4   1   0 2588.79  139.55   1
  -4   1   0 2516.18  120.24   3
  -4   1   0 2617.51  118.67   2
  -4   1   0 2502.51  126.44   7
  -4   1   0 2571.94  122.10   5
   3  -1   0 1391.55   68.77   2
   3  -1   0 1445.60   77.14   5
   3  -1   0 1327.58   64.37   7
   3  -1   0 1394.84   78.15   1
   3  -1   0 1375.55   60.44   3
  -3   1   0 1320.74   89.73   5
  -3   1   0 1285.04   68.73   2
  -3   1   0 1275.07   80.13   1
  -3   1   0 1227.23   63.58   3
  -3   1   0 1281.12   70.98   7
   1   1   0 2756.01  129.82   4
  -2  -1   0 4163.93  199.19   2
  -2  -1   0 4133.92  190.30   4
   2   1   0 4043.42  186.37   4
  -3  -1   0 5043.46  245.91   4
   3   1   0 4867.63  249.06   2
   3   1   0 5245.06  260.61   4
  -4  -1   0 260.674  13.414   4
  -4  -1   0 260.367  13.308   2
  -4  -1   0 243.735  13.575   7
  -4  -1   0 276.954  12.394   5
   4   1   0 253.780  12.879   4
   4   1   0 256.977  11.946   1
   4   1   0 237.260  14.059   5
   4   1   0 265.127  14.060   1
   4   1   0 250.538  11.439   2
  -5  -1   0 1942.31   86.47   5
  -5  -1   0 1887.31  103.42   3
  -5  -1   0 1884.62   91.38   2
  -5  -1   0 1891.52   90.25   7
  -5  -1   0 1846.45   92.40   4
   5   1   0 1920.00   93.56   5
   5   1   0 1882.45   99.03   1
   5   1   0 1998.28   96.24   1
  -6  -1   0 958.213  50.456   2
  -6  -1   0 1015.11   50.62   7
  -6  -1   0 953.362  54.956   4
  -6  -1   0 1060.59   45.75   3
  -6  -1   0 1026.80   48.43   5
   6   1   0 999.433  45.917   1
   6   1   0 1023.12   50.57   5
   6   1   0 1042.43   51.36   1
  -7  -1   0 12.8880  4.3549   3
  -7  -1   0 18.0174  4.8467   7
  -7  -1   0 22.8005  4.0979   4
  -7  -1   0 15.3178  4.0539   2
   7   1   0 19.0183  2.1318   5
   7   1   0 19.7413  1.9961   1
   7   1   0 21.0309  2.0759   1
  -8  -1   0 57.8253  6.7251   3
  -8  -1   0 65.9989  6.5274   2
  -8  -1   0 68.8516  3.7655   6
  -8  -1   0 72.9735  6.5457   7
   8   1   0 63.7062  4.2832   5
   8   1   0 60.0858  3.8020   1
   8   1   0 68.4703  8.1253   1
  -9  -1   0 90.5957  8.9152   7
  -9  -1   0 79.1122  7.8515   2
  -9  -1   0 86.1373  8.4631   3
 -10  -1   0 -1.4520  5.0211   2
 -10  -1   0 0.90359 5.61035   3
 -10  -1   0 4.49896 6.17044   7
  -9   2   0 29.0140  7.5396   7
  -8   2   0 29.1339  4.1843   1
  -8   2   0 27.3095  4.4355   5
  -8   2   0 27.5315  6.7676   7
   7  -2   0 290.277  17.279   5
   7  -2   0 269.563  20.157   1
  -7   2   0 261.689  14.439   1
  -7   2   0 274.490  16.014   7
  -7   2   0 258.163  16.582   5
   6  -2   0 153.397   9.236   1
   6  -2   0 142.474   8.978   5
  -6   2   0 188.055  11.191   1
  -6   2   0 174.478  10.713   7
  -6   2   0 160.679   9.115   5
  -6   2   0 161.178   9.336   4
   5  -2   0 312.027  15.991   2
   5  -2   0 359.208  19.030   5
   5  -2   0 340.863  17.858   3
   5  -2   0 325.593  18.867   1
  -5   2   0 307.528  16.069   7
  -5   2   0 360.265  20.853   1
  -5   2   0 353.028  18.026   5
   4  -2   0 1320.94   61.60   2
   4  -2   0 1374.88   79.01   1
   4  -2   0 1344.01   67.35   3
   4  -2   0 1339.28   64.72   5
   4  -2   0 1328.69   62.62   7
  -4   2   0 1312.63   76.12   1
  -4   2   0 1314.68   60.39   5
  -4   2   0 1208.15   66.09   7
   3  -2   0 518.452  26.441   7
   3  -2   0 519.413  28.729   2
   3  -2   0 504.187  25.204   1
   3  -2   0 488.219  30.618   5
   3  -2   0 512.929  25.590   3
  -3   2   0 424.059  22.800   5
  -3   2   0 440.543  23.625   1
  -3   2   0 469.925  21.935   7
   2  -2   0 1571.05   85.92   5
   2  -2   0 1643.26   92.77   1
   2  -2   0 1596.71   76.59   2
   2  -2   0 1621.74   84.71   7
  -2   2   0 1716.03   98.58   1
  -2   2   0 1687.16   93.82   7
  -2   2   0 1709.42   78.87   5
   0  -2   0 200.312  11.617   1
   0   2   0 258.536  11.995   5
  -1  -2   0 1148.42   60.19   7
  -1  -2   0 1160.89   57.16   1
  -1  -2   0 1159.68   55.50   5
   1   2   0 1019.12   58.21   1
   1   2   0 955.640  52.177   5
  -2  -2   0 5647.50  258.22   2
   2   2   0 5381.46  284.95   4
  -3  -2   0 1040.41   62.28   4
  -3  -2   0 1009.26   48.83   2
  -3  -2   0 1042.66   45.89   6
  -3  -2   0 1082.06   48.74   1
   3   2   0 953.019  51.080   6
   3   2   0 962.006  46.389   4
   3   2   0 966.797  51.996   1
  -4  -2   0 1134.19   51.25   2
  -4  -2   0 1133.35   59.54   4
  -4  -2   0 1155.93   53.76   6
  -4  -2   0 1146.09   53.62   1
   4   2   0 1107.67   55.43   1
   4   2   0 1108.02   56.58   4
   4   2   0 1123.73   57.57   5
  -5  -2   0 2118.16   93.67   6
  -5  -2   0 2122.24   97.45   2
  -5  -2   0 2034.19  112.65   4
   5   2   0 2173.60  101.79   1
   5   2   0 2168.32  104.01   1
   5   2   0 2179.11   98.49   5
   5   2   0 2100.03  121.54   4
  -6  -2   0 33.6663  4.0228   2
  -6  -2   0 50.0225  5.2199   7
  -6  -2   0 36.1735  2.0618   6
   6   2   0 39.7944  4.4290   4
   6   2   0 51.0652  2.8582   1
   6   2   0 50.0137  3.2301   1
   6   2   0 47.0612  2.8629   5
  -7  -2   0 272.724  13.956   2
  -7  -2   0 267.684  13.352   3
  -7  -2   0 246.428  13.726   7
   7   2   0 258.491  13.033   5
   7   2   0 256.592  12.723   1
   7   2   0 246.167  12.597   1
  -8  -2   0 288.303  15.709   3
  -8  -2   0 271.898  14.310   2
  -8  -2   0 269.826  14.882   7
   8   2   0 254.592  12.313   5
   8   2   0 257.523  11.325   1
   8   2   0 270.825  12.222   1
  -9  -2   0 32.9181  5.5464   7
  -9  -2   0 42.1091  6.4100   3
  -9  -2   0 39.0964  6.0417   2
 -10  -2   0 22.0052  6.4800   3
 -10  -2   0 26.3010  5.5911   7
 -10  -2   0 16.9249  5.9507   2
  -9   3   0 4.47325 7.29517   7
  -8   3   0 50.1035  8.1589   7
  -8   3   0 40.2947  5.7176   5
  -8   3   0 36.6083  5.4077   1
  -7   3   0 138.376   9.698   5
  -7   3   0 143.072   9.588   1
  -7   3   0 138.851  10.724   7
   6  -3   0 7.20359 3.10271   5
   6  -3   0 13.8579  3.3300   1
  -6   3   0 0.35223 3.67426   1
  -6   3   0 11.3806  4.1559   5
  -6   3   0 2.60015 3.31837   7
   5  -3   0 899.672  49.956   2
   5  -3   0 933.702  43.371   5
   5  -3   0 896.335  59.994   1
  -5   3   0 910.103  49.156   7
  -5   3   0 902.613  48.663   5
  -5   3   0 933.919  51.437   1
   4  -3   0 1326.74   61.89   2
   4  -3   0 1253.57   91.32   7
   4  -3   0 1240.55   68.54   5
   4  -3   0 1273.72   65.35   3
   4  -3   0 1353.46   65.24   1
  -4   3   0 1414.05   63.34   5
  -4   3   0 1418.17   78.71   1
  -4   3   0 1443.29   60.03   7
   3  -3   0 639.769  31.365   1
   3  -3   0 618.827  34.671   3
   3  -3   0 621.585  29.464   7
   3  -3   0 599.587  32.924   5
   3  -3   0 637.885  30.243   2
  -3   3   0 631.828  29.446   1
  -3   3   0 635.899  32.569   7
  -3   3   0 611.248  30.120   5
   2  -3   0 959.728  55.107   1
   2  -3   0 913.618  51.390   7
   2  -3   0 930.238  43.731   5
   2  -3   0 940.511  50.155   2
  -2   3   0 1002.08   43.46   5
  -2   3   0 994.918  49.319   1
  -2   3   0 968.844  51.402   7
   1  -3   0 2736.82  144.87   7
   1  -3   0 2819.98  158.09   1
   1  -3   0 2801.97  131.93   5
  -1   3   0 2926.02  133.31   7
  -1   3   0 3037.93  151.20   1
  -1   3   0 3022.97  143.89   5
   0  -3   0 106.501   6.529   5
   0  -3   0 101.473   5.960   1
   0  -3   0 111.313   6.400   7
   0   3   0 116.382   7.007   7
   0   3   0 122.246   7.086   5
   0   3   0 107.772   6.152   1
  -1  -3   0 3453.39  201.44   5
  -1  -3   0 3419.44  171.83   7
  -1  -3   0 3392.06  208.45   1
   1   3   0 3588.69  189.23   7
   1   3   0 3620.83  199.79   1
   1   3   0 3543.32  192.59   5
   1   3   0 3600.25  170.44   8
  -3  -3   0 184.076   8.391   2
  -3  -3   0 180.819   9.338   1
  -3  -3   0 174.197   8.780   8
   3   3   0 175.065  10.346   6
   3   3   0 193.409   9.647   1
   3   3   0 184.286   9.660   5
   3   3   0 190.392  10.312   4
  -4  -3   0 1314.50   59.76   1
  -4  -3   0 1285.66   73.23   2
  -4  -3   0 1299.01   76.08   8
   4   3   0 1351.26   67.39   4
   4   3   0 1360.72   78.18   1
   4   3   0 1378.32   69.38   6
   4   3   0 1379.05   84.51   5
  -5  -3   0 1875.60   85.85   1
  -5  -3   0 1808.48  102.88   4
  -5  -3   0 1904.88  103.79   2
   5   3   0 1947.53   94.33   4
   5   3   0 1951.11   90.47   5
   5   3   0 1954.99   99.90   1
  -6  -3   0 14.9537  3.8697   2
  -6  -3   0 24.2930  3.9065   4
   6   3   0 19.0802  1.7430   5
   6   3   0 15.0371  1.7637   1
   6   3   0 13.5595  1.8431   1
   6   3   0 14.2423  4.3460   4
  -7  -3   0 303.962  16.325   2
   7   3   0 328.326  15.948   4
   7   3   0 339.185  14.763   5
   7   3   0 323.737  16.720   1
   7   3   0 311.790  15.279   1
  -8  -3   0 291.068  15.283   7
  -8  -3   0 285.615  14.599   2
  -8  -3   0 295.666  14.706   3
   8   3   0 261.458  11.508   5
   8   3   0 262.775  11.551   5
   8   3   0 273.669  12.071   1
   8   3   0 288.181  14.783   4
   8   3   0 266.418  12.323   1
  -9  -3   0 13.1623  3.9128   2
  -9  -3   0 23.3217  6.0242   3
  -9  -3   0 15.0901  5.8995   7
 -10  -3   0 164.989  11.700   2
 -10  -3   0 151.722  12.207   7
 -10  -3   0 160.893  11.968   3
 -11  -3   0 42.0794  8.2316   3
  -8   4   0 69.8737  9.4653   7
  -8   4   0 75.0081  7.2947   5
  -7   4   0 59.0292  8.2501   7
  -7   4   0 56.5542  6.2510   5
  -7   4   0 50.3000  6.2474   1
  -6   4   0 162.701  11.048   5
  -6   4   0 131.652  10.627   7
  -6   4   0 138.247   9.910   1
   5  -4   0 494.302  27.430   2
  -5   4   0 467.797  28.125   7
  -5   4   0 471.184  24.742   5
  -5   4   0 472.316  27.476   1
   4  -4   0 529.308  31.352   5
   4  -4   0 558.955  25.668   2
   4  -4   0 563.905  27.396   1
  -4   4   0 542.708  27.899   7
  -4   4   0 564.773  28.227   1
  -4   4   0 592.370  26.973   5
   3  -4   0 147.720   7.117   2
   3  -4   0 141.517   8.499   7
   3  -4   0 138.493   8.288   1
  -3   4   0 113.990   7.853   1
  -3   4   0 128.172   8.620   7
  -3   4   0 112.530   7.852   5
   2  -4   0 3028.05  129.27   2
   2  -4   0 3031.01  140.90   5
   2  -4   0 3101.14  163.24   1
   2  -4   0 2845.99  147.58   7
  -2   4   0 3050.58  129.63   5
  -2   4   0 3050.08  142.48   7
  -2   4   0 3133.48  176.52   1
   1  -4   0 229.021  13.196   1
   1  -4   0 249.069  13.346   7
   1  -4   0 241.091  13.294   5
  -1   4   0 212.311  11.800   7
  -1   4   0 215.990  11.661   1
  -1   4   0 185.396  10.647   5
   0  -4   0 755.011  34.926   1
   0  -4   0 750.493  38.967   7
   0  -4   0 724.839  36.637   5
   0   4   0 762.470  39.162   7
   0   4   0 727.574  42.403   1
   0   4   0 737.414  37.860   5
  -1  -4   0 7953.43  355.50   7
  -1  -4   0 7824.19  363.11   5
  -1  -4   0 7784.95  427.73   1
   1   4   0 7864.86  366.08   5
   1   4   0 8234.88  378.42   7
   1   4   0 7791.89  338.70   1
  -2  -4   0 192.291  11.426   5
  -2  -4   0 187.776  10.600   7
  -2  -4   0 191.170   9.749   1
   2   4   0 263.003  10.981   1
  -3  -4   0 199.657   9.260   1
  -3  -4   0 197.878  10.104   2
   3   4   0 177.312   9.999   6
   3   4   0 183.622   9.380   5
   3   4   0 185.837  10.221   1
  -4  -4   0 1545.40   75.93   1
  -4  -4   0 1593.86   82.98   2
  -4  -4   0 1576.43   72.74   8
   4   4   0 1579.92   76.67   5
   4   4   0 1636.32   76.55   1
   4   4   0 1585.41   80.14   4
   4   4   0 1571.22   90.77   6
  -5  -4   0 179.272   8.885   1
  -5  -4   0 164.351   8.800   8
  -5  -4   0 178.928   9.215   2
   5   4   0 178.861  10.016   5
   5   4   0 178.625  10.293   4
   5   4   0 199.396  10.085   1
   5   4   0 179.032   9.099   6
  -6  -4   0 491.239  23.105   1
  -6  -4   0 495.427  23.562   8
  -6  -4   0 528.464  22.522   2
   6   4   0 504.249  24.635   4
   6   4   0 496.428  23.496   5
   6   4   0 510.041  28.604   1
   6   4   0 500.576  26.939   5
  -7  -4   0 1159.36   53.14   2
  -7  -4   0 1179.83   59.87   8
   7   4   0 1149.82   55.70   4
   7   4   0 1123.49   57.08   1
   7   4   0 1070.32   50.05   5
   7   4   0 1097.87   59.14   1
   7   4   0 1155.05   54.99   5
  -8  -4   0 188.476  11.158   8
  -8  -4   0 212.528  12.010   2
   8   4   0 203.700   9.109   5
   8   4   0 203.543   9.868   1
   8   4   0 229.769  12.786   4
   8   4   0 204.408   9.236   5
   8   4   0 197.638   9.732   1
  -9  -4   0 2.21222 4.93712   7
  -9  -4   0 3.21946 4.60070   2
  -9  -4   0 2.00794 3.07990   8
   9   4   0 2.84158 5.22278   4
 -10  -4   0 28.4135  6.5718   2
 -10  -4   0 15.2519  6.3209   3
 -10  -4   0 23.0350  6.6295   7
 -10  -4   0 17.2870  4.2756   8
 -11  -4   0 21.7013  7.3771   3
 -11  -4   0 10.0411  7.0510   7
  -8   5   0 71.8849 10.0776   7
  -7   5   0 2.73407 4.60036   5
  -7   5   0 6.64526 4.42181   1
  -7   5   0 -2.7288  6.5504   7
  -6   5   0 98.0173  9.0770   1
  -6   5   0 97.6560  9.7425   7
  -6   5   0 120.556   8.825   5
   5  -5   0 369.240  24.629   2
  -5   5   0 390.119  20.997   7
  -5   5   0 368.618  20.404   5
  -5   5   0 401.505  21.842   1
   4  -5   0 18.8095  3.1578   2
  -4   5   0 17.9044  4.5201   5
  -4   5   0 24.0157  5.5416   7
  -4   5   0 8.19978 5.25977   1
   3  -5   0 970.528  44.895   2
  -3   5   0 1007.09   56.33   1
  -3   5   0 947.013  56.950   7
  -3   5   0 1016.49   48.11   5
   2  -5   0 1229.98   58.21   2
   2  -5   0 1273.49   66.46   5
   2  -5   0 1199.10   76.40   1
   2  -5   0 1187.88   56.45   7
  -2   5   0 1137.88   52.95   5
  -2   5   0 1188.92   87.31   1
  -2   5   0 1143.98   58.22   7
   1  -5   0 283.692  14.394   5
   1  -5   0 285.914  17.617   1
   1  -5   0 280.387  17.651   7
  -1   5   0 297.671  14.136   5
  -1   5   0 288.469  16.000   7
  -1   5   0 287.789  14.151   1
   0  -5   0 3395.69  180.21   7
   0  -5   0 3344.88  186.25   1
   0  -5   0 3350.46  147.30   5
   0   5   0 3375.82  144.04   5
   0   5   0 3266.45  186.44   7
   0   5   0 3320.35  156.51   1
  -1  -5   0 4384.74  227.29   7
  -1  -5   0 4420.42  236.03   5
  -1  -5   0 4265.93  257.13   1
   1   5   0 4298.67  209.04   5
   1   5   0 4388.82  249.12   8
   1   5   0 4512.47  242.47   7
   1   5   0 4325.54  232.78   1
  -2  -5   0 389.132  18.061   7
  -2  -5   0 395.946  23.196   1
  -2  -5   0 381.074  18.439   5
   2   5   0 413.440  23.519   1
   2   5   0 375.848  20.122   5
   2   5   0 402.488  20.120   8
  -3  -5   0 2520.61  117.74   1
  -3  -5   0 2409.17  109.37   7
   3   5   0 2506.29  116.19   6
   3   5   0 2448.04  110.96   1
   3   5   0 2447.83  112.76   5
  -4  -5   0 1781.45   87.21   2
  -4  -5   0 1770.39   78.90   1
   4   5   0 1785.31   85.77   1
   4   5   0 1665.52   99.03   5
   4   5   0 1668.67   88.62   6
   4   5   0 1757.68   86.98   4
  -5  -5   0 0.53043 0.95127   8
  -5  -5   0 1.60841 2.11739   1
  -5  -5   0 8.07757 3.04488   2
   5   5   0 -0.9304  2.4136   1
   5   5   0 0.22487 1.58636   6
   5   5   0 1.42632 2.27147   5
   5   5   0 5.88584 3.65751   4
  -6  -5   0 957.376  49.271   2
  -6  -5   0 972.706  51.393   1
  -6  -5   0 939.436  44.587   8
   6   5   0 961.033  48.938   1
   6   5   0 892.827  48.870   4
   6   5   0 959.997  44.264   5
   6   5   0 954.533  46.826   6
  -7  -5   0 174.395   9.692   2
  -7  -5   0 173.215   7.839   1
  -7  -5   0 165.422   8.157   8
   7   5   0 144.611   8.495   5
   7   5   0 144.922   9.829   4
   7   5   0 147.284   8.615   1
   7   5   0 141.798   8.452   5
  -8  -5   0 0.30033 2.29641   8
  -8  -5   0 -3.3606  4.3432   2
   8   5   0 7.24749 4.23535   4
   8   5   0 2.57297 1.48927   1
   8   5   0 0.80705 1.30193   5
   8   5   0 1.14920 7.87954   5
   8   5   0 0.30514 1.57913   1
  -9  -5   0 152.861  11.571   2
  -9  -5   0 157.992   8.788   8
   9   5   0 151.342  10.517   4
 -10  -5   0 65.8837  8.4824   7
 -10  -5   0 57.6199  6.6987   2
  10   5   0 49.5824  7.1391   4
 -11  -5   0 0.22266 6.62806   3
  -7   6   0 0.20998 4.92804   5
  -7   6   0 4.32765 5.73201   1
  -7   6   0 2.04088 7.22166   7
  -6   6   0 99.2575  8.8462   5
  -6   6   0 87.2329 10.0495   7
  -6   6   0 92.5040  8.5832   1
  -5   6   0 75.4145  8.7343   7
  -5   6   0 92.2116  7.9290   5
  -5   6   0 81.6388  8.5572   1
   4  -6   0 66.4350  4.8046   2
  -4   6   0 51.0398  6.3957   5
  -4   6   0 53.4998  7.3070   7
  -4   6   0 46.1546  6.4825   1
   3  -6   0 1147.16   55.15   2
  -3   6   0 1094.67   55.17   7
  -3   6   0 1167.16   59.12   1
  -3   6   0 1158.88   57.24   5
   2  -6   0 270.637  16.384   2
  -2   6   0 263.701  13.763   7
  -2   6   0 224.975  13.969   1
  -2   6   0 251.321  14.396   5
   1  -6   0 5.85237 1.77269   2
  -1   6   0 1.04164 3.73616   5
  -1   6   0 1.50028 3.74997   1
  -1   6   0 7.15090 4.10687   7
   0  -6   0 936.744  50.318   7
   0  -6   0 907.401  47.923   5
   0   6   0 1045.79   48.05   7
   0   6   0 1020.74   44.57   5
   0   6   0 1072.91   48.97   1
   0   6   0 1020.80   51.54   8
  -1  -6   0 424.972  23.994   1
  -1  -6   0 413.317  27.602   5
  -1  -6   0 404.695  23.935   7
   1   6   0 485.760  24.808   8
   1   6   0 476.446  25.717   1
   1   6   0 483.117  23.300   5
   1   6   0 496.672  26.947   7
  -2  -6   0 402.779  18.725   1
  -2  -6   0 372.902  23.686   5
  -2  -6   0 390.082  19.949   7
   2   6   0 354.055  17.774   1
   2   6   0 352.670  19.056   5
   2   6   0 371.386  21.309   8
  -3  -6   0 1757.66   83.79   1
  -3  -6   0 1817.85   77.24   7
   3   6   0 1616.85   87.37   6
   3   6   0 1660.90   73.28   8
   3   6   0 1683.00   79.95   1
   3   6   0 1647.73   75.77   5
  -4  -6   0 555.383  26.838   1
  -4  -6   0 559.221  27.306   7
  -4  -6   0 565.059  26.476   2
   4   6   0 552.588  29.100   6
   4   6   0 534.411  29.212   1
   4   6   0 584.037  27.765   5
   4   6   0 575.263  34.313   4
  -5  -6   0 430.265  21.520   1
  -5  -6   0 407.411  20.877   2
   5   6   0 430.444  24.699   5
   5   6   0 430.669  21.737   6
   5   6   0 411.563  28.854   4
   5   6   0 433.568  24.276   1
  -6  -6   0 199.998  10.512   2
  -6  -6   0 181.719   9.920   1
   6   6   0 191.929  11.095   6
   6   6   0 182.720  10.380   1
   6   6   0 204.427  11.037   5
   6   6   0 204.311  12.467   4
  -7  -6   0 285.855  13.309   8
  -7  -6   0 290.888  14.974   2
  -7  -6   0 272.762  12.827   8
  -7  -6   0 290.678  16.015   1
   7   6   0 290.355  15.303   4
   7   6   0 282.423  14.408   5
   7   6   0 284.339  15.397   1
  -8  -6   0 51.5326  3.6212   8
  -8  -6   0 58.6010  6.1094   2
   8   6   0 56.6850  6.9249   4
   8   6   0 56.0401  3.8126   5
   8   6   0 56.5836  4.0235   1
  -9  -6   0 85.5300  8.1993   2
   9   6   0 74.2687  8.2404   4
 -10  -6   0 22.5463  6.4285   2
  10   6   0 21.1496  6.0205   4
  -6   7   0 41.8920  8.0525   1
  -6   7   0 46.4701  8.6102   7
  -6   7   0 39.0838  7.2502   5
  -5   7   0 8.00700 5.21734   1
  -5   7   0 0.99842 4.86890   5
  -5   7   0 8.37140 6.44864   7
  -4   7   0 139.213  10.785   5
  -4   7   0 152.566  11.894   7
  -4   7   0 158.509  11.203   1
  -3   7   0 337.746  17.450   7
  -3   7   0 310.508  19.013   5
  -3   7   0 301.910  18.642   1
   2  -7   0 27.4981  2.6339   2
  -2   7   0 35.7157  4.9187   1
  -2   7   0 36.9067  6.2615   7
   1  -7   0 287.226  14.213   2
  -1   7   0 321.804  15.949   5
  -1   7   0 307.391  16.376   1
  -1   7   0 285.867  15.937   8
  -1   7   0 253.369  16.481   7
   0   7   0 677.292  32.917   5
   0   7   0 719.373  38.657   8
   0   7   0 694.853  35.514   1
   0   7   0 693.068  37.333   7
   1   7   0 215.391  10.611   8
   1   7   0 215.586  12.013   1
   1   7   0 204.345  14.169   5
   1   7   0 218.651  13.659   7
   2   7   0 859.966  42.288   5
   2   7   0 858.945  41.176   1
   2   7   0 885.781  45.762   8
   3   7   0 523.304  36.928   6
   3   7   0 519.554  27.254   1
   3   7   0 551.778  25.240   8
   3   7   0 552.867  28.218   5
  -4  -7   0 122.910   6.839   2
  -4  -7   0 122.385   8.388   1
   4   7   0 106.414   7.721   6
   4   7   0 127.987   7.779   1
   4   7   0 123.572   7.671   5
  -5  -7   0 22.5551  4.1071   2
   5   7   0 11.1528  4.7452   4
   5   7   0 15.1317  3.3708   1
   5   7   0 9.01503 3.07942   6
   5   7   0 17.2404  3.3315   5
  -6  -7   0 163.286   9.665   1
  -6  -7   0 171.664   9.991   2
   6   7   0 203.438  11.810   4
   6   7   0 200.573  12.100   1
   6   7   0 175.203   9.543   6
   6   7   0 182.556   9.808   5
  -7  -7   0 7.91686 4.99345   2
  -7  -7   0 1.70966 2.91769   1
   7   7   0 5.97580 2.94231   1
   7   7   0 8.55441 2.70848   5
   7   7   0 4.99246 2.31553   6
  -8  -7   0 95.6897  8.4902   2
   8   7   0 114.591   6.667   5
   8   7   0 115.913   9.526   4
   8   7   0 102.411   6.568   1
  -9  -7   0 71.4655  7.8709   2
   9   7   0 57.7310  6.8413   4
 -10  -7   0 8.21283 5.74162   2
  10   7   0 9.02115 5.73105   4
  -5   8   0 13.6495  7.2828   7
  -5   8   0 7.34411 4.34670   5
  -5   8   0 5.37077 5.97200   1
  -4   8   0 110.270  11.164   7
  -4   8   0 143.390  10.484   5
  -4   8   0 150.048  11.227   1
  -3   8   0 70.3842  8.3919   1
  -3   8   0 90.0434  8.6414   5
  -3   8   0 79.6795  7.9831   7
  -2   8   0 1.48277 5.05410   5
  -2   8   0 0.36965 5.30873   7
  -2   8   0 0.67109 5.17426   1
  -1   8   0 522.931  29.192   1
  -1   8   0 580.296  26.593   5
  -1   8   0 597.027  29.025   7
   0   8   0 135.151   9.811   5
   0   8   0 130.145   9.851   7
   0   8   0 158.229  10.228   1
   0   8   0 132.462   8.695   8
   1   8   0 235.846  15.861   1
   1   8   0 238.441  13.426   7
   1   8   0 255.941  13.306   8
   1   8   0 262.165  15.325   5
   2   8   0 1102.72   58.32   5
   2   8   0 1130.71   55.95   1
   2   8   0 1069.86   51.36   8
  -3  -8   0 59.9538  4.7026   2
   3   8   0 76.2533  6.7206   1
   3   8   0 71.4694  6.6900   5
   3   8   0 81.3103  4.1715   8
  -4  -8   0 40.6054  4.3452   2
   4   8   0 43.4227  5.4979   1
   4   8   0 51.3797  5.4201   5
  -5  -8   0 281.604  18.239   2
   5   8   0 324.826  19.704   1
   5   8   0 323.830  17.674   5
   5   8   0 319.315  18.017   4
  -6  -8   0 73.5301  6.1267   2
   6   8   0 68.5197  6.1776   6
   6   8   0 73.0369  5.8750   5
   6   8   0 76.1422  6.4655   1
   6   8   0 65.3972  7.6309   4
  -7  -8   0 92.5230  7.5405   2
   7   8   0 89.6135  6.5769   5
   7   8   0 99.1838  7.1683   1
   7   8   0 82.2332  8.8415   4
  -8  -8   0 110.951   8.513   2
   8   8   0 127.488   9.675   4
   8   8   0 126.797   8.161   5
   8   8   0 130.505   8.449   1
  -9  -8   0 16.4982  5.5412   2
 -10  -8   0 10.5381  6.0993   2
  10   8   0 14.0266  6.8594   4
  -4   9   0 27.3888  7.5540   1
  -4   9   0 41.9064  8.2116   5
  -4   9   0 43.7432  8.9211   7
  -3   9   0 23.9051  7.1426   5
  -3   9   0 27.5279  7.5932   7
  -3   9   0 28.6899  7.2235   1
  -2   9   0 81.2564 10.2253   7
  -2   9   0 85.0397  9.3036   1
  -2   9   0 75.4017  8.7823   5
  -1   9   0 193.750  13.850   7
  -1   9   0 208.053  13.346   1
  -1   9   0 193.087  13.166   5
   0   9   0 95.4846  9.0090   1
   0   9   0 118.726  10.507   5
   0   9   0 96.3096  8.5565   7
   1   9   0 263.127  17.738   7
   1   9   0 318.009  15.857   8
   1   9   0 304.987  19.052   1
   1   9   0 286.607  15.706   5
  -2  -9   0 424.500  22.856   2
   2   9   0 461.194  23.676   8
   2   9   0 439.384  24.127   1
   2   9   0 464.026  22.330   5
  -3  -9   0 51.0326  4.1122   2
   3   9   0 50.2439  6.4548   5
   3   9   0 54.0396  3.5620   8
   3   9   0 58.6575  6.6377   1
  -4  -9   0 263.444  17.038   2
   4   9   0 302.484  20.900   5
   4   9   0 295.904  20.609   1
  -5  -9   0 230.998  12.792   2
   5   9   0 232.125  13.215   1
   5   9   0 197.874  15.271   5
   5   9   0 248.982  14.866   4
  -6  -9   0 10.1812  3.5460   2
   6   9   0 12.3585  5.9056   4
   6   9   0 9.87631 4.15418   1
   6   9   0 13.5221  4.8275   5
  -7  -9   0 159.664  10.448   2
   7   9   0 160.631  12.335   4
   7   9   0 151.261  10.671   5
   7   9   0 160.265  11.282   1
  -8  -9   0 66.4387  7.3151   2
   8   9   0 72.1767  8.7030   4
   8   9   0 70.4827  6.4262   1
   8   9   0 58.7024  5.4843   5
  -9  -9   0 5.85918 5.22568   2
   9   9   0 4.58649 6.08786   4
  -3  10   0 11.1057  7.0255   1
  -2  10   0 63.7596  9.3897   1
  -2  10   0 74.5883  9.7715   7
  -2  10   0 82.2035  9.7217   5
  -1  10   0 57.3780  7.2807   5
  -1  10   0 73.8261  9.0047   1
  -1  10   0 49.3324  8.5294   7
   0  10   0 6.16148 5.89386   5
   0  10   0 -2.4943  3.9946   7
   0  10   0 4.31873 5.75565   1
   1  10   0 199.750  13.711   5
   1  10   0 194.883  13.566   7
   1  10   0 217.652  14.127   1
   2  10   0 56.1528  6.6772   1
   2  10   0 63.8682  6.7242   5
   3  10   0 93.1727  8.4982   1
   3  10   0 70.9950  9.5443   5
  -4 -10   0 158.007   9.184   2
   4  10   0 154.972  10.590   5
   4  10   0 121.245  10.670   1
  -5 -10   0 71.6200  6.1555   2
   5  10   0 79.0756  7.9372   4
   5  10   0 73.7276  7.5508   1
   5  10   0 63.9722  7.1240   5
  -6 -10   0 25.5289  4.3566   2
   6  10   0 35.6786  6.1025   4
   6  10   0 22.5842  5.3412   1
   6  10   0 35.2549  5.4885   5
  -7 -10   0 42.8813  5.6739   2
   7  10   0 47.5305  6.0403   1
   7  10   0 41.0634  5.6483   5
   7  10   0 61.0286  8.4080   4
  -8 -10   0 5.19638 4.88349   2
   8  10   0 -0.6295  5.8576   4
   8  10   0 11.2443  4.8056   1
  -1  11   0 21.2637  7.7258   1
   0  11   0 37.1942  7.6845   5
   0  11   0 22.8581  5.7393   7
   0  11   0 28.5691  7.7429   1
   1  11   0 72.7043  9.1532   5
   1  11   0 65.3996  8.8971   1
   1  11   0 81.3341  9.3695   7
   2  11   0 10.2275  6.2950   1
   2  11   0 9.37149 6.18134   5
   3  11   0 50.4926  7.8727   1
   3  11   0 58.9712  8.3975   5
   4  11   0 78.1585  9.2608   1
   4  11   0 70.6045  8.3244   5
   5  11   0 2.71808 6.40105   4
   5  11   0 2.04383 5.24540   5
   5  11   0 -1.9222  5.5133   1
   6  11   0 42.4433  7.1169   1
   6  11   0 51.1010  8.3776   4
   6  11   0 45.2824  7.0682   5
   7  11   0 33.0004  6.2913   1
   7  11   0 33.0880  6.0058   5
   7  11   0 42.5198  8.5935   4
   3  12   0 28.9525  7.7531   1
   4  12   0 26.4707  6.0724   1
   7  11  -1 19.0923  6.7633   1
   6  11  -1 8.53135 6.41705   1
   6  11  -1 6.70423 5.07310   5
   6  11  -1 -2.1923  6.3137   4
   5  11  -1 82.2517  8.8257   5
   5  11  -1 72.5372  8.1157   1
   4  11  -1 11.5841  5.9188   5
   4  11  -1 19.4515  6.1458   1
   3  11  -1 32.7460  7.1525   5
   3  11  -1 37.2414  7.3428   1
   2  11  -1 125.461  11.341   1
   2  11  -1 122.400  11.344   5
   1  11  -1 13.1717  6.6717   1
   1  11  -1 18.1613  6.5981   5
   0  11  -1 36.3574  7.9627   1
   0  11  -1 33.2821  7.6161   5
   8  10  -1 0.40435 4.63334   1
   8  10  -1 6.16086 6.52203   4
  -8 -10   1 -3.0144  5.5550   2
   7  10  -1 0.94889 5.20796   1
   7  10  -1 -1.1280  5.7095   4
   7  10  -1 2.97786 3.85831   5
  -7 -10   1 6.77547 4.07372   2
   6  10  -1 76.6787  9.7355   1
   6  10  -1 73.8193  9.2395   4
   6  10  -1 79.3951  8.2590   5
   5  10  -1 82.1656  7.9654   1
   5  10  -1 79.7200  7.8452   5
   4  10  -1 13.0142  5.3933   5
   4  10  -1 21.3303  5.5722   1
   3  10  -1 238.240  19.054   5
   3  10  -1 248.756  15.503   1
   2  10  -1 90.7658  9.5169   5
   2  10  -1 102.855   9.134   1
   1  10  -1 47.8069  7.5585   5
   1  10  -1 41.0394  7.3531   7
   1  10  -1 41.7360  7.3716   1
   0  10  -1 136.022  10.782   5
   0  10  -1 103.534  10.214   1
   0  10  -1 125.032  12.270   7
  -1  10  -1 74.3484  9.8856   7
  -1  10  -1 95.3906 10.0851   1
  -1  10  -1 100.800   9.821   5
  -2  10  -1 20.6767  7.2259   5
  -2  10  -1 31.0757  6.1674   1
  -2  10  -1 22.0894  6.1714   7
  -3  10  -1 43.3743  8.7121   1
   9   9  -1 43.4691  8.3212   4
  -9  -9   1 46.5628  7.8400   2
   8   9  -1 12.7692  5.9389   4
   8   9  -1 11.5050  4.1503   1
   8   9  -1 14.2946  4.0080   5
  -8  -9   1 8.88260 4.74220   2
   7   9  -1 14.2982  4.1903   1
   7   9  -1 21.5540  6.4440   4
   7   9  -1 13.3723  4.4364   5
   6   9  -1 162.478  10.721   1
   6   9  -1 138.390  11.282   4
   6   9  -1 147.617  11.668   5
  -6  -9   1 164.690  10.181   2
   5   9  -1 63.3068  6.5705   1
   5   9  -1 55.5941  6.5396   5
  -5  -9   1 70.2022  5.6551   2
   4   9  -1 79.1765  7.2603   5
   3   9  -1 247.074  10.332   8
   3   9  -1 265.459  15.918   1
   3   9  -1 236.033  13.518   5
   3   9  -1 212.748  11.319   8
  -3  -9   1 224.274  11.124   2
   2   9  -1 13.5068  4.9844   1
   2   9  -1 14.8741  2.9341   8
   2   9  -1 14.7229  5.1598   5
  -2  -9   1 15.8261  2.0233   2
   1   9  -1 -0.1763  4.7715   1
   1   9  -1 2.52445 3.10724   8
   1   9  -1 -2.9662  5.1727   7
   1   9  -1 -1.5822  3.3242   5
   0   9  -1 414.672  22.151   7
   0   9  -1 439.678  23.011   1
   0   9  -1 427.166  24.156   5
  -1   9  -1 24.9163  6.3993   1
  -1   9  -1 21.3912  6.5818   7
  -1   9  -1 22.9084  6.1462   5
  -2   9  -1 84.0583  9.3023   5
  -2   9  -1 82.5554  9.1290   1
  -2   9  -1 86.3317  9.3823   7
  -3   9  -1 112.236   9.724   5
  -3   9  -1 116.897  10.952   7
  -3   9  -1 99.5366  9.4479   1
  -4   9  -1 5.04990 6.44536   5
  -4   9  -1 -2.3514  7.0342   7
  -4   9  -1 -0.5303  6.1464   1
   9   8  -1 17.0777  6.1716   4
  -9  -8   1 13.2801  5.5514   2
   8   8  -1 7.29254 5.73130   4
   8   8  -1 4.69897 3.05039   5
   8   8  -1 1.98548 3.30719   1
  -8  -8   1 10.3325  4.8703   2
   7   8  -1 232.764  14.905   5
   7   8  -1 218.191  13.214   1
   7   8  -1 199.589  14.714   4
  -7  -8   1 207.841  13.195   2
   6   8  -1 177.032  10.535   1
   6   8  -1 161.913  10.868   5
   6   8  -1 147.043  11.432   4
  -6  -8   1 184.606  18.957   2
   5   8  -1 68.6739  7.7786   4
   5   8  -1 69.4342  6.2444   1
   5   8  -1 73.5317  6.3584   5
  -5  -8   1 82.3674  5.6464   2
   4   8  -1 240.621  15.496   5
   4   8  -1 235.233  12.829   1
  -4  -8   1 220.974  11.732   2
   3   8  -1 11.2498  4.1446   5
   3   8  -1 8.19425 1.06185   8
   3   8  -1 5.35195 3.97614   1
   3   8  -1 7.24180 1.05656   8
   2   8  -1 109.909   6.935   8
   2   8  -1 125.055   8.504   5
   2   8  -1 135.158   9.233   1
  -2  -8   1 138.255   6.092   2
   1   8  -1 787.164  38.820   8
   1   8  -1 772.113  38.129   7
   1   8  -1 761.511  40.020   5
   1   8  -1 770.217  35.761   1
  -1  -8   1 780.928  31.563   2
   0   8  -1 367.158  21.908   1
   0   8  -1 409.261  23.050   8
   0   8  -1 409.769  24.734   7
   0   8  -1 409.598  21.061   5
  -1   8  -1 43.4640  6.4377   1
  -1   8  -1 50.2417  6.8328   7
  -2   8  -1 230.969  15.211   5
  -2   8  -1 247.974  15.451   7
  -2   8  -1 258.849  15.022   1
  -3   8  -1 126.031  10.517   1
  -3   8  -1 144.001  11.425   7
  -3   8  -1 130.360  10.643   5
  -4   8  -1 33.7367  7.0376   5
  -4   8  -1 50.9699  7.7652   1
  -4   8  -1 44.7909  8.1373   7
  -5   8  -1 56.3122  9.1946   7
  -5   8  -1 59.8638  8.5972   1
  -5   8  -1 61.7920  7.2562   5
  10   7  -1 36.7323  8.3393   4
 -10  -7   1 30.1744  6.8487   2
   9   7  -1 41.6948  8.1189   4
  -9  -7   1 45.6333  5.8128   2
   8   7  -1 27.9841  6.0786   4
   8   7  -1 29.3132  3.8478   1
   8   7  -1 36.8788  3.8381   5
   7   7  -1 295.552  16.667   5
   7   7  -1 295.851  16.103   6
   7   7  -1 350.385  20.744   4
   7   7  -1 311.764  17.126   1
  -7  -7   1 340.711  18.592   2
   6   7  -1 195.168  10.313   5
   6   7  -1 192.499  10.591   6
   6   7  -1 174.902  10.551   1
   6   7  -1 196.436  13.127   4
  -6  -7   1 159.684   9.861   2
  -6  -7   1 160.046   9.817   1
   5   7  -1 398.185  23.880   4
   5   7  -1 382.467  22.096   6
   5   7  -1 416.370  22.828   1
   5   7  -1 386.637  19.846   5
  -5  -7   1 388.972  19.864   2
   4   7  -1 378.103  18.575   5
   4   7  -1 333.547  23.274   6
   4   7  -1 330.791  16.909   1
  -4  -7   1 332.594  16.914   2
   3   7  -1 407.908  20.733   1
   3   7  -1 391.263  19.855   5
   3   7  -1 418.398  28.684   6
  -3  -7   1 418.845  19.350   2
   2   7  -1 643.210  31.712   1
   2   7  -1 650.536  32.194   5
   2   7  -1 663.497  34.254   8
  -2  -7   1 707.547  30.598   2
   1   7  -1 1066.69   55.31   7
   1   7  -1 1048.40   53.74   5
   1   7  -1 1046.16   59.11   8
   1   7  -1 1158.97   54.70   1
  -1  -7   1 1136.98   47.26   2
   0   7  -1 140.307   9.434   5
   0   7  -1 132.997   9.694   1
   0   7  -1 135.979   9.353   7
  -1   7  -1 178.034  11.173   7
  -1   7  -1 159.108  11.321   5
  -1   7  -1 173.240  10.623   1
  -2   7  -1 374.144  22.187   5
  -2   7  -1 449.131  21.820   1
  -2   7  -1 417.198  23.092   7
  -3   7  -1 3.07570 5.28548   7
  -3   7  -1 4.58451 4.62484   1
  -3   7  -1 -0.4679  4.3737   5
  -4   7  -1 86.7881  9.0268   7
  -4   7  -1 90.5601  8.6563   1
  -4   7  -1 97.3902  8.7516   5
  -5   7  -1 192.869  14.521   7
  -5   7  -1 217.084  13.701   1
  -5   7  -1 222.565  13.985   5
  -6   7  -1 12.1998  6.7889   5
  -6   7  -1 17.4218  5.9530   1
  -6   7  -1 2.40717 6.78410   7
  10   6  -1 30.1726  6.2179   4
 -10  -6   1 32.9352  7.0366   2
   9   6  -1 -1.1141  4.7099   4
  -9  -6   1 9.00160 5.25406   2
   8   6  -1 272.149  15.261   1
   8   6  -1 255.457  19.018   5
   8   6  -1 295.455  17.882   4
  -8  -6   1 272.136  17.769   2
   7   6  -1 378.625  21.148   1
   7   6  -1 330.283  21.206   4
   7   6  -1 369.039  17.399   5
  -7  -6   1 355.678  19.178   1
  -7  -6   1 373.640  17.530   2
  -7  -6   1 342.147  15.022   8
   6   6  -1 38.3322  4.0518   5
   6   6  -1 38.5886  4.2000   1
   6   6  -1 36.7248  5.4136   4
   6   6  -1 37.1917  3.6254   6
  -6  -6   1 31.6337  5.3707   2
  -6  -6   1 33.8434  4.1659   1
   5   6  -1 354.415  21.495   6
   5   6  -1 367.138  18.533   1
   5   6  -1 406.690  20.281   5
   5   6  -1 365.769  18.888   4
  -5  -6   1 359.044  16.436   2
  -5  -6   1 336.481  20.643   1
   4   6  -1 597.187  30.444   6
   4   6  -1 621.261  33.379   5
   4   6  -1 641.828  35.810   1
  -4  -6   1 617.241  26.134   2
  -4  -6   1 589.554  29.878   1
   3   6  -1 182.380  10.639   5
   3   6  -1 201.861  10.643   1
   3   6  -1 201.018  10.334   6
  -3  -6   1 180.788   9.346   2
  -3  -6   1 192.734  11.344   1
  -3  -6   1 176.574  10.453   7
   2   6  -1 2461.52  128.98   5
   2   6  -1 2627.22  130.16   1
   2   6  -1 2502.33  137.94   6
   2   6  -1 2585.71  114.68   8
  -2  -6   1 2556.26  114.08   2
  -2  -6   1 2538.23  134.85   1
  -2  -6   1 2515.42  115.85   7
   1   6  -1 951.539  44.662   1
   1   6  -1 992.826  49.253   5
   1   6  -1 966.021  45.210   7
   1   6  -1 965.015  45.095   6
  -1  -6   1 893.369  65.967   7
  -1  -6   1 965.626  43.796   2
  -1  -6   1 930.885  53.803   1
   0   6  -1 15.1727  4.1814   7
   0   6  -1 11.6934  3.5225   6
   0   6  -1 16.6065  3.2448   1
   0   6  -1 17.3674  3.9538   5
  -1   6  -1 1496.69   71.85   1
  -1   6  -1 1475.41   75.39   7
  -1   6  -1 1471.33   64.82   5
   1  -6   1 1441.38   60.86   2
  -2   6  -1 628.913  31.275   7
  -2   6  -1 631.330  30.830   1
  -2   6  -1 624.060  31.971   5
   2  -6   1 638.151  25.999   2
  -3   6  -1 92.8691  7.6237   1
  -3   6  -1 80.8115  8.0965   7
  -3   6  -1 81.9267  7.5119   5
  -4   6  -1 411.131  25.925   7
  -4   6  -1 416.841  23.086   5
  -4   6  -1 440.453  24.327   1
  -5   6  -1 220.146  15.353   7
  -5   6  -1 194.281  12.368   5
  -5   6  -1 184.798  12.803   1
  -6   6  -1 16.1643  6.8447   7
  -6   6  -1 5.60952 4.61660   5
  -6   6  -1 5.99555 4.59272   1
  -7   6  -1 33.8737  7.1878   1
  -7   6  -1 33.0456  6.4556   5
  10   5  -1 35.6820  6.0638   4
 -10  -5   1 21.8753  5.3704   2
 -10  -5   1 31.9393  7.1994   7
   9   5  -1 41.1456  6.0815   4
  -9  -5   1 36.2557  6.4610   2
   8   5  -1 88.7751  5.1249   5
   8   5  -1 84.5215  7.3768   4
   8   5  -1 77.5003  5.1951   1
  -8  -5   1 64.0520  5.0145   8
  -8  -5   1 77.8314  7.4082   2
   7   5  -1 34.0611  3.2361   5
   7   5  -1 37.5066  3.3785   1
   7   5  -1 35.4043  3.2063   5
  -7  -5   1 26.1806  3.1012   8
  -7  -5   1 27.0633  3.2619   1
  -7  -5   1 30.7468  3.3909   8
  -7  -5   1 27.1097  5.0931   2
   6   5  -1 777.719  37.905   4
   6   5  -1 765.515  36.535   1
   6   5  -1 770.051  36.947   5
  -6  -5   1 736.330  37.807   1
  -6  -5   1 726.598  34.817   8
  -6  -5   1 736.909  32.521   2
  -6  -5   1 709.010  33.459   8
   5   5  -1 1947.81   93.60   5
   5   5  -1 1999.08  106.32   4
   5   5  -1 1906.95   94.03   6
   5   5  -1 1978.20  101.51   1
  -5  -5   1 1892.88   86.02   2
  -5  -5   1 1885.63   98.80   1
   4   5  -1 540.128  27.618   4
   4   5  -1 562.921  30.138   1
   4   5  -1 547.949  28.391   6
   4   5  -1 545.592  24.568   5
  -4  -5   1 564.715  24.313   2
  -4  -5   1 518.477  28.771   1
   3   5  -1 413.767  20.614   6
   3   5  -1 405.214  19.734   5
   3   5  -1 413.417  21.888   1
  -3  -5   1 409.977  20.493   7
  -3  -5   1 378.323  26.236   1
  -3  -5   1 379.424  16.964   2
   2   5  -1 1755.45   93.53   1
   2   5  -1 1794.09   83.76   8
   2   5  -1 1863.53   86.65   5
   2   5  -1 1809.84   98.63   6
  -2  -5   1 1678.26   83.25   2
  -2  -5   1 1744.70   92.06   7
  -2  -5   1 1717.73  104.57   1
   1   5  -1 396.316  19.153   7
   1   5  -1 354.533  19.528   6
   1   5  -1 381.112  18.135   1
   1   5  -1 390.361  18.877   5
  -1  -5   1 444.913  21.379   1
  -1  -5   1 440.686  19.796   7
  -1  -5   1 443.901  16.994   2
   0   5  -1 334.420  17.396   5
   0   5  -1 295.347  15.644   6
   0   5  -1 316.452  17.975   7
   0   5  -1 326.469  16.183   1
   0  -5   1 282.634  14.456   1
   0  -5   1 275.825  17.265   5
   0  -5   1 325.121  16.292   7
  -1   5  -1 2063.94   98.41   1
  -1   5  -1 2208.33  100.24   5
  -1   5  -1 2076.79  105.56   7
   1  -5   1 2026.91   83.85   2
   1  -5   1 2084.32  105.84   5
   1  -5   1 2097.33  101.00   7
   1  -5   1 2073.28  122.31   1
  -2   5  -1 231.617  13.585   1
  -2   5  -1 268.352  13.469   5
  -2   5  -1 269.394  13.091   7
   2  -5   1 242.676  14.435   7
   2  -5   1 273.183  16.975   5
   2  -5   1 248.127  15.866   1
   2  -5   1 246.646  11.600   2
  -3   5  -1 392.490  19.701   5
  -3   5  -1 435.573  24.955   1
  -3   5  -1 433.007  20.574   7
   3  -5   1 441.128  20.454   2
  -4   5  -1 511.676  28.290   1
  -4   5  -1 496.829  25.264   7
  -4   5  -1 520.617  25.876   5
  -5   5  -1 96.2780  8.8496   7
  -5   5  -1 89.0743  7.6417   5
  -5   5  -1 86.6962  7.5307   1
  -6   5  -1 57.1352  8.0481   7
  -6   5  -1 53.5480  6.1827   5
  -7   5  -1 92.5549 10.0899   7
  -7   5  -1 92.4314 11.0391   5
  -7   5  -1 89.0439  8.4144   1
  -8   5  -1 7.50276 7.35882   7
 -10  -4   1 -1.0316  5.5793   2
 -10  -4   1 -0.9511  5.2217   3
 -10  -4   1 1.58960 5.80248   7
   9   4  -1 124.077   9.217   4
  -9  -4   1 138.342  10.662   7
  -9  -4   1 140.557  10.204   2
   8   4  -1 444.688  24.858   4
   8   4  -1 406.513  20.588   1
   8   4  -1 425.128  19.515   5
   8   4  -1 398.158  19.743   5
   8   4  -1 424.394  21.044   1
  -8  -4   1 405.314  21.705   8
  -8  -4   1 425.104  22.851   2
   7   4  -1 35.3350  3.0556   5
   7   4  -1 37.2685  3.3049   1
   7   4  -1 49.1940  5.2715   4
  -7  -4   1 46.5383  3.9282   8
  -7  -4   1 34.5362  5.3357   2
   6   4  -1 788.518  37.092   1
   6   4  -1 797.755  38.330   4
   6   4  -1 780.993  41.043   5
  -6  -4   1 810.435  34.820   2
  -6  -4   1 828.022  43.575   1
  -6  -4   1 786.413  40.003   8
   5   4  -1 618.195  31.491   1
   5   4  -1 640.669  36.772   6
   5   4  -1 633.351  31.552   4
  -5  -4   1 582.706  30.688   1
  -5  -4   1 627.995  29.188   8
  -5  -4   1 613.978  28.412   2
   4   4  -1 126.479   6.853   6
   4   4  -1 135.389   8.243   5
   4   4  -1 128.371   7.787   4
   4   4  -1 124.670   6.800   1
  -4  -4   1 130.480   6.213   8
  -4  -4   1 121.249   6.827   2
  -4  -4   1 135.229   7.640   1
  -4  -4   1 136.062   5.844   8
   3   4  -1 2735.29  132.10   6
   3   4  -1 2794.85  128.73   1
   3   4  -1 2764.21  145.91   5
  -3  -4   1 2694.85  129.05   1
  -3  -4   1 2738.87  136.83   2
   2   4  -1 915.911  48.079   5
   2   4  -1 926.492  47.082   1
   2   4  -1 906.397  49.595   6
  -2  -4   1 977.556  58.377   1
  -2  -4   1 1010.43   48.54   2
  -2  -4   1 1036.35   48.52   7
   1   4  -1 4.22202 3.09063   7
   1   4  -1 8.03238 2.73449   6
   1   4  -1 10.2564  3.0683   5
   1   4  -1 5.27498 3.01421   1
  -1  -4   1 5.45535 1.39182   2
  -1  -4   1 3.15121 2.52724   1
  -1  -4   1 2.74094 2.88273   7
   0   4  -1 4468.03  228.38   6
   0   4  -1 4490.46  212.84   1
   0   4  -1 4485.17  233.10   5
   0   4  -1 4478.95  213.21   7
   0  -4   1 4372.27  205.15   1
   0  -4   1 4475.84  217.64   7
   0  -4   1 4442.22  300.87   5
  -1   4  -1 2923.53  151.70   5
  -1   4  -1 3035.37  154.85   1
  -1   4  -1 3058.63  164.72   7
   1  -4   1 3070.14  151.94   1
   1  -4   1 2952.40  128.20   2
   1  -4   1 3118.96  138.38   7
   1  -4   1 3011.23  140.04   5
  -2   4  -1 47.1446  4.6435   1
  -2   4  -1 53.3446  5.8592   7
  -2   4  -1 47.4966  4.2342   5
   2  -4   1 58.0945  4.7634   5
   2  -4   1 42.4727  4.9115   7
   2  -4   1 53.5690  2.8670   2
   2  -4   1 53.9988  4.6465   1
  -3   4  -1 706.722  32.463   7
  -3   4  -1 691.514  39.123   5
  -3   4  -1 706.130  33.962   1
   3  -4   1 674.005  33.479   7
   3  -4   1 682.722  36.550   1
   3  -4   1 662.567  31.730   2
   3  -4   1 665.620  35.425   5
  -4   4  -1 448.373  24.511   1
  -4   4  -1 399.746  21.882   5
  -4   4  -1 448.110  19.943   7
   4  -4   1 398.053  26.908   1
   4  -4   1 356.915  23.786   5
  -5   4  -1 92.7344  8.3936   7
  -5   4  -1 107.442   7.780   5
  -5   4  -1 88.4412  7.0576   1
  -6   4  -1 412.962  23.958   5
  -6   4  -1 417.631  21.541   1
  -6   4  -1 382.814  24.580   7
  -7   4  -1 109.618  10.400   7
  -7   4  -1 132.094   9.233   5
  -7   4  -1 131.782   9.360   1
  -8   4  -1 9.87131 6.53627   7
 -10  -3   1 5.55278 6.17242   7
 -10  -3   1 7.45562 5.75090   2
 -10  -3   1 14.3417  6.0579   3
  -9  -3   1 49.6444  7.5696   7
  -9  -3   1 64.9029  7.5430   3
  -9  -3   1 52.7701  6.9778   2
   8   3  -1 11.0098  2.1865   5
   8   3  -1 16.5099  2.2642   1
   8   3  -1 11.1674  5.0042   4
  -8  -3   1 18.8541  5.0610   2
  -8  -3   1 19.0561  5.5085   7
   7   3  -1 147.145   7.827   5
   7   3  -1 137.614   7.881   1
   7   3  -1 149.858   7.881   1
   7   3  -1 157.817   9.297   4
  -7  -3   1 143.289   9.068   2
  -7  -3   1 145.899   6.891   6
   6   3  -1 930.512  48.802   1
   6   3  -1 908.221  46.647   1
   6   3  -1 928.112  56.330   5
   6   3  -1 969.953  50.448   4
  -6  -3   1 974.849  41.985   6
  -6  -3   1 970.042  45.445   2
   5   3  -1 686.900  34.272   5
   5   3  -1 693.431  35.588   1
   5   3  -1 714.405  35.218   4
  -5  -3   1 678.719  36.104   2
  -5  -3   1 689.507  30.931   6
  -5  -3   1 669.020  33.008   1
   4   3  -1 45.7970  3.1396   6
  -4  -3   1 38.1859  2.9668   6
  -4  -3   1 36.4269  3.9502   2
  -4  -3   1 37.2315  3.1638   1
   3   3  -1 3219.30  172.52   1
   3   3  -1 3187.75  161.94   4
   3   3  -1 3225.11  180.30   6
  -3  -3   1 3078.86  170.28   1
  -3  -3   1 3057.01  134.59   2
  -3  -3   1 3065.84  141.71   8
  -3  -3   1 3097.29  147.84   6
   2   3  -1 1792.90   93.48   6
   2   3  -1 1683.45   92.52   1
  -2  -3   1 1788.35   88.74   2
  -2  -3   1 1684.83   81.43   1
   1   3  -1 3330.74  161.67   1
   1   3  -1 3465.97  168.50   5
  -1  -3   1 3476.14  158.73   7
  -1  -3   1 3415.19  157.26   2
  -1  -3   1 3332.41  174.11   1
   0   3  -1 2657.24  125.89   5
   0   3  -1 2524.35  155.24   6
   0   3  -1 2692.46  124.17   7
   0   3  -1 2764.48  130.73   1
   0  -3   1 2892.20  123.71   5
   0  -3   1 3018.81  154.31   7
   0  -3   1 2917.47  140.30   1
  -1   3  -1 829.490  46.833   1
  -1   3  -1 821.386  44.116   7
  -1   3  -1 850.683  43.910   5
   1  -3   1 834.988  43.583   1
   1  -3   1 844.138  44.822   7
   1  -3   1 798.477  37.201   5
   1  -3   1 819.682  36.334   2
  -2   3  -1 378.295  18.756   7
  -2   3  -1 370.646  20.533   5
  -2   3  -1 386.227  19.688   1
   2  -3   1 386.641  20.346   5
   2  -3   1 394.962  20.631   1
   2  -3   1 383.540  19.009   7
   2  -3   1 381.460  19.090   2
  -3   3  -1 4229.77  243.77   1
  -3   3  -1 4189.52  209.92   5
  -3   3  -1 4209.10  218.03   7
   3  -3   1 4527.33  211.02   7
   3  -3   1 4595.17  210.96   1
   3  -3   1 4288.35  183.76   2
   3  -3   1 4614.83  202.09   5
   3  -3   1 4419.77  257.38   3
  -4   3  -1 539.647  28.772   5
  -4   3  -1 491.400  25.089   7
  -4   3  -1 550.686  26.686   1
   4  -3   1 557.252  31.778   1
   4  -3   1 536.008  26.469   5
   4  -3   1 499.413  30.323   3
   4  -3   1 533.615  24.646   7
  -5   3  -1 624.359  34.949   1
  -5   3  -1 669.086  32.422   5
  -5   3  -1 685.022  36.503   7
   5  -3   1 679.076  40.107   5
   5  -3   1 674.165  45.384   1
  -6   3  -1 220.616  11.957   5
  -6   3  -1 225.426  12.108   1
  -6   3  -1 236.162  14.351   7
   6  -3   1 208.842  13.573   1
   6  -3   1 196.388  11.353   5
  -7   3  -1 73.6136  5.5938   1
  -7   3  -1 51.9697  7.2424   7
  -7   3  -1 63.2262  5.9623   5
   7  -3   1 58.6566  6.2649   1
  -8   3  -1 34.0109  5.9305   7
  -8   3  -1 27.9964  4.7776   1
  -8   3  -1 34.3849  5.1043   5
  -9   3  -1 23.8679  8.1744   7
 -10  -2   1 103.354   9.648   2
 -10  -2   1 96.4423 10.1409   7
 -10  -2   1 96.2629  9.4386   3
  -9  -2   1 118.575   9.698   3
  -9  -2   1 124.008   9.763   7
  -9  -2   1 133.297   9.887   2
   8   2  -1 28.8686  2.7402   1
   8   2  -1 23.5883  2.6206   5
   8   2  -1 29.9000  2.6906   1
  -8  -2   1 28.1455  2.1560   6
  -8  -2   1 37.6087  4.7187   2
  -8  -2   1 30.1999  5.6150   3
  -8  -2   1 29.7502  5.8709   7
   7   2  -1 631.078  31.631   5
   7   2  -1 602.925  33.991   1
   7   2  -1 662.218  32.068   1
  -7  -2   1 678.950  32.883   2
  -7  -2   1 658.674  29.763   3
  -7  -2   1 683.040  30.155   6
  -7  -2   1 651.818  34.558   4
  -7  -2   1 649.031  34.923   7
   6   2  -1 333.919  19.668   5
   6   2  -1 365.004  22.448   1
   6   2  -1 346.886  17.403   1
   6   2  -1 348.247  18.532   4
  -6  -2   1 380.499  18.942   6
  -6  -2   1 404.793  18.980   2
  -6  -2   1 393.043  20.092   4
  -6  -2   1 400.529  19.416   7
   5   2  -1 271.439  14.416   2
   5   2  -1 298.747  15.278   4
   5   2  -1 274.775  18.279   1
   5   2  -1 283.406  13.863   1
   5   2  -1 281.940  14.050   5
  -5  -2   1 256.803  13.080   2
  -5  -2   1 269.902  13.227   4
  -5  -2   1 276.384  13.528   6
   4   2  -1 3123.53  140.20   4
   4   2  -1 3121.27  148.42   5
   4   2  -1 3107.37  172.40   2
   4   2  -1 3118.16  147.28   1
  -4  -2   1 3172.92  157.04   1
  -4  -2   1 3164.90  151.90   6
  -4  -2   1 3052.63  153.48   2
  -4  -2   1 3033.54  148.49   4
   3   2  -1 5474.54  250.85   4
   3   2  -1 5555.36  259.44   1
   3   2  -1 5255.54  252.39   2
  -3  -2   1 5341.51  267.27   6
  -3  -2   1 5489.68  269.44   2
   2   2  -1 486.176  22.523   2
   2   2  -1 500.019  23.206   1
   2   2  -1 492.477  30.016   6
  -2  -2   1 508.906  35.400   1
  -2  -2   1 475.980  24.969   2
  -2  -2   1 482.899  24.452   8
  -2  -2   1 474.299  23.734   6
  -1   2  -1 2212.18  112.18   1
  -1   2  -1 2259.21  119.42   5
  -1   2  -1 2163.13  134.42   7
   1  -2   1 2133.19  101.02   5
   1  -2   1 2129.39  116.66   7
   1  -2   1 2131.43  105.57   1
  -2   2  -1 2956.44  157.85   5
  -2   2  -1 3025.81  168.46   1
  -2   2  -1 2939.06  124.57   2
  -2   2  -1 2943.33  154.07   7
   2  -2   1 2753.40  167.95   5
   2  -2   1 2839.15  148.03   7
   2  -2   1 2800.13  124.17   2
   2  -2   1 2866.87  193.86   1
  -3   2  -1 2298.15  104.44   5
  -3   2  -1 2269.69   96.65   2
  -3   2  -1 2234.86  123.85   1
  -3   2  -1 2216.60  110.57   7
   3  -2   1 2160.62  121.35   5
   3  -2   1 2200.53  110.97   3
   3  -2   1 2178.94   95.89   2
   3  -2   1 2209.14  109.39   7
   3  -2   1 2311.10  138.08   1
  -4   2  -1 4137.62  196.65   1
  -4   2  -1 4102.70  215.37   7
  -4   2  -1 4138.78  209.91   5
  -4   2  -1 4120.71  178.32   2
   4  -2   1 4093.35  214.03   1
   4  -2   1 4197.04  231.96   3
   4  -2   1 4107.76  228.76   5
   4  -2   1 4168.56  198.00   7
  -5   2  -1 922.585  42.403   5
  -5   2  -1 909.715  47.764   1
  -5   2  -1 837.263  45.605   7
  -5   2  -1 917.535  40.397   2
   5  -2   1 946.537  50.015   3
   5  -2   1 1058.51   53.52   1
   5  -2   1 909.831  73.679   7
   5  -2   1 992.737  49.924   5
  -6   2  -1 597.287  37.216   7
  -6   2  -1 609.726  36.871   1
  -6   2  -1 647.494  29.818   5
  -6   2  -1 594.911  27.957   2
   6  -2   1 640.705  38.772   1
   6  -2   1 572.410  34.161   5
  -7   2  -1 20.0807  4.3163   7
  -7   2  -1 26.3138  3.8941   1
  -7   2  -1 26.8464  3.9037   6
  -7   2  -1 20.6388  3.3255   5
  -7   2  -1 15.4998  4.2186   2
   7  -2   1 28.5354  3.3999   5
   7  -2   1 23.3101  3.3701   1
  -8   2  -1 124.559   7.899   5
  -8   2  -1 113.929   9.916   7
  -8   2  -1 135.389   9.116   1
  -9   2  -1 34.6028  7.6066   7
 -10  -1   1 67.9129  9.2293   7
 -10  -1   1 64.0836  8.4665   3
  -9  -1   1 57.9327  7.9598   7
  -9  -1   1 68.6680  7.5383   3
   8   1  -1 105.563  15.077   5
   8   1  -1 79.1699  4.8558   1
   8   1  -1 75.8208  5.0499   1
  -8  -1   1 87.6154  7.3900   2
  -8  -1   1 76.8814  4.7790   6
  -8  -1   1 75.7411  7.9633   7
   7   1  -1 336.926  20.989   1
   7   1  -1 338.540  19.004   5
   7   1  -1 344.610  18.527   1
  -7  -1   1 391.133  22.732   4
  -7  -1   1 389.975  24.873   7
  -7  -1   1 407.419  19.620   3
  -7  -1   1 441.818  17.927   2
   6   1  -1 297.053  13.805   1
   6   1  -1 267.468  16.931   1
   6   1  -1 275.763  15.065   5
  -6  -1   1 267.106  14.155   2
  -6  -1   1 290.101  14.810   7
  -6  -1   1 269.776  15.961   4
  -6  -1   1 291.290  14.468   3
   5   1  -1 794.481  42.607   1
   5   1  -1 755.272  44.288   5
   5   1  -1 771.396  37.991   2
   5   1  -1 770.370  41.693   1
  -5  -1   1 867.590  38.411   5
  -5  -1   1 836.855  35.805   7
  -5  -1   1 811.002  39.203   4
  -5  -1   1 772.175  40.661   3
  -5  -1   1 851.082  44.539   2
   4   1  -1 5143.96  263.27   1
   4   1  -1 5157.87  230.23   4
   4   1  -1 5153.81  251.07   5
   4   1  -1 5153.05  242.41   1
   4   1  -1 4903.42  241.40   2
  -4  -1   1 4829.04  252.03   2
  -4  -1   1 4841.20  220.03   4
  -4  -1   1 5204.11  256.78   7
   3   1  -1 613.354  38.984   1
   3   1  -1 617.676  28.161   2
   3   1  -1 603.111  32.053   1
   3   1  -1 587.333  33.105   5
   3   1  -1 621.420  30.149   4
  -3  -1   1 606.199  31.694   1
  -3  -1   1 622.599  32.368   4
  -3  -1   1 598.920  31.934   2
   2   1  -1 277.248  14.556   1
   2   1  -1 283.189  16.677   5
   2   1  -1 275.936  14.836   2
   2   1  -1 286.912  13.155   4
  -2  -1   1 250.030  13.955   1
  -2  -1   1 274.186  13.491   2
  -2  -1   1 246.349  14.311   6
   1   1  -1 1135.19   52.06   2
   1   1  -1 1128.28   60.41   8
   1   1  -1 1097.71   56.11   1
   1   1  -1 1067.72   53.25   6
  -1  -1   1 957.054  48.130   2
  -1  -1   1 942.688  64.140   1
  -1  -1   1 1002.68   49.70   6
  -1  -1   1 977.216  58.185   8
   0   1  -1 1769.48  105.32   6
   0   1  -1 1821.43   93.78   8
   0   1  -1 1798.58   93.57   1
   0  -1   1 1832.22   87.09   7
   0  -1   1 1780.12   83.33   6
   0  -1   1 1678.65   90.65   1
  -1   1  -1 2910.03  155.41   1
  -1   1  -1 2750.80  122.67   2
  -1   1  -1 2796.41  148.53   6
   1  -1   1 2839.07  145.40   7
   1  -1   1 2846.21  134.56   5
   1  -1   1 2866.55  123.51   1
  -3   1  -1 397.914  20.739   7
  -3   1  -1 381.527  18.277   2
  -3   1  -1 390.777  18.183   5
  -3   1  -1 398.601  21.698   1
   3  -1   1 408.855  20.719   5
   3  -1   1 389.192  23.777   1
   3  -1   1 396.886  19.951   7
   3  -1   1 383.838  19.777   3
  -4   1  -1 1425.26   65.57   1
  -4   1  -1 1421.77   70.28   5
  -4   1  -1 1395.80   64.44   2
  -4   1  -1 1397.25   76.20   3
  -4   1  -1 1440.61   74.71   7
   4  -1   1 1515.21   71.36   7
   4  -1   1 1537.79   80.50   1
   4  -1   1 1531.11   73.88   5
   4  -1   1 1510.99   74.80   3
  -5   1  -1 687.858  34.122   5
  -5   1  -1 698.201  36.211   4
  -5   1  -1 714.274  37.310   3
  -5   1  -1 698.165  35.324   1
  -5   1  -1 690.129  33.819   2
  -5   1  -1 691.422  37.443   7
   5  -1   1 669.253  33.232   1
   5  -1   1 667.906  36.460   5
   5  -1   1 616.197  32.103   3
   5  -1   1 665.033  30.686   7
  -6   1  -1 138.683   9.031   7
  -6   1  -1 140.926   8.201   2
  -6   1  -1 141.525   8.749   4
  -6   1  -1 129.952   8.155   1
  -6   1  -1 145.477   7.976   5
  -6   1  -1 146.511   9.091   3
   6  -1   1 149.696   8.117   5
   6  -1   1 159.860   8.296   1
  -7   1  -1 238.170  13.298   7
  -7   1  -1 225.170  11.929   1
  -7   1  -1 237.532  12.099   2
  -7   1  -1 249.274  14.977   5
  -7   1  -1 206.560  11.316   6
   7  -1   1 244.407  12.565   1
   7  -1   1 249.919  13.921   5
  -8   1  -1 215.430  13.238   7
  -8   1  -1 213.169  11.351   5
  -8   1  -1 209.131  11.059   1
  -8   1  -1 202.926  12.784   2
  -9   1  -1 12.3729  6.1334   7
  -9   1  -1 19.8795  5.6175   2
 -10   1  -1 9.38424 7.04199   7
 -10   0   1 42.6236  8.2703   7
 -10   0   1 47.7868  7.5246   3
  -9   0   1 6.98274 4.45297   7
  -9   0   1 15.3336  5.5221   3
   8   0  -1 197.886  10.961   5
   8   0  -1 201.717  11.761   1
  -8   0   1 189.792  11.823   3
  -8   0   1 202.154  14.092   7
  -8   0   1 187.549  10.061   5
   7   0  -1 239.695  16.293   1
   7   0  -1 253.062  15.398   5
   7   0  -1 263.869  13.646   1
  -7   0   1 247.287  15.566   4
  -7   0   1 282.921  14.541   2
  -7   0   1 251.982  16.476   7
  -7   0   1 252.646  17.270   3
  -7   0   1 257.413  14.265   5
   6   0  -1 86.2606  5.3528   1
   6   0  -1 74.7093  5.0903   1
   6   0  -1 96.2537  5.4958   5
  -6   0   1 81.7610  6.3005   2
  -6   0   1 82.3620  6.0514   5
  -6   0   1 79.1676  6.4018   3
  -6   0   1 83.1590  6.9416   7
  -6   0   1 85.3419  5.9382   4
   5   0  -1 2535.07  115.04   1
   5   0  -1 2505.27  127.96   5
   5   0  -1 2535.35  143.98   1
   5   0  -1 2388.25  100.19   2
  -5   0   1 2430.71  114.57   2
  -5   0   1 2461.95  123.55   5
  -5   0   1 2520.81  116.63   3
  -5   0   1 2489.85  113.36   7
  -5   0   1 2420.25  110.70   4
   4   0  -1 1387.08   67.87   1
   4   0  -1 1380.81   75.64   5
   4   0  -1 1368.93   66.25   2
   4   0  -1 1384.25   83.66   1
  -4   0   1 1300.40   60.74   5
  -4   0   1 1276.60   60.65   7
  -4   0   1 1252.26   58.98   2
  -4   0   1 1266.71   66.77   4
  -4   0   1 1285.99   72.27   3
   3   0  -1 428.273  29.924   1
   3   0  -1 416.590  20.529   5
   3   0  -1 409.556  19.083   2
  -3   0   1 418.500  19.705   7
  -3   0   1 393.238  21.723   5
  -3   0   1 406.350  21.200   4
  -3   0   1 397.667  21.737   3
  -3   0   1 417.936  18.748   2
  -3   0   1 417.599  22.326   1
   2   0  -1 5037.49  222.94   2
  -2   0   1 5055.38  255.55   2
  -2   0   1 4911.57  238.63   4
  -2   0   1 4884.63  242.81   1
   1   0  -1 3197.95  146.74   2
  -1   0   1 3096.80  150.53   8
   0   0  -1 3.35564 1.52091   5
  -1   0  -1 3333.69  157.26   8
  -1   0  -1 3156.79  150.75   3
   1   0   1 2961.94  145.41   3
  -2   0  -1 5888.44  264.83   3
   2   0   1 5597.14  276.15   7
  -3   0  -1 1652.11   76.29   2
  -3   0  -1 1652.19   71.86   4
  -3   0  -1 1767.04   81.82   1
  -3   0  -1 1623.97   84.98   7
  -3   0  -1 1694.45   95.15   5
  -3   0  -1 1696.74   79.03   3
   3   0   1 1618.83  115.29   3
   3   0   1 1635.61   77.25   7
   3   0   1 1670.11   86.50   5
   3   0   1 1654.23   77.26   1
  -4   0  -1 1660.48   85.30   2
  -4   0  -1 1559.61   78.65   7
  -4   0  -1 1623.99   90.95   1
  -4   0  -1 1567.07   73.34   3
  -4   0  -1 1576.56   76.57   5
  -4   0  -1 1570.37   76.41   4
   4   0   1 1559.57   77.48   1
   4   0   1 1511.23   77.54   5
  -5   0  -1 818.162  44.571   7
  -5   0  -1 869.364  40.385   5
  -5   0  -1 818.219  39.839   2
  -5   0  -1 852.889  46.594   4
  -5   0  -1 860.384  39.047   3
  -5   0  -1 865.380  41.156   1
   5   0   1 913.361  42.287   1
   5   0   1 920.167  43.775   5
  -6   0  -1 186.098  10.545   3
  -6   0  -1 199.386  11.062   2
  -6   0  -1 178.397  10.612   7
  -6   0  -1 211.812   9.705   5
  -6   0  -1 184.696  12.325   6
  -6   0  -1 202.361   9.267   1
  -6   0  -1 170.293  10.304   4
   6   0   1 191.734   9.373   1
   6   0   1 196.699  10.106   5
  -7   0  -1 589.127  27.857   7
  -7   0  -1 602.762  31.864   3
  -7   0  -1 586.990  30.136   6
  -7   0  -1 578.636  27.927   2
  -7   0  -1 593.722  26.896   5
   7   0   1 588.650  29.651   1
   7   0   1 540.968  28.360   1
   7   0   1 593.670  29.306   5
  -8   0  -1 227.527  13.369   3
  -8   0  -1 229.462  13.900   7
  -8   0  -1 219.320  13.773   2
  -8   0  -1 236.663  10.602   5
   8   0   1 231.783  11.526   1
   8   0   1 219.407  11.919   5
   8   0   1 239.282  12.087   1
  -9   0  -1 10.0548  5.6581   3
  -9   0  -1 0.76553 4.65351   2
  -9   0  -1 1.92849 5.34219   7
 -10   0  -1 10.1801  6.3548   7
 -10   0  -1 14.4572  5.7643   2
  -9   1   1 20.0821  6.6806   7
   8  -1  -1 259.540  14.806   1
  -8   1   1 235.527  12.134   5
  -8   1   1 233.715  15.909   7
   7  -1  -1 291.312  18.564   5
   7  -1  -1 312.405  17.053   1
   7  -1  -1 277.614  17.277   1
  -7   1   1 313.906  16.731   5
  -7   1   1 293.196  16.112   3
  -7   1   1 301.963  16.269   7
  -7   1   1 256.078  19.784   4
   6  -1  -1 89.5719  6.3886   5
   6  -1  -1 91.9900  6.5163   1
  -6   1   1 110.922   7.246   4
  -6   1   1 116.908   7.706   3
  -6   1   1 112.727   6.843   1
  -6   1   1 121.278   7.710   5
  -6   1   1 115.882   8.254   7
   5  -1  -1 1485.06   78.53   5
   5  -1  -1 1547.44   83.22   2
   5  -1  -1 1536.03  109.63   1
  -5   1   1 1579.93   73.14   5
  -5   1   1 1491.49   79.41   4
  -5   1   1 1527.79   76.39   7
  -5   1   1 1581.58   80.59   1
  -5   1   1 1569.56   72.26   3
   4  -1  -1 907.205  54.479   5
   4  -1  -1 913.025  55.729   1
   4  -1  -1 861.231  40.111   7
   4  -1  -1 918.893  40.490   2
  -4   1   1 947.203  49.136   4
  -4   1   1 1023.06   56.71   1
  -4   1   1 950.842  45.163   7
  -4   1   1 998.206  51.485   5
  -4   1   1 968.566  41.237   3
   3  -1  -1 954.569  47.643   2
   3  -1  -1 962.134  52.462   5
   3  -1  -1 1008.13   56.23   1
   3  -1  -1 938.552  48.664   3
   3  -1  -1 963.760  43.616   7
  -3   1   1 993.305  46.005   1
  -3   1   1 924.466  50.998   7
  -3   1   1 915.592  45.226   3
  -3   1   1 958.796  45.309   5
   2  -1  -1 2157.84  121.51   3
   2  -1  -1 2206.38  100.35   7
   2  -1  -1 2144.40  127.67   1
   2  -1  -1 2260.16  124.80   5
   2  -1  -1 2271.20  118.11   2
  -2   1   1 2256.16  126.96   3
  -2   1   1 2321.36  105.32   5
  -2   1   1 2389.75  115.31   1
  -2   1   1 2303.67  115.22   7
   1  -1  -1 1882.78  124.60   5
   1  -1  -1 1866.07  106.53   3
   1  -1  -1 1783.24   94.36   1
   1  -1  -1 1814.47   93.00   7
  -1   1   1 1612.49   98.86   1
  -1   1   1 1650.57   93.45   7
  -1   1   1 1642.59  106.26   5
   0  -1  -1 1254.22   67.03   8
   0  -1  -1 1247.90   69.12   5
   0  -1  -1 1254.63   61.95   7
   0  -1  -1 1262.93   71.58   1
   0   1   1 1401.15   72.52   1
   0   1   1 1405.09   74.82   8
   0   1   1 1359.17   68.08   7
   0   1   1 1394.24   66.82   5
  -2  -1  -1 5444.17  249.81   8
  -2  -1  -1 5241.37  271.93   4
   2   1   1 5644.69  264.21   4
  -3  -1  -1 1413.84   92.79   4
  -3  -1  -1 1359.99   67.78   2
   3   1   1 1463.04   63.59   4
  -4  -1  -1 1892.78  105.01   4
  -4  -1  -1 1833.90   84.52   6
  -4  -1  -1 1820.36   85.50   2
  -4  -1  -1 1868.93   86.84   3
  -4  -1  -1 1831.97   88.65   7
  -4  -1  -1 1871.47   83.12   5
   4   1   1 1699.05   83.83   5
   4   1   1 1767.05   77.07   1
  -5  -1  -1 653.982  29.537   6
  -5  -1  -1 686.982  37.552   3
  -5  -1  -1 692.276  30.197   4
  -5  -1  -1 650.649  30.268   2
  -5  -1  -1 697.909  29.784   7
  -5  -1  -1 673.800  30.993   5
   5   1   1 645.573  31.366   1
   5   1   1 653.203  29.281   1
   5   1   1 624.407  29.768   5
  -6  -1  -1 682.497  36.605   2
  -6  -1  -1 689.422  32.406   4
  -6  -1  -1 718.178  34.505   7
  -6  -1  -1 653.667  33.886   3
  -6  -1  -1 714.707  31.603   5
  -6  -1  -1 674.574  30.773   6
   6   1   1 702.401  31.510   5
   6   1   1 698.169  31.308   1
   6   1   1 719.295  32.553   1
  -7  -1  -1 765.741  38.167   2
  -7  -1  -1 743.689  34.647   6
  -7  -1  -1 808.457  36.814   7
  -7  -1  -1 802.677  37.560   3
   7   1   1 831.677  34.567   1
   7   1   1 803.365  35.697   5
   7   1   1 790.795  34.198   1
  -8  -1  -1 45.7970  6.1998   3
  -8  -1  -1 50.3611  2.5397   6
  -8  -1  -1 62.2763  6.6557   7
  -8  -1  -1 53.4453  2.5372   6
  -8  -1  -1 59.9701  6.2485   2
  -9  -1  -1 38.8806  6.8516   7
  -9  -1  -1 56.6257  7.2465   3
  -9  -1  -1 49.4141  6.4365   2
 -10  -1  -1 64.3093  8.4256   7
 -10  -1  -1 66.1177  6.8554   2
  -9   2   1 47.5683  8.7579   7
  -8   2   1 95.8950  7.0346   1
  -8   2   1 91.9072  9.5522   7
  -8   2   1 92.4939  7.1524   5
   7  -2  -1 26.0381  4.2155   5
   7  -2  -1 24.3161  3.9072   1
  -7   2   1 15.4497  3.6250   5
  -7   2   1 18.7084  5.6059   7
  -7   2   1 16.8671  4.0703   1
   6  -2  -1 497.767  26.770   5
   6  -2  -1 503.188  24.527   1
  -6   2   1 466.229  25.713   5
  -6   2   1 510.801  25.513   7
  -6   2   1 488.305  24.408   1
  -6   2   1 472.233  28.824   4
   5  -2  -1 444.481  24.731   2
   5  -2  -1 511.782  25.331   5
   5  -2  -1 448.115  22.713   3
   5  -2  -1 453.165  25.145   1
  -5   2   1 483.656  26.095   4
  -5   2   1 495.231  22.853   7
  -5   2   1 495.026  24.407   5
  -5   2   1 500.143  24.362   1
   4  -2  -1 84.2980  6.2411   7
   4  -2  -1 84.6857  5.6769   3
   4  -2  -1 87.1385  5.4788   2
   4  -2  -1 83.9607  5.4662   5
  -4   2   1 70.5597  5.4864   1
  -4   2   1 80.6347  5.9231   7
  -4   2   1 100.836   6.141   5
   3  -2  -1 2090.58   97.48   2
   3  -2  -1 2114.04  102.51   7
   3  -2  -1 2187.89  100.82   3
   3  -2  -1 2109.85  101.60   1
   3  -2  -1 2143.43  111.18   5
  -3   2   1 2195.60  132.85   1
  -3   2   1 2142.51  109.62   7
  -3   2   1 2260.94  108.61   5
   2  -2  -1 3748.08  179.75   2
   2  -2  -1 3729.10  197.46   7
   2  -2  -1 3719.19  180.94   3
   2  -2  -1 3868.37  216.78   1
   2  -2  -1 3839.84  184.11   5
  -2   2   1 3693.14  203.66   5
  -2   2   1 3510.95  184.17   7
  -2   2   1 3609.24  188.02   1
   1  -2  -1 139.339  10.351   5
   1  -2  -1 150.847   8.175   7
   1  -2  -1 140.177   8.669   1
  -1   2   1 130.899   8.472   5
  -1   2   1 149.579   8.143   7
  -1   2   1 141.726   8.619   1
   0  -2  -1 4240.27  219.15   7
   0  -2  -1 4277.99  215.30   5
   0   2   1 4786.49  219.01   8
   0   2   1 4762.72  253.15   5
  -2  -2  -1 279.503  14.500   4
  -2  -2  -1 256.622  13.150   5
  -2  -2  -1 270.475  15.805   1
  -2  -2  -1 259.175  13.439   8
   2   2   1 251.764  15.132   5
   2   2   1 255.467  12.790   8
   2   2   1 258.326  12.722   4
   2   2   1 271.878  15.128   1
  -3  -2  -1 1364.37   67.37   8
  -3  -2  -1 1331.98   73.35   4
  -3  -2  -1 1366.30   64.31   1
   3   2   1 1514.00   69.99   6
   3   2   1 1510.99   68.68   5
   3   2   1 1461.42   65.74   1
   3   2   1 1452.80   75.23   4
  -4  -2  -1 4821.30  229.29   4
  -4  -2  -1 4683.72  209.46   2
   4   2   1 4806.20  228.34   4
  -5  -2  -1 206.563  12.619   4
  -5  -2  -1 227.041  13.839   2
   5   2   1 216.689  11.019   4
  -6  -2  -1 672.622  41.204   7
  -6  -2  -1 708.796  29.451   2
  -6  -2  -1 732.043  37.857   3
  -6  -2  -1 668.788  50.078   4
   6   2   1 765.275  40.641   4
  -7  -2  -1 771.044  37.144   7
  -7  -2  -1 867.325  41.550   3
  -7  -2  -1 838.941  38.515   2
  -8  -2  -1 24.0630  5.4021   3
  -8  -2  -1 16.0776  4.5052   2
  -8  -2  -1 22.9118  5.1852   7
  -9  -2  -1 81.0870  8.4941   7
  -9  -2  -1 85.9698  8.7233   3
  -9  -2  -1 103.887   9.086   2
 -10  -2  -1 24.6152  6.5480   3
 -10  -2  -1 22.8095  6.3610   7
 -10  -2  -1 16.1705  5.6165   2
 -11  -2  -1 9.07301 6.62403   3
 -11  -2  -1 1.00634 6.90582   7
 -11  -2  -1 12.9040  5.9565   2
  -9   3   1 50.2331  9.2461   7
  -8   3   1 84.3946  8.4840   7
  -8   3   1 80.6273  7.4167   1
  -8   3   1 87.5551  7.9330   5
  -7   3   1 43.4929  5.7113   5
  -7   3   1 32.1024  5.3298   7
  -7   3   1 39.3394  5.5541   1
   6  -3  -1 395.283  24.380   1
  -6   3   1 422.308  20.848   1
  -6   3   1 454.475  22.594   5
  -6   3   1 413.374  28.809   7
   5  -3  -1 52.0566  4.9360   1
   5  -3  -1 59.4766  5.1900   5
   5  -3  -1 52.0599  5.3304   2
   5  -3  -1 49.8364  5.3899   3
  -5   3   1 69.2106  5.5942   5
  -5   3   1 51.4624  6.1761   7
   4  -3  -1 876.990  48.280   3
   4  -3  -1 874.350  51.470   1
   4  -3  -1 866.253  39.031   2
   4  -3  -1 857.088  45.716   5
   4  -3  -1 835.767  42.287   7
  -4   3   1 939.375  49.715   1
  -4   3   1 934.952  42.029   5
  -4   3   1 857.455  39.663   7
   3  -3  -1 2501.87  115.63   7
   3  -3  -1 2518.48  146.64   5
   3  -3  -1 2554.67  119.90   2
   3  -3  -1 2611.28  121.81   3
   3  -3  -1 2576.02  129.83   1
  -3   3   1 2534.04  125.46   7
  -3   3   1 2476.63  122.28   5
  -3   3   1 2460.30  121.67   1
   2  -3  -1 2268.19  125.22   2
   2  -3  -1 2299.49  117.68   5
   2  -3  -1 2295.38  131.43   1
   2  -3  -1 2315.86  128.77   7
  -2   3   1 2431.88  118.33   1
  -2   3   1 2312.01  126.29   7
  -2   3   1 2312.50  114.86   5
   1  -3  -1 249.898  14.903   5
   1  -3  -1 252.874  14.794   7
   1  -3  -1 253.701  13.590   1
  -1   3   1 254.360  14.282   1
  -1   3   1 234.006  12.867   5
  -1   3   1 253.960  15.207   7
   0  -3  -1 8210.42  418.86   5
   0  -3  -1 8390.32  428.57   7
   0  -3  -1 8346.72  406.23   1
   0   3   1 8787.23  416.74   1
   0   3   1 8689.62  403.50   5
   0   3   1 8446.71  421.52   7
   0   3   1 8801.00  403.81   8
  -1  -3  -1 1586.88   94.31   8
  -1  -3  -1 1568.64   89.67   1
  -1  -3  -1 1580.26   75.37   7
  -1  -3  -1 1604.37  113.21   5
   1   3   1 1516.94   90.90   8
   1   3   1 1454.21   83.60   7
   1   3   1 1456.40   74.84   5
   1   3   1 1473.50   94.47   1
  -2  -3  -1 3589.13  163.42   8
  -2  -3  -1 3567.94  180.31   5
  -2  -3  -1 3733.04  177.84   7
   2   3   1 3503.24  180.99   1
   2   3   1 3635.45  166.98   8
   2   3   1 3550.84  159.20   4
   2   3   1 3418.26  169.00   5
   3   3   1 9658.08  436.34   4
  -4  -3  -1 36.3401  2.9617   8
  -4  -3  -1 41.4380  2.6284   1
  -4  -3  -1 33.2672  3.4535   4
   4   3   1 45.6471  4.5181   4
   4   3   1 44.8420  2.8791   1
   4   3   1 41.2585  2.5404   5
   4   3   1 49.6900  2.6064   6
  -5  -3  -1 523.209  25.324   8
  -5  -3  -1 548.125  26.150   2
  -5  -3  -1 538.936  23.601   1
  -5  -3  -1 538.396  27.996   4
   5   3   1 507.870  27.885   4
   5   3   1 507.301  22.963   5
   5   3   1 514.735  24.832   5
   5   3   1 498.200  24.910   1
  -6  -3  -1 1152.72   82.92   4
  -6  -3  -1 1278.17   59.44   8
  -6  -3  -1 1171.05   52.91   2
   6   3   1 1075.26   49.62   1
   6   3   1 1230.67   69.65   4
   6   3   1 1281.63   50.63   1
  -7  -3  -1 50.1856  4.8999   2
  -7  -3  -1 60.6947  5.9673   7
   7   3   1 53.3290  5.7016   4
  -8  -3  -1 327.168  17.172   3
  -8  -3  -1 298.465  17.081   7
  -8  -3  -1 333.531  18.657   2
  -9  -3  -1 278.184  17.472   3
  -9  -3  -1 253.900  16.173   7
  -9  -3  -1 239.401  14.693   8
  -9  -3  -1 283.403  17.352   2
 -10  -3  -1 21.7678  6.7247   7
 -10  -3  -1 27.1739  6.6348   3
 -10  -3  -1 25.7223  5.3841   8
 -10  -3  -1 28.5658  5.0135   2
 -11  -3  -1 -0.4488  6.1770   3
 -11  -3  -1 10.6203  5.9905   2
 -11  -3  -1 12.6904  7.2653   8
 -11  -3  -1 5.68276 6.78103   7
  -8   4   1 30.7309  8.1596   7
  -8   4   1 29.8070  5.4010   5
  -7   4   1 102.811   8.721   5
  -7   4   1 95.9349  8.5655   1
  -7   4   1 119.217  10.752   7
  -6   4   1 148.617  12.071   5
  -6   4   1 187.850  12.061   1
  -6   4   1 152.269  11.826   7
   5  -4  -1 34.6629  4.2264   2
  -5   4   1 36.5906  5.7370   1
  -5   4   1 36.4706  5.2047   7
   4  -4  -1 861.855  47.421   3
   4  -4  -1 938.040  44.133   1
   4  -4  -1 942.552  48.585   5
   4  -4  -1 932.851  43.841   2
  -4   4   1 936.839  47.490   7
  -4   4   1 948.460  47.292   1
  -4   4   1 889.621  42.847   5
   3  -4  -1 1420.11   86.89   7
   3  -4  -1 1437.48   69.80   5
   3  -4  -1 1444.53   72.86   2
   3  -4  -1 1425.97   86.80   3
   3  -4  -1 1390.72   84.08   1
  -3   4   1 1463.16   68.75   5
  -3   4   1 1507.48   65.15   7
  -3   4   1 1446.53   74.25   1
   2  -4  -1 216.354  11.386   2
   2  -4  -1 211.109  11.815   1
   2  -4  -1 207.963  12.351   7
   2  -4  -1 232.931  12.369   5
  -2   4   1 237.157  12.429   7
  -2   4   1 244.278  14.272   5
  -2   4   1 253.239  12.260   1
   1  -4  -1 1696.84   97.75   1
   1  -4  -1 1693.78   91.77   7
   1  -4  -1 1707.58   89.30   5
  -1   4   1 1708.51   98.66   7
  -1   4   1 1716.34   75.70   5
  -1   4   1 1676.88   84.07   1
   0  -4  -1 1757.79   93.46   5
   0  -4  -1 1835.70  106.63   1
   0  -4  -1 1864.41   92.67   7
   0   4   1 1668.34   97.60   1
   0   4   1 1704.14   85.36   7
   0   4   1 1781.70   81.52   5
   0   4   1 1779.44   94.12   8
  -1  -4  -1 243.717  11.788   7
  -1  -4  -1 236.325  15.436   1
  -1  -4  -1 235.220  12.507   5
   1   4   1 191.290  11.542   5
   1   4   1 240.118  13.000   1
   1   4   1 232.279  11.033   7
   1   4   1 234.631  12.925   8
  -2  -4  -1 4435.67  229.24   1
  -2  -4  -1 4473.65  204.83   8
  -2  -4  -1 4494.63  200.19   5
  -2  -4  -1 4548.82  193.48   7
   2   4   1 4335.21  232.36   5
   2   4   1 4505.92  218.68   1
   2   4   1 4334.04  200.84   8
  -3  -4  -1 6041.19  274.59   1
   3   4   1 5716.15  289.63   1
   3   4   1 5641.49  298.88   5
   3   4   1 5794.84  259.44   8
   3   4   1 5894.68  261.39   4
  -4  -4  -1 112.428   6.762   8
  -4  -4  -1 113.531   6.386   1
   4   4   1 116.759   6.120   5
   4   4   1 121.142   6.596   6
   4   4   1 119.142   7.025   1
   4   4   1 141.715   8.107   4
  -5  -4  -1 1045.50   47.36   8
  -5  -4  -1 1044.60   51.37   1
  -5  -4  -1 1067.82   47.86   2
   5   4   1 1087.32   54.75   1
   5   4   1 1042.29   53.41   6
   5   4   1 1114.30   52.92   4
   5   4   1 1070.43   55.07   5
  -6  -4  -1 741.540  34.548   1
  -6  -4  -1 691.874  36.983   4
  -6  -4  -1 742.683  39.089   8
  -6  -4  -1 753.786  34.563   2
   6   4   1 734.877  32.893   5
   6   4   1 704.740  40.309   1
   6   4   1 743.777  40.839   4
   6   4   1 726.034  32.840   5
  -7  -4  -1 82.3243  5.5498   8
  -7  -4  -1 92.7043  6.4667   2
   7   4   1 77.8370  6.5924   4
   7   4   1 80.1436  3.8025   1
   7   4   1 83.0609  4.1039   1
  -8  -4  -1 268.700  14.432   2
  -8  -4  -1 255.835  14.480   8
   8   4   1 281.332  14.593   4
  -9  -4  -1 55.4718  7.3689   7
  -9  -4  -1 84.9478  8.1133   3
  -9  -4  -1 60.8393  6.0264   8
  -9  -4  -1 74.5496  7.4473   2
   9   4   1 67.4458  7.4659   4
 -10  -4  -1 -3.5924  4.7971   2
 -10  -4  -1 4.73740 5.50130   7
 -10  -4  -1 -1.7747  5.7590   3
 -11  -4  -1 30.2181  7.8279   3
 -11  -4  -1 25.7956  7.5696   7
 -11  -4  -1 32.1277  5.9644   2
  -7   5   1 113.267   9.756   5
  -7   5   1 126.642  11.523   7
  -7   5   1 129.680  13.362   1
  -6   5   1 90.5104  7.9938   5
  -6   5   1 109.609  10.653   7
  -6   5   1 67.4529  7.4263   1
  -5   5   1 72.5403  7.4787   5
  -5   5   1 66.3403  6.7548   1
  -5   5   1 62.8342  7.8843   7
   4  -5  -1 418.249  24.204   2
  -4   5   1 451.828  23.396   1
  -4   5   1 454.501  22.700   7
  -4   5   1 437.413  26.699   5
   3  -5  -1 302.752  15.092   2
  -3   5   1 333.439  17.243   1
  -3   5   1 315.228  17.472   7
  -3   5   1 312.470  16.469   5
   2  -5  -1 277.527  14.610   5
   2  -5  -1 281.247  15.141   1
   2  -5  -1 296.237  14.501   2
   2  -5  -1 282.198  17.445   7
  -2   5   1 289.278  14.681   1
  -2   5   1 272.607  16.533   5
  -2   5   1 296.388  15.408   7
   1  -5  -1 3178.57  141.56   5
   1  -5  -1 3244.94  164.18   1
   1  -5  -1 3146.21  146.90   7
  -1   5   1 3120.69  166.15   7
  -1   5   1 3008.70  149.88   5
  -1   5   1 2988.69  176.29   1
  -1   5   1 3036.38  168.60   8
   0  -5  -1 343.591  21.820   1
   0  -5  -1 324.137  15.238   5
   0  -5  -1 323.514  16.450   7
   0   5   1 340.522  17.009   1
   0   5   1 321.167  17.411   7
   0   5   1 319.180  20.054   8
   0   5   1 328.954  17.804   5
  -1  -5  -1 84.9786  6.2795   5
   1   5   1 109.627   7.829   7
   1   5   1 115.820   6.848   5
   1   5   1 106.813   6.523   8
  -2  -5  -1 1379.81   78.50   5
  -2  -5  -1 1452.48   72.94   1
  -2  -5  -1 1497.59   75.39   7
   2   5   1 1463.50   69.90   5
   2   5   1 1439.14   73.84   1
   2   5   1 1468.69   74.97   8
  -3  -5  -1 822.779  39.653   7
  -3  -5  -1 826.840  46.912   1
  -3  -5  -1 829.793  57.614   5
  -3  -5  -1 822.533  44.060   8
   3   5   1 955.505  45.982   5
   3   5   1 920.338  48.509   1
   3   5   1 930.497  45.891   8
  -4  -5  -1 474.880  20.517   8
  -4  -5  -1 460.651  23.934   1
   4   5   1 443.771  21.729   6
   4   5   1 458.965  25.652   5
   4   5   1 467.173  22.014   1
   4   5   1 464.903  22.367   4
  -5  -5  -1 1205.94   57.56   1
  -5  -5  -1 1306.82   57.95   2
  -5  -5  -1 1199.01   54.56   8
   5   5   1 1117.58   72.23   1
   5   5   1 1109.78   61.47   6
   5   5   1 1130.45   60.79   5
   5   5   1 1194.10   58.45   4
  -6  -5  -1 322.555  15.238   1
  -6  -5  -1 307.894  16.986   8
  -6  -5  -1 283.892  14.748   2
   6   5   1 296.254  14.391   6
   6   5   1 310.920  16.720   4
   6   5   1 287.365  13.056   5
   6   5   1 280.338  14.697   1
  -7  -5  -1 139.355   7.153   8
  -7  -5  -1 146.017   9.260   2
  -7  -5  -1 135.435   6.619   1
   7   5   1 124.138   9.501   4
   7   5   1 126.970   6.944   5
   7   5   1 133.086   7.156   1
   7   5   1 128.413   7.113   5
  -8  -5  -1 135.036   8.373   8
  -8  -5  -1 144.065   9.614   2
   8   5   1 154.953   6.987   1
   8   5   1 149.594  10.137   4
   8   5   1 140.710   6.708   1
  -9  -5  -1 81.8097  7.8609   2
  -9  -5  -1 69.5283  5.7299   8
   9   5   1 61.2537  7.2968   4
 -10  -5  -1 8.70152 5.61177   7
 -10  -5  -1 14.0227  4.8669   3
  10   5   1 17.6543  5.7695   4
 -11  -5  -1 50.9473  8.3225   2
 -11  -5  -1 35.7808  8.0161   3
  -7   6   1 78.6721  9.1254   7
  -7   6   1 79.6777  8.7126   5
  -6   6   1 15.5627  6.5600   5
  -6   6   1 10.6364  5.1407   7
  -5   6   1 142.536  11.299   7
  -5   6   1 124.680  11.000   5
  -5   6   1 142.030  10.272   1
   4  -6  -1 162.594   9.827   2
  -4   6   1 164.175  12.138   5
  -4   6   1 196.235  12.252   7
  -4   6   1 178.073  11.341   1
   3  -6  -1 4.64615 2.13705   2
  -3   6   1 11.1368  4.5602   5
  -3   6   1 3.43519 4.24935   1
  -3   6   1 9.27473 5.14211   7
   2  -6  -1 644.145  32.339   2
  -2   6   1 661.442  37.388   1
  -2   6   1 644.489  31.927   7
  -2   6   1 644.597  31.851   5
  -1   6   1 778.588  37.441   7
  -1   6   1 727.699  38.479   8
  -1   6   1 772.803  38.901   1
  -1   6   1 774.377  39.075   5
   0  -6  -1 124.473   8.010   7
   0  -6  -1 114.823   9.371   5
   0   6   1 115.888   7.923   5
   0   6   1 118.429   7.161   8
   0   6   1 120.845   7.601   7
   0   6   1 120.747   8.071   1
  -1  -6  -1 1061.50   51.31   5
  -1  -6  -1 1093.23   57.50   7
  -1  -6  -1 1158.59   92.46   1
   1   6   1 1164.19   55.08   1
   1   6   1 1233.05   57.82   7
   1   6   1 1177.40   62.88   8
   1   6   1 1153.52   54.92   5
  -2  -6  -1 1499.41   85.83   1
  -2  -6  -1 1625.93   88.67   5
  -2  -6  -1 1542.66   72.34   7
   2   6   1 1643.59   82.28   7
   2   6   1 1582.01   87.05   5
   2   6   1 1574.73   79.30   1
   2   6   1 1517.42   72.15   8
  -3  -6  -1 129.531   7.593   5
  -3  -6  -1 126.547   7.575   1
  -3  -6  -1 142.788   8.809   7
   3   6   1 133.402   8.311   1
   3   6   1 135.311   8.072   5
   3   6   1 133.215   7.307   8
  -4  -6  -1 539.517  28.701   1
  -4  -6  -1 540.276  26.000   7
   4   6   1 553.896  24.984   8
   4   6   1 587.000  29.059   4
   4   6   1 597.792  30.599   6
   4   6   1 599.377  31.547   1
   4   6   1 567.056  32.824   5
  -5  -6  -1 680.485  33.644   1
  -5  -6  -1 692.175  32.129   8
  -5  -6  -1 689.916  37.564   2
   5   6   1 686.205  33.878   4
   5   6   1 696.368  32.298   1
   5   6   1 709.728  36.901   5
   5   6   1 676.445  36.784   6
  -6  -6  -1 236.245  11.626   2
  -6  -6  -1 216.255  12.042   8
  -6  -6  -1 219.072  17.918   1
   6   6   1 219.246  12.129   1
   6   6   1 218.869  10.463   6
   6   6   1 233.314  12.783   4
   6   6   1 205.956  11.795   5
  -7  -6  -1 51.4298  5.7882   2
  -7  -6  -1 45.9646  3.5443   8
   7   6   1 62.7183  4.3244   1
   7   6   1 61.3517  4.0348   5
   7   6   1 59.4622  6.7279   4
   7   6   1 55.2911  3.3932   6
  -8  -6  -1 194.733  11.789   2
  -8  -6  -1 207.618  10.559   8
   8   6   1 211.635  10.919   5
   8   6   1 205.737  10.740   1
   8   6   1 200.952   9.351   5
  -9  -6  -1 19.5011  5.3731   2
   9   6   1 19.8480  5.5741   4
 -10  -6  -1 30.3690  6.6600   2
 -11  -6  -1 28.9977  7.6765   3
  11   6   1 25.8468  7.1169   4
  -6   7   1 4.67343 6.07587   1
  -6   7   1 10.9662  7.1777   7
  -6   7   1 10.0101  5.9250   5
  -5   7   1 81.5629  8.6523   5
  -5   7   1 73.0727  9.2521   7
  -5   7   1 68.7578  8.0937   1
  -4   7   1 31.9301  6.2588   1
  -4   7   1 48.8405  6.2420   7
  -4   7   1 40.8429  6.6800   5
  -3   7   1 119.245   9.431   1
  -3   7   1 140.523  10.518   7
  -3   7   1 111.685   8.694   5
   2  -7  -1 440.947  21.416   2
  -2   7   1 421.612  22.855   1
  -2   7   1 421.655  27.077   7
  -2   7   1 432.474  25.990   5
  -1   7   1 719.371  35.004   7
  -1   7   1 698.379  36.590   1
  -1   7   1 738.334  36.614   5
   0   7   1 144.372   9.242   7
   0   7   1 129.917   9.071   1
   0   7   1 143.274   8.468   8
   0   7   1 119.021  10.022   5
   1   7   1 1370.17   70.79   1
   1   7   1 1364.48   63.23   5
   1   7   1 1370.81   64.93   7
   1   7   1 1373.84   72.47   8
   2   7   1 57.6211  5.9520   1
   2   7   1 47.9081  5.3864   5
   2   7   1 52.1516  4.1730   8
   2   7   1 64.2711  6.1444   7
  -3  -7  -1 429.783  29.108   1
  -3  -7  -1 461.367  31.254   5
   3   7   1 489.696  25.986   5
   3   7   1 449.654  21.655   8
   3   7   1 493.335  21.480   1
  -4  -7  -1 2222.37  140.99   1
   4   7   1 2209.16   97.40   8
   4   7   1 2328.32  133.82   4
   4   7   1 2257.16  111.14   6
   4   7   1 2331.96  131.79   1
   4   7   1 2319.18  107.55   5
  -5  -7  -1 10.8728  3.5754   1
  -5  -7  -1 16.3149  3.9403   2
   5   7   1 13.4296  2.7986   6
   5   7   1 17.4378  4.1399   1
   5   7   1 15.3431  5.0464   4
  -6  -7  -1 62.7896  6.2063   1
  -6  -7  -1 64.4422  5.8585   2
   6   7   1 68.9214  5.1229   1
   6   7   1 75.7022  7.4106   4
   6   7   1 73.2374  5.3199   5
   6   7   1 66.7598  4.8681   6
  -7  -7  -1 244.872  13.023   1
  -7  -7  -1 239.963  14.234   2
   7   7   1 270.860  13.344   6
   7   7   1 272.709  14.486   1
   7   7   1 284.049  15.193   4
   7   7   1 278.225  16.793   5
  -8  -7  -1 39.2204  6.0291   2
   8   7   1 40.2135  3.8925   1
   8   7   1 42.3666  3.6063   5
  -9  -7  -1 16.4595  5.6070   2
   9   7   1 21.7885  6.1046   4
 -10  -7  -1 64.7551  8.2261   2
  10   7   1 64.2484  8.2920   4
  -5   8   1 64.7417  8.3011   5
  -5   8   1 51.8480  8.0966   1
  -5   8   1 43.6912  9.1209   7
  -4   8   1 4.63676 5.85077   5
  -4   8   1 19.3135  6.4041   1
  -4   8   1 16.4926  6.5268   7
  -3   8   1 66.5630  7.8486   1
  -3   8   1 69.0994  8.0352   5
  -3   8   1 66.3226  8.5611   7
  -2   8   1 243.077  16.770   5
  -2   8   1 268.205  15.771   7
  -2   8   1 234.740  16.400   1
  -1   8   1 19.7075  5.4594   5
  -1   8   1 21.0979  5.7026   1
  -1   8   1 29.8542  6.3185   7
   0   8   1 309.519  16.022   1
   0   8   1 290.633  16.672   7
   0   8   1 261.359  16.511   5
   0   8   1 293.807  23.619   8
   1   8   1 334.068  17.020   8
   1   8   1 320.312  20.755   7
   1   8   1 342.166  18.418   5
   1   8   1 359.031  17.933   1
   2   8   1 151.702   9.564   8
   2   8   1 185.374  10.449   7
   2   8   1 156.833  10.446   1
   2   8   1 190.572  11.721   5
   3   8   1 1061.69   60.08   1
   3   8   1 1112.10   59.54   5
   3   8   1 1089.45   52.19   8
   4   8   1 565.730  25.341   8
   4   8   1 574.381  27.692   1
   4   8   1 585.208  32.638   5
  -5  -8  -1 65.8010  5.9872   2
   5   8   1 66.6799  5.9535   5
   5   8   1 69.4182  6.2741   6
   5   8   1 77.6161  7.4558   4
   5   8   1 75.3926  6.2380   1
  -6  -8  -1 257.628  13.056   2
   6   8   1 229.750  13.718   1
   6   8   1 253.427  14.516   5
   6   8   1 249.597  15.150   6
   6   8   1 261.184  15.628   4
  -7  -8  -1 106.629   8.819   2
   7   8   1 107.062   9.285   4
   7   8   1 124.594   7.310   5
   7   8   1 99.1144  7.5641   1
  -8  -8  -1 3.13035 4.45931   2
   8   8   1 18.5777  6.0089   4
   8   8   1 8.71148 3.02052   1
   8   8   1 5.65747 2.49270   5
  -9  -8  -1 100.972   8.314   2
   9   8   1 123.721  10.532   4
 -10  -8  -1 36.0415  7.3016   2
  10   8   1 19.8598  7.2391   4
  -4   9   1 14.7081  6.4841   5
  -4   9   1 14.3163  5.4040   1
  -4   9   1 14.7075  7.7595   7
  -3   9   1 87.6115  9.9774   7
  -3   9   1 79.1401  8.2400   1
  -2   9   1 65.3791  8.7228   7
  -2   9   1 52.8836  8.1481   1
  -2   9   1 49.5338  7.6502   5
  -1   9   1 89.0832  8.9363   1
  -1   9   1 98.0545  8.8268   5
  -1   9   1 66.3980  8.5334   7
   0   9   1 154.251  11.499   7
   0   9   1 138.053  11.384   1
   0   9   1 163.977  12.260   5
   1   9   1 152.583  10.902   5
   1   9   1 180.947  12.083   8
   1   9   1 141.270  10.495   7
   1   9   1 163.553  11.279   1
   2   9   1 38.6627  6.4833   7
   2   9   1 33.8751  6.0252   1
   2   9   1 45.3600  4.5131   8
   2   9   1 37.2475  6.0490   5
   3   9   1 479.956  29.092   5
   3   9   1 438.985  23.101   8
   3   9   1 464.124  24.893   1
   4   9   1 59.3289  6.6721   5
   4   9   1 75.2665  3.6581   8
   4   9   1 58.8379  6.7145   1
  -5  -9  -1 89.7765  6.3334   2
   5   9   1 66.6276  6.7664   5
   5   9   1 97.8627  7.9640   1
   5   9   1 80.7955  8.5841   4
  -6  -9  -1 221.628  11.071   2
   6   9   1 180.106  12.915   5
   6   9   1 185.971  11.902   1
   6   9   1 183.771  13.122   4
  -7  -9  -1 26.3128  4.9509   2
   7   9   1 38.4327  6.0005   4
   7   9   1 34.6929  5.1621   1
   7   9   1 39.9764  4.7752   5
  -8  -9  -1 4.85351 4.59881   2
   8   9   1 20.0902  4.1609   1
   8   9   1 16.2430  6.3792   4
   8   9   1 13.4721  3.5157   5
  -9  -9  -1 35.1832  6.2914   2
  -3  10   1 37.2813  8.4535   1
  -2  10   1 1.08123 4.45916   5
  -2  10   1 4.39077 6.55930   7
  -2  10   1 2.33737 6.20100   1
  -1  10   1 69.9819  9.0969   5
  -1  10   1 95.3181  9.8510   1
  -1  10   1 68.8399  8.8125   7
   0  10   1 99.1601 10.1129   7
   0  10   1 102.638  10.083   1
   0  10   1 92.1244  9.4062   5
   1  10   1 31.0313  6.9152   5
   1  10   1 40.1000  5.9054   7
   1  10   1 53.8005  7.4286   1
   2  10   1 69.1811  7.8773   5
   2  10   1 55.7306  7.7956   1
   3  10   1 152.254  11.408   1
   3  10   1 178.419  11.575   5
  -4 -10  -1 12.2222  3.5210   2
   4  10   1 9.30732 4.81124   5
   4  10   1 13.7074  5.1973   1
  -5 -10  -1 70.4806  6.2995   2
   5  10   1 76.0658  8.1132   5
   5  10   1 83.7780  9.1423   4
   5  10   1 77.2937  7.4418   1
  -6 -10  -1 52.6137  5.5804   2
   6  10   1 47.5567  6.0581   5
   6  10   1 58.6880  8.1221   4
   6  10   1 49.0819  6.1292   1
  -7 -10  -1 5.55220 4.13405   2
   7  10   1 2.28215 4.75712   1
   7  10   1 3.95013 6.11046   4
  -8 -10  -1 25.8599  6.2988   2
   8  10   1 34.6071  7.6360   4
  -1  11   1 17.2629  7.6508   1
   0  11   1 7.33117 6.47920   5
   0  11   1 -0.4290  6.3820   1
   0  11   1 11.0862  5.3583   7
   1  11   1 12.4137  6.5825   7
   1  11   1 12.7565  4.8346   5
   1  11   1 6.10108 6.51593   1
   2  11   1 74.5019  8.9638   1
   2  11   1 68.7097  8.6348   5
   3  11   1 8.43321 5.78252   5
   3  11   1 -5.7711  5.4412   1
   4  11   1 5.91742 5.65168   1
   4  11   1 24.1209  6.0054   5
   5  11   1 61.9080  8.9161   4
   5  11   1 64.7030  9.5767   5
   5  11   1 55.2731  7.4017   1
   6  11   1 29.4746  6.0043   1
   6  11   1 20.6945  7.5445   4
   6  11   1 24.5870  5.7839   5
  -7 -11  -1 12.7359  4.1960   2
   7  11   1 5.22316 5.47631   5
   7  11   1 5.43467 6.71012   4
   7  11   1 15.6145  5.2020   1
   2  12   1 43.5427  7.2279   1
   3  12   1 20.2828  7.9219   1
   3  12   1 10.5483  7.0774   5
   4  12   1 36.5166  7.7824   5
   4  12   1 35.8299  8.0624   1
   5  12   1 36.8902  7.6958   1
   5  12   1 35.5062  7.7742   5
   6  11  -2 16.6578  7.1240   1
   6  11  -2 -2.0190  5.1087   5
   5  11  -2 13.4065  5.7933   5
   5  11  -2 10.4769  5.6527   1
   4  11  -2 19.7003  4.9462   1
   4  11  -2 18.3570  5.0512   5
   3  11  -2 42.6684  7.4586   1
   3  11  -2 42.0580  7.6477   5
   2  11  -2 18.5470  6.6917   1
   1  11  -2 82.0354  9.4092   5
   1  11  -2 52.7638  8.8538   1
   0  11  -2 33.0235  8.3068   7
   0  11  -2 32.0175  7.7327   5
   0  11  -2 22.4563  7.5524   1
   7  10  -2 54.3499  6.9726   5
   7  10  -2 48.6688  8.2595   4
   7  10  -2 53.6837  7.8047   1
   6  10  -2 35.8966  6.7334   1
   6  10  -2 29.0951  7.4377   4
   6  10  -2 19.9805  6.1992   5
   5  10  -2 21.3723  5.4198   1
   5  10  -2 5.61413 4.84524   5
   4  10  -2 140.398  10.115   5
   4  10  -2 116.006   9.884   1
   3  10  -2 27.6362  6.1148   5
   3  10  -2 27.6608  5.1402   1
   2  10  -2 103.433  10.782   5
   2  10  -2 93.1116  9.2150   1
   1  10  -2 183.391  16.652   1
   1  10  -2 191.261  13.298   5
   1  10  -2 208.631  12.719   8
   0  10  -2 0.77961 6.02581   7
   0  10  -2 11.4087  6.0301   5
   0  10  -2 13.6114  4.8620   1
  -1  10  -2 11.8866  6.5319   1
  -1  10  -2 8.85234 6.64276   7
  -1  10  -2 3.09571 6.23689   5
  -2  10  -2 81.8997 10.1781   7
  -2  10  -2 68.4957  9.4648   1
  -2  10  -2 72.1341  9.5783   5
   8   9  -2 17.4928  6.4726   4
   8   9  -2 7.76940 3.46095   5
   8   9  -2 4.60084 3.40261   1
  -8  -9   2 15.9957  4.9888   2
   7   9  -2 62.2645  6.1417   5
   7   9  -2 50.5027  5.9229   1
   7   9  -2 50.5925  7.7112   4
  -7  -9   2 57.6378  6.1624   2
   6   9  -2 0.15251 3.95775   1
   6   9  -2 5.66714 5.57429   4
   6   9  -2 4.44415 3.98207   5
  -6  -9   2 2.90348 3.42080   2
   5   9  -2 173.978  13.387   1
   5   9  -2 149.952  11.345   5
  -5  -9   2 158.049   9.417   2
   4   9  -2 198.934  12.516   1
   4   9  -2 214.838  12.490   5
  -4  -9   2 204.034  10.316   2
   3   9  -2 60.7189  6.7867   5
  -3  -9   2 55.2842  3.7459   2
   2   9  -2 85.3204  4.8724   8
   2   9  -2 89.1176  8.1180   5
   2   9  -2 73.1055  7.7385   1
   1   9  -2 38.6361  5.3438   5
   0   9  -2 1.52751 5.12333   5
   0   9  -2 7.28605 5.47886   7
   0   9  -2 1.84189 4.96966   1
  -1   9  -2 207.641  13.097   5
  -1   9  -2 174.752  12.887   1
  -1   9  -2 174.104  14.296   7
  -2   9  -2 156.614  12.703   5
  -2   9  -2 130.037  11.633   7
  -2   9  -2 149.816  11.821   1
  -3   9  -2 26.4451  7.3871   7
  -3   9  -2 15.4422  6.4958   5
  -3   9  -2 22.4666  6.6577   1
  -4   9  -2 62.7442  9.0935   1
  -4   9  -2 68.0202  9.2138   5
  -4   9  -2 57.6732  9.7590   7
   9   8  -2 18.1995  7.3059   4
  -9  -8   2 25.1644  6.1207   2
   8   8  -2 55.1477  5.4850   5
   8   8  -2 62.8275  7.9098   4
   8   8  -2 58.6248  5.7911   1
  -8  -8   2 59.8881  7.0118   2
   7   8  -2 25.1309  4.9790   1
   7   8  -2 35.4621  4.5040   5
   7   8  -2 33.2033  6.6200   4
  -7  -8   2 20.2571  5.5447   2
   6   8  -2 125.866   9.999   4
   6   8  -2 115.777   8.132   5
   6   8  -2 107.843   8.644   1
  -6  -8   2 131.543   8.427   2
   5   8  -2 304.773  16.678   5
   5   8  -2 316.893  19.737   1
  -5  -8   2 295.415  14.480   2
   4   8  -2 168.859  10.634   1
  -4  -8   2 155.998   9.869   2
   3   8  -2 349.955  23.101   5
   3   8  -2 351.009  19.462   1
  -3  -8   2 366.790  18.933   2
   2   8  -2 388.614  21.233   5
   2   8  -2 423.467  24.870   1
   2   8  -2 421.606  23.487   8
   2   8  -2 438.316  20.064   8
  -2  -8   2 427.292  18.376   2
   1   8  -2 19.8527  5.1096   1
   1   8  -2 18.0752  4.9131   5
   1   8  -2 19.3770  3.0992   8
   0   8  -2 154.054  10.287   7
   0   8  -2 171.491  10.775   5
   0   8  -2 141.945   9.769   1
  -1   8  -2 369.678  18.987   1
  -1   8  -2 369.481  22.238   7
  -1   8  -2 353.267  23.453   5
  -2   8  -2 30.4196  6.3908   5
  -2   8  -2 36.4495  6.4618   1
  -2   8  -2 33.8845  5.6190   7
  -3   8  -2 99.9558  9.3986   1
  -3   8  -2 98.3631  9.7253   5
  -3   8  -2 114.723  10.565   7
  -4   8  -2 68.0603  8.4516   5
  -4   8  -2 68.8090  7.9684   7
  -4   8  -2 68.7250  8.4702   1
  -5   8  -2 -0.4026  5.4836   5
  -5   8  -2 10.5299  7.3111   7
  -5   8  -2 5.99033 5.95328   1
   9   7  -2 44.6625  7.0469   4
  -9  -7   2 44.0342  6.9491   2
   8   7  -2 78.0758  8.0890   4
   8   7  -2 71.4020  6.8407   5
   8   7  -2 72.2517  6.1052   1
   7   7  -2 39.2011  6.2935   4
   7   7  -2 30.8368  4.1525   1
   7   7  -2 24.4097  3.7502   5
  -7  -7   2 26.7002  5.0667   2
   6   7  -2 465.764  22.659   1
   6   7  -2 402.636  22.293   6
   6   7  -2 460.204  26.133   4
   6   7  -2 452.051  22.391   5
  -6  -7   2 448.438  21.207   2
   5   7  -2 619.453  35.457   1
   5   7  -2 590.442  37.775   6
   5   7  -2 645.018  36.491   4
   5   7  -2 639.858  32.514   5
  -5  -7   2 661.617  31.193   2
   4   7  -2 20.2545  4.2503   1
   4   7  -2 21.7096  4.2251   5
  -4  -7   2 19.6179  3.4211   2
   3   7  -2 332.361  18.338   5
   3   7  -2 339.993  17.681   1
  -3  -7   2 333.200  16.428   2
   2   7  -2 335.143  18.085   5
   2   7  -2 343.933  16.583   8
   2   7  -2 355.848  16.968   1
   2   7  -2 362.746  17.936   8
  -2  -7   2 304.911  16.686   2
   1   7  -2 193.730  11.615   5
   1   7  -2 218.602  12.131   7
   1   7  -2 213.190  12.528   1
   0   7  -2 1081.31   49.62   7
   0   7  -2 1108.92   53.00   1
   0   7  -2 1110.99   52.10   5
  -1   7  -2 482.072  26.162   7
  -1   7  -2 498.352  31.658   5
  -1   7  -2 492.254  24.924   1
  -2   7  -2 24.6280  5.3503   5
  -2   7  -2 16.4992  5.4904   7
  -2   7  -2 10.9208  4.9710   1
  -3   7  -2 288.090  22.801   7
  -3   7  -2 299.598  16.289   5
  -3   7  -2 308.398  18.312   1
  -4   7  -2 89.4843  8.4173   1
  -4   7  -2 84.0226  8.3367   5
  -4   7  -2 80.7900  8.9761   7
  -5   7  -2 17.6458  6.9247   7
  -5   7  -2 27.0313  6.3481   1
  -5   7  -2 33.5152  6.3894   5
  -6   7  -2 105.494  11.329   7
  -6   7  -2 100.103   9.833   5
  -6   7  -2 115.199  11.402   1
  10   6  -2 11.5620  5.1282   4
 -10  -6   2 5.94464 5.86310   2
   9   6  -2 62.8593  8.9375   4
  -9  -6   2 68.4657  7.7102   2
   8   6  -2 102.100   6.485   5
   8   6  -2 94.8951  8.4409   4
   8   6  -2 102.416   6.877   1
  -8  -6   2 99.8269  8.4859   2
   7   6  -2 115.475   9.474   5
   7   6  -2 106.856   8.246   4
   7   6  -2 111.425   9.143   5
   7   6  -2 97.0906  7.4061   1
  -7  -6   2 82.1476  6.6782   1
  -7  -6   2 103.878   7.916   2
   6   6  -2 152.228  10.631   6
   6   6  -2 173.904  10.760   5
   6   6  -2 163.733  10.111   4
   6   6  -2 174.583   9.134   1
  -6  -6   2 133.072   9.802   1
  -6  -6   2 136.019   8.900   2
   5   6  -2 24.6164  3.7550   5
   5   6  -2 31.1202  4.2290   1
   5   6  -2 19.2911  4.7159   4
  -5  -6   2 31.9521  4.0983   2
  -5  -6   2 31.2448  3.9788   1
   4   6  -2 519.734  24.656   1
   4   6  -2 525.716  28.105   5
   4   6  -2 507.060  26.810   6
  -4  -6   2 474.137  27.111   1
  -4  -6   2 533.307  26.905   2
   3   6  -2 1759.73   83.40   5
   3   6  -2 1773.54   78.73   1
   3   6  -2 1789.10   84.55   6
  -3  -6   2 1804.51   88.47   2
  -3  -6   2 1701.63   81.25   1
   2   6  -2 125.303   7.381   1
   2   6  -2 126.207   7.775   5
   2   6  -2 119.034   6.210   8
   2   6  -2 111.291   6.013   8
   2   6  -2 110.100   7.844   6
  -2  -6   2 112.834   8.156   1
   1   6  -2 193.797  12.488   7
   1   6  -2 188.195  10.385   1
   1   6  -2 165.593  10.226   6
   1   6  -2 189.166  10.099   5
  -1  -6   2 180.639  10.546   7
   0   6  -2 1572.71   80.47   5
   0   6  -2 1651.26   85.23   7
   0   6  -2 1573.12   76.25   1
  -1   6  -2 120.597   8.480   5
  -1   6  -2 137.747   8.674   1
  -1   6  -2 135.661   9.138   7
  -2   6  -2 73.9322  6.8064   1
  -2   6  -2 82.1137  7.3180   7
  -2   6  -2 78.4530  6.9255   5
  -3   6  -2 508.114  28.211   1
  -3   6  -2 521.612  31.648   5
  -3   6  -2 530.245  26.749   7
  -4   6  -2 15.5839  5.1477   5
  -4   6  -2 7.81347 5.59392   7
  -4   6  -2 10.8396  4.6737   1
  -5   6  -2 90.0774  8.2548   7
  -5   6  -2 95.9751  8.5188   1
  -5   6  -2 109.609   9.182   5
  -6   6  -2 110.154  10.627   7
  -6   6  -2 128.658   9.802   5
  -6   6  -2 103.180   9.171   1
  -7   6  -2 30.6058  6.3898   5
  -7   6  -2 16.8278  5.7496   1
  -7   6  -2 19.8432  7.5386   7
  10   5  -2 14.3703  4.8321   4
 -10  -5   2 8.78893 7.08451   7
 -10  -5   2 27.1288  6.8968   2
   9   5  -2 150.595  10.114   4
  -9  -5   2 126.149  10.319   2
   8   5  -2 9.26712 4.36809   4
   8   5  -2 0.31638 2.24796   1
   8   5  -2 -0.2524  2.0175   5
  -8  -5   2 -1.0712  2.0280   8
  -8  -5   2 -1.5302  4.4948   2
   7   5  -2 369.914  21.279   4
   7   5  -2 359.395  23.838   5
   7   5  -2 391.748  20.248   1
  -7  -5   2 384.329  20.473   8
  -7  -5   2 356.216  21.081   1
  -7  -5   2 426.101  18.290   2
  -7  -5   2 374.189  20.014   8
   6   5  -2 753.358  46.133   1
   6   5  -2 743.116  36.634   4
  -6  -5   2 706.668  44.545   1
  -6  -5   2 722.460  34.043   2
  -6  -5   2 777.377  34.561   8
  -6  -5   2 755.022  33.403   8
   5   5  -2 50.8742  4.3798   5
   5   5  -2 40.4457  4.0410   1
   5   5  -2 45.8098  4.0379   6
  -5  -5   2 37.7559  4.4840   2
  -5  -5   2 55.9264  4.3177   1
   4   5  -2 1546.63   76.16   5
   4   5  -2 1493.73   74.53   1
   4   5  -2 1429.78   77.18   6
  -4  -5   2 1493.34   83.74   1
  -4  -5   2 1495.18   65.06   2
   3   5  -2 993.769  54.645   6
   3   5  -2 974.975  45.914   1
   3   5  -2 1006.13   48.18   5
  -3  -5   2 960.246  40.674   2
  -3  -5   2 936.020  43.786   1
  -3  -5   2 923.513  45.250   7
   2   5  -2 103.096   6.896   6
   2   5  -2 117.088   7.155   5
   2   5  -2 119.487   7.218   1
   2   5  -2 113.465   5.993   8
  -2  -5   2 122.193   7.484   7
  -2  -5   2 115.703   7.243   1
  -2  -5   2 129.401   6.044   2
   1   5  -2 1894.96   96.97   6
   1   5  -2 1952.17  101.11   1
   1   5  -2 1921.18   89.53   5
   1   5  -2 1983.22   92.28   8
  -1  -5   2 1992.27  120.98   7
  -1  -5   2 1971.81   87.09   2
  -1  -5   2 1902.82   99.80   1
   0   5  -2 950.362  52.391   1
   0   5  -2 988.335  56.635   6
   0   5  -2 988.072  46.681   5
   0   5  -2 999.595  48.586   7
   0  -5   2 1027.98   49.50   7
   0  -5   2 955.439  48.923   1
  -1   5  -2 45.5757  4.8506   5
  -1   5  -2 40.4535  4.7771   1
  -1   5  -2 31.8597  4.4201   6
  -1   5  -2 37.3707  4.8588   7
   1  -5   2 36.8690  4.3364   1
   1  -5   2 28.5612  4.4151   7
  -2   5  -2 2025.74   97.81   1
  -2   5  -2 2054.70   96.54   5
  -2   5  -2 2111.80  108.95   7
  -2   5  -2 1918.76  118.62   6
   2  -5   2 2025.59  106.89   1
   2  -5   2 1942.59  156.90   7
  -3   5  -2 609.877  28.333   7
  -3   5  -2 621.195  36.136   5
  -3   5  -2 600.094  29.323   1
  -4   5  -2 13.7501  4.1815   5
  -4   5  -2 15.1212  4.0117   7
  -4   5  -2 8.74328 3.94639   1
  -5   5  -2 317.751  16.090   1
  -5   5  -2 290.425  17.637   7
  -5   5  -2 300.306  19.959   5
  -6   5  -2 103.831   8.560   1
  -6   5  -2 92.4168  8.7074   5
  -6   5  -2 105.779   9.857   7
  -7   5  -2 32.3822  5.5830   1
  -7   5  -2 28.3784 10.3074   5
  -7   5  -2 21.1489  7.3182   7
  -8   5  -2 64.3721  9.7238   7
 -10  -4   2 52.0786  7.3031   2
 -10  -4   2 71.4274  9.3026   7
 -10  -4   2 74.4072  8.9978   3
   9   4  -2 56.0633  6.7198   4
  -9  -4   2 60.1628  6.5560   2
   8   4  -2 13.8541  4.1495   4
   8   4  -2 14.8687  2.9001   1
  -8  -4   2 9.02922 4.78381   2
   7   4  -2 110.721   6.582   5
   7   4  -2 114.996   7.845   4
   7   4  -2 103.130   6.441   1
  -7  -4   2 114.343   6.564   1
  -7  -4   2 111.280   6.935   8
  -7  -4   2 111.759   8.140   2
  -7  -4   2 125.680   6.255   6
   6   4  -2 124.213   7.933   4
   6   4  -2 129.661   7.543   1
   6   4  -2 125.050   7.046   5
  -6  -4   2 124.012   7.431   6
  -6  -4   2 132.349   7.743   2
  -6  -4   2 119.241   7.125   1
  -6  -4   2 116.198   7.613   8
   5   4  -2 594.356  34.024   1
   5   4  -2 614.875  32.990   4
  -5  -4   2 611.187  32.722   8
  -5  -4   2 627.809  33.391   2
  -5  -4   2 639.330  32.966   6
  -5  -4   2 618.006  33.027   1
   4   4  -2 2317.58  121.18   1
   4   4  -2 2281.24  121.22   6
   4   4  -2 2303.36  139.58   4
  -4  -4   2 2468.54  111.43   6
  -4  -4   2 2284.59  142.54   1
  -4  -4   2 2327.94  122.31   2
  -4  -4   2 2370.47  102.50   8
   3   4  -2 669.616  31.213   6
   3   4  -2 671.587  35.800   1
  -3  -4   2 670.923  32.239   2
  -3  -4   2 680.858  33.002   6
  -3  -4   2 651.271  31.545   1
   2   4  -2 144.439   8.176   6
   2   4  -2 140.397   7.554   1
   2   4  -2 126.222   8.860   5
   2   4  -2 138.457   6.083   8
   1   4  -2 5055.47  229.54   8
   1   4  -2 4736.43  229.16   6
   1   4  -2 4951.85  235.97   1
   1   4  -2 4934.86  218.91   5
  -1  -4   2 4544.42  233.66   1
  -1  -4   2 4747.15  243.62   7
  -1  -4   2 4941.50  224.36   2
   0   4  -2 506.215  26.514   1
   0   4  -2 498.479  32.737   6
   0   4  -2 511.137  25.938   5
   0   4  -2 473.650  27.034   7
   0  -4   2 484.759  25.840   1
   0  -4   2 498.183  24.099   7
  -1   4  -2 2493.57  114.45   6
  -1   4  -2 2431.47  119.00   1
  -1   4  -2 2473.10  118.89   7
  -1   4  -2 2579.10  115.76   5
   1  -4   2 2554.53  118.63   7
   1  -4   2 2384.46  114.64   1
  -2   4  -2 1801.34   87.05   5
  -2   4  -2 1730.44   93.32   6
  -2   4  -2 1778.57   92.69   7
  -2   4  -2 1719.53   82.20   1
   2  -4   2 1788.67   85.24   7
   2  -4   2 1757.87   81.37   1
  -3   4  -2 346.340  16.567   1
  -3   4  -2 363.911  18.175   7
  -3   4  -2 351.999  17.600   5
  -3   4  -2 361.672  23.971   6
   3  -4   2 329.651  19.081   1
   3  -4   2 286.240  16.425   7
   3  -4   2 310.220  20.875   5
  -4   4  -2 166.113  14.354   6
  -4   4  -2 176.232   9.936   1
  -4   4  -2 180.393  10.843   7
  -4   4  -2 201.011  11.728   5
   4  -4   2 177.925  12.788   5
   4  -4   2 189.858  10.870   1
  -5   4  -2 1577.95   81.80   1
  -5   4  -2 1657.96   72.42   7
  -5   4  -2 1619.75   73.99   5
  -6   4  -2 20.1228  4.3070   5
  -6   4  -2 16.1341  4.2018   1
  -7   4  -2 69.9013  6.7624   5
  -7   4  -2 75.8566  6.6944   1
  -8   4  -2 41.7408  5.6762   5
  -8   4  -2 28.2130  7.8521   7
 -10  -3   2 25.9370  6.4310   3
 -10  -3   2 29.1050  7.7808   7
  -9  -3   2 6.00291 5.91996   7
  -9  -3   2 4.81944 5.56542   2
   8   3  -2 193.596  11.828   4
   8   3  -2 173.706   9.884   1
   8   3  -2 188.323  13.001   5
  -8  -3   2 166.706  11.470   7
  -8  -3   2 161.263  10.879   2
  -8  -3   2 156.616  14.045   8
   7   3  -2 272.050  14.381   5
   7   3  -2 287.437  16.303   1
   7   3  -2 267.581  15.184   1
   7   3  -2 301.322  15.754   4
  -7  -3   2 280.388  16.008   6
  -7  -3   2 260.933  13.880   8
  -7  -3   2 245.655  14.436   2
   6   3  -2 19.8108  2.8800   1
   6   3  -2 19.5256  2.7974   1
   6   3  -2 22.6847  2.8397   5
  -6  -3   2 20.1397  3.3252   8
  -6  -3   2 29.0404  3.1499   1
  -6  -3   2 24.5613  3.6821   2
   5   3  -2 1507.12   78.21   1
   5   3  -2 1500.61   71.29   2
   5   3  -2 1443.13   75.05   4
   5   3  -2 1417.79   83.62   5
  -5  -3   2 1474.09   66.70   2
  -5  -3   2 1483.05   67.82   8
  -5  -3   2 1491.50   75.75   6
  -5  -3   2 1493.65   75.37   1
   4   3  -2 775.602  38.420   4
   4   3  -2 761.878  39.005   1
   4   3  -2 739.961  38.606   2
  -4  -3   2 896.637  43.233   8
  -4  -3   2 887.313  41.607   6
  -4  -3   2 866.728  35.708   2
  -4  -3   2 890.963  39.840   1
   3   3  -2 826.905  50.140   2
   3   3  -2 826.638  40.894   1
   3   3  -2 827.364  42.555   6
  -3  -3   2 831.357  45.205   6
  -3  -3   2 814.058  47.980   2
  -3  -3   2 865.032  36.704   8
  -3  -3   2 791.714  41.968   1
   2   3  -2 4865.87  237.96   1
   2   3  -2 4992.93  243.32   6
  -2  -3   2 4682.75  207.58   2
  -2  -3   2 4704.52  248.07   1
  -2  -3   2 4799.69  232.11   6
   1   3  -2 2971.52  122.95   2
   1   3  -2 2950.29  121.09   8
   1   3  -2 2976.42  143.00   1
   1   3  -2 2844.23  144.28   6
  -1  -3   2 2759.76  121.92   2
  -1  -3   2 2569.51  152.94   1
  -1  -3   2 2634.63  141.32   6
  -1  -3   2 2662.48  127.93   7
   0   3  -2 534.184  27.972   1
   0   3  -2 523.746  25.147   6
   0   3  -2 500.900  25.157   5
   0   3  -2 525.527  24.703   7
   0  -3   2 490.178  25.739   7
   0  -3   2 485.636  27.193   1
  -1   3  -2 6464.78  321.51   5
  -1   3  -2 6381.41  344.94   7
  -1   3  -2 6591.06  312.89   6
  -1   3  -2 6525.57  307.54   1
   1  -3   2 6409.10  324.25   1
   1  -3   2 6630.43  340.95   7
  -2   3  -2 2260.85  125.35   7
  -2   3  -2 2338.50  117.10   1
  -2   3  -2 2431.56  132.89   6
  -2   3  -2 2330.53  125.33   5
   2  -3   2 2522.91  117.59   1
   2  -3   2 2455.47  127.12   7
  -3   3  -2 1158.52   73.27   6
  -3   3  -2 1146.76   60.85   1
  -3   3  -2 1161.42   55.25   5
  -3   3  -2 1172.49   55.41   7
  -3   3  -2 1153.71   52.54   2
   3  -3   2 1104.41   53.97   5
   3  -3   2 1021.93   60.36   7
   3  -3   2 1108.32   56.49   1
  -4   3  -2 1137.70   53.20   7
  -4   3  -2 1041.89   54.81   6
  -4   3  -2 1091.99   57.56   1
  -4   3  -2 1091.05   57.07   5
  -4   3  -2 1154.26   54.92   2
   4  -3   2 1105.97   56.14   5
   4  -3   2 1066.80   57.72   3
   4  -3   2 1116.39   54.24   1
   4  -3   2 1147.82   50.47   7
  -5   3  -2 276.048  12.558   5
  -5   3  -2 252.983  12.065   2
  -5   3  -2 237.270  13.576   6
  -5   3  -2 266.116  14.852   7
  -5   3  -2 269.209  16.049   1
   5  -3   2 213.429  11.736   1
   5  -3   2 222.664  14.603   5
  -6   3  -2 551.748  29.385   6
  -6   3  -2 574.752  31.388   5
  -6   3  -2 563.663  31.549   7
  -6   3  -2 542.482  26.575   1
   6  -3   2 587.114  31.631   5
   6  -3   2 559.781  30.343   1
  -7   3  -2 266.236  14.152   5
  -7   3  -2 250.244  14.965   7
  -7   3  -2 238.777  14.653   1
   7  -3   2 282.258  22.668   1
  -8   3  -2 80.1936  6.6344   5
  -8   3  -2 86.1349  9.0856   7
  -9   3  -2 3.26447 7.11508   7
 -10  -2   2 15.5601  5.9388   3
 -10  -2   2 10.8400  5.2241   7
  -9  -2   2 63.3940  7.3520   3
   8   2  -2 303.150  16.135   5
   8   2  -2 309.302  17.436   1
  -8  -2   2 277.628  14.725   6
  -8  -2   2 281.359  16.398   2
  -8  -2   2 300.701  18.307   7
  -8  -2   2 307.706  17.628   3
   7   2  -2 196.633  10.813   1
   7   2  -2 207.546  12.408   5
   7   2  -2 217.432  11.045   1
  -7  -2   2 179.942  10.771   2
  -7  -2   2 201.019  11.360   3
  -7  -2   2 190.277  11.082   8
  -7  -2   2 195.759  11.107   4
  -7  -2   2 207.305  10.092   6
  -7  -2   2 198.901  12.279   7
   6   2  -2 548.206  31.480   5
   6   2  -2 557.522  27.170   1
   6   2  -2 582.426  28.978   1
   6   2  -2 582.094  26.388   4
  -6  -2   2 555.084  26.304   2
  -6  -2   2 595.662  27.493   7
  -6  -2   2 560.910  28.121   6
  -6  -2   2 542.981  26.910   8
   5   2  -2 1040.06   53.24   5
   5   2  -2 1057.62   54.96   1
   5   2  -2 1035.92   55.58   1
   5   2  -2 1043.46   61.96   2
   5   2  -2 1077.45   54.76   4
  -5  -2   2 1128.48   56.37   2
  -5  -2   2 1174.34   54.88   6
  -5  -2   2 1118.67   64.13   8
   4   2  -2 652.525  31.044   5
   4   2  -2 668.934  35.958   1
   4   2  -2 635.642  34.357   2
   4   2  -2 662.346  34.034   4
  -4  -2   2 678.433  34.047   8
  -4  -2   2 724.627  36.475   6
  -4  -2   2 692.359  31.029   1
  -4  -2   2 675.775  32.253   2
   3   2  -2 1801.04   87.75   4
   3   2  -2 1816.13  103.10   5
   3   2  -2 1812.90   94.88   1
   3   2  -2 1849.11   85.69   2
  -3  -2   2 1989.84   91.25   6
  -3  -2   2 1922.16   87.63   1
  -3  -2   2 1874.80   90.14   2
  -3  -2   2 1892.74   97.97   8
   2   2  -2 5035.52  241.59   6
   2   2  -2 5050.58  235.99   8
   2   2  -2 5075.05  244.07   1
   2   2  -2 4935.02  231.99   2
  -2  -2   2 4794.85  269.18   6
  -2  -2   2 4937.04  233.63   2
  -2  -2   2 4588.29  237.33   1
  -2  -2   2 4613.57  216.31   8
   1   2  -2 245.011  10.205   2
   1   2  -2 257.843  13.702   8
   1   2  -2 257.013  16.384   6
   1   2  -2 242.151  14.047   1
  -1  -2   2 211.531  12.076   6
  -1  -2   2 226.241  13.880   8
  -1  -2   2 225.650  14.843   1
   0   2  -2 2426.34  120.77   6
   0   2  -2 2468.66  117.63   1
   0   2  -2 2592.35  105.13   2
   0   2  -2 2553.00  146.06   8
   0   2  -2 2440.61  121.03   7
   0  -2   2 2354.42  120.84   6
   0  -2   2 2295.85  110.43   7
   0  -2   2 2352.94  133.07   1
  -1   2  -2 2242.25  112.77   6
  -1   2  -2 2316.34   99.02   5
  -1   2  -2 2246.18  112.42   7
  -1   2  -2 2269.78   97.80   1
   1  -2   2 2112.97  114.71   1
   1  -2   2 2081.41  117.58   6
   1  -2   2 2087.32   99.98   7
  -2   2  -2 213.939  12.307   1
  -2   2  -2 212.829  12.259   7
  -2   2  -2 198.882  10.143   2
  -2   2  -2 215.155  12.027   5
  -2   2  -2 210.104  13.588   6
   2  -2   2 259.895  12.727   7
   2  -2   2 250.707  13.198   1
  -3   2  -2 286.447  14.581   6
  -3   2  -2 269.815  13.939   5
  -3   2  -2 275.297  15.940   2
  -3   2  -2 276.138  15.509   7
  -3   2  -2 278.361  14.405   1
   3  -2   2 280.433  24.803   3
   3  -2   2 275.667  13.197   1
   3  -2   2 240.528  15.089   5
   3  -2   2 286.429  15.535   7
  -4   2  -2 9268.29  447.74   1
  -4   2  -2 9154.29  463.95   6
  -4   2  -2 9324.13  443.07   5
  -4   2  -2 9081.37  383.90   2
  -4   2  -2 9107.88  474.47   7
   4  -2   2 8988.21  420.35   3
   4  -2   2 9181.10  442.10   5
   4  -2   2 9128.33  439.55   1
   4  -2   2 8973.71  457.71   7
  -5   2  -2 18.6197  2.9437   1
  -5   2  -2 26.1774  3.5788   2
  -5   2  -2 18.7600  4.2455   7
  -5   2  -2 17.7196  3.0494   5
  -5   2  -2 22.8114  3.6387   6
   5  -2   2 26.7565  3.0469   5
  -6   2  -2 377.767  18.075   7
  -6   2  -2 391.378  18.954   2
  -6   2  -2 373.715  22.745   1
  -6   2  -2 351.483  20.208   6
  -6   2  -2 347.377  19.158   5
   6  -2   2 351.822  19.761   5
   6  -2   2 396.803  18.983   1
  -7   2  -2 307.639  16.909   1
  -7   2  -2 265.712  15.788   6
  -7   2  -2 295.527  18.244   7
  -7   2  -2 283.773  15.571   2
  -7   2  -2 253.259  14.184   5
   7  -2   2 282.650  14.874   1
  -8   2  -2 12.9917  3.6159   5
  -8   2  -2 8.67918 4.10733   2
  -8   2  -2 20.7635  6.1373   7
  -8   2  -2 8.93157 3.06064   1
  -9   2  -2 25.6075  5.6752   7
 -10  -1   2 4.41525 6.92796   3
 -10  -1   2 6.41415 5.17610   7
  -9  -1   2 56.7432  7.7691   3
  -9  -1   2 43.5917  6.4479   7
   8   1  -2 337.012  19.108   1
  -8  -1   2 367.610  17.398   6
  -8  -1   2 343.761  18.611   7
  -8  -1   2 345.945  18.899   3
   7   1  -2 33.8666  3.3479   1
   7   1  -2 28.3528  3.3857   1
   7   1  -2 29.7354  3.4754   5
  -7  -1   2 29.7146  5.6805   7
  -7  -1   2 25.2495  4.6511   3
  -7  -1   2 31.5217  4.6934   4
  -7  -1   2 24.0573  3.0010   6
   6   1  -2 370.387  17.291   1
   6   1  -2 361.477  21.790   1
   6   1  -2 348.220  20.384   5
  -6  -1   2 354.565  20.019   2
  -6  -1   2 351.487  18.891   3
  -6  -1   2 360.800  20.448   4
  -6  -1   2 405.308  20.808   7
   5   1  -2 1109.67   60.31   5
   5   1  -2 1128.15   54.24   4
   5   1  -2 1093.94   71.58   1
   5   1  -2 1121.99   54.97   1
   5   1  -2 1121.80   55.10   2
  -5  -1   2 1094.75   55.38   8
  -5  -1   2 1100.63   53.18   4
  -5  -1   2 1147.76   53.10   2
  -5  -1   2 1121.05   53.29   7
   4   1  -2 677.338  35.260   1
   4   1  -2 653.469  39.534   5
   4   1  -2 684.350  31.819   2
   4   1  -2 672.715  36.136   1
   4   1  -2 674.821  32.768   4
  -4  -1   2 670.264  35.421   8
  -4  -1   2 690.272  30.587   2
  -4  -1   2 660.318  37.060   4
   3   1  -2 5812.61  309.88   5
   3   1  -2 6026.42  290.80   4
   3   1  -2 6183.70  250.08   2
  -3  -1   2 5845.39  289.80   2
  -3  -1   2 5597.68  291.77   1
   2   1  -2 4146.84  196.31   4
   2   1  -2 4278.05  211.68   5
   2   1  -2 4384.23  196.50   2
   2   1  -2 4380.42  236.62   1
  -2  -1   2 4285.91  227.94   8
  -2  -1   2 4071.80  218.77   6
  -2  -1   2 4266.23  205.94   1
   1   1  -2 754.023  43.321   8
   1   1  -2 766.755  40.613   6
   1   1  -2 717.169  36.717   1
   1   1  -2 765.830  41.522   2
  -1  -1   2 760.002  45.349   8
  -1  -1   2 733.011  35.354   1
  -1  -1   2 743.200  36.749   6
   0  -1   2 6221.61  300.58   1
  -1   1  -2 2715.02  138.84   8
  -1   1  -2 2772.50  167.45   7
  -1   1  -2 2671.07  159.55   6
  -1   1  -2 2731.83  144.41   1
   1  -1   2 3276.53  153.76   1
   1  -1   2 3367.33  151.15   6
   1  -1   2 3244.51  166.97   7
  -2   1  -2 5039.58  279.98   7
  -2   1  -2 5043.20  256.89   6
  -2   1  -2 5141.68  242.65   5
   2  -1   2 5114.58  247.85   3
   2  -1   2 5104.48  251.62   1
   2  -1   2 5115.35  261.47   7
  -3   1  -2 5478.31  248.11   1
  -3   1  -2 5593.25  239.58   2
  -3   1  -2 5329.13  264.03   7
  -3   1  -2 5328.31  287.07   6
   3  -1   2 5404.57  271.18   1
   3  -1   2 5336.18  278.62   3
   3  -1   2 5294.39  288.00   7
  -4   1  -2 2168.09  107.96   6
  -4   1  -2 2114.12  116.26   5
  -4   1  -2 2222.22  114.85   1
  -4   1  -2 2183.33  110.38   7
  -4   1  -2 2194.25  121.95   2
   4  -1   2 2025.39   96.95   7
   4  -1   2 2027.91  118.37   1
   4  -1   2 2043.37  104.72   3
  -5   1  -2 104.210   6.906   3
  -5   1  -2 114.047   6.532   6
  -5   1  -2 114.694   6.158   1
  -5   1  -2 110.715   6.505   2
  -5   1  -2 117.289   6.048   5
  -5   1  -2 122.950   7.391   7
   5  -1   2 98.3812  6.0606   1
   5  -1   2 102.167   7.237   3
   5  -1   2 110.827   6.176   5
   5  -1   2 106.403   6.997   7
  -6   1  -2 794.282  40.660   6
  -6   1  -2 785.039  34.504   2
  -6   1  -2 798.473  41.915   1
  -6   1  -2 786.916  37.779   7
  -6   1  -2 768.808  44.187   5
   6  -1   2 807.364  41.539   1
  -7   1  -2 187.063  11.787   7
  -7   1  -2 192.932  10.277   2
  -7   1  -2 194.144  10.406   1
  -7   1  -2 178.749  10.869   5
  -7   1  -2 182.105  10.060   6
   7  -1   2 205.283  12.749   1
  -8   1  -2 46.4283  5.6965   2
  -8   1  -2 44.9875  6.7444   7
  -8   1  -2 46.1758  3.7897   1
  -8   1  -2 51.1050  4.6631   5
  -9   1  -2 106.131  10.024   7
  -9   1  -2 119.889   8.943   2
 -10   1  -2 29.2189  7.3389   2
 -10   1  -2 33.2663  7.6604   7
 -10   0   2 10.4981  5.5353   7
 -10   0   2 23.0220  6.3515   3
  -9   0   2 111.562   9.815   7
  -9   0   2 125.824  10.286   3
   8   0  -2 62.4317  5.7067   1
  -8   0   2 66.7058  5.4076   5
  -8   0   2 68.9157  7.0542   3
  -8   0   2 60.4954  6.7949   7
   7   0  -2 144.764   8.405   5
   7   0  -2 137.948   7.338   1
   7   0  -2 131.223   7.786   1
  -7   0   2 119.438   9.238   7
  -7   0   2 111.235   8.203   3
  -7   0   2 143.059   7.993   5
  -7   0   2 103.800   8.166   4
   6   0  -2 807.233  42.614   1
   6   0  -2 734.501  43.392   5
   6   0  -2 726.760  41.871   1
  -6   0   2 779.676  36.839   7
  -6   0   2 777.269  38.451   5
  -6   0   2 703.433  35.856   4
  -6   0   2 759.796  33.161   3
   5   0  -2 751.876  44.230   5
   5   0  -2 762.368  35.890   1
   5   0  -2 773.335  34.715   2
   5   0  -2 783.715  38.424   1
  -5   0   2 737.527  35.636   7
  -5   0   2 710.124  41.863   5
  -5   0   2 709.240  37.636   4
  -5   0   2 674.299  40.996   3
   4   0  -2 173.678   8.746   1
   4   0  -2 173.469   8.490   1
   4   0  -2 156.049   8.196   5
   4   0  -2 155.896   8.514   2
  -4   0   2 136.581  10.938   5
  -4   0   2 139.512   7.875   4
  -4   0   2 126.410   7.941   3
  -4   0   2 135.595   8.219   7
   3   0  -2 5892.51  306.55   5
   3   0  -2 6031.41  304.41   2
  -3   0   2 6098.61  274.54   4
  -3   0   2 6305.50  324.36   8
  -3   0   2 6009.12  274.87   3
  -3   0   2 6340.42  288.00   7
  -3   0   2 6292.41  317.26   5
   2   0  -2 992.272  65.850   1
   2   0  -2 985.004  55.082   5
   2   0  -2 941.855  50.828   4
   2   0  -2 945.470  46.525   2
   2   0  -2 932.786  52.831   1
  -2   0   2 1097.39   52.15   5
  -2   0   2 1039.93   51.05   4
  -2   0   2 1097.40   54.27   7
  -2   0   2 1107.46   62.81   8
   1   0  -2 2940.50  143.26   8
   1   0  -2 2818.75  175.64   5
   1   0  -2 2930.52  142.11   1
  -1   0   2 2916.39  149.93   8
  -1   0   2 2802.14  171.39   1
  -1   0   2 3033.82  163.40   5
   0   0  -2 978.987  50.024   1
   0   0  -2 984.915  47.326   8
   0   0  -2 907.703  53.952   5
   0   0   2 1092.32   64.13   8
   0   0   2 1049.27   55.53   1
  -1   0  -2 1905.05  111.26   6
  -1   0  -2 2006.47  107.66   8
  -1   0  -2 2056.67  100.25   1
  -1   0  -2 2012.58   94.30   7
   1   0   2 2033.43  104.48   1
   1   0   2 1977.35  107.85   8
   1   0   2 1933.59   98.10   7
   1   0   2 1900.92  102.93   3
   1   0   2 1962.62   91.82   6
  -2   0  -2 1652.07   68.23   3
  -2   0  -2 1664.13   97.97   7
  -2   0  -2 1617.87   87.51   6
  -2   0  -2 1676.15   69.62   1
  -2   0  -2 1650.98   78.13   8
   2   0   2 1543.96   79.21   1
   2   0   2 1511.27   81.35   7
   2   0   2 1495.97   82.64   6
   2   0   2 1485.00   75.41   3
  -3   0  -2 4742.89  250.55   3
  -3   0  -2 4882.74  224.11   7
  -3   0  -2 4959.84  223.05   5
  -3   0  -2 4852.81  232.38   6
   3   0   2 4583.65  211.51   3
   3   0   2 4773.01  213.58   7
  -4   0  -2 1028.62   48.42   7
  -4   0  -2 976.601  47.217   3
  -4   0  -2 1030.24   51.92   1
  -4   0  -2 993.926  47.156   4
  -4   0  -2 1002.89   50.62   6
  -4   0  -2 984.109  47.108   2
  -4   0  -2 1020.55   53.27   5
   4   0   2 1030.19   47.64   1
   4   0   2 1046.16   52.74   7
  -5   0  -2 221.526  12.440   2
  -5   0  -2 235.266  12.239   7
  -5   0  -2 248.039  12.552   1
  -5   0  -2 233.159  11.787   4
  -5   0  -2 238.129  14.870   5
  -5   0  -2 227.552  13.252   6
  -5   0  -2 244.799  12.489   3
   5   0   2 267.209  11.750   1
  -6   0  -2 849.840  45.974   1
  -6   0  -2 887.236  42.729   7
  -6   0  -2 848.165  40.410   3
  -6   0  -2 850.115  43.149   5
  -6   0  -2 853.075  39.291   4
  -6   0  -2 857.870  37.165   2
  -6   0  -2 832.677  41.918   6
   6   0   2 854.495  42.354   1
  -7   0  -2 53.0869  3.7347   5
  -7   0  -2 62.4000  3.5711   1
  -7   0  -2 61.9851  3.8169   6
  -7   0  -2 62.1826  5.6843   2
  -7   0  -2 65.8007  6.2736   7
  -7   0  -2 43.4011  6.0897   3
   7   0   2 55.9839  3.3119   1
  -8   0  -2 229.073  12.041   2
  -8   0  -2 197.171  13.640   3
  -8   0  -2 206.641  13.399   7
  -8   0  -2 209.441   9.898   5
   8   0   2 214.580  11.267   1
   8   0   2 215.551   9.702   1
  -9   0  -2 137.289  10.235   2
  -9   0  -2 178.415  11.314   7
  -9   0  -2 154.625  11.523   3
 -10   0  -2 5.83949 6.02965   7
 -10   0  -2 7.92583 3.83137   2
  -9   1   2 81.5892  8.5559   7
   8  -1  -2 13.4021  3.3560   1
  -8   1   2 15.8945  4.6369   7
  -8   1   2 8.55153 3.62413   5
   7  -1  -2 189.837  13.871   5
   7  -1  -2 190.714  13.873   1
   7  -1  -2 196.368  11.668   1
  -7   1   2 224.789  13.007   7
  -7   1   2 221.028  11.315   5
  -7   1   2 194.396  10.874   4
  -7   1   2 201.511  11.565   3
   6  -1  -2 486.147  28.789   1
   6  -1  -2 432.801  25.732   5
   6  -1  -2 461.062  25.505   1
  -6   1   2 442.263  26.376   7
  -6   1   2 444.772  23.699   5
  -6   1   2 440.412  21.316   3
  -6   1   2 448.010  20.635   4
   5  -1  -2 7.62706 3.00662   1
   5  -1  -2 6.40515 2.91328   5
   5  -1  -2 2.54058 3.12205   2
  -5   1   2 9.26864 2.60940   4
  -5   1   2 2.05467 2.77783   1
  -5   1   2 5.34901 3.22562   5
  -5   1   2 1.24498 2.74945   3
  -5   1   2 3.11040 3.81691   7
   4  -1  -2 3248.89  169.54   1
   4  -1  -2 3161.84  152.23   5
   4  -1  -2 3387.86  158.46   2
  -4   1   2 3415.39  155.61   5
  -4   1   2 3249.00  163.71   7
  -4   1   2 3204.06  172.67   3
  -4   1   2 3371.11  173.81   1
  -4   1   2 3342.12  154.91   4
   3  -1  -2 1880.36  106.01   1
   3  -1  -2 1838.95  109.06   5
   3  -1  -2 1817.53   83.32   7
   3  -1  -2 1855.91   81.38   2
  -3   1   2 1862.33   85.74   3
  -3   1   2 1863.99  106.63   1
  -3   1   2 1837.32   93.32   8
  -3   1   2 1830.61   80.54   4
  -3   1   2 1879.80   87.85   7
  -3   1   2 1873.54   83.46   5
   2  -1  -2 591.290  24.621   2
   2  -1  -2 553.743  27.503   7
   2  -1  -2 561.871  29.565   1
   2  -1  -2 570.837  29.157   5
  -2   1   2 567.722  27.875   1
  -2   1   2 545.423  30.576   7
  -2   1   2 589.851  31.430   5
  -2   1   2 560.300  30.091   3
  -2   1   2 534.936  32.086   8
   1  -1  -2 4661.33  261.88   8
   1  -1  -2 4619.60  227.03   7
   1  -1  -2 4605.21  229.67   5
  -1   1   2 4349.05  232.43   1
  -1   1   2 4552.23  223.58   5
   0   1   2 6142.47  297.70   8
  -1  -1  -2 2830.29  155.24   4
   1   1   2 2806.60  139.65   8
   1   1   2 2722.46  135.06   4
   1   1   2 2815.66  126.14   5
  -3  -1  -2 2353.05  128.14   3
  -3  -1  -2 2340.94  119.13   7
  -3  -1  -2 2398.75  106.37   8
  -3  -1  -2 2462.60  110.77   4
  -4  -1  -2 187.177  12.405   3
  -4  -1  -2 201.712  10.548   6
  -4  -1  -2 201.477   9.763   7
  -4  -1  -2 187.293  10.896   4
  -4  -1  -2 194.250   8.398   5
  -5  -1  -2 2088.83   94.62   6
  -5  -1  -2 2049.37   99.61   2
  -5  -1  -2 1987.53   96.01   4
  -5  -1  -2 2100.36   95.19   3
  -5  -1  -2 1936.84   90.87   7
  -5  -1  -2 2106.61   86.09   5
  -6  -1  -2 915.237  37.286   5
  -6  -1  -2 879.641  41.532   3
  -6  -1  -2 853.518  45.074   4
  -6  -1  -2 883.686  39.395   6
  -6  -1  -2 872.988  43.177   2
  -6  -1  -2 893.035  42.256   7
  -7  -1  -2 72.5279  6.0000   2
  -7  -1  -2 65.3676  3.1861   6
  -7  -1  -2 63.5280  5.7199   3
  -8  -1  -2 337.985  18.530   3
  -8  -1  -2 349.869  19.562   2
  -8  -1  -2 350.750  19.301   7
  -9  -1  -2 143.088  10.432   7
  -9  -1  -2 146.474   9.758   2
  -9  -1  -2 120.954  10.323   3
 -10  -1  -2 6.51430 5.42244   2
 -10  -1  -2 10.4429  5.9472   3
 -10  -1  -2 14.2542  5.9311   7
 -11  -1  -2 10.1042  6.1763   2
 -11  -1  -2 14.7379  6.9273   3
  -9   2   2 12.1979  7.2211   7
   8  -2  -2 47.4116  5.7040   1
  -8   2   2 56.3958  5.5893   5
  -8   2   2 41.0078  7.3417   7
  -7   2   2 319.226  16.983   5
  -7   2   2 331.995  18.537   7
  -7   2   2 277.592  16.417   4
  -7   2   2 293.361  17.436   1
   6  -2  -2 248.499  14.820   5
   6  -2  -2 228.379  13.796   1
  -6   2   2 266.675  14.326   1
  -6   2   2 255.608  13.347   5
  -6   2   2 233.683  13.074   4
  -6   2   2 241.152  14.143   7
   5  -2  -2 113.724   8.978   5
   5  -2  -2 118.597   7.769   1
  -5   2   2 129.433   7.689   1
  -5   2   2 128.138   7.935   5
  -5   2   2 121.131   8.004   7
  -5   2   2 123.899   7.130   4
   4  -2  -2 1514.94   81.58   3
   4  -2  -2 1490.68   91.28   2
   4  -2  -2 1516.97   99.31   5
   4  -2  -2 1481.75  103.19   1
   4  -2  -2 1379.76   77.23   7
  -4   2   2 1678.21   78.30   5
  -4   2   2 1726.86   74.72   7
  -4   2   2 1661.55   94.45   1
   3  -2  -2 84.3306  5.0749   2
   3  -2  -2 68.8732  5.2953   7
  -3   2   2 64.4460  5.1986   5
  -3   2   2 60.5027  5.1070   1
   2  -2  -2 2726.68  140.68   3
   2  -2  -2 2707.74  139.63   5
   2  -2  -2 2718.23  131.01   7
   2  -2  -2 2859.61  173.36   1
  -2   2   2 2567.01  140.27   5
  -2   2   2 2732.37  135.28   1
  -2   2   2 2607.57  124.02   8
  -2   2   2 2682.48  130.37   7
   1  -2  -2 4200.97  196.37   5
   1  -2  -2 3984.56  217.38   1
  -1   2   2 4149.32  195.72   5
  -1   2   2 3973.56  214.04   8
  -1   2   2 4070.95  213.12   7
  -1   2   2 4063.58  205.05   1
   0  -2  -2 2169.17  116.95   7
   0  -2  -2 2142.24  143.92   1
   0  -2  -2 2172.73  110.61   5
   0  -2  -2 2155.88  110.00   8
   0   2   2 2262.20  113.02   8
   0   2   2 2215.81  121.02   7
   0   2   2 2259.24  116.82   1
   0   2   2 2249.52  106.62   5
  -1  -2  -2 453.646  25.365   1
  -1  -2  -2 442.731  22.494   5
  -1  -2  -2 447.175  21.641   8
  -1  -2  -2 461.968  23.666   7
   1   2   2 391.624  24.416   1
   1   2   2 420.004  21.931   5
   1   2   2 400.960  18.878   4
   1   2   2 409.118  24.138   7
   1   2   2 385.659  21.780   8
  -3  -2  -2 1071.46   46.52   5
  -3  -2  -2 1064.85   57.19   8
  -3  -2  -2 1058.58   55.68   4
  -3  -2  -2 1050.73   50.33   1
   3   2   2 1060.04   56.40   1
   3   2   2 1008.99   53.44   8
   3   2   2 987.178  46.244   4
   3   2   2 1041.00   55.53   5
  -4  -2  -2 968.067  47.496   8
  -4  -2  -2 984.499  44.678   4
   4   2   2 937.155  49.650   4
  -5  -2  -2 2590.43  111.53   8
  -5  -2  -2 2534.11  111.71   2
  -5  -2  -2 2542.98  115.90   7
  -5  -2  -2 2574.93  136.46   4
   5   2   2 2597.34  129.74   4
  -6  -2  -2 -1.2525  2.8367   4
  -6  -2  -2 -1.7935  2.9206   7
  -6  -2  -2 4.92769 3.55034   3
  -6  -2  -2 3.45993 2.88768   2
  -6  -2  -2 -1.3093  2.4926   8
  -7  -2  -2 455.519  21.993   3
  -7  -2  -2 421.952  21.817   2
  -7  -2  -2 444.785  21.015   7
  -8  -2  -2 394.304  26.470   7
  -8  -2  -2 362.964  19.372   2
  -8  -2  -2 369.026  19.458   3
  -9  -2  -2 30.5952  6.2836   3
  -9  -2  -2 28.6852  4.6532   2
  -9  -2  -2 27.8140  5.2154   8
  -9  -2  -2 28.4915  5.8422   7
 -10  -2  -2 48.9883  7.4852   3
 -10  -2  -2 45.4624  5.7025   8
 -10  -2  -2 42.9222  6.7390   2
 -10  -2  -2 38.3508  6.9546   7
 -11  -2  -2 26.3052  6.7085   2
 -11  -2  -2 30.5338  6.4876   8
 -11  -2  -2 21.8576  7.4392   7
  -8   3   2 80.1069  8.7081   7
  -8   3   2 98.9704  8.0200   1
  -8   3   2 92.5555  8.7581   5
  -7   3   2 247.021  17.599   1
  -7   3   2 266.315  20.097   5
  -7   3   2 256.021  15.280   7
  -6   3   2 52.2808  6.8643   7
  -6   3   2 46.3826  5.6568   5
  -6   3   2 60.5527  6.2665   1
  -6   3   2 72.8317 40.8925   4
   5  -3  -2 485.613  29.483   5
   5  -3  -2 450.147  27.851   3
   5  -3  -2 439.091  27.376   1
  -5   3   2 432.640  33.560   7
  -5   3   2 460.554  21.869   5
  -5   3   2 470.837  25.118   1
   4  -3  -2 661.021  39.271   1
   4  -3  -2 714.755  38.769   3
   4  -3  -2 687.918  36.404   2
   4  -3  -2 723.080  39.373   5
  -4   3   2 705.870  34.094   7
  -4   3   2 693.005  39.091   1
  -4   3   2 725.032  33.664   5
   3  -3  -2 76.3942  6.1753   7
   3  -3  -2 79.1740  6.7086   1
   3  -3  -2 85.2421  5.4497   3
   3  -3  -2 85.4672  6.7345   5
   3  -3  -2 82.1285  5.3718   2
  -3   3   2 100.345   6.673   7
  -3   3   2 77.3788  5.9213   5
  -3   3   2 88.9436  6.2323   1
   2  -3  -2 4349.97  220.80   1
   2  -3  -2 4098.75  201.74   7
   2  -3  -2 4105.54  210.23   3
   2  -3  -2 4307.18  221.87   5
  -2   3   2 4367.66  211.62   7
  -2   3   2 4198.78  286.38   5
  -2   3   2 4279.54  231.25   8
  -2   3   2 4308.98  235.05   1
   1  -3  -2 2383.55  112.23   1
   1  -3  -2 2282.76  115.78   5
   1  -3  -2 2274.09  121.62   7
  -1   3   2 2378.01  167.46   8
  -1   3   2 2212.46  135.71   5
  -1   3   2 2325.52  113.49   1
  -1   3   2 2290.76  123.39   7
   0  -3  -2 56.4903  4.4734   1
   0  -3  -2 57.5922  4.6490   8
   0  -3  -2 54.9143  4.0617   5
   0  -3  -2 54.3013  4.0811   7
   0   3   2 56.9665  4.5779   8
   0   3   2 57.3250  4.7564   1
   0   3   2 48.7803  4.1540   7
   0   3   2 55.4130  4.4847   5
  -1  -3  -2 4406.31  244.08   8
  -1  -3  -2 4327.48  248.66   1
  -1  -3  -2 4405.65  214.24   7
  -1  -3  -2 4454.60  207.89   5
   1   3   2 4218.80  240.73   5
   1   3   2 4123.13  237.00   1
   1   3   2 4126.77  204.96   8
  -2  -3  -2 336.299  17.840   5
  -2  -3  -2 346.583  17.201   1
  -2  -3  -2 338.144  16.929   7
  -2  -3  -2 332.765  20.337   8
   2   3   2 369.807  18.612   1
   2   3   2 363.666  21.824   8
   2   3   2 366.548  17.374   4
   2   3   2 349.056  18.306   5
  -3  -3  -2 1050.52   58.83   1
  -3  -3  -2 1037.43   58.81   4
  -3  -3  -2 1037.00   48.24   5
  -3  -3  -2 1057.44   66.64   8
   3   3   2 1040.85   57.35   8
   3   3   2 1041.28   53.94   1
   3   3   2 995.646  50.440   4
   3   3   2 1067.47   52.41   5
  -4  -3  -2 3769.50  183.98   8
  -4  -3  -2 3682.71  170.07   1
  -4  -3  -2 3792.82  168.50   4
   4   3   2 3658.25  169.55   5
   4   3   2 3693.31  166.50   4
  -5  -3  -2 2658.06  151.07   4
  -5  -3  -2 2734.04  122.28   8
  -5  -3  -2 2621.39  109.26   1
   5   3   2 2676.37  128.98   4
  -6  -3  -2 14.1746  3.6494   2
  -6  -3  -2 22.2677  3.0040   8
  -6  -3  -2 15.3631  3.5854   4
   6   3   2 17.8066  3.1959   4
  -7  -3  -2 364.458  21.116   2
  -7  -3  -2 364.405  18.485   8
  -7  -3  -2 337.409  21.605   7
   7   3   2 377.028  18.687   4
  -8  -3  -2 106.072   7.388   2
  -8  -3  -2 108.586   8.236   7
  -8  -3  -2 106.292   7.362   8
  -9  -3  -2 31.8221  6.6636   7
  -9  -3  -2 31.4946  4.9422   8
  -9  -3  -2 29.5827  5.1389   3
  -9  -3  -2 32.2419  4.7798   2
 -10  -3  -2 78.4542  7.7457   8
 -10  -3  -2 82.8926  8.2117   2
 -10  -3  -2 83.7084  8.5809   7
 -10  -3  -2 71.6552  8.6820   3
 -11  -3  -2 6.54525 6.79967   3
 -11  -3  -2 16.3713  6.6107   7
 -11  -3  -2 4.41507 5.80618   2
 -11  -3  -2 8.23025 5.40545   8
  -8   4   2 34.1628  5.9892   5
  -8   4   2 42.1248  8.5652   7
  -7   4   2 77.4657  7.5064   5
  -7   4   2 66.8171  7.6960   1
  -7   4   2 69.7894  8.8949   7
  -6   4   2 18.3243  4.8205   5
  -5   4   2 779.660  38.040   7
  -5   4   2 799.533  39.632   1
  -5   4   2 788.985  40.521   5
   4  -4  -2 220.731  12.837   3
   4  -4  -2 204.822  12.961   2
  -4   4   2 209.175  11.684   5
  -4   4   2 226.668  11.875   1
  -4   4   2 186.570  11.457   7
   3  -4  -2 237.923  15.930   1
   3  -4  -2 221.962  12.061   5
   3  -4  -2 217.547  12.140   2
   3  -4  -2 209.575  11.022   3
   3  -4  -2 223.525  15.584   7
  -3   4   2 243.631  12.116   1
  -3   4   2 193.054  11.696   8
  -3   4   2 218.775  12.191   5
  -3   4   2 207.556  12.576   7
   2  -4  -2 2806.37  139.32   7
   2  -4  -2 2819.98  132.73   5
   2  -4  -2 2763.19  157.37   1
  -2   4   2 3099.46  142.71   7
  -2   4   2 3085.21  138.01   1
  -2   4   2 3058.86  150.02   8
  -2   4   2 3029.36  149.35   5
   1  -4  -2 1035.49   50.08   7
   1  -4  -2 991.357  45.730   5
   1  -4  -2 1019.89   59.96   1
  -1   4   2 932.493  48.621   8
  -1   4   2 941.678  51.114   1
  -1   4   2 919.844  49.352   7
  -1   4   2 945.529  45.144   5
   0  -4  -2 407.089  21.292   7
   0  -4  -2 443.232  21.441   5
   0  -4  -2 402.229  29.391   1
   0   4   2 383.896  22.639   8
   0   4   2 382.648  19.502   5
   0   4   2 386.849  23.972   7
   0   4   2 387.375  25.328   1
  -1  -4  -2 5684.67  261.15   7
  -1  -4  -2 5670.72  299.25   8
  -1  -4  -2 5479.99  307.84   5
   1   4   2 5741.64  291.44   8
   1   4   2 5700.46  279.38   7
   1   4   2 5881.60  272.59   1
   1   4   2 5498.25  293.70   5
  -2  -4  -2 763.142  38.632   7
  -2  -4  -2 756.568  32.084   8
  -2  -4  -2 754.902  39.519   5
  -2  -4  -2 721.410  37.045   1
   2   4   2 703.866  34.279   1
   2   4   2 704.892  42.121   8
   2   4   2 664.478  33.738   5
   3   4   2 21.9119  2.8884   1
   3   4   2 30.6753  2.5720   8
   3   4   2 26.0489  3.9692   4
   3   4   2 31.5007  3.0272   5
  -4  -4  -2 3411.33  170.93   8
  -4  -4  -2 3437.08  166.13   5
  -4  -4  -2 3414.98  185.62   1
   4   4   2 3655.49  170.14   5
   4   4   2 3803.16  166.70   8
   4   4   2 3755.54  199.19   4
  -5  -4  -2 454.439  36.893   4
  -5  -4  -2 493.550  23.273   1
  -5  -4  -2 493.826  24.827   8
   5   4   2 483.471  24.539   6
   5   4   2 503.413  25.215   1
   5   4   2 528.438  23.214   4
   5   4   2 476.761  24.151   5
  -6  -4  -2 482.786  24.136   8
  -6  -4  -2 472.972  22.757   1
  -6  -4  -2 515.301  21.708   2
   6   4   2 463.595  21.667   4
   6   4   2 478.878  23.369   1
   6   4   2 453.446  20.202   5
   6   4   2 484.821  19.886   5
  -7  -4  -2 503.625  23.371   2
  -7  -4  -2 521.430  23.726   8
   7   4   2 490.884  29.121   4
  -8  -4  -2 191.117  10.563   8
  -8  -4  -2 187.712  11.148   2
  -8  -4  -2 189.960  11.042   7
   8   4   2 146.891  10.736   4
  -9  -4  -2 134.544   9.484   7
  -9  -4  -2 116.142   9.692   3
  -9  -4  -2 107.871   8.849   2
  -9  -4  -2 113.785   7.882   8
 -10  -4  -2 33.1630  5.8468   3
 -10  -4  -2 26.4543  6.3812   2
 -10  -4  -2 27.0051  5.0038   8
 -11  -4  -2 18.1843  6.1882   8
 -11  -4  -2 23.5398  7.3686   3
 -11  -4  -2 19.4325  6.6897   2
 -11  -4  -2 17.0914  6.7224   7
  -7   5   2 17.8240  6.2781   1
  -7   5   2 9.78210 6.91447   7
  -7   5   2 13.8490  6.4191   5
  -6   5   2 212.784  36.703   7
  -6   5   2 135.955  10.826   1
  -6   5   2 157.713  10.783   5
  -5   5   2 196.505  12.858   7
  -5   5   2 156.847  15.580   1
  -5   5   2 184.443  11.613   5
   4  -5  -2 20.0523  3.7408   2
  -4   5   2 22.6175  5.7051   7
  -4   5   2 23.3138  5.1120   1
  -4   5   2 18.7041  4.7781   5
   3  -5  -2 764.290  37.501   2
   3  -5  -2 806.709  46.934   3
  -3   5   2 787.058  41.008   1
  -3   5   2 839.035  41.576   7
  -3   5   2 810.245  39.620   5
   2  -5  -2 491.028  25.611   7
   2  -5  -2 512.811  32.636   5
  -2   5   2 506.053  26.165   5
  -2   5   2 496.468  23.997   8
  -2   5   2 510.808  25.899   7
  -2   5   2 507.492  27.966   1
   1  -5  -2 56.6152  5.4965   1
   1  -5  -2 67.1467  5.5741   5
   1  -5  -2 61.8800  5.4937   7
  -1   5   2 65.2455  5.4511   8
  -1   5   2 54.9451  5.5967   7
  -1   5   2 76.9024  6.0665   1
  -1   5   2 61.4924  5.7858   5
   0  -5  -2 1913.42  101.91   1
   0  -5  -2 1936.48   93.46   7
   0  -5  -2 1948.99   99.89   5
   0   5   2 1853.84  100.04   7
   0   5   2 1932.57   98.05   8
   0   5   2 1971.77   88.18   5
   0   5   2 1936.93  102.13   1
  -1  -5  -2 1030.77   47.42   5
  -1  -5  -2 1076.51   51.47   7
  -1  -5  -2 1053.88   45.28   1
   1   5   2 970.122  43.963   7
   1   5   2 1043.38   54.45   1
   1   5   2 1004.49   52.80   8
   1   5   2 980.864  46.730   5
  -2  -5  -2 561.534  24.770   8
  -2  -5  -2 535.562  29.182   1
  -2  -5  -2 548.193  26.030   7
  -2  -5  -2 544.289  27.582   5
   2   5   2 537.540  29.336   7
   2   5   2 562.407  27.982   5
   2   5   2 530.936  25.629   1
   2   5   2 509.078  23.865   8
  -3  -5  -2 2480.99  124.85   5
  -3  -5  -2 2472.30  154.63   1
  -3  -5  -2 2524.23  115.22   7
  -3  -5  -2 2427.97  120.39   8
   3   5   2 2664.25  123.38   4
   3   5   2 2589.24  125.31   8
   3   5   2 2617.92  114.40   5
   3   5   2 2685.99  128.51   1
  -4  -5  -2 1324.88   72.44   5
  -4  -5  -2 1393.06   69.14   1
  -4  -5  -2 1342.42   63.19   7
  -4  -5  -2 1340.24   74.63   8
   4   5   2 1391.23   72.28   1
   4   5   2 1356.19   63.28   5
   4   5   2 1433.04   68.53   4
   4   5   2 1382.28   65.72   8
  -5  -5  -2 78.5305  4.7824   1
  -5  -5  -2 77.6338  4.7540   8
   5   5   2 85.0348  4.9001   6
   5   5   2 98.9069  6.8243   4
   5   5   2 80.2967  4.9465   1
   5   5   2 81.2390  5.2394   5
  -6  -5  -2 280.503  14.217   8
  -6  -5  -2 278.112  13.826   1
   6   5   2 272.306  13.017   6
   6   5   2 282.348  14.476   4
   6   5   2 256.773  15.699   1
   6   5   2 268.017  13.561   5
  -7  -5  -2 405.699  19.780   2
  -7  -5  -2 366.306  21.147   8
  -7  -5  -2 370.889  16.276   1
   7   5   2 379.946  16.351   5
   7   5   2 406.677  23.938   4
   7   5   2 365.954  18.505   1
   7   5   2 384.286  16.061   5
  -8  -5  -2 190.171  11.892   2
  -8  -5  -2 193.424  10.781   8
   8   5   2 196.768  12.003   4
  -9  -5  -2 21.3433  4.2673   8
  -9  -5  -2 27.9580  5.9880   2
 -10  -5  -2 43.4960  5.5461   8
 -10  -5  -2 58.5769  7.5342   2
 -10  -5  -2 55.0139  7.3891   7
 -11  -5  -2 13.5245  7.3057   3
 -11  -5  -2 3.78431 5.81622   7
 -11  -5  -2 1.77573 6.26311   2
  -7   6   2 -0.5611  6.2708   1
  -7   6   2 17.3575  6.2117   5
  -6   6   2 211.827  14.547   7
  -6   6   2 185.095  12.896   1
  -6   6   2 173.756  13.252   5
  -5   6   2 68.4370  7.5363   1
  -5   6   2 75.6649  8.8712   7
  -5   6   2 73.0087  7.9197   5
  -4   6   2 64.9414  7.3016   5
  -4   6   2 73.2603  8.1426   7
   3  -6  -2 483.556  25.476   2
  -3   6   2 570.611  27.425   1
  -3   6   2 576.990  25.544   7
  -3   6   2 541.467  28.677   5
  -2   6   2 31.3366  5.6384   7
  -2   6   2 43.3461  5.6900   1
  -2   6   2 34.8267  5.4636   5
  -1   6   2 248.537  13.949   7
  -1   6   2 227.793  12.872   1
  -1   6   2 259.196  14.103   8
  -1   6   2 264.696  13.936   5
   0  -6  -2 1618.37   86.41   5
   0  -6  -2 1672.53   75.72   7
   0   6   2 1723.57   76.34   1
   0   6   2 1655.94   82.07   7
   0   6   2 1723.50   80.23   8
   0   6   2 1605.76   84.62   5
  -1  -6  -2 773.496  44.242   1
  -1  -6  -2 767.909  40.013   5
  -1  -6  -2 779.864  39.504   7
   1   6   2 791.822  40.357   5
   1   6   2 890.253  39.348   1
   1   6   2 848.590  38.786   8
   1   6   2 851.106  49.709   7
  -2  -6  -2 316.170  19.473   7
  -2  -6  -2 312.851  18.023   5
  -2  -6  -2 359.171  19.346   1
   2   6   2 359.449  17.203   8
   2   6   2 375.971  17.753   7
   2   6   2 375.415  18.091   1
   2   6   2 380.130  16.587   5
  -3  -6  -2 2871.10  166.59   7
  -3  -6  -2 2988.04  164.62   1
  -3  -6  -2 3006.33  163.46   8
  -3  -6  -2 2817.03  131.15   5
   3   6   2 2977.70  148.08   8
   3   6   2 2964.71  139.89   5
   3   6   2 3038.61  145.48   1
  -4  -6  -2 354.674  16.451   8
  -4  -6  -2 367.747  15.930   7
  -4  -6  -2 358.550  19.280   1
  -4  -6  -2 356.310  21.674   5
   4   6   2 314.742  16.198   8
   4   6   2 311.261  16.865   4
   4   6   2 294.847  18.135   5
   4   6   2 339.271  18.328   1
  -5  -6  -2 863.711  56.466   8
  -5  -6  -2 833.731  38.155   7
  -5  -6  -2 833.419  48.820   1
   5   6   2 873.888  44.038   1
   5   6   2 826.320  43.791   4
   5   6   2 818.261  41.957   6
   5   6   2 807.292  44.110   5
  -6  -6  -2 1596.26   76.93   1
  -6  -6  -2 1652.15   84.78   8
   6   6   2 1638.81   92.45   1
   6   6   2 1622.20   78.30   6
   6   6   2 1657.89   97.87   5
   6   6   2 1541.28   76.94   4
  -7  -6  -2 7.56180 2.11495   1
  -7  -6  -2 7.50425 2.56529   8
  -7  -6  -2 2.58749 3.80144   2
   7   6   2 4.88681 4.46831   4
   7   6   2 7.93922 2.20378   1
   7   6   2 8.27206 1.86976   5
   7   6   2 5.29497 1.29736   6
  -8  -6  -2 150.984   9.753   2
  -8  -6  -2 142.796   7.975   8
   8   6   2 138.366  10.203   4
   8   6   2 151.813   6.419   5
   8   6   2 153.000   8.110   1
   8   6   2 144.655   6.156   5
  -9  -6  -2 52.8574  4.6217   8
  -9  -6  -2 55.9735  6.2410   2
   9   6   2 49.9620  6.1480   4
 -10  -6  -2 20.3742  6.2224   2
  10   6   2 16.1946  6.0969   4
 -11  -6  -2 15.6982  6.5488   7
 -11  -6  -2 9.76825 7.13113   3
 -11  -6  -2 19.6913  7.3044   2
  -6   7   2 46.1245  8.0335   5
  -6   7   2 62.7371  8.1663   7
  -6   7   2 55.0117  7.9644   1
  -5   7   2 43.9184  7.2957   1
  -5   7   2 34.0603  6.5948   7
  -4   7   2 116.517  10.113   5
  -4   7   2 136.325  11.136   7
  -4   7   2 131.221   9.671   1
   3  -7  -2 88.0815  6.4263   2
  -3   7   2 107.061   8.263   7
  -3   7   2 107.296   8.843   5
  -3   7   2 99.2141  8.7510   1
   2  -7  -2 42.8480  4.3368   2
  -2   7   2 40.6035  5.2806   1
  -2   7   2 44.4699  5.4946   5
  -2   7   2 46.4252  6.6752   7
  -1   7   2 656.571  34.933   5
  -1   7   2 655.862  33.918   1
  -1   7   2 725.321  34.259   7
   0   7   2 354.776  19.642   7
   0   7   2 352.548  19.530   8
   0   7   2 385.916  19.315   5
   0   7   2 325.710  17.571   1
   1   7   2 80.3220  6.9932   5
   1   7   2 87.9945  6.5030   8
   1   7   2 101.927   6.779   7
   1   7   2 74.8626  7.0014   1
   2   7   2 496.074  24.030   5
   2   7   2 523.429  30.339   1
   2   7   2 497.882  26.095   7
   2   7   2 503.772  26.457   8
  -3  -7  -2 493.727  33.613   7
  -3  -7  -2 524.146  35.019   1
  -3  -7  -2 513.222  33.634   5
   3   7   2 505.071  25.843   8
   3   7   2 574.461  28.242   1
   3   7   2 493.539  26.155   5
  -4  -7  -2 61.5496  5.0511   1
  -4  -7  -2 52.0712  5.0857   5
   4   7   2 54.1886  5.2327   1
   4   7   2 53.0663  5.3780   5
   4   7   2 53.5159  7.0814   4
   4   7   2 54.8165  3.4684   8
  -5  -7  -2 1072.99   58.94   1
  -5  -7  -2 1086.08   54.61   8
   5   7   2 977.409  46.453   8
   5   7   2 1097.11   53.90   1
   5   7   2 1085.92   52.23   5
   5   7   2 1051.27   51.46   4
   5   7   2 1042.63   54.25   6
  -6  -7  -2 540.197  36.832   1
  -6  -7  -2 554.490  26.929   8
   6   7   2 565.013  32.436   5
   6   7   2 603.388  31.258   1
   6   7   2 577.090  27.515   4
   6   7   2 546.326  30.290   6
  -7  -7  -2 33.4237  3.7735   1
  -7  -7  -2 34.5361  4.4673   2
  -7  -7  -2 26.6209  2.6251   8
   7   7   2 30.1664  3.6367   1
   7   7   2 28.9688  2.9791   6
   7   7   2 28.0865  5.9020   4
   7   7   2 35.6073  3.3451   5
  -8  -7  -2 103.913   8.717   2
   8   7   2 122.071   6.806   5
   8   7   2 134.992  10.335   4
   8   7   2 134.061   7.789   1
  -9  -7  -2 48.1709  6.8278   2
   9   7   2 38.1156  6.9542   4
 -10  -7  -2 1.07833 5.55406   2
  10   7   2 4.43835 4.06058   4
  -5   8   2 27.7734  7.4863   1
  -5   8   2 33.7693  7.3735   5
  -5   8   2 14.6662  7.6046   7
  -4   8   2 141.447  11.365   5
  -4   8   2 122.519  11.664   7
  -4   8   2 124.966  11.117   1
  -3   8   2 37.1628  5.8288   1
  -3   8   2 51.3077  7.0920   5
  -3   8   2 37.5970  7.0581   7
  -2   8   2 129.488  10.603   5
  -2   8   2 101.224   9.401   1
  -2   8   2 114.669   9.847   7
  -1   8   2 381.983  20.926   7
  -1   8   2 389.173  22.830   5
  -1   8   2 396.206  22.749   1
   0   8   2 99.4611  8.7128   7
   0   8   2 105.975   9.770   5
   0   8   2 124.813   8.759   1
   1   8   2 129.619  10.332   1
   1   8   2 133.337  11.075   7
   1   8   2 140.261  10.103   8
   1   8   2 154.570   9.798   5
   2   8   2 438.707  25.364   7
   2   8   2 481.098  24.151   1
   2   8   2 477.911  23.831   5
   2   8   2 459.420  25.677   8
   3   8   2 112.407   8.610   8
   3   8   2 123.900   8.384   5
   3   8   2 116.426   8.376   1
   4   8   2 46.9993  6.4092   4
   4   8   2 33.7977  4.9902   1
   4   8   2 40.0191  3.0992   8
   4   8   2 44.5768  5.2100   5
   5   8   2 482.110  31.536   4
   5   8   2 477.339  28.034   8
   5   8   2 529.947  26.906   1
   5   8   2 541.030  28.266   5
   5   8   2 506.412  30.131   6
  -6  -8  -2 67.0978  5.9251   1
   6   8   2 93.9449  6.2895   5
   6   8   2 83.0885  6.3051   1
   6   8   2 75.0927  7.8106   4
  -7  -8  -2 110.556   7.853   2
   7   8   2 93.5557  7.4952   5
   7   8   2 89.9888  7.5471   6
   7   8   2 102.801   7.343   1
  -8  -8  -2 82.3424  7.5734   2
   8   8   2 71.4938  5.2800   5
   8   8   2 65.9406  7.9171   4
   8   8   2 67.7620  5.3903   1
  -9  -8  -2 19.1499  5.8777   2
   9   8   2 12.1613  5.9444   4
 -10  -8  -2 14.6604  4.9066   2
  10   8   2 16.9307  7.1109   4
  -4   9   2 40.1030  7.4234   7
  -4   9   2 42.1316  8.1212   1
  -4   9   2 49.0691  8.4263   5
  -3   9   2 10.5270  6.1552   5
  -3   9   2 9.09320 6.32313   1
  -3   9   2 10.6606  6.9126   7
  -2   9   2 88.9807 11.7089   7
  -2   9   2 78.5643  8.9726   1
  -2   9   2 87.1558  9.3161   5
  -1   9   2 94.1691  9.1450   1
  -1   9   2 93.5525  9.2480   7
  -1   9   2 110.462   9.485   5
   0   9   2 5.98934 5.15984   7
   0   9   2 14.7715  5.6846   1
   0   9   2 6.71030 3.89477   5
   1   9   2 348.375  19.085   1
   1   9   2 395.104  24.270   7
   1   9   2 368.944  22.157   5
   2   9   2 139.276   9.921   5
   2   9   2 139.242   8.171   8
   2   9   2 113.663   9.964   1
   3   9   2 83.0088  5.8350   8
   3   9   2 92.9665  7.9155   1
   3   9   2 85.5407  7.6981   5
   4   9   2 148.894   8.309   8
   4   9   2 163.813  10.574   1
   4   9   2 155.444  11.369   4
   4   9   2 170.700  10.320   5
   5   9   2 243.405  12.391   8
   5   9   2 282.269  15.411   5
   5   9   2 256.119  14.201   1
   5   9   2 304.009  16.637   4
  -6  -9  -2 22.1334  4.4571   2
   6   9   2 27.1116  6.1858   4
   6   9   2 17.6714  4.3246   1
  -7  -9  -2 52.7194  6.8712   2
   7   9   2 56.0422  6.0856   1
   7   9   2 53.9861  5.1541   5
   7   9   2 53.3442  6.7181   4
  -8  -9  -2 59.3924  6.9158   2
   8   9   2 50.9348  8.0531   4
   8   9   2 67.8988  5.9240   1
   8   9   2 72.7489  5.6255   5
  -9  -9  -2 3.28005 5.01665   2
   9   9   2 19.3378  7.1349   4
  -3  10   2 15.7528  7.5344   1
  -2  10   2 52.2478  7.3990   7
  -2  10   2 55.6390  8.8640   1
  -2  10   2 36.2455  8.0874   5
  -1  10   2 16.2335  6.6823   7
  -1  10   2 10.7917  4.6852   5
   0  10   2 50.2965  7.7547   7
   0  10   2 37.6646  6.3395   1
   0  10   2 53.0949  7.8937   5
   1  10   2 153.094  11.242   5
   1  10   2 137.659  11.093   1
   1  10   2 121.441   9.875   7
   2  10   2 39.1051  6.4584   5
   2  10   2 41.3523  7.0338   1
   2  10   2 26.5918  5.2883   7
   3  10   2 52.6798  6.8657   5
   3  10   2 48.7692  7.1023   1
   4  10   2 154.778  11.897   4
   4  10   2 166.229  11.897   1
   4  10   2 141.252  11.829   5
   5  10   2 14.4378  5.9177   4
   5  10   2 8.29631 4.68085   5
   5  10   2 6.77769 4.57735   1
  -6 -10  -2 31.4150  5.1154   2
   6  10   2 31.0219  6.8796   4
   6  10   2 25.3162  5.3742   1
   6  10   2 37.7971  6.1850   5
  -7 -10  -2 60.8201  6.8477   2
   7  10   2 59.7600  8.7196   4
   7  10   2 65.2005  6.1953   5
   7  10   2 72.3980  7.3788   1
   8  10   2 17.5140  7.2200   4
   8  10   2 21.5575  4.1721   1
  -9 -10  -2 9.46571 5.47745   2
   9  10   2 10.3763  7.4461   4
  -1  11   2 11.2331  7.2396   1
   0  11   2 65.9063  9.0970   7
   0  11   2 54.8842  8.4580   5
   1  11   2 46.6871  8.0609   1
   1  11   2 45.9866  7.9085   5
   1  11   2 39.6308  7.6386   7
   2  11   2 8.68318 6.05483   1
   2  11   2 10.6817  6.0947   5
   3  11   2 60.9489  8.0813   1
   3  11   2 44.1145  7.5601   5
   4  11   2 31.8189  6.3712   5
   4  11   2 29.4732  7.3360   4
   4  11   2 30.9196  6.7848   1
   5  11   2 2.92679 6.37522   4
   5  11   2 11.5933  6.8411   1
   5  11   2 23.4048  6.6799   5
  -6 -11  -2 62.7049  6.1714   2
   6  11   2 51.1198  7.6571   5
   6  11   2 50.0116  8.8083   4
   6  11   2 53.6827  7.3567   1
  -7 -11  -2 46.1089  6.8450   2
   7  11   2 33.7845  7.9199   4
   7  11   2 63.4578  7.8872   1
   7  11   2 48.8970  8.1668   5
   2  12   2 23.6479  7.8896   1
   2  12   2 10.7501  7.2819   5
   3  12   2 44.4122  8.6958   1
   3  12   2 37.9300  6.7005   5
   4  12   2 19.3306  7.1750   5
   4  12   2 32.1949  7.6311   1
   4  12   2 19.2729  7.6469   4
   5  12   2 21.3476  8.1324   5
   5  12   2 14.5902  7.6182   4
   5  12   2 13.9236  8.3751   1
   6  12   2 33.2901  7.5788   1
   5  11  -3 50.0435  7.6581   5
   5  11  -3 55.2121  7.8748   1
   4  11  -3 23.0137  5.1192   5
   4  11  -3 26.8446  6.5923   1
   3  11  -3 8.22869 5.92769   1
   3  11  -3 8.13747 5.91431   5
   2  11  -3 45.8912  7.9172   5
   2  11  -3 48.4008  8.3426   1
   1  11  -3 33.7231  8.0687   1
   1  11  -3 26.9968  7.5897   5
   7  10  -3 7.03303 5.23527   5
   7  10  -3 -2.4241  5.7542   1
   7  10  -3 -0.8716  6.7020   4
   6  10  -3 19.0715  5.8610   1
   6  10  -3 32.1814  7.7096   4
   6  10  -3 29.3126  6.9158   5
   5  10  -3 25.8591  5.8483   1
   5  10  -3 40.0988  6.5553   5
   4  10  -3 -3.2268  4.8513   5
   4  10  -3 -1.6726  5.2315   1
   3  10  -3 144.030  11.114   1
   3  10  -3 138.427  10.895   5
   2  10  -3 43.4876  7.3716   1
   1  10  -3 8.64350 5.83779   5
   1  10  -3 -1.4685  5.7144   1
   0  10  -3 55.9458  6.2913   8
   0  10  -3 65.9405  8.3085   1
   0  10  -3 70.3133  8.7443   5
  -1  10  -3 7.60294 4.87790   7
  -1  10  -3 9.06847 3.91835   8
  -1  10  -3 9.88441 6.41036   5
  -1  10  -3 11.8836  5.0265   1
  -2  10  -3 4.35216 6.41888   5
  -2  10  -3 1.51231 6.97202   7
  -2  10  -3 1.76966 4.77254   1
   8   9  -3 6.74092 4.64095   1
   8   9  -3 16.3160  6.7030   4
  -8  -9   3 7.77474 5.33169   2
   7   9  -3 30.4130  5.2758   1
   7   9  -3 28.0768  7.6744   4
   7   9  -3 22.8550  5.0044   5
  -7  -9   3 15.3822  5.6036   2
   6   9  -3 83.9563  7.5702   5
   6   9  -3 56.3792  8.1077   4
   6   9  -3 65.4260  8.7971   1
  -6  -9   3 74.5691  6.6862   2
   5   9  -3 29.8465  5.5962   5
   5   9  -3 41.9678  6.1337   1
   4   9  -3 126.342   9.683   1
   4   9  -3 113.731   9.167   5
   3   9  -3 214.502  14.184   1
   3   9  -3 248.274  15.953   5
   2   9  -3 219.830  13.829   5
   2   9  -3 233.586  15.952   1
   2   9  -3 239.754  11.845   8
   1   9  -3 318.920  16.108   8
   1   9  -3 324.002  20.406   5
   1   9  -3 296.574  22.002   1
   0   9  -3 87.4960  9.0971   7
   0   9  -3 100.593   8.848   1
   0   9  -3 92.3039  9.1735   5
   0   9  -3 100.706   6.822   8
  -1   9  -3 30.8116  6.5323   5
  -1   9  -3 37.2108  7.3306   7
  -2   9  -3 57.6339  8.1105   5
  -2   9  -3 62.9311  8.6041   7
  -3   9  -3 83.5335  9.3752   5
  -3   9  -3 75.4419  9.3557   1
  -3   9  -3 75.9980  9.9013   7
  -4   9  -3 -2.5871  6.0081   1
  -4   9  -3 8.85044 6.83171   5
   9   8  -3 16.7142  6.2231   4
   8   8  -3 2.32835 4.92396   4
   8   8  -3 9.97817 4.31917   1
   8   8  -3 0.49462 3.26144   5
  -8  -8   3 -5.0447  4.4766   2
   7   8  -3 61.2148  7.7414   4
   7   8  -3 78.5001  6.8895   1
   7   8  -3 56.3862  5.9585   5
  -7  -8   3 60.0857  6.5392   2
   6   8  -3 57.0206  6.1594   1
   6   8  -3 41.5407  6.5451   5
   6   8  -3 42.5910  6.6969   4
  -6  -8   3 46.6712  5.2548   2
   5   8  -3 11.4161  4.3844   5
   5   8  -3 16.5319  4.6109   1
  -5  -8   3 6.11279 3.56730   2
   4   8  -3 549.898  28.942   5
   4   8  -3 534.641  29.903   1
  -4  -8   3 600.625  30.179   2
   3   8  -3 361.156  19.732   1
   3   8  -3 372.874  18.652   5
   2   8  -3 11.9692  2.1496   8
   2   8  -3 15.9762  4.8265   5
   2   8  -3 14.9096  1.9432   8
   2   8  -3 9.78657 4.89743   1
   1   8  -3 62.3092  6.9602   1
   1   8  -3 50.2956  5.6557   5
   1   8  -3 47.9785  4.1918   8
   0   8  -3 125.573   9.674   5
   0   8  -3 123.962   7.806   8
   0   8  -3 136.588   9.450   7
   0   8  -3 120.299   8.947   1
  -1   8  -3 36.5090  6.3187   1
  -1   8  -3 34.3765  5.1149   5
  -1   8  -3 24.5961  6.3108   7
  -2   8  -3 282.177  17.058   1
  -2   8  -3 275.206  16.161   5
  -2   8  -3 286.513  18.078   7
  -3   8  -3 86.4253  8.9291   5
  -3   8  -3 83.7258  9.2555   7
  -3   8  -3 78.1754  8.6810   1
  -4   8  -3 17.5068  6.0989   1
  -4   8  -3 3.56451 6.87700   7
  -4   8  -3 15.7176  5.0111   5
  -5   8  -3 38.1105  7.8933   5
  -5   8  -3 55.7845  9.2455   7
  -5   8  -3 52.5706  8.0531   1
   9   7  -3 17.1403  5.8736   4
  -9  -7   3 14.6311  6.0389   2
   8   7  -3 23.5228  3.7643   5
   8   7  -3 30.6638  5.8792   4
   8   7  -3 19.8887  4.3860   1
  -8  -7   3 21.3681  5.5751   2
   7   7  -3 122.435  10.484   4
   7   7  -3 124.775   8.606   1
   7   7  -3 126.549   8.482   5
  -7  -7   3 124.170  10.141   2
   6   7  -3 95.2876  7.7697   1
   6   7  -3 101.324   8.462   5
   6   7  -3 100.121   8.767   4
  -6  -7   3 105.447   7.569   2
   5   7  -3 351.674  19.263   1
   5   7  -3 375.707  23.042   5
  -5  -7   3 329.308  17.359   2
   4   7  -3 236.430  12.954   5
   4   7  -3 221.230  14.351   1
  -4  -7   3 274.752  11.915   2
   3   7  -3 42.3663  5.4087   5
   3   7  -3 37.2420  5.5010   1
   2   7  -3 355.477  18.761   5
   2   7  -3 365.213  18.911   8
   2   7  -3 346.260  19.524   1
   1   7  -3 916.879  46.180   1
   1   7  -3 922.255  47.226   5
   1   7  -3 863.966  43.431   8
   0   7  -3 37.9116  5.8672   7
   0   7  -3 40.3486  5.7751   1
   0   7  -3 38.1101  4.1078   8
   0   7  -3 47.4995  5.9706   5
  -1   7  -3 351.182  23.598   7
  -1   7  -3 421.512  21.408   1
  -1   7  -3 380.923  18.817   5
  -2   7  -3 588.193  35.170   7
  -2   7  -3 469.502  26.714   5
  -2   7  -3 541.922  28.458   1
  -3   7  -3 63.7946  8.1348   7
  -3   7  -3 76.6078  7.7892   5
  -3   7  -3 75.7820  7.9531   1
  -4   7  -3 80.5363  8.1282   5
  -4   7  -3 59.4159  7.6046   1
  -4   7  -3 71.5570  8.8824   7
  -5   7  -3 78.6427  8.5441   5
  -5   7  -3 85.5966  9.5961   7
  -5   7  -3 63.8216  7.9014   1
  -6   7  -3 5.19186 7.05113   7
  -6   7  -3 5.22854 5.45662   1
  -6   7  -3 -3.5227  5.1208   5
   9   6  -3 -1.6919  4.9339   4
   8   6  -3 97.7932  8.1184   4
   8   6  -3 84.2156  6.4253   1
   8   6  -3 86.1807  6.5494   5
  -8  -6   3 86.6104  8.0786   2
   7   6  -3 270.847  16.879   4
   7   6  -3 275.223  16.681   1
   7   6  -3 272.532  15.692   5
  -7  -6   3 277.056  16.828   2
   6   6  -3 2.45350 3.47584   5
   6   6  -3 0.98305 2.93461   1
   6   6  -3 5.34888 3.09147   6
   6   6  -3 0.46198 3.83045   4
  -6  -6   3 -3.6306  4.4498   2
   5   6  -3 933.113  68.138   6
   5   6  -3 965.963  50.218   1
   5   6  -3 1003.29   54.47   4
   5   6  -3 1055.58   47.30   5
  -5  -6   3 1047.41   50.43   2
   4   6  -3 897.277  42.800   1
   4   6  -3 783.640  42.849   6
   4   6  -3 893.567  43.330   5
  -4  -6   3 815.208  39.526   2
   3   6  -3 71.0887  5.8380   1
   3   6  -3 54.3019  5.0432   5
   3   6  -3 58.0688  5.6072   6
  -3  -6   3 59.0877  4.2373   2
   2   6  -3 1283.58   62.27   1
   2   6  -3 1214.42   58.56   5
   2   6  -3 1230.66   57.96   8
   1   6  -3 826.898  38.992   5
   1   6  -3 765.286  38.102   1
   1   6  -3 799.260  41.838   8
   0   6  -3 111.067   8.297   1
   0   6  -3 118.467   8.281   7
   0   6  -3 134.655   8.711   5
   0   6  -3 131.108   7.217   8
  -1   6  -3 987.952  52.938   7
  -1   6  -3 1010.58   54.11   5
  -1   6  -3 979.865  46.599   1
  -2   6  -3 712.020  39.756   1
  -2   6  -3 699.169  34.802   7
  -2   6  -3 668.330  33.066   5
  -3   6  -3 57.2573  6.5181   1
  -3   6  -3 76.2239  6.9091   5
  -3   6  -3 63.5982  7.2602   7
  -4   6  -3 369.812  19.162   7
  -4   6  -3 355.955  20.284   1
  -4   6  -3 373.423  19.902   5
  -5   6  -3 116.662   9.243   1
  -5   6  -3 102.651  10.625   7
  -5   6  -3 107.404   9.575   5
  -6   6  -3 22.7965  5.8264   1
  -6   6  -3 22.3667  6.0068   5
  -6   6  -3 31.7819  7.5328   7
  -7   6  -3 57.0905  8.8066   7
  -7   6  -3 70.2362  7.5564   1
  -7   6  -3 51.7608  8.2975   5
  10   5  -3 3.27331 4.14335   4
   9   5  -3 31.4054  6.3483   4
   8   5  -3 166.887  10.058   4
   8   5  -3 130.993   8.582   1
  -8  -5   3 134.259  10.196   2
   7   5  -3 108.098   7.247   5
   7   5  -3 116.926   7.224   1
   7   5  -3 109.258   9.761   4
  -7  -5   3 121.086   8.580   2
  -7  -5   3 102.582  10.107   1
  -7  -5   3 122.794   6.960   6
   6   5  -3 27.7898  5.3252   4
   6   5  -3 29.7316  4.1811   5
   6   5  -3 30.5594  4.3199   1
  -6  -5   3 28.6959  4.2906   1
  -6  -5   3 32.5817  4.1876   2
  -6  -5   3 27.2219  2.3069   8
  -6  -5   3 28.5674  3.8517   6
   5   5  -3 243.044  12.526   6
   5   5  -3 249.822  12.750   1
   5   5  -3 240.270  15.163   4
  -5  -5   3 292.117  13.551   6
  -5  -5   3 258.104  12.869   2
  -5  -5   3 247.244  14.150   1
  -5  -5   3 273.871  10.589   8
   4   5  -3 122.790   9.916   1
   4   5  -3 137.619   7.780   6
  -4  -5   3 128.802   7.748   6
  -4  -5   3 145.005   7.943   1
  -4  -5   3 125.933   7.376   2
   3   5  -3 939.890  47.145   1
   3   5  -3 961.828  49.232   6
  -3  -5   3 904.227  40.232   2
  -3  -5   3 888.828  63.164   7
  -3  -5   3 898.219  49.140   1
  -3  -5   3 837.174  48.728   6
   2   5  -3 1667.42   88.56   5
   2   5  -3 1838.02   90.48   1
   2   5  -3 1739.68  101.66   6
   2   5  -3 1793.91   79.86   8
  -2  -5   3 1800.48  101.23   7
  -2  -5   3 1745.84   98.01   1
   1   5  -3 360.211  17.164   8
   1   5  -3 355.073  17.562   1
   1   5  -3 368.600  17.003   5
   1   5  -3 338.941  18.812   6
  -1  -5   3 326.041  16.288   7
  -1  -5   3 300.905  16.145   1
   0   5  -3 173.533   9.892   7
   0   5  -3 176.053   9.444   5
   0   5  -3 152.466  10.216   1
   0   5  -3 157.838   8.397   8
   0   5  -3 142.259   9.390   6
   0  -5   3 179.066  10.753   1
   0  -5   3 194.055  12.226   7
  -1   5  -3 1750.42   96.17   6
  -1   5  -3 1858.42   95.45   7
  -1   5  -3 1909.50   86.11   1
  -1   5  -3 1899.68   85.17   5
   1  -5   3 1808.38   99.78   7
   1  -5   3 1800.76   94.70   1
  -2   5  -3 63.4481  5.8727   1
  -2   5  -3 62.4310  6.0849   7
  -2   5  -3 57.8968  5.7679   5
  -3   5  -3 651.285  33.116   5
  -3   5  -3 693.004  35.848   7
  -3   5  -3 594.583  32.421   1
  -4   5  -3 583.140  32.807   5
  -4   5  -3 591.248  32.977   1
  -4   5  -3 654.904  31.920   7
  -5   5  -3 15.8930  4.4797   5
  -5   5  -3 18.1215  5.6155   7
  -6   5  -3 102.639   9.223   7
  -6   5  -3 86.4622  7.6892   1
  -6   5  -3 86.0419  7.6256   5
  -7   5  -3 211.677  15.091   7
  -7   5  -3 217.891  15.626   5
  -7   5  -3 204.577  12.986   1
  -8   5  -3 10.8623  5.4089   7
 -10  -4   3 -4.9855  5.7345   3
 -10  -4   3 4.89388 4.77448   7
   9   4  -3 114.750   8.679   4
  -9  -4   3 106.697  10.203   7
   8   4  -3 95.0837  6.3426   1
   8   4  -3 90.4633  7.2567   4
   7   4  -3 14.0977  4.2039   4
   7   4  -3 13.4223  3.1671   5
  -7  -4   3 13.6358  2.6792   6
  -7  -4   3 8.23563 4.58332   2
  -7  -4   3 11.6565  3.2307   1
  -7  -4   3 10.3256  3.0582   8
   6   4  -3 638.310  30.822   1
   6   4  -3 684.881  34.147   4
   6   4  -3 664.283  32.867   5
  -6  -4   3 668.600  35.803   6
  -6  -4   3 610.587  30.986   2
  -6  -4   3 627.158  30.996   1
  -6  -4   3 622.282  31.225   8
   5   4  -3 127.718   7.236   1
  -5  -4   3 105.367   7.180   1
  -5  -4   3 93.3594  5.2908   8
  -5  -4   3 101.143   6.262   6
  -5  -4   3 93.2276  6.7150   2
   4   4  -3 14.3265  2.9501   2
   4   4  -3 18.3613  4.1576   4
   4   4  -3 14.6364  3.1143   6
  -4  -4   3 12.8860  1.6652   8
  -4  -4   3 20.4579  3.2828   2
  -4  -4   3 16.1127  3.4009   6
  -4  -4   3 13.1841  3.3342   1
   3   4  -3 2319.71  109.77   1
   3   4  -3 2379.74  103.56   2
   3   4  -3 2408.00  120.06   6
  -3  -4   3 2468.16  112.11   8
  -3  -4   3 2592.46  131.25   6
  -3  -4   3 2558.37  113.54   2
  -3  -4   3 2370.95  110.59   1
   2   4  -3 732.487  34.188   8
   2   4  -3 716.592  35.588   2
   2   4  -3 709.120  35.120   1
   2   4  -3 741.885  35.233   6
  -2  -4   3 773.641  40.135   6
  -2  -4   3 761.296  39.870   7
  -2  -4   3 750.983  49.482   1
   1   4  -3 481.536  25.831   1
   1   4  -3 483.585  24.544   6
   1   4  -3 497.700  24.801   8
  -1  -4   3 527.885  24.637   7
  -1  -4   3 504.545  23.747   6
  -1  -4   3 481.777  33.197   1
   0   4  -3 2639.93  132.35   8
   0   4  -3 2507.53  130.66   5
   0   4  -3 2471.28  118.57   1
   0   4  -3 2601.56  122.99   6
   0   4  -3 2566.81  122.87   7
   0  -4   3 2396.62  138.07   1
   0  -4   3 2573.41  117.29   7
  -1   4  -3 1449.21   65.55   1
  -1   4  -3 1430.02   68.21   5
  -1   4  -3 1371.24   65.97   6
  -1   4  -3 1375.37   70.35   7
   1  -4   3 1207.14   65.48   1
   1  -4   3 1319.34   66.40   7
  -2   4  -3 448.594  22.264   5
  -2   4  -3 408.234  22.961   7
  -2   4  -3 434.818  22.606   6
  -2   4  -3 484.325  23.721   1
   2  -4   3 414.599  25.384   7
   2  -4   3 441.729  24.920   1
  -3   4  -3 1507.18   85.05   6
  -3   4  -3 1669.52   78.67   5
  -3   4  -3 1663.97   74.52   1
  -3   4  -3 1681.52   78.99   7
   3  -4   3 1509.87   96.02   7
   3  -4   3 1734.99   80.23   1
  -4   4  -3 609.389  34.070   7
  -4   4  -3 636.778  37.247   1
  -4   4  -3 616.558  32.048   5
   4  -4   3 692.934  36.254   1
  -5   4  -3 121.023   8.437   5
  -5   4  -3 139.530   8.138   1
  -5   4  -3 97.4392  8.7527   7
  -6   4  -3 87.4719  8.3949   7
  -6   4  -3 76.8468  6.7872   5
  -6   4  -3 78.1752  6.6230   1
  -7   4  -3 80.3652  7.6899   5
  -7   4  -3 93.1912  7.6106   1
  -7   4  -3 81.3162  8.9245   7
  -8   4  -3 88.0019 10.0314   7
 -10  -3   3 10.2341  6.0595   3
  -9  -3   3 51.5022  7.1095   3
  -9  -3   3 39.3764  6.4484   7
   8   3  -3 129.107   8.147   4
   8   3  -3 108.449   7.337   1
  -8  -3   3 127.617  10.031   7
   7   3  -3 228.994  13.036   1
   7   3  -3 233.716  14.690   5
   7   3  -3 246.094  13.825   1
   7   3  -3 233.110  12.984   4
  -7  -3   3 226.288  12.996   6
  -7  -3   3 208.232  12.680   8
   6   3  -3 499.041  27.032   5
   6   3  -3 521.173  25.461   1
   6   3  -3 520.761  26.274   4
   6   3  -3 506.316  29.580   1
  -6  -3   3 522.000  27.633   8
  -6  -3   3 477.564  23.748   2
  -6  -3   3 519.812  27.005   6
  -6  -3   3 499.039  30.909   1
   5   3  -3 431.097  22.533   5
   5   3  -3 451.502  22.806   4
   5   3  -3 459.406  21.832   1
  -5  -3   3 430.839  27.056   8
  -5  -3   3 421.474  23.696   6
  -5  -3   3 473.568  19.952   2
  -5  -3   3 450.384  22.560   1
   4   3  -3 1880.68  121.41   4
   4   3  -3 1799.43   87.85   2
   4   3  -3 1915.15   99.98   1
   4   3  -3 1818.77   93.41   5
  -4  -3   3 1912.63  105.16   1
  -4  -3   3 1886.63   94.44   8
  -4  -3   3 1924.39   87.77   2
  -4  -3   3 1915.97  107.93   6
   3   3  -3 2598.38  154.13   6
   3   3  -3 2693.68  146.82   1
   3   3  -3 2686.28  123.43   2
  -3  -3   3 3023.79  137.96   1
  -3  -3   3 2975.76  128.72   8
  -3  -3   3 2937.57  143.47   6
   2   3  -3 1483.70   71.61   6
   2   3  -3 1458.24   68.23   2
   2   3  -3 1355.47   74.66   1
   2   3  -3 1552.05   82.91   8
  -2  -3   3 1499.14   80.81   6
  -2  -3   3 1446.70   64.08   8
  -2  -3   3 1473.50   71.97   1
   1   3  -3 937.865  47.720   6
   1   3  -3 976.113  50.730   1
   1   3  -3 947.322  43.701   2
   1   3  -3 974.259  48.021   8
  -1  -3   3 1005.05   48.04   7
  -1  -3   3 989.614  50.561   8
  -1  -3   3 1015.00   56.42   1
  -1  -3   3 1029.75   51.16   6
   0   3  -3 2779.07  130.13   6
   0   3  -3 2898.04  138.10   8
   0   3  -3 2852.52  127.50   7
   0   3  -3 2892.93  126.69   2
   0   3  -3 2787.15  141.28   1
   0  -3   3 2703.94  129.03   7
   0  -3   3 2691.48  128.35   6
   0  -3   3 2595.66  130.37   1
  -1   3  -3 198.743  10.005   8
  -1   3  -3 184.660  10.279   7
  -1   3  -3 185.729  10.443   6
  -1   3  -3 176.137  10.035   5
  -1   3  -3 200.112   9.932   1
   1  -3   3 243.635  12.434   7
   1  -3   3 239.516  10.795   1
  -2   3  -3 1053.68   51.83   2
  -2   3  -3 1097.49   50.33   1
  -2   3  -3 1075.67   48.74   5
  -2   3  -3 1129.58   57.48   7
  -2   3  -3 1024.32   51.01   6
   2  -3   3 1080.89   52.95   7
   2  -3   3 1069.72   60.73   1
  -3   3  -3 1928.23   85.79   5
  -3   3  -3 1905.91  124.28   6
  -3   3  -3 1867.25   79.57   2
  -3   3  -3 1944.93   95.41   7
  -3   3  -3 1901.96   92.64   1
   3  -3   3 1913.34   94.35   7
   3  -3   3 1897.76  112.42   1
  -4   3  -3 80.2141  4.6038   2
  -4   3  -3 88.7946  6.0667   5
  -4   3  -3 72.7411  6.3396   7
  -4   3  -3 74.4953  5.6926   6
  -4   3  -3 81.0305  5.9358   1
   4  -3   3 77.6317  6.7213   1
   4  -3   3 84.8875  6.3255   7
  -5   3  -3 43.0323  4.4820   5
  -5   3  -3 38.8159  3.7542   2
  -5   3  -3 45.1961  4.4556   1
  -5   3  -3 43.5293  4.6243   6
  -5   3  -3 43.8894  5.7776   7
   5  -3   3 39.6905  4.1507   1
  -6   3  -3 1509.36   65.53   2
  -6   3  -3 1388.67   74.92   6
  -6   3  -3 1447.17   74.75   1
  -6   3  -3 1413.40   98.19   7
  -6   3  -3 1490.45   68.03   5
   6  -3   3 1428.28   86.73   1
  -7   3  -3 10.4082  5.5698   7
  -7   3  -3 27.7804  5.2181   1
  -7   3  -3 18.2505  3.6883   2
  -7   3  -3 18.4700  4.4669   5
   7  -3   3 23.9180  4.0452   1
  -8   3  -3 135.755  11.730   7
  -8   3  -3 102.971   8.139   5
  -9   3  -3 40.4520  8.3721   7
 -10  -2   3 15.3291  6.0787   3
  -9  -2   3 45.8244  6.6285   3
  -9  -2   3 46.7254  7.8224   7
   8   2  -3 11.9796  2.9627   1
  -8  -2   3 10.4938  5.5094   7
  -8  -2   3 13.4322  4.5996   3
  -8  -2   3 7.83573 2.08014   6
   7   2  -3 293.439  19.671   5
   7   2  -3 328.709  15.053   1
   7   2  -3 303.511  18.541   1
  -7  -2   3 285.192  17.347   6
  -7  -2   3 291.657  17.532   7
  -7  -2   3 247.774  15.336   8
  -7  -2   3 290.952  15.200   3
   6   2  -3 640.036  35.616   4
   6   2  -3 658.265  33.359   1
   6   2  -3 682.129  32.265   1
   6   2  -3 649.437  37.268   5
  -6  -2   3 645.046  35.924   8
  -6  -2   3 683.536  35.973   6
  -6  -2   3 673.082  31.243   7
   5   2  -3 133.110   7.095   1
   5   2  -3 123.296   7.077   1
   5   2  -3 129.131   6.970   4
   5   2  -3 137.874   7.778   5
  -5  -2   3 117.518   7.404   8
  -5  -2   3 122.683   6.982   6
   4   2  -3 1189.90   56.04   4
   4   2  -3 1132.86   57.83   1
   4   2  -3 1159.80   57.91   5
   4   2  -3 1172.17   61.63   2
  -4  -2   3 1230.11   62.61   1
  -4  -2   3 1256.14   71.45   6
  -4  -2   3 1183.74   65.68   8
   3   2  -3 1297.11   63.51   2
   3   2  -3 1318.64   66.41   1
   3   2  -3 1291.81   69.88   5
   3   2  -3 1305.53   81.11   4
  -3  -2   3 1345.93   72.51   1
  -3  -2   3 1304.51   64.00   8
  -3  -2   3 1433.39   67.84   6
   2   2  -3 364.554  17.103   8
   2   2  -3 331.683  25.041   6
   2   2  -3 337.050  17.967   2
   2   2  -3 360.467  20.910   1
  -2  -2   3 376.783  19.444   6
  -2  -2   3 382.085  17.923   8
  -2  -2   3 353.941  18.653   1
   1   2  -3 9999.99  466.65   1
  -1  -2   3 9613.90  442.94   1
   0   2  -3 2956.09  139.04   6
   0   2  -3 2983.97  161.24   8
   0   2  -3 2871.71  155.69   1
   0  -2   3 2947.56  158.83   6
   0  -2   3 2962.00  135.89   8
   0  -2   3 2856.41  158.21   1
   0  -2   3 3091.22  157.09   7
  -1   2  -3 32.5044  3.6981   6
  -1   2  -3 38.0555  3.7116   7
  -1   2  -3 35.6713  3.3257   8
  -1   2  -3 34.4605  3.6056   1
   1  -2   3 46.6111  3.4814   7
   1  -2   3 43.3601  3.9256   6
   1  -2   3 42.0746  3.5918   1
  -2   2  -3 2358.50  119.29   8
  -2   2  -3 2185.17  115.06   6
  -2   2  -3 2285.97  112.41   5
  -2   2  -3 2405.50  123.41   7
  -2   2  -3 2357.69  106.80   1
   2  -2   3 2385.55  118.69   1
   2  -2   3 2368.01  113.06   6
   2  -2   3 2327.06  114.50   7
  -3   2  -3 1396.89   76.91   6
  -3   2  -3 1385.84   62.98   2
  -3   2  -3 1383.16   71.70   7
  -3   2  -3 1409.07   70.31   1
  -3   2  -3 1432.97   72.31   5
   3  -2   3 1498.41   67.43   3
   3  -2   3 1459.02   71.60   1
   3  -2   3 1479.95   66.13   7
  -4   2  -3 340.460  20.784   1
  -4   2  -3 336.961  16.423   6
  -4   2  -3 329.973  15.653   5
  -4   2  -3 339.068  15.866   2
  -4   2  -3 318.305  16.852   7
   4  -2   3 317.521  19.468   3
   4  -2   3 306.700  15.902   7
   4  -2   3 317.732  19.406   1
  -5   2  -3 1031.01   51.25   6
  -5   2  -3 1058.96   56.86   1
  -5   2  -3 1081.88   47.89   2
  -5   2  -3 1120.63   50.18   7
  -5   2  -3 1100.67   57.64   5
   5  -2   3 1112.71   50.40   7
   5  -2   3 1080.07   54.79   1
  -6   2  -3 707.630  33.432   5
  -6   2  -3 665.102  32.653   6
  -6   2  -3 713.458  34.824   7
  -6   2  -3 720.462  34.585   2
  -6   2  -3 721.203  41.436   1
   6  -2   3 665.733  36.820   1
  -7   2  -3 75.1825  5.4417   1
  -7   2  -3 71.8577  5.8079   6
  -7   2  -3 62.4857  5.6136   2
  -7   2  -3 78.3665  7.4463   7
  -7   2  -3 66.7302  5.4758   5
   7  -2   3 69.2543  4.9919   1
  -8   2  -3 125.140   7.645   1
  -8   2  -3 142.476  11.876   2
  -8   2  -3 146.035  10.722   7
  -8   2  -3 138.060   8.197   5
  -9   2  -3 46.2104  6.0127   2
  -9   2  -3 48.1860  7.8272   7
 -10  -1   3 7.21877 6.91459   3
  -9  -1   3 14.8595  5.2661   3
  -9  -1   3 22.4492  5.2862   7
   8   1  -3 154.608   8.920   1
  -8  -1   3 145.794  10.885   3
  -8  -1   3 168.140  11.550   7
  -8  -1   3 134.370   9.180   6
   7   1  -3 471.460  28.831   1
   7   1  -3 511.195  25.227   1
   7   1  -3 457.423  27.370   5
  -7  -1   3 494.495  22.828   6
  -7  -1   3 497.609  24.762   4
  -7  -1   3 452.645  28.729   7
  -7  -1   3 495.257  27.267   3
   6   1  -3 270.755  14.813   1
   6   1  -3 258.838  12.111   1
   6   1  -3 251.593  12.433   5
  -6  -1   3 238.638  13.569   6
  -6  -1   3 217.626  15.584   8
  -6  -1   3 237.510  12.322   3
  -6  -1   3 262.274  14.541   7
   5   1  -3 700.864  46.155   1
   5   1  -3 714.742  34.943   4
   5   1  -3 683.779  34.693   5
   5   1  -3 749.033  37.139   1
  -5  -1   3 684.159  33.007   8
  -5  -1   3 687.969  32.766   7
   4   1  -3 1672.31   83.93   4
   4   1  -3 1682.15   96.41   1
   4   1  -3 1699.70   71.99   2
   4   1  -3 1602.59   92.90   1
   4   1  -3 1678.08   95.23   5
  -4  -1   3 1649.81   81.77   8
  -4  -1   3 1628.39   84.04   6
   3   1  -3 1835.41   88.36   5
   3   1  -3 1900.16   96.18   4
   3   1  -3 1869.10   87.60   2
   3   1  -3 1810.47   96.93   1
  -3  -1   3 1736.17   83.74   1
  -3  -1   3 1838.68   98.38   6
  -3  -1   3 1797.45   86.69   8
   2   1  -3 1966.65  106.47   8
   2   1  -3 1954.07  100.17   1
   2   1  -3 1879.60   89.98   2
   2   1  -3 1963.96  112.14   5
  -2  -1   3 1804.92  102.98   8
  -2  -1   3 1753.39   88.62   6
  -2  -1   3 1848.09   89.02   1
  -1  -1   3 8491.60  419.94   1
   0   1  -3 137.777   7.423   8
   0   1  -3 139.425   7.641   1
   0   1  -3 135.801   8.228   6
   0  -1   3 151.026   8.327   8
   0  -1   3 146.168   7.740   6
   0  -1   3 154.518   7.873   1
  -1   1  -3 2389.22  128.39   6
  -1   1  -3 2558.26  155.18   7
  -1   1  -3 2655.02  126.57   8
  -1   1  -3 2570.26  134.70   1
   1  -1   3 2755.63  137.99   8
   1  -1   3 2852.12  148.22   6
   1  -1   3 2916.98  142.12   7
   1  -1   3 2820.76  141.18   1
  -2   1  -3 5816.81  281.02   1
  -2   1  -3 5452.53  242.72   7
  -2   1  -3 5493.07  277.40   6
  -2   1  -3 5769.83  299.57   8
   2  -1   3 5485.47  297.85   6
   2  -1   3 5355.80  270.50   3
   2  -1   3 5456.66  288.90   7
   2  -1   3 5260.40  265.27   1
  -3   1  -3 112.565   6.293   1
  -3   1  -3 110.308   6.485   8
  -3   1  -3 99.0533  6.5971   5
  -3   1  -3 103.142   6.535   7
  -3   1  -3 109.786   6.660   6
   3  -1   3 134.440   6.799   1
   3  -1   3 142.263   7.598   6
  -4   1  -3 1101.46   63.11   6
  -4   1  -3 1123.68   59.13   5
  -4   1  -3 1121.94   52.44   2
  -4   1  -3 1165.23   58.32   1
  -4   1  -3 1143.23   61.99   7
   4  -1   3 1089.70   51.72   7
   4  -1   3 1039.21   49.59   1
   4  -1   3 1115.55   51.28   3
  -5   1  -3 1709.71   84.43   6
  -5   1  -3 1759.42   95.20   1
  -5   1  -3 1822.93   79.32   2
  -5   1  -3 1742.46   88.72   7
  -5   1  -3 1796.12   89.81   5
   5  -1   3 1659.98   77.50   7
   5  -1   3 1691.67   83.59   1
   5  -1   3 1684.76   97.78   3
  -6   1  -3 82.1803  4.9964   5
  -6   1  -3 75.2255  5.0605   6
  -6   1  -3 83.7071  4.8862   1
  -6   1  -3 63.1463  6.1701   7
  -6   1  -3 72.0310  5.4230   2
   6  -1   3 74.4306  4.4403   1
   6  -1   3 63.0411  6.1467   7
  -7   1  -3 138.053   7.747   5
  -7   1  -3 129.502   7.728   6
  -7   1  -3 157.289   9.712   7
  -7   1  -3 136.407   7.999   1
  -7   1  -3 129.600   8.285   2
   7  -1   3 152.864   7.595   1
  -8   1  -3 161.767  10.350   2
  -8   1  -3 195.714  10.004   1
  -8   1  -3 194.328  11.345   5
  -9   1  -3 5.24166 5.32949   7
  -9   1  -3 5.37232 5.33754   2
 -10   1  -3 21.2801  7.1310   7
  -9   0   3 -0.1767  4.6132   3
  -9   0   3 4.87863 5.98405   7
   8   0  -3 123.784   8.888   1
  -8   0   3 120.002  10.154   7
  -8   0   3 119.256   9.067   3
   7   0  -3 268.297  17.987   1
   7   0  -3 250.182  14.473   5
   7   0  -3 218.179  17.689   1
  -7   0   3 251.881  13.809   3
  -7   0   3 246.769  17.268   7
  -7   0   3 261.765  13.605   5
  -7   0   3 221.843  15.784   4
   6   0  -3 106.721   7.122   5
   6   0  -3 100.581   6.432   1
   6   0  -3 104.460   6.822   1
  -6   0   3 117.373   8.321   7
  -6   0   3 101.487   6.266   4
  -6   0   3 102.705   7.220   5
  -6   0   3 104.727   7.297   3
   5   0  -3 506.838  22.928   1
   5   0  -3 479.397  25.627   5
   5   0  -3 507.304  28.549   1
  -5   0   3 510.605  25.024   3
  -5   0   3 502.214  26.733   4
  -5   0   3 494.334  27.014   7
  -5   0   3 526.406  28.123   5
  -5   0   3 529.324  25.876   8
   4   0  -3 552.468  24.857   2
   4   0  -3 570.478  27.020   5
   4   0  -3 557.084  32.604   1
   4   0  -3 563.556  26.778   1
  -4   0   3 587.773  30.120   5
  -4   0   3 573.386  30.032   7
  -4   0   3 581.133  26.059   3
  -4   0   3 556.123  29.764   8
  -4   0   3 605.309  28.605   4
   3   0  -3 34.5874  3.5048   5
   3   0  -3 40.9567  4.0022   1
   3   0  -3 43.0539  3.9287   1
   3   0  -3 36.9015  3.9193   2
  -3   0   3 40.2006  4.1500   8
  -3   0   3 44.5417  3.8212   5
  -3   0   3 36.4619  4.0741   7
   2   0  -3 8742.98  395.93   8
   2   0  -3 8207.31  385.15   1
   2   0  -3 8073.27  425.95   1
   2   0  -3 8053.17  412.40   5
  -2   0   3 8584.24  417.55   7
  -2   0   3 8256.38  373.08   8
  -2   0   3 8690.60  421.64   5
   1   0  -3 2763.65  154.12   8
   1   0  -3 2660.23  148.13   1
   1   0  -3 2745.09  136.66   5
  -1   0   3 2771.30  146.53   5
  -1   0   3 2699.88  157.11   1
  -1   0   3 2648.00  143.28   8
   0   0  -3 2139.36  113.76   8
   0   0  -3 2046.47  112.14   5
   0   0  -3 1994.83   98.11   1
   0   0   3 2125.51  102.90   8
   0   0   3 2078.55  102.22   1
   0   0   3 2106.48   99.11   6
  -1   0  -3 5868.29  311.72   6
   1   0   3 5898.12  285.66   1
   1   0   3 5855.38  276.96   8
  -2   0  -3 2264.06  104.20   3
  -2   0  -3 2292.18  109.51   1
  -2   0  -3 2284.92  132.80   8
  -2   0  -3 2275.57  105.73   7
  -2   0  -3 2289.46  121.90   6
   2   0   3 2176.64  117.09   8
   2   0   3 2231.68  104.36   3
   2   0   3 2238.30  122.52   6
   2   0   3 2330.68  126.37   1
   2   0   3 2288.01  111.99   7
  -3   0  -3 1025.93   44.15   1
  -3   0  -3 974.732  44.831   3
  -3   0  -3 1018.37   60.01   7
  -3   0  -3 1001.80   49.18   8
  -3   0  -3 996.909  52.465   6
   3   0   3 983.473  49.322   1
   3   0   3 1068.10   53.57   7
   3   0   3 1036.59   51.42   3
   3   0   3 1016.18   53.53   6
  -4   0  -3 3192.27  156.32   7
  -4   0  -3 3307.17  154.59   5
  -4   0  -3 3164.13  148.85   8
  -4   0  -3 3257.77  185.17   6
  -4   0  -3 3250.37  162.86   1
  -4   0  -3 3130.70  159.45   3
  -4   0  -3 3258.62  148.80   4
   4   0   3 3180.20  156.15   7
   4   0   3 3247.59  172.39   3
   4   0   3 3338.20  158.51   1
  -5   0  -3 1712.95   85.69   5
  -5   0  -3 1699.36   91.90   6
  -5   0  -3 1701.76   91.77   2
  -5   0  -3 1768.03   78.17   7
  -5   0  -3 1679.07   88.99   4
  -5   0  -3 1706.16   89.62   3
  -5   0  -3 1716.59   94.23   1
   5   0   3 1632.63   85.74   7
   5   0   3 1668.61   82.20   1
  -6   0  -3 194.712  10.655   3
  -6   0  -3 187.440   9.679   1
  -6   0  -3 166.042   9.526   2
  -6   0  -3 169.594   9.840   7
  -6   0  -3 174.492  11.685   6
  -6   0  -3 194.195   9.700   5
   6   0   3 194.601   8.873   1
  -7   0  -3 347.771  17.810   6
  -7   0  -3 361.674  17.561   2
  -7   0  -3 351.628  17.917   5
  -7   0  -3 345.082  17.356   7
  -7   0  -3 344.968  18.072   3
  -7   0  -3 357.606  17.138   1
   7   0   3 355.873  15.807   1
  -8   0  -3 172.641  10.298   2
  -8   0  -3 177.690  11.424   7
  -8   0  -3 213.679  12.442   3
  -8   0  -3 193.618   8.968   5
   8   0   3 192.431   9.191   1
  -9   0  -3 14.3921  4.7497   2
  -9   0  -3 12.6050  5.4214   7
  -9   0  -3 13.0752  5.6759   3
 -10   0  -3 73.8684  7.9418   2
 -10   0  -3 72.3781  9.1469   8
 -10   0  -3 67.6200  8.8362   7
  -9   1   3 4.73133 6.76603   7
   8  -1  -3 115.070   8.077   1
  -8   1   3 132.031   8.611   5
   7  -1  -3 70.0720  5.9506   1
  -7   1   3 76.5633  8.0835   7
  -7   1   3 78.1964  6.4970   5
  -7   1   3 64.9645  6.3228   3
   6  -1  -3 521.126  28.945   1
   6  -1  -3 537.481  29.527   1
   6  -1  -3 532.671  29.070   5
  -6   1   3 494.756  28.338   5
  -6   1   3 520.009  25.981   3
  -6   1   3 476.345  30.793   4
  -6   1   3 576.834  27.878   7
   5  -1  -3 656.597  31.078   1
   5  -1  -3 638.681  32.182   5
   5  -1  -3 603.050  39.871   1
  -5   1   3 574.422  28.933   7
  -5   1   3 534.862  27.603   3
  -5   1   3 580.718  28.070   4
  -5   1   3 598.886  29.185   5
   4  -1  -3 421.274  21.930   2
   4  -1  -3 429.391  20.004   1
   4  -1  -3 395.209  21.517   5
   4  -1  -3 412.751  26.329   1
  -4   1   3 370.571  19.964   4
  -4   1   3 386.261  25.216   8
  -4   1   3 412.030  22.083   7
  -4   1   3 396.569  19.387   5
  -4   1   3 393.403  17.850   3
   3  -1  -3 1090.00   61.82   1
   3  -1  -3 1106.35   61.31   5
   3  -1  -3 1067.46   49.75   2
  -3   1   3 1104.45   55.65   4
  -3   1   3 1148.30   51.98   7
  -3   1   3 1143.37   56.54   1
  -3   1   3 1120.07   51.98   3
  -3   1   3 1114.37   55.83   8
  -3   1   3 1152.60   65.93   5
   2  -1  -3 2305.46  135.76   5
   2  -1  -3 2348.47  135.02   1
  -2   1   3 2421.37  140.13   1
  -2   1   3 2455.41  125.71   5
  -2   1   3 2425.93  109.26   4
  -2   1   3 2430.68  110.98   7
  -2   1   3 2429.87  119.65   8
  -2   1   3 2377.88  109.00   3
   1  -1  -3 1200.95   67.95   1
   1  -1  -3 1212.38   56.90   7
   1  -1  -3 1191.61   72.74   8
   1  -1  -3 1208.75   61.79   5
  -1   1   3 1314.19   69.91   8
  -1   1   3 1395.16   61.52   1
  -1   1   3 1336.81   69.87   7
  -1   1   3 1330.26   68.97   5
   0  -1  -3 4792.41  238.42   5
   0  -1  -3 4697.31  245.22   1
   0  -1  -3 4837.19  247.24   8
   0  -1  -3 4649.93  243.32   1
   0  -1  -3 4769.23  215.94   7
   0   1   3 4886.99  238.22   5
   0   1   3 4801.90  268.62   8
  -1  -1  -3 4174.51  194.91   5
  -1  -1  -3 4275.01  218.22   1
   1   1   3 3690.83  192.77   8
   1   1   3 3824.53  190.89   5
  -2  -1  -3 337.099  20.591   3
  -2  -1  -3 357.062  16.986   1
  -2  -1  -3 317.518  16.852   5
  -2  -1  -3 325.389  17.500   8
  -2  -1  -3 342.167  23.497   1
  -2  -1  -3 330.382  18.806   7
  -2  -1  -3 342.794  19.896   4
   2   1   3 417.906  21.418   6
   2   1   3 420.877  21.845   1
  -3  -1  -3 399.869  17.572   1
  -3  -1  -3 394.773  25.934   7
  -3  -1  -3 372.758  20.710   3
  -3  -1  -3 413.012  20.918   8
  -3  -1  -3 373.007  18.541   4
  -3  -1  -3 397.619  21.745   5
   3   1   3 406.504  17.257   8
   3   1   3 374.082  20.008   6
   3   1   3 403.663  18.815   1
  -4  -1  -3 5135.33  230.10   5
  -4  -1  -3 5069.28  263.30   4
  -4  -1  -3 5205.71  236.12   8
  -4  -1  -3 5045.18  230.68   3
  -4  -1  -3 5018.84  251.59   7
  -5  -1  -3 283.520  16.890   8
  -5  -1  -3 273.741  12.796   5
  -5  -1  -3 276.601  11.848   1
  -5  -1  -3 264.302  14.257   7
  -5  -1  -3 290.695  15.067   3
  -5  -1  -3 267.434  12.662   5
  -5  -1  -3 276.387  14.820   6
  -5  -1  -3 260.138  14.326   4
   5   1   3 284.695  12.559   1
  -6  -1  -3 124.072   5.028   5
  -6  -1  -3 131.730   7.467   7
  -6  -1  -3 111.580   5.017   5
  -6  -1  -3 128.371   7.993   3
  -6  -1  -3 104.773   7.584   4
  -6  -1  -3 118.414   5.833   6
  -6  -1  -3 114.834   7.610   8
  -6  -1  -3 116.588   7.243   2
  -7  -1  -3 434.880  21.164   2
  -7  -1  -3 402.508  19.848   3
  -7  -1  -3 376.232  23.020   7
  -7  -1  -3 435.733  22.194   8
  -8  -1  -3 27.4130  5.6696   3
  -8  -1  -3 26.3717  4.9274   2
  -8  -1  -3 24.9251  5.1898   8
  -8  -1  -3 19.8627  4.9003   7
  -9  -1  -3 120.095   9.278   7
  -9  -1  -3 105.919   9.016   8
  -9  -1  -3 94.5604  8.4890   2
  -9  -1  -3 119.309   9.820   3
 -10  -1  -3 63.3545  8.2618   8
 -10  -1  -3 72.7352  9.0279   3
 -10  -1  -3 77.6371  8.5816   7
 -10  -1  -3 67.5119  7.6983   2
 -11  -1  -3 9.88444 5.92085   2
 -11  -1  -3 2.90602 5.99480   8
 -11  -1  -3 0.53177 6.40030   7
 -11  -1  -3 7.47876 6.78438   3
  -9   2   3 21.0337  6.7683   7
   8  -2  -3 55.7851  6.2841   1
  -8   2   3 71.3409  6.5735   5
  -8   2   3 59.9621  8.3894   7
   7  -2  -3 4.61821 3.31428   1
  -7   2   3 1.13030 3.63815   7
  -7   2   3 5.14772 5.20051   5
  -6   2   3 429.472  26.502   7
  -6   2   3 424.928  20.674   4
  -6   2   3 434.684  22.060   5
  -6   2   3 474.343  24.090   1
   5  -2  -3 1256.40   78.40   5
   5  -2  -3 1264.58   67.96   1
  -5   2   3 1297.40   61.21   1
  -5   2   3 1301.61   63.59   5
  -5   2   3 1251.71   63.44   4
  -5   2   3 1336.15   59.38   7
   4  -2  -3 14.6866  3.4701   2
   4  -2  -3 16.8472  3.4525   5
   4  -2  -3 13.9789  3.3094   1
   4  -2  -3 14.1776  3.6244   7
  -4   2   3 8.33434 3.19831   1
  -4   2   3 7.22253 3.50640   8
  -4   2   3 11.0308  3.4591   5
  -4   2   3 13.3001  3.9679   7
   3  -2  -3 2367.15  114.16   2
   3  -2  -3 2288.34  103.78   7
   3  -2  -3 2219.14  117.20   1
   3  -2  -3 2252.64  131.54   5
  -3   2   3 2309.53  126.23   8
  -3   2   3 2348.22  111.94   5
  -3   2   3 2422.02  109.58   1
  -3   2   3 2386.63  111.95   7
   2  -2  -3 2814.17  141.37   5
   2  -2  -3 2878.83  132.33   3
   2  -2  -3 2837.18  140.93   1
   2  -2  -3 2836.32  133.69   7
  -2   2   3 3006.62  156.97   1
  -2   2   3 3093.74  141.51   7
  -2   2   3 3060.07  157.94   8
  -2   2   3 3171.99  171.06   5
   1  -2  -3 1118.21   51.34   3
   1  -2  -3 1069.37   64.03   5
   1  -2  -3 1069.55   58.94   8
   1  -2  -3 1128.70   63.85   1
   1  -2  -3 1102.05   53.98   7
  -1   2   3 1213.20   53.94   7
  -1   2   3 1194.89   61.41   8
  -1   2   3 1126.91   53.55   1
  -1   2   3 1156.22   54.82   5
   0  -2  -3 7398.10  351.92   5
   0  -2  -3 7522.22  352.64   7
   0  -2  -3 7531.10  368.82   8
   0   2   3 7356.54  381.67   1
   0   2   3 7534.82  356.28   8
  -1  -2  -3 4044.32  248.16   1
  -1  -2  -3 4156.83  194.96   7
  -1  -2  -3 4079.44  183.91   5
  -1  -2  -3 4218.32  207.29   8
   1   2   3 4107.57  238.66   5
   1   2   3 4275.48  198.62   4
   1   2   3 4195.84  192.33   7
   1   2   3 4220.83  240.63   8
   1   2   3 4023.07  223.29   1
  -2  -2  -3 34.8292  2.3553   7
  -2  -2  -3 35.1597  3.4046   4
  -2  -2  -3 39.0994  3.2289   1
  -2  -2  -3 31.8864  3.1343   5
  -2  -2  -3 37.0873  3.4209   8
   2   2   3 44.6096  3.4554   4
   2   2   3 43.9634  3.4525   8
   2   2   3 45.1218  3.6663   5
   2   2   3 47.4074  4.4745   1
  -3  -2  -3 2863.86  142.77   1
  -3  -2  -3 2932.57  150.19   4
  -3  -2  -3 3005.96  132.37   5
  -3  -2  -3 3057.46  155.36   8
  -3  -2  -3 2977.74  143.75   1
   3   2   3 3090.87  151.62   5
   3   2   3 3039.62  137.71   4
   3   2   3 2958.28  151.17   8
  -4  -2  -3 1491.96   64.47   1
  -4  -2  -3 1421.55   72.42   5
  -4  -2  -3 1441.43   81.50   4
  -4  -2  -3 1455.60   66.28   8
  -4  -2  -3 1420.46   76.10   1
   4   2   3 1504.80   72.66   6
   4   2   3 1449.22   74.57   4
  -5  -2  -3 501.947  25.413   4
  -5  -2  -3 488.880  24.769   7
  -5  -2  -3 501.163  23.031   3
  -5  -2  -3 462.453  22.147   8
  -6  -2  -3 1630.05   76.29   7
  -6  -2  -3 1576.00   75.44   4
  -6  -2  -3 1652.31   93.18   8
  -6  -2  -3 1641.30   78.94   3
  -6  -2  -3 1629.80   72.89   2
  -7  -2  -3 820.154  34.918   3
  -7  -2  -3 720.267  39.497   2
  -7  -2  -3 735.736  39.358   7
  -7  -2  -3 744.182  35.652   8
  -8  -2  -3 12.7010  3.5581   2
  -8  -2  -3 24.4092  5.4800   3
  -8  -2  -3 19.2425  4.3533   8
  -8  -2  -3 17.3903  4.2590   7
  -9  -2  -3 111.358   7.963   2
  -9  -2  -3 87.4161  9.2374   3
  -9  -2  -3 101.385   7.905   7
  -9  -2  -3 122.920   8.730   8
 -10  -2  -3 49.7424  7.7920   3
 -10  -2  -3 42.8502  6.7765   2
 -10  -2  -3 42.2257  7.3216   8
 -10  -2  -3 39.3495  6.7299   7
 -11  -2  -3 10.3032  6.8851   3
 -11  -2  -3 8.50657 4.47027   2
 -11  -2  -3 2.55115 5.46989   8
 -11  -2  -3 5.82036 6.12277   7
   8  -3  -3 2.88861 4.47733   1
  -8   3   3 6.69003 4.21608   5
  -8   3   3 5.51832 6.36833   7
  -7   3   3 49.9430  5.9057   1
  -7   3   3 49.2140  6.1500   5
  -6   3   3 204.490  12.738   7
  -6   3   3 208.525  12.559   5
  -6   3   3 166.401  11.783   1
  -5   3   3 412.411  21.116   5
  -5   3   3 418.158  21.614   4
  -5   3   3 425.709  24.675   1
  -5   3   3 428.446  24.288   7
   4  -3  -3 370.118  18.151   3
   4  -3  -3 346.662  18.974   2
   4  -3  -3 367.343  21.454   5
   4  -3  -3 343.323  28.441   1
  -4   3   3 353.179  23.334   1
  -4   3   3 336.420  17.515   7
  -4   3   3 353.677  17.607   5
   3  -3  -3 1511.59   88.65   1
   3  -3  -3 1453.68   67.39   3
   3  -3  -3 1444.60   64.49   2
   3  -3  -3 1417.56   86.57   7
   3  -3  -3 1414.75   94.04   5
  -3   3   3 1548.20   77.15   8
  -3   3   3 1528.73   74.67   1
  -3   3   3 1504.32   70.98   5
  -3   3   3 1522.51   73.13   7
   2  -3  -3 584.515  30.066   7
   2  -3  -3 602.065  32.578   5
   2  -3  -3 592.966  33.456   1
   2  -3  -3 587.842  31.487   3
  -2   3   3 623.310  32.371   1
  -2   3   3 591.491  32.632   5
  -2   3   3 570.763  26.344   8
  -2   3   3 559.388  29.170   7
   1  -3  -3 514.431  28.445   5
   1  -3  -3 520.327  24.525   7
   1  -3  -3 522.881  28.741   1
  -1   3   3 520.033  28.236   8
  -1   3   3 511.225  24.572   7
  -1   3   3 503.495  26.058   5
  -1   3   3 486.836  23.135   1
   0  -3  -3 8068.79  402.23   1
   0  -3  -3 8118.62  386.45   8
   0  -3  -3 8127.99  408.87   7
   0  -3  -3 7917.97  399.50   5
   0   3   3 7940.59  374.19   5
   0   3   3 7779.47  352.25   8
   0   3   3 7600.33  386.04   1
   0   3   3 7914.25  366.53   7
  -1  -3  -3 622.222  34.740   1
  -1  -3  -3 630.695  35.690   7
  -1  -3  -3 668.992  41.533   8
  -1  -3  -3 612.791  36.545   5
   1   3   3 641.415  37.514   1
   1   3   3 673.354  39.827   5
   1   3   3 639.869  33.954   8
   1   3   3 653.211  31.393   4
   1   3   3 645.087  36.597   7
  -2  -3  -3 244.150  13.456   8
  -2  -3  -3 232.721  13.421   5
  -2  -3  -3 238.369  13.766   1
  -2  -3  -3 229.507  12.117   7
   2   3   3 291.532  15.191   5
   2   3   3 276.108  13.276   4
   2   3   3 292.844  15.734   8
   2   3   3 283.087  16.392   1
  -3  -3  -3 4440.32  207.05   4
  -3  -3  -3 4399.84  232.16   1
  -3  -3  -3 4491.98  233.00   8
   3   3   3 4368.16  225.40   8
   3   3   3 4343.03  228.40   1
   3   3   3 4324.72  205.89   4
  -4  -3  -3 640.928  30.930   5
  -4  -3  -3 604.739  33.408   8
  -4  -3  -3 664.570  41.087   4
  -4  -3  -3 646.695  33.140   1
   4   3   3 726.211  31.597   5
   4   3   3 718.519  34.408   8
   4   3   3 712.089  38.264   1
   4   3   3 721.780  31.661   4
  -5  -3  -3 59.2143  5.1543   4
  -5  -3  -3 48.3526  2.6682   1
  -5  -3  -3 56.1458  2.5721   1
  -5  -3  -3 51.9349  4.3895   8
   5   3   3 60.7387  2.7866   6
   5   3   3 65.3431  5.5067   4
  -6  -3  -3 1407.93   68.39   4
  -6  -3  -3 1408.13   63.84   8
   6   3   3 1521.17   74.80   4
  -7  -3  -3 178.523  10.592   7
  -7  -3  -3 159.358   9.516   2
  -7  -3  -3 161.280  10.557   3
  -7  -3  -3 184.484  10.990   8
  -8  -3  -3 156.937   9.561   2
  -8  -3  -3 139.208   9.163   8
  -8  -3  -3 148.819   9.400   7
  -8  -3  -3 151.823  10.449   3
  -9  -3  -3 232.044  13.416   2
  -9  -3  -3 247.109  14.627   3
  -9  -3  -3 240.214  14.601   7
  -9  -3  -3 208.182  14.755   8
 -10  -3  -3 6.76856 6.09192   3
 -10  -3  -3 6.98307 4.93648   7
 -10  -3  -3 13.7271  5.2455   2
 -10  -3  -3 13.7615  4.6370   8
 -11  -3  -3 12.3419  6.5337   7
 -11  -3  -3 20.8561  7.0514   3
 -11  -3  -3 31.8912  7.5048   8
 -11  -3  -3 26.6587  6.7696   2
  -8   4   3 1.04716 6.93711   7
  -8   4   3 14.9379  6.1140   5
  -7   4   3 84.3367  9.8714   7
  -7   4   3 77.6737 11.6517   1
  -6   4   3 188.091  12.583   5
  -6   4   3 182.014  13.612   1
  -6   4   3 158.730  12.176   7
  -5   4   3 57.4779  6.1452   1
  -5   4   3 47.8364  6.3868   5
  -5   4   3 40.7048  6.5043   7
   4  -4  -3 517.995  35.778   3
  -4   4   3 555.478  29.186   5
  -4   4   3 567.525  29.235   1
  -4   4   3 527.402  26.992   7
   3  -4  -3 756.205  34.119   3
   3  -4  -3 695.711  32.723   2
   3  -4  -3 707.723  36.805   5
  -3   4   3 636.021  31.954   1
  -3   4   3 653.628  32.169   5
  -3   4   3 621.325  37.421   7
   2  -4  -3 0.53533 2.96133   7
   2  -4  -3 7.06897 3.42120   5
   2  -4  -3 7.78080 3.33595   1
  -2   4   3 4.82490 3.60374   5
  -2   4   3 4.05942 3.46778   8
  -2   4   3 8.91447 3.68686   7
  -2   4   3 6.96537 3.82023   1
   1  -4  -3 2951.77  163.07   1
   1  -4  -3 2951.31  140.59   7
   1  -4  -3 2917.40  191.59   5
  -1   4   3 2943.96  151.45   1
  -1   4   3 2879.30  156.66   7
  -1   4   3 2907.67  153.73   8
  -1   4   3 2903.50  134.68   5
   0  -4  -3 1525.90   69.79   8
   0  -4  -3 1448.84  101.17   5
   0  -4  -3 1491.47   71.08   7
   0  -4  -3 1464.65   94.71   1
   0   4   3 1423.33   71.78   5
   0   4   3 1390.04   79.12   7
   0   4   3 1419.86   68.57   1
   0   4   3 1430.35   66.67   8
  -1  -4  -3 87.7605  6.2520   1
  -1  -4  -3 104.361   6.210   8
  -1  -4  -3 115.726   7.996   5
  -1  -4  -3 90.1282  5.9251   7
   1   4   3 96.7283  5.8599   7
   1   4   3 106.651   6.989   8
   1   4   3 97.4760  6.7813   5
   1   4   3 104.934   6.694   1
  -2  -4  -3 3449.73  172.16   5
  -2  -4  -3 3601.07  193.75   8
  -2  -4  -3 3496.60  182.66   7
  -2  -4  -3 3472.37  173.57   1
   2   4   3 3401.13  169.91   7
   2   4   3 3117.21  176.27   1
   2   4   3 3376.44  149.54   4
   2   4   3 3159.48  167.18   8
   2   4   3 3180.47  181.48   5
  -3  -4  -3 1463.75   69.38   8
  -3  -4  -3 1474.21   73.90   5
  -3  -4  -3 1432.74   69.20   7
  -3  -4  -3 1443.96   75.56   1
   3   4   3 1358.67   74.53   1
   3   4   3 1313.97   62.58   5
   3   4   3 1355.79   69.30   8
   3   4   3 1374.84   63.37   4
  -4  -4  -3 998.711  45.866   1
  -4  -4  -3 1010.48   50.27   8
  -4  -4  -3 1010.67   63.06   4
  -4  -4  -3 1013.74   46.79   5
   4   4   3 990.753  47.262   5
   4   4   3 1074.47   48.53   4
   4   4   3 1026.56   47.48   8
   4   4   3 995.865  54.641   1
  -5  -4  -3 1343.42   91.52   4
  -5  -4  -3 1426.11   72.04   8
  -5  -4  -3 1428.41   69.03   1
  -5  -4  -3 1454.01   68.54   5
   5   4   3 1489.60   69.35   5
   5   4   3 1523.57   75.31   1
   5   4   3 1521.80   78.07   4
  -6  -4  -3 596.447  29.408   8
  -6  -4  -3 584.385  27.068   1
  -6  -4  -3 597.394  25.406   1
   6   4   3 620.432  33.468   4
  -7  -4  -3 4.71440 2.91168   2
  -7  -4  -3 4.25725 3.26894   8
   7   4   3 5.03777 4.29135   4
  -8  -4  -3 281.445  20.260   8
  -8  -4  -3 285.874  14.245   2
  -8  -4  -3 267.341  14.890   7
   8   4   3 271.704  16.913   4
  -9  -4  -3 44.2566  6.8913   3
  -9  -4  -3 57.8961  5.7588   8
  -9  -4  -3 39.4341  6.0181   7
  -9  -4  -3 54.2833  5.6881   2
 -10  -4  -3 77.0606  7.0933   8
 -10  -4  -3 62.4380  7.3899   3
 -10  -4  -3 72.4463  7.7550   2
 -11  -4  -3 5.18664 6.21681   3
 -11  -4  -3 10.2884  6.1206   7
 -11  -4  -3 5.19319 5.61860   2
 -11  -4  -3 3.25751 6.23973   8
  -7   5   3 21.2710  8.0049   7
  -7   5   3 28.1067  6.9278   1
  -7   5   3 24.6152  6.7890   5
  -6   5   3 57.2847  7.2886   5
  -6   5   3 46.6534  7.9022   7
  -6   5   3 44.1194  7.2994   1
  -5   5   3 28.1952  6.4801   7
  -5   5   3 38.6892  5.9326   1
  -5   5   3 38.6686  6.7836   5
  -4   5   3 543.009  28.208   1
  -4   5   3 534.532  31.880   5
  -4   5   3 494.413  25.917   7
   3  -5  -3 335.033  20.741   3
   3  -5  -3 289.867  22.181   2
  -3   5   3 277.800  16.542   1
  -3   5   3 302.429  16.259   7
  -3   5   3 286.014  17.823   5
  -2   5   3 560.167  27.268   5
  -2   5   3 533.035  28.224   7
  -2   5   3 494.398  24.254   1
   1  -5  -3 1767.85  107.28   7
   1  -5  -3 1770.01  105.52   5
   1  -5  -3 1788.63  115.44   1
  -1   5   3 1859.35   88.46   5
  -1   5   3 1937.97  101.59   1
  -1   5   3 1868.92   85.00   8
  -1   5   3 1871.78   91.76   7
   0  -5  -3 55.1686  4.9120   5
   0  -5  -3 49.2270  4.9512   7
   0  -5  -3 56.0132  5.3172   1
   0   5   3 73.1434  5.8516   7
   0   5   3 71.3835  5.8030   5
   0   5   3 53.4277  5.5873   1
   0   5   3 68.5444  5.4137   8
  -1  -5  -3 338.477  23.457   1
  -1  -5  -3 386.937  19.773   5
  -1  -5  -3 384.938  21.339   7
  -1  -5  -3 395.189  20.958   8
   1   5   3 425.906  21.407   7
   1   5   3 413.691  22.789   1
   1   5   3 433.692  20.604   8
   1   5   3 427.412  22.840   5
  -2  -5  -3 1631.90   89.61   8
  -2  -5  -3 1661.78   72.36   7
  -2  -5  -3 1597.50   77.65   5
  -2  -5  -3 1558.42   85.71   1
   2   5   3 1576.91   73.89   7
   2   5   3 1507.20   81.52   1
   2   5   3 1532.20   70.71   4
   2   5   3 1509.90   75.43   5
   2   5   3 1451.18   90.88   8
  -3  -5  -3 891.651  43.966   8
  -3  -5  -3 878.967  43.526   7
  -3  -5  -3 873.287  45.834   5
  -3  -5  -3 880.582  47.649   1
   3   5   3 951.833  44.821   5
   3   5   3 925.566  44.585   8
   3   5   3 992.014  50.663   1
   3   5   3 921.291  41.397   4
  -4  -5  -3 578.763  29.455   7
  -4  -5  -3 552.050  31.967   1
  -4  -5  -3 537.615  26.841   5
  -4  -5  -3 567.234  25.418   8
   4   5   3 575.721  35.464   5
   4   5   3 635.088  30.885   4
   4   5   3 613.453  31.321   1
   4   5   3 613.285  27.576   8
  -5  -5  -3 2352.56  122.60   1
  -5  -5  -3 2386.33  119.26   8
  -5  -5  -3 2321.01  127.14   5
   5   5   3 2446.59  107.10   4
   5   5   3 2435.56  149.95   1
   5   5   3 2356.19  116.90   8
   5   5   3 2434.72  113.11   5
  -6  -5  -3 78.5473  5.3033   8
  -6  -5  -3 97.5759  4.7447   1
   6   5   3 79.3115  5.0742   6
   6   5   3 89.7396  7.2370   4
   6   5   3 82.9703  5.2249   1
   6   5   3 80.2996  4.3981   5
  -7  -5  -3 363.712  16.107   1
  -7  -5  -3 370.757  18.755   8
   7   5   3 360.352  16.947   1
   7   5   3 401.035  23.683   4
  -8  -5  -3 497.296  23.912   2
  -8  -5  -3 510.966  26.593   8
   8   5   3 446.771  26.738   4
  -9  -5  -3 13.9198  4.1066   8
  -9  -5  -3 6.81959 4.39085   7
  -9  -5  -3 14.3143  5.2398   2
   9   5   3 13.0081  5.5513   4
 -10  -5  -3 48.3422  7.2585   2
 -10  -5  -3 48.0828  7.8707   7
 -10  -5  -3 51.6035  5.6721   8
 -11  -5  -3 19.1859  6.4024   7
 -11  -5  -3 31.5037  8.3560   3
 -11  -5  -3 34.6283  7.3533   2
  -6   6   3 4.29938 6.86074   7
  -6   6   3 9.45036 5.70639   1
  -6   6   3 10.1977  5.6865   5
  -5   6   3 172.819  15.665   7
  -5   6   3 210.211  15.465   5
  -5   6   3 209.780  13.606   1
  -4   6   3 290.048  16.039   1
  -4   6   3 221.380  14.688   5
  -4   6   3 257.855  19.466   7
   3  -6  -3 75.1424  6.2987   2
  -3   6   3 74.8280  7.6176   1
  -3   6   3 69.1496  7.4935   5
  -3   6   3 72.0584  7.5850   7
  -2   6   3 299.689  19.902   1
  -2   6   3 344.815  17.236   5
  -2   6   3 335.249  17.418   7
  -1   6   3 465.601  22.984   5
  -1   6   3 489.891  26.108   7
  -1   6   3 474.514  25.345   1
   0  -6  -3 382.115  22.766   7
   0   6   3 342.907  25.005   7
   0   6   3 406.076  19.024   5
   0   6   3 370.448  18.727   8
   0   6   3 341.067  23.838   1
  -1  -6  -3 728.044  42.184   7
  -1  -6  -3 687.175  49.333   1
  -1  -6  -3 709.383  43.293   5
   1   6   3 658.806  36.486   1
   1   6   3 652.029  36.149   8
   1   6   3 675.143  36.697   7
   1   6   3 679.517  34.423   5
  -2  -6  -3 948.641  47.451   7
  -2  -6  -3 923.278  52.963   8
  -2  -6  -3 888.998  51.559   1
  -2  -6  -3 871.235  46.416   5
   2   6   3 932.872  46.364   5
   2   6   3 957.127  55.992   7
   2   6   3 892.058  43.340   8
   2   6   3 929.238  45.020   1
  -3  -6  -3 18.4908  3.4316   1
  -3  -6  -3 10.2586  3.0962   5
  -3  -6  -3 13.9360  3.0927   8
  -3  -6  -3 18.8075  3.2627   7
   3   6   3 16.6460  4.0421   4
   3   6   3 10.2866  2.6191   8
   3   6   3 12.7320  4.0216   1
   3   6   3 5.57606 3.04861   5
  -4  -6  -3 266.964  13.763   5
  -4  -6  -3 244.147  13.328   8
  -4  -6  -3 255.370  14.538   1
  -4  -6  -3 237.514  14.439   7
   4   6   3 246.730  14.108   5
   4   6   3 236.291  13.201   4
   4   6   3 253.611  13.671   1
   4   6   3 249.238  14.309   8
  -5  -6  -3 547.409  33.759   1
  -5  -6  -3 569.539  29.662   5
  -5  -6  -3 581.708  33.558   8
  -5  -6  -3 563.563  27.227   7
   5   6   3 622.784  26.883   8
   5   6   3 617.594  34.471   5
   5   6   3 633.814  33.700   4
   5   6   3 656.820  33.392   1
  -6  -6  -3 6.39455 2.34619   8
  -6  -6  -3 6.42465 2.21291   1
   6   6   3 1.64315 4.47283   4
   6   6   3 8.75877 2.16034   6
   6   6   3 5.35332 2.19181   5
   6   6   3 10.7693  2.4645   1
  -7  -6  -3 566.087  24.649   1
  -7  -6  -3 573.113  28.912   8
   7   6   3 524.027  25.279   6
   7   6   3 519.769  25.419   5
   7   6   3 556.716  28.406   4
   7   6   3 536.290  30.225   1
  -8  -6  -3 212.659  11.882   8
  -8  -6  -3 249.273  13.206   2
   8   6   3 231.933  16.333   4
   8   6   3 224.925  10.646   1
  -9  -6  -3 14.5651  5.3203   2
  -9  -6  -3 15.7975  3.6876   8
   9   6   3 4.72953 5.34840   4
 -10  -6  -3 44.3082  6.7921   7
 -10  -6  -3 51.5736  7.3712   2
 -11  -6  -3 -2.1844  5.7756   2
 -11  -6  -3 3.05520 5.55220   7
 -11  -6  -3 -2.3866  6.6067   3
  -6   7   3 7.00912 6.39183   1
  -6   7   3 13.7377  8.0356   5
  -5   7   3 114.824  10.268   1
  -5   7   3 123.630  10.765   5
  -5   7   3 96.7483 10.7496   7
  -4   7   3 63.3525  7.8217   5
  -4   7   3 76.9553  8.1655   1
  -4   7   3 65.6944  7.6534   7
  -3   7   3 57.1940  6.5003   7
  -3   7   3 40.4045  5.8311   1
  -2   7   3 688.523  38.448   7
  -2   7   3 639.832  36.372   1
  -2   7   3 690.975  38.988   5
  -1   7   3 42.7298  6.2147   7
  -1   7   3 37.9398  5.1702   5
  -1   7   3 48.6896  6.3321   1
   0   7   3 376.450  20.188   5
   0   7   3 408.673  20.463   7
   0   7   3 323.443  21.614   8
   0   7   3 375.184  19.555   1
   1   7   3 1724.64   79.90   1
   1   7   3 1676.22   80.76   7
   1   7   3 1602.80   77.40   8
   1   7   3 1702.96   85.50   5
  -2  -7  -3 166.303  10.140   7
   2   7   3 154.187   9.709   5
   2   7   3 162.718  10.909   1
   2   7   3 149.468  10.723   8
   2   7   3 162.880  10.149   7
  -3  -7  -3 383.264  21.241   5
  -3  -7  -3 367.558  21.441   7
   3   7   3 326.965  22.577   5
   3   7   3 365.487  21.397   1
   3   7   3 369.149  20.119   8
   3   7   3 374.602  17.943   4
  -4  -7  -3 457.185  27.800   1
  -4  -7  -3 457.031  22.922   8
  -4  -7  -3 430.895  31.948   5
  -4  -7  -3 416.326  33.978   7
   4   7   3 456.181  22.820   1
   4   7   3 479.299  22.392   5
   4   7   3 447.242  25.280   8
   4   7   3 484.336  25.526   4
  -5  -7  -3 209.859   9.488   8
  -5  -7  -3 195.915  19.404   5
  -5  -7  -3 206.472  11.527   1
   5   7   3 183.735  10.449   5
   5   7   3 174.568  10.228   8
   5   7   3 197.389  11.591   4
   5   7   3 170.398  11.142   1
  -6  -7  -3 69.0709  5.1024   1
  -6  -7  -3 58.1164  4.4344   8
   6   7   3 69.8559  7.0888   4
   6   7   3 50.4234  4.9472   1
   6   7   3 62.3286  5.0103   5
   6   7   3 61.1052  4.7028   6
  -7  -7  -3 470.028  28.918   8
  -7  -7  -3 485.897  25.610   1
   7   7   3 480.293  27.126   5
   7   7   3 476.285  26.521   4
   7   7   3 512.053  25.103   6
   7   7   3 490.392  26.966   1
  -8  -7  -3 37.1021  5.0304   2
  -8  -7  -3 35.9631  3.7206   8
   8   7   3 32.3050  2.7684   5
   8   7   3 36.2408  6.5349   4
   8   7   3 33.2604  3.0787   1
   9   7   3 32.0816  6.8036   4
 -10  -7  -3 27.3052  5.4478   2
  10   7   3 37.0038  7.2051   4
  11   7   3 9.90207 6.65044   4
  -5   8   3 47.6559  8.2025   1
  -5   8   3 49.0542  8.5974   5
  -4   8   3 10.5427  6.8799   7
  -4   8   3 19.8241  6.7251   1
  -4   8   3 15.5189  5.0629   5
  -3   8   3 114.834  10.429   7
  -3   8   3 93.1307  9.6423   5
  -3   8   3 117.521  10.219   1
  -2   8   3 123.934  10.370   7
  -2   8   3 127.224  10.493   5
  -2   8   3 123.350  11.003   1
  -1   8   3 14.6293  5.3643   7
  -1   8   3 9.42797 5.11281   5
  -1   8   3 23.9654  5.8169   1
   0   8   3 267.340  18.097   5
   0   8   3 273.336  16.376   7
   0   8   3 254.644  19.562   1
   1   8   3 531.860  25.899   7
   1   8   3 522.813  26.900   1
   1   8   3 561.167  29.228   5
   1   8   3 557.798  30.539   8
   2   8   3 46.2026  6.1775   1
   2   8   3 51.4843  5.2616   8
   2   8   3 39.4296  5.7357   7
   2   8   3 47.6921  5.9411   5
   3   8   3 245.900  13.090   8
   3   8   3 273.829  15.998   5
   3   8   3 264.500  14.530   1
   4   8   3 275.440  14.989   4
   4   8   3 268.069  16.891   1
   4   8   3 264.408  13.520   8
   4   8   3 255.929  14.587   5
  -5  -8  -3 43.2641  4.9673   5
   5   8   3 52.0489  3.6120   8
   5   8   3 47.4846  5.2587   1
   5   8   3 47.9742  6.5207   4
   5   8   3 56.7137  5.3083   5
  -6  -8  -3 188.223   9.529   8
  -6  -8  -3 182.489  12.804   1
   6   8   3 169.920  13.680   6
   6   8   3 175.247  14.087   4
   6   8   3 189.953  12.302   5
   6   8   3 208.365  12.309   1
  -7  -8  -3 192.783  11.385   8
   7   8   3 203.882  12.494   5
   7   8   3 201.566  13.017   4
   7   8   3 225.848  12.428   1
   7   8   3 194.635  12.333   6
  -8  -8  -3 8.34290 4.88749   2
   8   8   3 13.9239  2.8079   1
   8   8   3 14.9117  2.6928   5
   8   8   3 25.9868  6.2433   4
  -9  -8  -3 41.8135  6.5423   2
   9   8   3 42.2998  6.3223   4
 -10  -8  -3 17.8220  6.4811   2
  10   8   3 18.0226  6.9698   4
  -4   9   3 4.83748 6.75121   1
  -3   9   3 87.9493  9.8277   1
  -3   9   3 77.2556  9.3782   5
  -3   9   3 88.1922 10.2158   7
  -2   9   3 15.6166  6.5066   5
  -2   9   3 24.2646  5.3896   1
  -2   9   3 17.2345  6.6603   7
  -1   9   3 38.3920  7.2274   7
  -1   9   3 39.2069  6.8957   5
  -1   9   3 39.9729  7.0271   1
   0   9   3 161.453  12.105   5
   0   9   3 191.727  13.942   1
   0   9   3 210.328  14.436   7
   1   9   3 6.06081 4.95592   5
   1   9   3 2.82432 4.95500   1
   1   9   3 -0.4219  4.6662   7
   2   9   3 52.3484  5.3121   8
   2   9   3 61.1300  6.7909   7
   2   9   3 66.4883  7.1949   5
   2   9   3 45.1478  6.1463   1
   3   9   3 274.165  15.039   5
   3   9   3 290.449  18.256   1
   3   9   3 257.874  16.886   8
   4   9   3 42.7106  5.7539   5
   4   9   3 30.7444  5.5657   1
   4   9   3 43.1891  6.6446   4
   4   9   3 31.7753  3.3957   8
   5   9   3 137.992  10.227   4
   5   9   3 108.452   8.640   1
   5   9   3 122.466   6.543   8
   5   9   3 125.705   8.592   5
   6   9   3 152.753  11.160   5
   6   9   3 155.040  12.742   4
   6   9   3 173.242  11.365   1
   7   9   3 5.78066 5.44393   4
   7   9   3 -0.3243  2.7501   5
   7   9   3 0.43415 3.73064   1
  -8  -9  -3 14.1524  5.1651   2
   8   9   3 14.5034  3.5543   1
   8   9   3 19.2469  3.3371   5
   8   9   3 17.8041  6.6071   4
  -9  -9  -3 16.8589  5.8474   2
   9   9   3 24.4902  7.3453   4
 -10  -9  -3 1.97046 5.84879   2
  10   9   3 -2.3311  6.6763   4
  -2  10   3 -1.4636  6.5859   1
  -2  10   3 8.48519 7.16291   7
  -2  10   3 6.10643 6.26321   5
  -1  10   3 87.2830 10.0271   7
  -1  10   3 79.7641  9.3574   5
  -1  10   3 92.5391 10.0372   1
   0  10   3 110.249   9.929   5
   0  10   3 94.1537  9.6591   7
   0  10   3 98.0697  9.8374   1
   1  10   3 25.0763  6.3127   7
   1  10   3 26.1651  6.3972   5
   2  10   3 118.053   9.633   5
   2  10   3 98.9512  9.3348   7
   2  10   3 90.3890  9.2992   1
   3  10   3 130.826  10.412   1
   3  10   3 132.973  10.139   5
   4  10   3 -0.5443  3.9709   4
   4  10   3 -1.6194  4.5866   1
   4  10   3 -1.5319  4.6354   5
   5  10   3 96.7435  9.4530   4
   5  10   3 85.7186  8.5500   1
   6  10   3 38.6715  5.9045   1
   6  10   3 45.0292  5.7971   5
   6  10   3 37.1004  7.1729   4
  -7 -10  -3 18.1828  4.9214   2
   7  10   3 26.8750  5.2369   1
   7  10   3 10.0248  6.3973   4
   7  10   3 48.4097 22.6701   5
  -8 -10  -3 48.4975  5.8992   2
   8  10   3 54.7045  5.8123   1
   8  10   3 53.2705  8.4566   4
  -9 -10  -3 30.4517  6.6110   2
   9  10   3 23.3788  7.9111   4
   0  11   3 -0.1813  6.2165   1
   0  11   3 3.77477 4.73234   7
   0  11   3 -0.5612  6.6280   5
   1  11   3 19.5442  5.6225   1
   1  11   3 16.1312  6.5416   7
   2  11   3 73.3601  9.2972   7
   2  11   3 79.8984  9.0515   5
   2  11   3 82.6832  9.2623   1
   3  11   3 13.2561  6.0105   1
   3  11   3 17.7696  6.0384   5
   4  11   3 8.91362 5.83026   5
   4  11   3 2.82150 6.06095   4
   4  11   3 10.5473  5.7984   1
   5  11   3 82.1659  8.4668   5
   5  11   3 89.4631  8.7969   1
   5  11   3 78.6187  9.6588   4
   6  11   3 12.6836  5.4440   1
   6  11   3 7.65148 5.01824   5
   6  11   3 19.1236  7.4124   4
  -7 -11  -3 9.27401 4.81404   2
   7  11   3 8.28171 4.83202   5
   7  11   3 12.7700  4.8324   1
   7  11   3 5.99132 5.58370   4
  -8 -11  -3 31.1622  6.4917   2
   2  12   3 38.6255  7.8932   1
   3  12   3 -1.6998  6.5616   5
   3  12   3 5.23174 6.07968   1
   4  12   3 27.2043  8.0805   4
   4  12   3 20.4891  7.2241   5
   5  12   3 16.2736  6.4550   5
   5  12   3 14.7790  6.6548   1
   5  12   3 30.5520  8.5706   4
   6  12   3 7.36726 7.06275   1
   3  11  -4 14.9058  6.4559   1
   2  11  -4 11.0358  6.8118   1
   6  10  -4 3.94510 6.66394   4
   6  10  -4 6.20985 5.38240   1
   6  10  -4 2.34435 4.99371   5
   5  10  -4 16.8529  5.9183   1
   5  10  -4 7.23658 6.55058   5
   4  10  -4 65.1906  7.8600   5
   4  10  -4 69.6046  8.3380   1
   3  10  -4 13.2905  5.8874   5
   3  10  -4 16.5719  6.1918   1
   2  10  -4 27.6150  6.9757   1
   2  10  -4 44.3102  7.4607   5
   1  10  -4 74.8615  8.9570   5
   0  10  -4 48.3372  8.1764   5
   0  10  -4 41.7292  6.5060   1
  -1  10  -4 48.1966  7.4662   7
  -1  10  -4 36.6063  7.9879   1
  -2  10  -4 38.0733  8.3543   1
   7   9  -4 26.2865  5.5969   1
   7   9  -4 16.5549  6.8172   4
   7   9  -4 27.7523  6.4046   5
   6   9  -4 13.6564  5.2024   1
   6   9  -4 8.67566 5.06314   5
   6   9  -4 15.4425  6.4403   4
   5   9  -4 68.4163  7.6435   1
   5   9  -4 72.2966  8.3514   5
   4   9  -4 45.7793  5.8631   5
   4   9  -4 49.8623  7.0230   1
   3   9  -4 13.5703  5.4878   5
   2   9  -4 321.952  18.484   5
   2   9  -4 292.708  17.010   1
   1   9  -4 127.777  10.253   1
   1   9  -4 109.304   7.334   8
   1   9  -4 133.707  10.346   5
   0   9  -4 9.53500 5.69146   5
   0   9  -4 11.1271  5.7860   1
   0   9  -4 7.28839 3.28130   8
  -1   9  -4 64.0953  8.3823   7
  -1   9  -4 67.1625  7.0941   5
  -1   9  -4 49.9393  7.8724   1
  -2   9  -4 33.3817  7.1448   5
  -2   9  -4 19.6170  5.3935   7
  -2   9  -4 26.9535  5.2940   8
  -2   9  -4 16.2350  4.7538   1
  -3   9  -4 8.88330 6.39191   5
  -3   9  -4 8.59943 6.63695   1
  -3   9  -4 23.0134  7.2472   7
  -3   9  -4 5.46314 5.56623   8
   8   8  -4 63.5733  6.9994   5
   8   8  -4 64.4805  7.2152   1
   7   8  -4 45.1544  5.7674   5
   7   8  -4 34.1472  5.6310   1
   7   8  -4 39.2044  6.6607   4
   6   8  -4 29.4601  5.7878   5
   6   8  -4 24.7759  6.1109   1
   6   8  -4 19.5044  5.8706   4
   5   8  -4 182.950  14.298   5
   5   8  -4 211.629  12.987   1
   4   8  -4 41.0793  6.8387   1
   4   8  -4 31.7852  5.7463   5
   3   8  -4 268.978  16.464   1
   3   8  -4 289.726  16.101   5
   2   8  -4 246.943  12.138   8
   2   8  -4 223.592  18.126   1
   2   8  -4 242.536  14.399   5
   1   8  -4 54.1829  6.2187   5
   1   8  -4 78.3190  7.6794   1
   1   8  -4 62.1036  4.7791   8
   0   8  -4 145.078   8.319   8
   0   8  -4 159.406  10.791   5
   0   8  -4 140.861  12.948   1
  -1   8  -4 340.021  19.514   7
  -1   8  -4 331.475  21.479   5
  -1   8  -4 353.583  18.718   1
  -1   8  -4 368.683  21.333   8
  -2   8  -4 2.99254 5.15514   5
  -2   8  -4 -0.1128  5.8263   7
  -2   8  -4 3.19520 4.99297   1
  -2   8  -4 2.19224 4.15118   8
  -3   8  -4 90.0682  9.3628   5
  -3   8  -4 107.163  10.101   7
  -3   8  -4 107.464   9.552   1
  -4   8  -4 120.148  13.181   1
  -4   8  -4 164.440  14.445   7
  -4   8  -4 166.716  13.697   5
  -5   8  -4 -1.5135  7.2683   7
  -5   8  -4 3.14081 4.68936   5
  -5   8  -4 3.52977 5.99761   1
   9   7  -4 33.6091  7.7915   4
   8   7  -4 33.6237  5.0377   5
   8   7  -4 32.8153  6.0186   4
   8   7  -4 22.9177  4.3785   1
   7   7  -4 10.3516  4.6126   1
   7   7  -4 11.9869  5.7560   4
   6   7  -4 98.8573  9.2941   1
   6   7  -4 104.934  10.055   4
   6   7  -4 105.874   8.146   5
   5   7  -4 248.921  14.263   5
   5   7  -4 303.714  17.285   1
   4   7  -4 70.9918  6.5308   5
   4   7  -4 54.7673  6.2586   1
   3   7  -4 735.828  39.887   5
   3   7  -4 641.356  33.442   1
   2   7  -4 513.330  24.901   5
   2   7  -4 501.374  23.921   1
   2   7  -4 490.725  26.063   8
   1   7  -4 0.73539 1.92460   8
   1   7  -4 8.60744 3.48764   1
   1   7  -4 -1.6624  4.1767   5
   0   7  -4 549.497  30.697   7
   0   7  -4 582.146  29.092   5
   0   7  -4 569.209  29.753   8
   0   7  -4 568.976  29.787   1
  -1   7  -4 60.0178  6.9923   7
  -1   7  -4 69.4055  5.6983   8
  -1   7  -4 78.1451  7.4536   1
  -1   7  -4 64.2937  6.3499   5
  -2   7  -4 16.8844  4.1630   8
  -2   7  -4 5.92579 4.92827   5
  -2   7  -4 13.6835  5.1989   1
  -2   7  -4 11.6878  5.1534   7
  -3   7  -4 332.581  19.713   7
  -3   7  -4 361.579  20.710   5
  -3   7  -4 401.019  20.751   1
  -4   7  -4 102.003   9.327   5
  -4   7  -4 111.746   9.377   1
  -4   7  -4 102.227   9.160   7
  -5   7  -4 3.21600 5.10888   1
  -5   7  -4 7.74853 6.60720   7
  -6   7  -4 47.6562  7.7547   5
  -6   7  -4 32.4421  6.9084   1
  -6   7  -4 32.3671  8.4648   7
   9   6  -4 45.5168  6.6065   4
   8   6  -4 4.66557 4.21672   4
   8   6  -4 8.85194 3.29057   1
   7   6  -4 28.9685  5.8189   4
   7   6  -4 32.0876  4.5752   1
   6   6  -4 334.600  18.028   4
   6   6  -4 337.571  20.483   1
  -6  -6   4 338.897  17.603   6
   5   6  -4 63.5573  6.3303   1
   5   6  -4 62.2353  6.5414   4
  -5  -6   4 72.2657  5.9989   6
   4   6  -4 30.3243  4.7599   1
   3   6  -4 627.964  31.256   5
   3   6  -4 630.508  30.906   1
   2   6  -4 77.9473  6.6522   5
   2   6  -4 78.7591  4.3008   8
   2   6  -4 92.7848  7.0854   1
   1   6  -4 562.286  29.866   1
   1   6  -4 541.579  35.311   5
   1   6  -4 548.173  27.912   8
   0   6  -4 964.971  43.646   8
   0   6  -4 975.969  53.819   7
   0   6  -4 928.299  43.644   5
   0   6  -4 965.036  45.739   1
  -1   6  -4 46.6405  5.9196   5
  -1   6  -4 59.3036  4.9333   8
  -1   6  -4 49.0389  6.1368   7
  -1   6  -4 68.6077  6.5760   1
  -2   6  -4 190.866  11.698   5
  -2   6  -4 174.393  14.117   7
  -2   6  -4 199.456  11.814   8
  -2   6  -4 177.642  11.182   1
  -3   6  -4 535.098  25.713   1
  -3   6  -4 513.853  26.695   5
  -3   6  -4 486.611  36.400   7
  -4   6  -4 14.5381  5.6830   7
  -4   6  -4 17.8463  5.2113   5
  -4   6  -4 19.0215  4.1102   1
  -5   6  -4 192.275  13.814   5
  -5   6  -4 182.666  11.885   1
  -5   6  -4 173.053  12.733   7
  -6   6  -4 88.9326  8.3740   1
  -6   6  -4 76.7378  9.1296   7
  -6   6  -4 76.2007  8.1207   5
  -7   6  -4 3.50091 6.16844   1
  -7   6  -4 7.28745 5.13884   5
  -7   6  -4 3.55741 6.99143   7
   9   5  -4 18.8832  4.6664   4
   8   5  -4 9.21521 3.13544   1
   8   5  -4 3.01920 3.81954   4
   7   5  -4 239.447  16.443   4
   7   5  -4 275.764  21.698   1
  -7  -5   4 268.215  15.877   6
   6   5  -4 223.033  12.286   4
   6   5  -4 223.208  13.324   1
  -6  -5   4 233.484  14.077   6
   5   5  -4 0.79304 3.98833   1
   5   5  -4 2.73510 3.44770   4
  -5  -5   4 2.83978 1.18881   8
  -5  -5   4 7.33255 3.24296   6
   4   5  -4 606.250  38.365   6
   4   5  -4 641.172  31.826   1
   4   5  -4 612.570  32.018   2
  -4  -5   4 644.279  30.636   6
   3   5  -4 80.4047  6.2832   6
   3   5  -4 86.9325  5.2208   2
   3   5  -4 87.7361  6.0459   1
   3   5  -4 90.5678  4.2967   8
   2   5  -4 11.5757  3.7227   1
   2   5  -4 12.2908  1.8614   8
   2   5  -4 13.7669  2.9238   6
  -2  -5   4 13.1851  3.8178   6
  -2  -5   4 10.5794  2.7094   7
   1   5  -4 1475.55   71.76   6
   1   5  -4 1454.62   69.24   1
   1   5  -4 1417.95   69.39   5
   1   5  -4 1444.83   70.23   8
  -1  -5   4 1398.42   73.98   7
  -1  -5   4 1477.90   71.11   6
   0   5  -4 476.531  21.792   5
   0   5  -4 431.467  21.213   1
   0   5  -4 455.327  26.778   8
   0  -5   4 514.314  25.262   7
  -1   5  -4 343.091  17.980   1
  -1   5  -4 372.936  17.622   8
  -1   5  -4 350.346  18.799   5
  -1   5  -4 386.579  22.357   7
   1  -5   4 391.536  24.455   7
  -2   5  -4 903.453  47.371   7
  -2   5  -4 873.895  42.671   5
  -2   5  -4 875.423  43.927   8
  -2   5  -4 901.049  41.556   1
  -3   5  -4 381.585  20.275   5
  -3   5  -4 431.711  21.169   1
  -3   5  -4 364.123  18.850   7
  -4   5  -4 72.4510  7.1608   5
  -4   5  -4 68.7538  7.2523   7
  -5   5  -4 383.652  21.438   5
  -5   5  -4 334.120  21.271   7
  -5   5  -4 375.174  19.010   1
  -6   5  -4 56.2745  6.8330   1
  -6   5  -4 45.5066  6.1025   5
  -7   5  -4 20.2755  6.8542   7
  -7   5  -4 13.9467  6.6206   5
  -7   5  -4 27.8816  6.2614   1
  -8   5  -4 22.6845  7.7516   7
   9   4  -4 12.4521  4.5104   4
  -9  -4   4 20.2959  6.7763   7
   8   4  -4 51.6439  5.9308   4
   8   4  -4 51.1879  5.1299   1
   7   4  -4 281.841  16.306   5
   7   4  -4 272.144  16.455   1
   7   4  -4 291.126  18.071   4
  -7  -4   4 297.206  15.958   6
   6   4  -4 102.359   7.081   4
   6   4  -4 100.699   7.281   5
  -6  -4   4 100.925   6.064   8
  -6  -4   4 108.088   6.900   6
  -6  -4   4 100.172   7.715   1
   5   4  -4 283.689  25.595   5
   5   4  -4 330.474  17.621   4
   5   4  -4 330.302  18.776   1
  -5  -4   4 314.969  16.328   1
  -5  -4   4 331.061  15.630   6
  -5  -4   4 320.860  17.817   8
   4   4  -4 968.459  46.217   2
   4   4  -4 972.805  46.245   1
   4   4  -4 942.240  61.200   6
  -4  -4   4 1037.37   49.65   6
  -4  -4   4 937.486  49.157   8
  -4  -4   4 916.959  60.630   1
   3   4  -4 170.508   7.970   8
   3   4  -4 169.076   9.244   6
   3   4  -4 164.655   8.804   1
   3   4  -4 165.817  10.555   2
  -3  -4   4 134.928   7.118   8
  -3  -4   4 145.689  10.000   1
  -3  -4   4 150.148   8.758   6
   2   4  -4 2151.77  109.75   8
   2   4  -4 2211.87  135.44   2
   2   4  -4 2155.13  101.27   6
   2   4  -4 2237.51   98.99   1
  -2  -4   4 2213.93  103.64   8
  -2  -4   4 2083.16  105.32   1
  -2  -4   4 2155.23  108.25   7
  -2  -4   4 2269.92  117.33   6
   1   4  -4 2963.77  147.95   8
   1   4  -4 3229.58  144.45   1
   1   4  -4 3000.10  145.40   2
   1   4  -4 3012.29  176.57   6
  -1  -4   4 3332.36  149.78   7
  -1  -4   4 3210.62  152.14   1
  -1  -4   4 3397.80  146.43   6
   0   4  -4 989.458  39.948   2
   0   4  -4 999.905  47.994   8
   0   4  -4 912.174  52.217   6
   0   4  -4 1043.10   45.04   1
   0  -4   4 959.687  43.950   7
   0  -4   4 991.194  48.512   6
   0  -4   4 958.255  46.896   1
  -1   4  -4 483.155  24.465   5
  -1   4  -4 472.794  23.687   6
  -1   4  -4 553.454  24.215   7
  -1   4  -4 494.425  26.546   8
  -1   4  -4 483.319  24.261   1
   1  -4   4 484.309  25.347   1
   1  -4   4 504.134  27.083   7
  -2   4  -4 1045.25   51.06   7
  -2   4  -4 1009.86   52.30   6
  -2   4  -4 1037.30   47.83   5
  -2   4  -4 1038.04   64.46   1
  -2   4  -4 1010.24   52.38   8
   2  -4   4 1046.82   48.79   1
   2  -4   4 985.440  56.313   7
  -3   4  -4 25.6927  1.8613   2
  -3   4  -4 16.4723  4.0236   5
  -3   4  -4 21.5663  4.3605   7
   3  -4   4 29.9136  3.9886   1
   3  -4   4 20.1990  4.1089   7
  -4   4  -4 604.908  32.938   7
  -4   4  -4 597.861  27.863   1
  -4   4  -4 584.373  28.575   5
  -4   4  -4 583.048  28.156   2
  -5   4  -4 358.714  16.591   2
  -5   4  -4 351.242  19.559   7
  -5   4  -4 382.230  19.902   5
  -5   4  -4 355.022  18.834   1
  -6   4  -4 69.9262 31.6687   5
  -6   4  -4 60.5031  7.5908   7
  -6   4  -4 70.0621  6.6730   1
  -7   4  -4 46.7645  6.2085   1
  -7   4  -4 48.1384  7.5356   7
  -7   4  -4 53.0052  5.9193   5
  -8   4  -4 160.149  12.495   7
  -9  -3   4 2.56916 6.42990   7
  -9  -3   4 -0.3412  4.6427   3
   8   3  -4 162.503   9.794   4
   8   3  -4 146.298  10.104   1
  -8  -3   4 191.770  54.411   7
   7   3  -4 169.551   9.765   4
   7   3  -4 176.941  12.152   1
   7   3  -4 171.861  10.698   1
   7   3  -4 168.810  13.338   5
  -7  -3   4 191.335  10.445   6
  -7  -3   4 167.584  13.008   8
   6   3  -4 19.8942  3.3454   4
   6   3  -4 15.2768  3.1488   1
   6   3  -4 12.6565  3.1190   1
   6   3  -4 16.2199  3.5836   5
  -6  -3   4 12.2811  3.5669   1
  -6  -3   4 11.6353  3.2696   6
  -6  -3   4 12.1532  3.5829   8
   5   3  -4 665.115  41.022   5
   5   3  -4 685.626  33.977   1
   5   3  -4 688.208  36.648   4
  -5  -3   4 626.059  32.064   8
  -5  -3   4 634.441  35.818   6
  -5  -3   4 679.532  33.073   1
   4   3  -4 1109.83   53.08   4
   4   3  -4 1078.57   52.71   1
   4   3  -4 1087.84   52.61   5
   4   3  -4 1062.25   51.06   2
  -4  -3   4 1068.36   55.08   1
  -4  -3   4 1107.48   53.75   6
  -4  -3   4 1115.71   61.36   8
   3   3  -4 72.2243  4.7407   8
   3   3  -4 56.4122  4.5638   2
   3   3  -4 69.3225  5.2313   1
   3   3  -4 68.6867  5.0908   6
  -3  -3   4 67.1999  5.9597   1
  -3  -3   4 67.3796  5.2516   6
  -3  -3   4 67.5744  3.9398   8
   2   3  -4 1601.62   72.87   2
   2   3  -4 1611.97  107.70   6
   2   3  -4 1758.57   86.97   1
   2   3  -4 1671.08   85.26   8
  -2  -3   4 1732.15   91.47   6
  -2  -3   4 1716.19   92.27   8
  -2  -3   4 1713.76   91.72   1
   1   3  -4 1902.83   87.43   2
   1   3  -4 1876.58   94.45   8
   1   3  -4 2008.47  102.33   1
   1   3  -4 1831.23   87.17   6
  -1  -3   4 1851.55   86.55   1
  -1  -3   4 1968.50   84.81   7
  -1  -3   4 1882.21   91.58   6
  -1  -3   4 1911.56   91.79   8
   0   3  -4 296.870  14.664   1
   0   3  -4 288.609  14.774   8
   0   3  -4 309.065  15.568   6
   0  -3   4 283.110  18.240   1
   0  -3   4 312.762  14.800   6
   0  -3   4 295.554  15.029   7
  -1   3  -4 4354.66  210.71   6
  -1   3  -4 4449.17  222.48   1
  -1   3  -4 4713.52  200.59   8
  -1   3  -4 4506.72  225.89   7
   1  -3   4 4657.19  233.98   7
   1  -3   4 4511.41  254.55   1
   1  -3   4 4552.12  210.88   6
  -2   3  -4 1216.76   65.80   6
  -2   3  -4 1360.34   62.69   1
  -2   3  -4 1392.59   89.33   7
  -2   3  -4 1336.59   69.64   5
  -2   3  -4 1317.81   64.17   8
   2  -3   4 1275.25   64.83   7
   2  -3   4 1165.39   81.04   1
   2  -3   4 1247.98   60.50   6
  -3   3  -4 151.068   9.247   5
  -3   3  -4 162.834   8.925   8
  -3   3  -4 154.217   6.690   2
  -3   3  -4 139.815   8.710   1
  -3   3  -4 137.179  11.028   6
  -3   3  -4 155.890   8.717   7
   3  -3   4 164.760   9.612   1
   3  -3   4 158.098   8.648   7
  -4   3  -4 1216.35   65.25   7
  -4   3  -4 1160.45   51.54   2
  -4   3  -4 1152.86   68.37   6
  -4   3  -4 1163.76   57.00   1
  -4   3  -4 1181.81   58.29   5
   4  -3   4 1171.13   64.25   7
   4  -3   4 1113.79   64.53   1
  -5   3  -4 509.470  23.419   1
  -5   3  -4 477.356  24.893   5
  -5   3  -4 460.741  23.092   6
  -5   3  -4 451.293  22.341   7
  -5   3  -4 484.750  21.802   2
   5  -3   4 482.975  27.213   1
  -6   3  -4 14.7563  3.9029   1
  -6   3  -4 9.87579 4.01312   5
  -6   3  -4 9.20682 3.16668   2
  -6   3  -4 9.61247 5.93444   7
   6  -3   4 5.12800 3.19403   1
  -7   3  -4 265.710  12.814   2
  -7   3  -4 258.172  14.796   1
  -7   3  -4 245.738  15.397   7
  -7   3  -4 234.742  14.335   5
   7  -3   4 255.383  14.335   1
  -8   3  -4 49.5372  5.2786   2
  -8   3  -4 45.9777  7.4880   7
  -8   3  -4 61.4261  6.0620   5
  -9   3  -4 11.2960  6.9444   7
  -9  -2   4 19.8322  6.8412   7
   8   2  -4 91.1196  6.5992   1
  -8  -2   4 84.9749  8.0060   3
  -8  -2   4 75.0747  8.6318   7
   7   2  -4 22.8806  3.3724   1
   7   2  -4 16.4381  3.3062   1
   7   2  -4 13.7678  3.7039   5
  -7  -2   4 15.6271  5.4649   7
  -7  -2   4 20.1728  5.0007   3
   6   2  -4 283.502  16.137   5
   6   2  -4 303.232  16.006   1
   6   2  -4 263.957  16.105   1
   6   2  -4 299.197  15.027   4
  -6  -2   4 276.868  15.714   6
  -6  -2   4 308.247  16.082   8
   5   2  -4 1363.04   80.28   5
   5   2  -4 1419.40   64.58   4
   5   2  -4 1382.11   66.96   1
   5   2  -4 1301.39   70.74   1
  -5  -2   4 1351.68   74.81   8
  -5  -2   4 1370.99   66.42   6
   4   2  -4 260.323  11.891   2
   4   2  -4 234.558  14.132   5
   4   2  -4 220.940  11.539   4
   4   2  -4 243.540  11.629   1
  -4  -2   4 234.091  11.529   1
  -4  -2   4 217.916  12.787   8
  -4  -2   4 230.785  11.838   6
   3   2  -4 701.669  34.662   2
   3   2  -4 666.547  35.168   4
   3   2  -4 669.514  40.282   5
   3   2  -4 694.803  33.937   1
   3   2  -4 706.224  34.949   8
  -3  -2   4 665.621  36.975   1
  -3  -2   4 684.691  32.988   6
  -3  -2   4 645.277  37.194   8
   2   2  -4 4539.54  219.24   8
   2   2  -4 4613.53  246.87   2
   2   2  -4 4636.80  221.40   1
  -2  -2   4 4698.42  235.82   8
  -2  -2   4 4607.68  233.01   6
   1   2  -4 279.760  14.483   1
   1   2  -4 289.135  13.755   8
   1   2  -4 251.395  16.136   6
  -1  -2   4 232.156  13.684   1
  -1  -2   4 232.884  13.757   6
  -1  -2   4 248.279  13.067   8
   0   2  -4 1105.27   50.74   1
   0   2  -4 1218.22   52.78   8
   0   2  -4 1095.35   56.06   6
   0  -2   4 956.411  48.643   1
   0  -2   4 1006.57   50.48   6
   0  -2   4 1032.62   55.00   7
   0  -2   4 999.617  51.569   8
  -1   2  -4 4730.43  253.00   1
  -1   2  -4 4923.33  215.65   8
  -1   2  -4 4604.77  222.42   6
  -1   2  -4 4890.72  239.40   7
   1  -2   4 4742.27  262.81   1
   1  -2   4 4671.91  234.57   6
   1  -2   4 4803.60  223.39   7
  -2   2  -4 154.666   9.076   6
  -2   2  -4 179.870  10.528   8
  -2   2  -4 161.500   8.546   1
  -2   2  -4 174.739  10.367   7
   2  -2   4 139.105   8.577   7
   2  -2   4 144.876   9.849   6
   2  -2   4 140.701   9.710   1
  -3   2  -4 1262.93   60.75   8
  -3   2  -4 1259.33   60.48   6
  -3   2  -4 1233.27   59.41   1
  -3   2  -4 1256.34   63.05   5
  -3   2  -4 1212.26   61.92   7
   3  -2   4 1216.27   60.77   7
   3  -2   4 1260.69   59.43   1
   3  -2   4 1198.46   60.81   3
   3  -2   4 1252.03   58.68   6
  -4   2  -4 1195.31   60.88   6
  -4   2  -4 1324.46   65.33   8
  -4   2  -4 1237.75   65.52   1
  -4   2  -4 1254.06   55.91   5
  -4   2  -4 1228.29   56.80   2
  -4   2  -4 1224.92   60.27   7
   4  -2   4 1315.48   57.53   3
   4  -2   4 1208.95   55.75   1
   4  -2   4 1233.18   59.53   7
  -5   2  -4 59.7808  5.2211   6
  -5   2  -4 62.7100  5.8080   7
  -5   2  -4 47.0639  4.6281   5
  -5   2  -4 55.3513  4.1648   2
   5  -2   4 53.9713  4.9267   7
   5  -2   4 60.3941  4.3918   1
  -6   2  -4 402.930  22.008   2
  -6   2  -4 435.724  22.660   5
  -6   2  -4 391.424  22.747   1
  -6   2  -4 368.851  20.287   7
  -6   2  -4 402.850  19.831   6
   6  -2   4 376.700  21.506   1
  -7   2  -4 241.502  14.833   1
  -7   2  -4 223.123  11.187   2
  -7   2  -4 222.649  13.503   6
  -7   2  -4 224.111  13.323   5
  -7   2  -4 203.966  13.298   7
   7  -2   4 207.100  13.622   1
  -8   2  -4 12.6195  3.9539   2
  -8   2  -4 11.6605  4.2600   7
  -8   2  -4 11.5355  3.4289   5
  -9   2  -4 48.7756  7.8445   7
  -9   2  -4 44.2808  6.6388   2
  -9  -1   4 12.7041  6.7277   7
  -9  -1   4 14.8195  5.2670   3
   8   1  -4 70.4929  6.1190   1
  -8  -1   4 75.0955  6.9875   3
  -8  -1   4 87.1001  8.8259   7
   7   1  -4 1.57103 3.25017   1
   7   1  -4 5.81275 2.95889   1
   7   1  -4 -0.3344  3.4075   5
  -7  -1   4 1.22714 3.48742   3
  -7  -1   4 1.46021 2.46303   6
  -7  -1   4 -8.4862  4.8338   7
   6   1  -4 622.569  31.652   1
   6   1  -4 627.534  32.109   5
   6   1  -4 612.124  43.969   1
  -6  -1   4 523.585  55.807   8
  -6  -1   4 633.553  31.008   6
  -6  -1   4 615.012  32.951   7
  -6  -1   4 639.808  29.598   3
   5   1  -4 607.945  31.121   1
   5   1  -4 614.892  30.433   1
   5   1  -4 614.627  33.528   4
   5   1  -4 581.463  31.858   5
  -5  -1   4 595.972  37.531   8
  -5  -1   4 601.444  33.399   6
  -5  -1   4 621.397  30.129   7
   4   1  -4 219.237  10.124   4
   4   1  -4 197.520  10.746   5
   4   1  -4 185.764  11.147   2
   4   1  -4 182.609   9.549   1
   4   1  -4 186.629  12.015   1
  -4  -1   4 179.852  11.376   6
  -4  -1   4 176.380  11.287   8
   3   1  -4 1455.82   69.71   1
   3   1  -4 1438.48   77.18   2
   3   1  -4 1385.72   65.34   4
   3   1  -4 1335.26   69.93   5
  -3  -1   4 1491.34   65.23   6
  -3  -1   4 1438.80   79.49   8
  -3  -1   4 1442.18   65.07   1
   2   1  -4 481.404  26.625   1
   2   1  -4 472.610  28.959   5
   2   1  -4 488.139  26.526   2
   2   1  -4 489.135  28.499   8
  -2  -1   4 635.461  30.694   8
  -2  -1   4 623.680  28.600   1
  -2  -1   4 621.764  32.552   6
   1   1  -4 161.357   9.303   1
   1   1  -4 187.624  11.670   8
   1   1  -4 168.839   9.482   5
  -1  -1   4 200.866   9.497   8
  -1  -1   4 179.537  11.305   6
  -1  -1   4 187.213   9.644   1
   0   1  -4 8218.29  405.86   6
   0   1  -4 8296.42  386.88   1
   0  -1   4 8556.47  441.67   6
   0  -1   4 8586.44  388.28   1
  -1   1  -4 3667.30  188.09   6
  -1   1  -4 3752.96  176.66   1
  -1   1  -4 3836.83  186.00   8
   1  -1   4 3515.92  201.07   7
   1  -1   4 3588.11  167.91   8
   1  -1   4 3583.77  191.94   1
   1  -1   4 3517.37  174.26   6
  -2   1  -4 46.8903  3.7558   7
  -2   1  -4 54.1671  4.1778   6
  -2   1  -4 51.7105  4.4135   8
  -2   1  -4 45.1387  4.2402   1
   2  -1   4 60.2654  4.3622   3
   2  -1   4 67.2433  4.3893   6
   2  -1   4 66.3237  3.9297   7
   2  -1   4 63.2600  4.0200   1
  -3   1  -4 1787.80  104.06   7
  -3   1  -4 1812.51   91.69   6
  -3   1  -4 1969.68   88.90   8
  -3   1  -4 1766.37   94.10   1
   3  -1   4 1878.93   89.61   6
   3  -1   4 1872.86  106.24   7
   3  -1   4 1811.84   95.71   3
   3  -1   4 1857.15   88.58   1
  -4   1  -4 509.759  25.352   8
  -4   1  -4 526.974  25.236   7
  -4   1  -4 500.717  26.286   1
  -4   1  -4 516.855  23.127   5
  -4   1  -4 530.317  31.649   6
   4  -1   4 514.066  26.793   7
   4  -1   4 481.792  23.928   3
   4  -1   4 510.222  28.159   1
  -5   1  -4 244.010  14.164   1
  -5   1  -4 245.264  13.298   8
  -5   1  -4 231.681  11.673   5
  -5   1  -4 249.166  11.269   2
  -5   1  -4 225.717  11.898   6
  -5   1  -4 246.058  13.506   7
   5  -1   4 235.081  11.199   1
   5  -1   4 207.568  12.281   3
   5  -1   4 245.127  15.269   7
  -6   1  -4 809.561  38.225   8
  -6   1  -4 797.488  38.842   2
  -6   1  -4 799.796  42.174   7
  -6   1  -4 787.811  41.353   5
  -6   1  -4 791.270  37.347   1
  -6   1  -4 784.125  43.882   6
   6  -1   4 769.372  37.767   1
   6  -1   4 788.896  40.157   7
  -7   1  -4 233.494  13.086   7
  -7   1  -4 250.158  12.173   2
  -7   1  -4 242.637  15.663   6
  -7   1  -4 232.724  11.777   1
  -7   1  -4 252.798  13.221   5
   7  -1   4 241.878  11.820   1
  -8   1  -4 25.2259  3.2019   1
  -8   1  -4 33.8232  3.7102   5
  -8   1  -4 31.3433  4.7965   2
  -8   1  -4 31.9214  5.8805   7
  -9   1  -4 91.5487  9.2059   7
  -9   1  -4 109.738   9.821   8
 -10   1  -4 27.8610  7.6436   7
 -10   1  -4 30.8597  8.0472   8
 -10   1  -4 28.9783  6.8670   2
  -9   0   4 34.8835  5.8570   3
  -9   0   4 36.0657  7.9096   7
   8   0  -4 32.7726  4.1767   1
  -8   0   4 28.7360  5.4071   7
  -8   0   4 19.5516  4.7575   3
   7   0  -4 46.4718  5.1499   1
  -7   0   4 39.8950  5.3948   5
  -7   0   4 49.5019  5.9682   3
  -7   0   4 47.4947  6.9793   7
   6   0  -4 794.756  47.948   1
   6   0  -4 793.168  46.596   5
   6   0  -4 845.772  48.333   1
  -6   0   4 847.921  40.090   7
  -6   0   4 849.375  42.397   5
  -6   0   4 863.343  42.095   3
   5   0  -4 236.609  12.983   5
   5   0  -4 242.696  13.049   1
   5   0  -4 224.796  13.600   1
  -5   0   4 267.914  12.339   3
  -5   0   4 267.918  15.471   7
  -5   0   4 266.113  15.528   8
  -5   0   4 278.164  14.122   5
   4   0  -4 994.660  52.042   1
   4   0  -4 926.299  74.567   2
   4   0  -4 989.490  55.742   1
   4   0  -4 1028.44   52.95   5
  -4   0   4 1040.65   58.47   7
  -4   0   4 974.863  50.990   8
  -4   0   4 1072.25   55.65   5
  -4   0   4 988.722  45.509   3
   3   0  -4 1493.65   71.01   1
   3   0  -4 1371.02   70.99   5
   3   0  -4 1475.72   83.16   2
   3   0  -4 1482.85   76.46   1
  -3   0   4 1501.27   73.16   5
  -3   0   4 1354.35   64.04   7
  -3   0   4 1379.97   76.39   8
   2   0  -4 225.377  12.722   8
   2   0  -4 223.112  11.549   1
   2   0  -4 213.613  14.216   5
   2   0  -4 229.658  10.422   4
   2   0  -4 227.885  13.157   1
  -2   0   4 220.300  11.447   8
  -2   0   4 230.969  11.962   5
  -2   0   4 231.645  10.816   7
   1   0  -4 2263.37  108.01   1
   1   0  -4 2357.79  109.90   8
   1   0  -4 2203.82  113.68   5
  -1   0   4 2251.86  126.89   8
  -1   0   4 2271.71  107.06   5
  -1   0   4 2271.40  113.61   1
   0   0  -4 6751.31  302.70   8
   0   0  -4 6459.86  351.54   1
   0   0  -4 6277.73  339.91   5
   0   0   4 6621.13  325.23   6
   0   0   4 6514.46  320.13   1
   0   0   4 6622.62  343.35   8
  -1   0  -4 371.543  20.826   1
  -1   0  -4 385.444  21.770   5
  -1   0  -4 408.340  22.014   8
   1   0   4 453.879  23.117   8
   1   0   4 479.169  24.844   6
   1   0   4 476.965  23.525   7
   1   0   4 445.835  20.413   1
   1   0   4 454.795  23.046   3
  -2   0  -4 1563.48   92.21   8
  -2   0  -4 1607.84   76.88   1
  -2   0  -4 1566.27   84.25   7
  -2   0  -4 1534.39   72.44   6
   2   0   4 1534.66   82.67   1
   2   0   4 1545.30   93.82   3
   2   0   4 1561.16   77.38   6
   2   0   4 1516.59   67.27   8
   2   0   4 1610.89   95.75   7
  -3   0  -4 1049.63   50.61   1
  -3   0  -4 1043.12   51.45   8
  -3   0  -4 1028.50   55.79   7
  -3   0  -4 1022.53   48.88   6
   3   0   4 1019.73   51.06   1
   3   0   4 944.926  49.015   6
   3   0   4 969.395  50.447   3
   3   0   4 1008.98   58.24   7
  -4   0  -4 178.469   9.152   6
  -4   0  -4 176.634   8.857   7
  -4   0  -4 188.828  10.218   3
  -4   0  -4 187.799   9.717   8
  -4   0  -4 181.173   9.493   1
   4   0   4 167.622   9.201   7
   4   0   4 175.703   9.939   6
   4   0   4 174.485   9.074   1
   4   0   4 171.782  11.426   3
  -5   0  -4 915.283  43.223   8
  -5   0  -4 919.330  47.843   7
  -5   0  -4 852.790  42.487   6
  -5   0  -4 841.190  44.229   4
  -5   0  -4 891.356  42.696   5
  -5   0  -4 849.256  43.227   3
  -5   0  -4 880.608  41.521   1
   5   0   4 866.357  45.204   1
   5   0   4 848.239  40.052   7
   5   0   4 832.942  44.411   3
  -6   0  -4 1390.29   67.97   7
  -6   0  -4 1347.22   66.22   3
  -6   0  -4 1305.49   74.92   1
  -6   0  -4 1294.91   63.15   8
  -6   0  -4 1341.20   62.31   2
  -6   0  -4 1308.30   67.10   5
  -6   0  -4 1348.45   70.73   6
   6   0   4 1377.66   63.31   1
  -7   0  -4 118.477   8.029   3
  -7   0  -4 120.150   8.156   7
  -7   0  -4 110.756   6.310   6
  -7   0  -4 104.247   6.785   1
  -7   0  -4 114.706   6.951   5
  -7   0  -4 118.906   8.177   8
  -7   0  -4 118.365   7.546   2
   7   0   4 113.577   5.985   1
  -8   0  -4 61.6965  7.2203   3
  -8   0  -4 52.3305  7.1758   7
  -8   0  -4 63.0407  3.8815   5
  -8   0  -4 67.5235  6.4349   2
  -8   0  -4 64.6440  7.3021   8
   8   0   4 56.9225  3.2862   1
  -9   0  -4 47.3785  6.1366   8
  -9   0  -4 50.5045  6.9306   7
  -9   0  -4 45.0980  6.1140   2
 -10   0  -4 0.39938 3.83035   7
 -10   0  -4 -3.5949  5.9429   8
 -10   0  -4 -5.2102  4.8223   2
  -9   1   4 25.9174  8.2047   7
   8  -1  -4 17.4510  3.7996   1
  -8   1   4 8.89437 4.47190   5
  -8   1   4 9.78638 6.20912   7
   7  -1  -4 203.859  15.489   1
  -7   1   4 196.285  11.307   5
  -7   1   4 205.373  12.880   7
  -7   1   4 181.076  11.696   3
   6  -1  -4 204.834  13.004   1
  -6   1   4 191.199  10.800   4
  -6   1   4 194.257  14.053   7
  -6   1   4 207.977  11.084   3
  -6   1   4 236.798  11.989   5
   5  -1  -4 7.80624 3.24474   5
   5  -1  -4 6.74429 3.20688   1
   5  -1  -4 14.9678  3.4586   1
  -5   1   4 8.63405 2.30742   4
  -5   1   4 16.0028  4.5050   7
  -5   1   4 13.4817  3.6293   5
  -5   1   4 4.36794 3.10259   3
   4  -1  -4 1435.29   70.26   5
   4  -1  -4 1476.39   80.73   1
   4  -1  -4 1453.21   69.37   1
  -4   1   4 1363.92   71.92   3
  -4   1   4 1408.43   76.31   5
  -4   1   4 1360.03   62.74   4
  -4   1   4 1357.79   76.35   8
  -4   1   4 1371.73   70.12   7
   3  -1  -4 2342.83  111.34   5
   3  -1  -4 2372.65  127.73   1
   3  -1  -4 2330.49  135.13   2
   3  -1  -4 2379.20  122.71   1
  -3   1   4 2526.47  113.50   5
  -3   1   4 2342.21  115.85   7
  -3   1   4 2376.40  111.08   8
  -3   1   4 2373.61  107.57   3
   2  -1  -4 26.2106  3.2182   5
   2  -1  -4 36.1051  4.3788   8
   2  -1  -4 35.8027  3.7710   1
   2  -1  -4 35.1402  3.9195   1
  -2   1   4 27.1675  4.2739   8
  -2   1   4 24.5941  2.1901   3
  -2   1   4 21.7188  3.1255   5
  -2   1   4 35.1083  4.1460   7
   1  -1  -4 8151.04  392.99   1
   1  -1  -4 8208.93  432.74   5
   1  -1  -4 8077.62  382.84   1
   1  -1  -4 8517.04  460.58   8
  -1   1   4 8051.59  361.67   8
  -1   1   4 8475.40  413.32   7
  -1   1   4 8271.20  386.76   5
   0  -1  -4 2853.77  140.54   8
   0  -1  -4 2700.41  122.42   4
   0  -1  -4 2716.75  126.68   5
   0  -1  -4 2644.29  148.93   1
   0  -1  -4 2610.18  134.19   1
   0   1   4 2820.08  123.11   5
   0   1   4 2800.65  133.08   7
   0   1   4 2767.03  135.62   8
  -1  -1  -4 413.665  22.002   4
  -1  -1  -4 402.197  21.500   1
  -1  -1  -4 392.467  19.574   3
  -1  -1  -4 380.371  27.567   5
  -1  -1  -4 388.320  20.147   1
  -1  -1  -4 409.913  23.699   8
   1   1   4 430.580  19.919   7
   1   1   4 399.171  21.229   5
   1   1   4 407.634  20.483   8
  -2  -1  -4 5266.45  270.93   4
  -2  -1  -4 5200.85  243.72   3
  -2  -1  -4 5157.87  241.42   1
  -2  -1  -4 5106.49  245.17   8
   2   1   4 5127.21  252.03   8
   2   1   4 5210.78  256.34   6
   2   1   4 5045.24  269.41   1
  -3  -1  -4 2174.69  100.43   4
  -3  -1  -4 2215.33  100.38   3
  -3  -1  -4 2142.07  100.26   5
  -3  -1  -4 2195.58   98.30   8
  -3  -1  -4 2112.51   99.42   7
  -3  -1  -4 2207.99   98.52   1
   3   1   4 2059.54  100.24   8
   3   1   4 2111.06  109.35   6
   3   1   4 2029.64  102.90   1
  -4  -1  -4 167.832   9.590   7
  -4  -1  -4 178.574   8.808   1
  -4  -1  -4 173.418   9.829   4
  -4  -1  -4 194.159  10.822   8
  -4  -1  -4 189.200   9.532   3
  -4  -1  -4 175.705   9.325   5
   4   1   4 163.147   8.639   1
   4   1   4 167.146   8.807   6
  -5  -1  -4 1630.53   83.99   3
  -5  -1  -4 1650.58   75.44   5
  -5  -1  -4 1561.30   70.95   7
  -5  -1  -4 1560.55   99.84   4
  -5  -1  -4 1612.32   73.84   8
  -5  -1  -4 1624.41   73.61   5
  -5  -1  -4 1607.56   89.56   1
   5   1   4 1684.16   78.80   6
   5   1   4 1637.96   73.17   1
  -6  -1  -4 801.487  39.581   7
  -6  -1  -4 775.359  38.947   5
  -6  -1  -4 774.593  35.417   5
  -6  -1  -4 857.486  45.807   3
  -6  -1  -4 795.684  49.973   8
  -6  -1  -4 794.591  36.087   1
   6   1   4 751.807  34.981   1
  -7  -1  -4 140.163   5.773   5
  -7  -1  -4 149.714   9.399   3
  -7  -1  -4 125.608   5.779   5
  -7  -1  -4 141.507   9.247   8
  -7  -1  -4 168.324  10.184   7
  -7  -1  -4 142.667   8.229   2
  -8  -1  -4 342.856  19.259   8
  -8  -1  -4 340.040  16.693   2
  -8  -1  -4 331.090  18.873   7
  -8  -1  -4 328.118  18.116   3
  -9  -1  -4 90.7437  8.7988   7
  -9  -1  -4 104.318   8.153   2
  -9  -1  -4 88.9272  8.6228   8
 -10  -1  -4 6.46207 5.41986   8
 -10  -1  -4 -1.7273  4.9824   7
 -10  -1  -4 8.47796 6.21661   3
 -10  -1  -4 5.45497 5.10339   2
 -11  -1  -4 19.6714  7.7651   3
 -11  -1  -4 24.2027  8.1925   2
   8  -2  -4 14.4135  5.0744   1
  -8   2   4 17.1458  6.6562   7
  -8   2   4 17.4562  5.2931   5
   7  -2  -4 125.265  10.652   1
  -7   2   4 135.007   9.748   5
  -7   2   4 167.187  11.513   7
   6  -2  -4 7.81142 3.77510   1
  -6   2   4 4.35982 3.73015   7
  -6   2   4 0.35978 4.28740   5
   5  -2  -4 319.240  17.755   1
  -5   2   4 335.702  18.752   7
  -5   2   4 307.028  16.337   4
  -5   2   4 339.941  17.026   5
   4  -2  -4 1232.60   62.16   5
   4  -2  -4 1214.26   93.89   1
  -4   2   4 1189.03   56.13   4
  -4   2   4 1196.30   57.25   7
  -4   2   4 1239.06   71.80   5
  -4   2   4 1208.54   59.35   1
   3  -2  -4 647.279  31.566   7
   3  -2  -4 627.757  31.902   5
   3  -2  -4 634.106  36.457   1
   3  -2  -4 604.413  29.502   2
  -3   2   4 767.239  38.769   5
  -3   2   4 702.576  36.391   1
  -3   2   4 648.196  33.046   8
  -3   2   4 684.755  35.006   7
  -3   2   4 665.666  30.067   4
   2  -2  -4 829.693  45.622   5
   2  -2  -4 839.970  38.602   7
   2  -2  -4 824.072  47.229   1
  -2   2   4 756.768  42.290   1
  -2   2   4 743.284  33.635   4
  -2   2   4 773.137  39.618   5
  -2   2   4 787.580  36.644   7
  -2   2   4 773.216  37.282   8
   1  -2  -4 2369.34  108.51   5
   1  -2  -4 2234.06  111.51   8
   1  -2  -4 2358.81  103.83   3
   1  -2  -4 2356.88  106.69   7
   1  -2  -4 2220.05  135.31   1
  -1   2   4 2421.35  141.04   8
  -1   2   4 2322.64  132.56   5
  -1   2   4 2463.36  103.73   4
  -1   2   4 2456.33  135.74   1
  -1   2   4 2479.08  115.75   7
   0  -2  -4 526.900  28.504   8
   0  -2  -4 480.704  24.872   1
   0  -2  -4 524.780  26.057   7
   0  -2  -4 537.680  26.746   5
   0   2   4 531.227  25.332   4
   0   2   4 512.452  28.081   7
   0   2   4 528.070  26.604   5
   0   2   4 485.868  26.909   8
   0   2   4 515.871  28.493   1
  -1  -2  -4 1097.02   54.23   4
  -1  -2  -4 1094.60   50.33   1
  -1  -2  -4 1071.91   50.94   8
  -1  -2  -4 1082.74   47.80   5
  -1  -2  -4 1110.17   52.13   7
   1   2   4 970.530  60.117   5
   1   2   4 1028.49   49.08   4
   1   2   4 983.095  50.370   7
   1   2   4 993.913  48.405   8
   1   2   4 990.358  52.396   1
  -2  -2  -4 9008.93  424.58   1
  -2  -2  -4 9327.95  418.82   4
   2   2   4 9302.02  428.41   4
  -3  -2  -4 432.271  27.096   5
  -3  -2  -4 436.600  25.228   4
  -3  -2  -4 459.279  24.042   8
  -3  -2  -4 454.826  23.503   1
  -3  -2  -4 423.699  23.401   3
  -3  -2  -4 415.533  30.704   1
   3   2   4 362.173  23.116   8
   3   2   4 384.346  20.806   5
   3   2   4 391.447  20.367   4
  -4  -2  -4 790.235  39.305   7
  -4  -2  -4 807.505  41.158   3
  -4  -2  -4 815.840  36.860   1
  -4  -2  -4 815.102  47.093   5
  -4  -2  -4 783.053  36.398   8
  -4  -2  -4 788.889  54.918   1
  -4  -2  -4 789.145  43.191   4
   4   2   4 750.626  38.841   8
   4   2   4 807.056  40.259   6
  -5  -2  -4 1884.49   84.56   5
  -5  -2  -4 1947.66   93.31   4
  -5  -2  -4 2047.75   95.13   8
  -5  -2  -4 1845.81   86.21   1
  -5  -2  -4 1928.12  102.44   3
  -5  -2  -4 1850.78   95.67   7
  -5  -2  -4 1919.55   86.89   1
   5   2   4 1862.91   94.24   6
  -6  -2  -4 150.042   8.424   8
  -6  -2  -4 136.763   7.619   7
  -6  -2  -4 137.296   8.624   3
  -7  -2  -4 167.871  10.194   3
  -7  -2  -4 182.379  10.356   8
  -7  -2  -4 172.803   9.992   2
  -7  -2  -4 166.670   9.378   7
  -8  -2  -4 283.581  14.639   7
  -8  -2  -4 303.822  16.238   2
  -8  -2  -4 244.638  17.707   3
  -8  -2  -4 313.918  15.639   8
  -9  -2  -4 34.9457  5.4898   7
  -9  -2  -4 24.8337  5.5248   8
  -9  -2  -4 32.1651  5.1682   3
 -10  -2  -4 68.2827  7.4860   2
 -10  -2  -4 44.7244  6.8961   7
 -10  -2  -4 61.4766  7.4235   8
 -10  -2  -4 61.2803  7.1930   3
 -11  -2  -4 59.9236  8.5600   8
 -11  -2  -4 45.3277  7.2083   3
 -11  -2  -4 42.7057  7.5381   2
 -11  -2  -4 28.6533  8.5021   7
   8  -3  -4 43.6435  6.8649   1
  -8   3   4 39.3909  6.2278   5
  -8   3   4 40.8841  8.4863   7
   7  -3  -4 67.7207  6.9917   1
  -7   3   4 72.5227  9.0140   7
  -7   3   4 91.6721  7.9126   5
  -6   3   4 15.0267  4.5399   5
  -6   3   4 12.0271  5.7690   7
  -6   3   4 11.6663  4.3244   1
  -5   3   4 415.724  26.906   5
  -5   3   4 421.267  18.911   4
  -5   3   4 431.369  25.284   7
  -5   3   4 440.571  23.188   1
  -4   3   4 456.605  24.402   7
  -4   3   4 413.384  21.755   4
  -4   3   4 445.767  21.974   1
  -4   3   4 413.786  23.252   5
   3  -3  -4 182.609  10.904   1
   3  -3  -4 167.352   8.720   3
   3  -3  -4 172.335  10.710   5
   3  -3  -4 152.149   9.412   7
  -3   3   4 161.389   9.677   7
  -3   3   4 174.251  10.028   5
  -3   3   4 169.948  10.090   1
   2  -3  -4 1610.47   82.02   3
   2  -3  -4 1561.99   90.09   7
   2  -3  -4 1506.81   95.20   1
   2  -3  -4 1555.89   79.96   5
  -2   3   4 1575.75   80.45   8
  -2   3   4 1682.69   88.71   1
  -2   3   4 1664.18   78.17   7
  -2   3   4 1678.52   98.00   5
   1  -3  -4 659.113  30.392   5
   1  -3  -4 634.046  30.902   7
   1  -3  -4 676.691  30.817   1
   1  -3  -4 693.894  32.648   8
  -1   3   4 590.558  32.401   5
  -1   3   4 564.790  33.189   8
  -1   3   4 603.460  30.449   1
  -1   3   4 596.803  32.216   7
   0  -3  -4 165.535   8.389   1
   0  -3  -4 152.202   9.068   8
   0  -3  -4 160.745   9.363   5
   0  -3  -4 149.950   7.716   7
   0   3   4 139.698   7.438   4
   0   3   4 146.358   7.608   7
   0   3   4 139.904   8.427   8
   0   3   4 143.199   9.247   1
   0   3   4 137.652   8.472   5
  -1  -3  -4 5700.73  281.24   8
  -1  -3  -4 5668.14  279.26   7
  -1  -3  -4 5709.85  318.95   5
  -1  -3  -4 5729.53  275.91   1
   1   3   4 5521.34  293.66   8
   1   3   4 5858.65  266.29   1
   1   3   4 5470.28  267.72   7
   1   3   4 5755.53  272.15   4
   1   3   4 5812.82  289.93   5
  -2  -3  -4 1910.94   97.41   1
  -2  -3  -4 1987.47  131.26   8
  -2  -3  -4 1959.44   88.40   7
  -2  -3  -4 2003.91  102.60   5
  -2  -3  -4 1993.12   90.75   4
   2   3   4 1816.00   87.44   4
   2   3   4 1815.44   89.48   8
   2   3   4 1786.85   86.73   1
   2   3   4 1825.63   94.58   5
  -3  -3  -4 33.0840  2.6770   7
  -3  -3  -4 44.7858  4.2720   8
  -3  -3  -4 42.6316  3.4394   1
  -3  -3  -4 43.0532  3.3021   5
   3   3   4 37.7537  3.9834   4
   3   3   4 40.6989  3.5563   1
   3   3   4 45.3287  3.5972   5
   3   3   4 40.5209  3.6557   8
  -4  -3  -4 2551.91  131.21   5
  -4  -3  -4 2524.07  113.83   8
  -4  -3  -4 2411.41  111.08   1
  -4  -3  -4 2545.40  112.22   4
  -4  -3  -4 2494.74  124.26   1
   4   3   4 2410.63  116.51   8
   4   3   4 2402.42  110.91   4
   4   3   4 2446.36  130.10   5
  -5  -3  -4 501.736  28.038   8
  -5  -3  -4 548.157  33.959   4
  -5  -3  -4 526.331  23.093   1
  -5  -3  -4 524.949  26.370   5
  -5  -3  -4 525.915  23.575   1
   5   3   4 456.759  24.253   6
   5   3   4 466.498  25.319   4
  -6  -3  -4 299.155  17.360   8
  -6  -3  -4 302.247  17.016   3
  -6  -3  -4 291.581  13.686   7
   6   3   4 268.216  12.944   6
   6   3   4 273.935  14.199   4
  -7  -3  -4 660.202  39.611   7
  -7  -3  -4 686.661  33.688   8
  -7  -3  -4 685.268  35.661   3
  -8  -3  -4 197.708  11.893   3
  -8  -3  -4 182.331  11.032   2
  -8  -3  -4 199.917  10.823   7
  -8  -3  -4 194.862  11.003   8
  -9  -3  -4 10.4471  3.7012   2
  -9  -3  -4 4.15881 4.83862   3
  -9  -3  -4 13.2452  5.2609   8
  -9  -3  -4 7.55345 4.16860   7
 -10  -3  -4 43.7522  6.3807   8
 -10  -3  -4 53.8897  6.8722   7
 -10  -3  -4 57.7984  7.8546   3
 -10  -3  -4 58.3255  7.3432   2
 -11  -3  -4 14.0561  5.9652   8
 -11  -3  -4 12.3687  6.1248   2
 -11  -3  -4 22.9327  6.6334   7
 -11  -3  -4 13.8386  6.8914   3
  -7   4   4 13.4720  5.3173   5
  -7   4   4 10.2311  6.2536   1
  -7   4   4 19.8016  7.1160   7
  -6   4   4 93.8022  8.7683   1
  -6   4   4 73.5701 10.8365   7
  -6   4   4 87.5058  8.1631   5
  -5   4   4 114.735   8.794   5
  -5   4   4 89.6680  9.5558   7
  -5   4   4 116.464   9.037   1
   4  -4  -4 242.240  12.725   3
  -4   4   4 264.304  16.344   5
  -4   4   4 260.360  14.514   7
  -4   4   4 270.745  14.836   1
   3  -4  -4 296.280  13.777   3
  -3   4   4 275.582  14.545   1
  -3   4   4 268.555  14.869   7
  -3   4   4 266.931  15.249   5
   2  -4  -4 1012.16   50.35   3
   2  -4  -4 958.185  56.461   5
   2  -4  -4 1076.08   58.81   1
   2  -4  -4 1006.75   46.09   7
  -2   4   4 977.683  47.370   1
  -2   4   4 999.543  48.692   7
  -2   4   4 1023.89   47.31   5
  -2   4   4 915.112  59.496   8
   1  -4  -4 416.521  29.201   1
   1  -4  -4 424.776  22.042   5
   1  -4  -4 459.254  24.773   7
  -1   4   4 410.324  22.725   1
  -1   4   4 433.141  21.757   7
  -1   4   4 425.349  19.685   8
  -1   4   4 448.035  21.912   5
   0  -4  -4 1446.38   69.86   5
   0  -4  -4 1570.21   83.29   7
   0  -4  -4 1436.25   94.69   1
   0  -4  -4 1473.57   74.15   8
   0   4   4 1541.98   84.54   8
   0   4   4 1543.65   86.95   1
   0   4   4 1600.68   82.18   5
   0   4   4 1583.83   77.31   7
  -1  -4  -4 2926.81  138.04   8
  -1  -4  -4 3022.76  165.20   1
  -1  -4  -4 2867.66  151.09   7
  -1  -4  -4 2874.36  140.36   5
   1   4   4 3153.57  154.79   1
   1   4   4 3110.69  138.45   4
   1   4   4 3028.78  137.86   7
   1   4   4 3047.26  136.94   8
   1   4   4 3080.37  156.47   5
  -2  -4  -4 305.484  18.966   1
  -2  -4  -4 304.217  15.110   7
  -2  -4  -4 284.018  18.231   8
  -2  -4  -4 298.227  18.871   5
   2   4   4 308.614  16.470   8
   2   4   4 327.215  14.977   7
   2   4   4 314.855  16.510   5
   2   4   4 303.396  14.444   4
   2   4   4 319.966  15.862   1
  -3  -4  -4 864.946  46.688   1
  -3  -4  -4 895.134  54.413   5
  -3  -4  -4 914.034  47.471   8
  -3  -4  -4 928.464  43.770   7
   3   4   4 1003.78   53.20   5
   3   4   4 997.321  49.880   8
   3   4   4 1024.57   44.83   4
   3   4   4 1059.61   48.59   1
  -4  -4  -4 464.787  23.320   4
  -4  -4  -4 492.552  28.344   1
  -4  -4  -4 487.128  27.776   7
  -4  -4  -4 480.385  21.582   5
  -4  -4  -4 487.741  23.443   8
   4   4   4 360.278  23.027   5
   4   4   4 401.535  23.869   1
   4   4   4 379.057  21.287   4
   4   4   4 367.205  21.239   8
  -5  -4  -4 556.884  25.507   1
  -5  -4  -4 531.567  29.265   4
  -5  -4  -4 560.166  31.829   8
  -5  -4  -4 561.748  25.411   5
   5   4   4 569.007  30.343   4
   5   4   4 588.959  33.890   1
   5   4   4 558.428  29.447   5
   5   4   4 542.664  26.603   8
  -6  -4  -4 496.971  21.290   1
  -6  -4  -4 488.499  22.005   8
  -6  -4  -4 467.799  22.318   1
   6   4   4 499.892  25.067   4
   6   4   4 472.921  25.138   6
  -7  -4  -4 902.437  44.154   8
   7   4   4 869.080  40.314   4
  -8  -4  -4 25.1675  4.1853   8
  -8  -4  -4 34.2158  5.5818   2
  -8  -4  -4 22.5332  5.3375   3
  -8  -4  -4 17.6528  4.0563   7
  -9  -4  -4 38.3975  5.7374   8
  -9  -4  -4 40.8204  6.6769   3
  -9  -4  -4 46.6544  5.5813   7
  -9  -4  -4 34.3648  4.9420   2
 -10  -4  -4 100.371   8.903   2
 -10  -4  -4 106.923   9.714   3
 -10  -4  -4 83.2664  8.1411   7
 -10  -4  -4 87.6865  8.4488   8
 -11  -4  -4 9.92064 6.34429   8
 -11  -4  -4 3.41962 4.38598   2
 -11  -4  -4 -0.3146  5.6420   7
 -11  -4  -4 1.78757 4.45531   3
  -7   5   4 3.17018 5.31131   1
  -7   5   4 1.84008 7.48506   7
  -7   5   4 5.46808 5.41407   5
  -6   5   4 62.5274  7.4991   1
  -6   5   4 40.5562  6.8069   5
  -6   5   4 59.6989  8.5309   7
  -5   5   4 131.973  10.020   1
  -5   5   4 129.659   9.845   5
  -5   5   4 135.290  11.918   7
   4  -5  -4 4.50270 3.56015   3
  -4   5   4 11.9258  4.9623   5
  -4   5   4 4.75443 4.78626   1
  -4   5   4 -5.5577  4.7503   7
   3  -5  -4 895.557  48.844   3
  -3   5   4 966.192  46.849   5
  -3   5   4 909.691  41.399   7
  -3   5   4 922.303  70.320   1
  -2   5   4 759.640  47.836   7
  -2   5   4 686.704  32.970   5
  -2   5   4 700.007  34.447   1
  -1   5   4 33.0920  4.3073   5
  -1   5   4 39.7901  4.4279   7
  -1   5   4 35.4875  4.9236   1
  -1   5   4 30.6528  4.9103   8
   0  -5  -4 1701.57  102.64   1
   0  -5  -4 1765.29   91.19   5
   0  -5  -4 1827.90  101.30   7
   0   5   4 1812.69   97.96   5
   0   5   4 1771.81  101.51   8
   0   5   4 1909.04   86.28   1
   0   5   4 1873.27   94.40   7
  -1  -5  -4 770.965  40.667   1
  -1  -5  -4 733.933  47.064   5
  -1  -5  -4 707.170  34.248   8
  -1  -5  -4 763.029  35.980   7
   1   5   4 829.832  39.070   5
   1   5   4 792.551  39.476   7
   1   5   4 861.625  43.174   1
   1   5   4 769.009  42.933   8
  -2  -5  -4 459.601  30.632   1
  -2  -5  -4 445.111  24.641   5
  -2  -5  -4 469.355  25.031   7
  -2  -5  -4 468.832  28.572   8
   2   5   4 459.528  24.146   8
   2   5   4 501.692  24.394   4
   2   5   4 532.613  24.862   1
   2   5   4 507.463  25.678   7
   2   5   4 500.431  25.573   5
  -3  -5  -4 1326.53   58.46   8
  -3  -5  -4 1335.69   99.20   1
  -3  -5  -4 1313.87   65.70   5
  -3  -5  -4 1309.06   64.24   7
   3   5   4 1244.81   56.88   8
   3   5   4 1279.80   65.77   1
   3   5   4 1225.66   58.62   4
   3   5   4 1251.68   63.96   5
  -4  -5  -4 883.173  43.208   1
  -4  -5  -4 860.254  40.418   5
  -4  -5  -4 835.979  42.794   7
  -4  -5  -4 838.297  39.883   8
   4   5   4 821.973  40.562   4
   4   5   4 827.402  54.526   1
   4   5   4 846.000  49.980   5
   4   5   4 770.186  42.856   8
  -5  -5  -4 28.9077  3.2966   7
  -5  -5  -4 29.4611  2.9072   5
  -5  -5  -4 31.7439  3.0593   1
  -5  -5  -4 33.3363  3.7622   8
   5   5   4 33.0629  3.1004   5
   5   5   4 30.4241  3.3840   8
   5   5   4 22.0182  4.5361   4
   5   5   4 24.4517  3.0429   1
  -6  -5  -4 538.320  28.938   5
  -6  -5  -4 592.865  34.673   8
  -6  -5  -4 560.065  25.743   1
   6   5   4 592.145  31.453   1
   6   5   4 615.540  30.379   5
   6   5   4 628.998  33.268   4
  -7  -5  -4 158.822  10.197   8
  -7  -5  -4 163.550   7.185   1
  -7  -5  -4 157.129   7.065   1
   7   5   4 187.514  10.223   4
   7   5   4 157.199   6.832   6
  -8  -5  -4 10.4105  3.7712   8
  -8  -5  -4 6.89529 3.23632   2
   8   5   4 5.63166 4.72083   4
  -9  -5  -4 222.005  13.586   7
  -9  -5  -4 224.099  13.685   8
  -9  -5  -4 222.837  13.668   2
  -9  -5  -4 273.057  15.239   3
   9   5   4 215.693  14.859   4
 -10  -5  -4 81.0722  8.5466   2
 -10  -5  -4 58.6625  6.9230   7
 -10  -5  -4 68.2499  6.6404   8
 -11  -5  -4 4.10546 4.06476   2
 -11  -5  -4 5.23794 4.68320   8
 -11  -5  -4 8.14515 5.42028   7
 -11  -5  -4 18.9752  6.7021   3
  -6   6   4 38.0794  7.0961   5
  -6   6   4 33.9666  7.2090   1
  -6   6   4 33.2143  6.9673   7
  -5   6   4 25.5733  6.3115   5
  -5   6   4 36.3068  6.7652   1
  -5   6   4 21.3605  7.2381   7
  -4   6   4 79.2611  8.3711   5
  -4   6   4 103.149   8.777   1
  -4   6   4 77.4863  8.7796   7
   3  -6  -4 415.749  27.552   3
  -3   6   4 365.967  24.858   7
  -3   6   4 334.070  19.160   1
  -3   6   4 428.786  22.015   5
  -2   6   4 197.129  12.094   5
  -2   6   4 196.106  11.871   1
  -2   6   4 203.402  12.454   7
  -1   6   4 263.397  14.182   5
  -1   6   4 263.538  14.298   7
  -1   6   4 246.357  14.240   1
   0  -6  -4 1104.03   65.88   7
   0   6   4 1225.42   58.12   7
   0   6   4 1207.55   70.20   8
   0   6   4 1251.51   60.66   1
   0   6   4 1251.46   60.28   5
  -1  -6  -4 271.733  13.828   7
  -1  -6  -4 258.703  13.867   5
   1   6   4 260.369  13.553   7
   1   6   4 245.756  13.416   8
   1   6   4 277.145  15.978   5
   1   6   4 267.914  13.797   1
  -2  -6  -4 1182.73   55.59   7
  -2  -6  -4 1163.64   60.73   5
  -2  -6  -4 1179.53   63.01   1
  -2  -6  -4 1200.22   69.35   8
   2   6   4 1209.98   61.23   7
   2   6   4 1152.30   56.41   1
   2   6   4 1152.25   55.67   8
   2   6   4 1222.58   59.45   5
   2   6   4 1155.08   53.32   4
  -3  -6  -4 1845.60   93.93   1
  -3  -6  -4 1781.18  108.64   7
  -3  -6  -4 1843.83   91.56   5
  -3  -6  -4 1785.80   97.63   8
   3   6   4 1893.34   85.24   4
   3   6   4 1846.35   99.24   5
   3   6   4 1826.63   91.03   8
   3   6   4 1849.51   91.89   1
  -4  -6  -4 75.3850  5.3857   8
  -4  -6  -4 79.2358  5.5309   7
  -4  -6  -4 76.8061  6.1117   1
  -4  -6  -4 81.5239  5.7768   5
   4   6   4 77.5829  5.8237   1
   4   6   4 78.0552  4.9752   8
   4   6   4 78.1829  6.6976   4
   4   6   4 79.2911  5.6087   5
  -5  -6  -4 324.557  22.889   1
  -5  -6  -4 352.475  17.645   8
  -5  -6  -4 329.389  18.379   5
  -5  -6  -4 334.763  19.850   7
   5   6   4 349.382  21.687   1
   5   6   4 349.319  18.987   8
   5   6   4 347.363  16.820   4
   5   6   4 334.524  17.262   5
  -6  -6  -4 241.552  12.245   7
  -6  -6  -4 233.662  12.126   1
  -6  -6  -4 240.268  12.058   8
  -6  -6  -4 225.837  12.330   5
   6   6   4 242.563  12.098   5
   6   6   4 235.102  14.221   4
   6   6   4 227.509  12.558   1
  -7  -6  -4 96.6529  7.0411   8
  -7  -6  -4 99.2117  5.6540   1
   7   6   4 103.208   8.276   4
   7   6   4 99.1022  5.4808   5
   7   6   4 95.6423  6.4063   1
   7   6   4 95.8410  5.2028   6
  -8  -6  -4 28.6194  4.2538   8
   8   6   4 40.5334  6.1473   4
  -9  -6  -4 243.671  13.690   2
  -9  -6  -4 216.209  15.993   8
   9   6   4 213.951  13.484   4
 -10  -6  -4 6.22881 5.25777   2
 -10  -6  -4 3.04175 5.38661   3
 -10  -6  -4 9.95073 3.76975   8
 -10  -6  -4 12.7176  5.8515   7
  10   6   4 9.67471 5.84701   4
 -11  -6  -4 13.3670  6.6119   3
 -11  -6  -4 7.79467 4.86880   2
 -11  -6  -4 15.9489  5.4195   7
  -5   7   4 -2.8094  5.7136   5
  -5   7   4 10.4905  7.0667   7
  -5   7   4 -1.8394  5.7509   1
  -4   7   4 167.712  12.192   7
  -4   7   4 160.067  15.466   1
  -4   7   4 130.586  11.578   5
  -3   7   4 186.997  12.282   1
  -3   7   4 211.912  13.297   5
  -3   7   4 202.164  13.442   7
  -2   7   4 36.3786  6.1638   7
  -2   7   4 29.7015  6.0784   5
  -2   7   4 29.4405  6.2726   1
  -1   7   4 302.616  15.420   7
  -1   7   4 312.115  16.543   5
  -1   7   4 243.545  17.564   1
   0   7   4 343.658  17.613   1
   0   7   4 339.314  17.009   5
   0   7   4 306.186  17.994   7
   1   7   4 0.85840 4.33007   7
   1   7   4 1.55988 4.08021   5
   1   7   4 7.80732 3.63949   8
   1   7   4 1.99245 4.03778   1
  -2  -7  -4 950.202  52.560   7
   2   7   4 960.409  46.761   7
   2   7   4 857.184  59.755   8
   2   7   4 1006.53   52.14   1
   2   7   4 1027.63   44.55   5
  -3  -7  -4 481.996  27.144   5
  -3  -7  -4 480.556  27.842   7
  -3  -7  -4 508.882  25.024   8
   3   7   4 504.862  28.293   8
   3   7   4 517.693  26.606   4
   3   7   4 522.289  30.144   1
   3   7   4 489.880  27.439   5
  -4  -7  -4 6.46049 3.22856   1
  -4  -7  -4 6.04150 3.73407   7
  -4  -7  -4 6.99631 3.40320   8
  -4  -7  -4 1.43273 3.66738   5
   4   7   4 10.5729  3.5630   1
   4   7   4 16.1243  4.4570   4
   4   7   4 7.41357 3.11047   5
   4   7   4 8.78486 2.85034   8
  -5  -7  -4 364.855  26.132   5
  -5  -7  -4 357.257  22.218   1
  -5  -7  -4 357.983  19.844   7
  -5  -7  -4 393.522  19.336   8
   5   7   4 356.508  16.817   8
   5   7   4 417.951  20.809   4
   5   7   4 401.894  21.860   1
   5   7   4 407.264  20.467   5
  -6  -7  -4 94.5151  6.9262   8
  -6  -7  -4 95.8758  6.9348   5
  -6  -7  -4 97.6552  6.2081   1
   6   7   4 87.7658  5.7482   8
   6   7   4 91.3782  6.3618   1
   6   7   4 79.1932  5.9970   5
   6   7   4 99.3098  8.1436   4
  -7  -7  -4 2.27373 2.94342   8
  -7  -7  -4 6.94138 2.85919   1
   7   7   4 5.95971 2.18443   5
   7   7   4 3.25456 4.92826   4
   7   7   4 5.84558 2.25184   6
  -8  -7  -4 125.940   8.638   8
   8   7   4 128.287   6.743   5
   8   7   4 123.643   9.999   4
   8   7   4 139.581   7.004   1
  -9  -7  -4 55.1942  7.0090   2
  -9  -7  -4 37.8630  4.3547   8
   9   7   4 59.8894  7.6474   4
 -10  -7  -4 2.65930 5.37933   2
  10   7   4 4.31364 5.89330   4
  11   7   4 7.78657 6.64348   4
  -4   8   4 91.0606 10.0617   7
  -4   8   4 89.9554  9.8025   1
  -3   8   4 13.6982  6.0480   1
  -3   8   4 20.5684  5.2430   5
  -3   8   4 11.2078  4.8668   7
  -2   8   4 39.3471  7.2633   5
  -2   8   4 34.0937  6.9691   1
  -2   8   4 47.8281  7.0477   7
  -1   8   4 286.987  16.329   1
  -1   8   4 200.785  15.712   5
  -1   8   4 251.566  17.006   7
   0   8   4 63.6448  7.3439   5
   0   8   4 69.2255  7.2126   7
   0   8   4 49.6348  6.9859   1
   1   8   4 191.737  13.084   1
   1   8   4 205.462  11.867   7
   1   8   4 223.481  14.118   5
   2   8   4 146.694   9.807   1
   2   8   4 137.915  10.018   7
   2   8   4 167.514  12.608   8
   2   8   4 182.132  10.754   5
   3   8   4 92.2827  7.8474   4
   3   8   4 107.729   8.039   5
   3   8   4 94.4920  6.4771   8
  -4  -8  -4 189.074  10.135   8
   4   8   4 164.395  10.394   5
   4   8   4 171.880   9.425   8
   4   8   4 200.587  11.747   4
   4   8   4 182.668  10.741   1
  -5  -8  -4 228.667  17.380   8
   5   8   4 229.760  13.107   4
   5   8   4 214.503  12.933   1
   5   8   4 189.852  12.780   8
   5   8   4 219.226  12.282   5
  -6  -8  -4 76.3130 23.1014   5
  -6  -8  -4 58.9315  4.7967   8
  -6  -8  -4 47.4299  5.4721   1
   6   8   4 54.0673  4.1252   8
   6   8   4 49.8115  5.3531   5
   6   8   4 63.0115  7.0487   4
   6   8   4 46.8784  5.4378   1
  -7  -8  -4 127.901   8.815   8
   7   8   4 142.208   8.394   1
   7   8   4 135.583   9.982   4
   7   8   4 148.880   8.083   6
   7   8   4 145.084  10.086   5
   8   8   4 125.062   8.350   1
   8   8   4 123.162  10.441   4
   8   8   4 125.351   7.161   5
  -9  -8  -4 -7.5435  4.8520   2
   9   8   4 0.79206 5.70217   4
 -10  -8  -4 4.06733 5.73511   2
  10   8   4 4.16133 4.45260   4
  -3   9   4 16.1765  5.2934   1
  -3   9   4 29.8898  7.7795   7
  -3   9   4 26.3785  7.6345   5
  -2   9   4 67.7311  8.8742   5
  -2   9   4 72.7270  8.6723   7
  -2   9   4 67.3412  9.0036   1
  -1   9   4 78.0399  8.8959   5
  -1   9   4 92.3472  9.1470   7
  -1   9   4 95.8781  9.4011   1
   0   9   4 10.3586  5.7493   5
   0   9   4 5.65560 3.51980   7
   0   9   4 10.2448  5.7848   1
   1   9   4 280.240  18.191   1
   1   9   4 245.782  16.941   7
   1   9   4 286.266  19.108   5
   2   9   4 252.218  16.457   5
   2   9   4 296.514  16.836   1
   2   9   4 279.605  16.374   7
   3   9   4 68.2335  7.4516   1
   3   9   4 77.5041  7.8831   4
   3   9   4 91.0701  6.6965   8
   3   9   4 80.1708  7.7338   5
   4   9   4 132.397  10.310   4
   4   9   4 135.790   8.231   8
   4   9   4 137.165  10.015   1
   4   9   4 144.607   9.716   5
   5   9   4 76.9614  7.3165   1
   5   9   4 51.4577  6.6313   5
   5   9   4 64.9786  4.7159   8
  -6  -9  -4 -1.1360  2.1552   8
   6   9   4 1.59126 3.93813   5
   6   9   4 5.01733 3.84476   4
   6   9   4 -5.0318  4.2321   1
   7   9   4 65.2846  8.1264   4
   7   9   4 73.4386  6.7728   1
   7   9   4 73.2210  6.6291   5
   8   9   4 21.0055  3.8775   1
   8   9   4 28.8243  5.5771   4
  -9  -9  -4 -4.5070  5.2762   2
   9   9   4 16.3167  6.7286   4
 -10  -9  -4 23.1616  6.9669   2
  -2  10   4 61.9369  9.6659   1
  -2  10   4 84.7357  8.9991   7
  -2  10   4 73.8930 10.1450   5
  -1  10   4 57.6659  7.6417   1
  -1  10   4 82.4293  9.4231   5
  -1  10   4 61.0513  7.5746   7
   0  10   4 2.81479 5.34322   7
   0  10   4 5.77240 5.86919   5
   0  10   4 4.72027 6.15602   1
   1  10   4 161.786  13.576   1
   1  10   4 159.314  11.980   5
   1  10   4 159.211  13.006   7
   2  10   4 18.1961  6.0708   1
   2  10   4 20.5452  6.0016   5
   2  10   4 23.4771  5.8658   7
   3  10   4 185.403  12.269   4
   3  10   4 170.253  12.769   1
   3  10   4 154.710  11.595   5
   4  10   4 102.635   9.906   4
   4  10   4 134.866  10.288   1
   4  10   4 124.764  10.163   5
   5  10   4 7.32842 5.72195   4
   5  10   4 8.59819 5.81731   1
   6  10   4 45.2509  7.6957   4
   6  10   4 40.5123  5.6394   5
   6  10   4 30.0756  6.2334   1
   7  10   4 55.5673  6.0082   1
   7  10   4 62.0859  8.5934   4
  -8 -10  -4 -5.5616  4.8466   2
   8  10   4 8.70144 6.86285   4
  -9 -10  -4 20.8076  6.2879   2
   9  10   4 3.70247 6.63717   4
   0  11   4 63.5427  8.2655   1
   0  11   4 68.5612  9.4673   5
   1  11   4 62.4306  8.2063   7
   1  11   4 45.6986  8.3330   5
   1  11   4 44.9276  8.0748   1
   2  11   4 1.51058 5.44707   5
   2  11   4 -3.4310  5.5829   7
   2  11   4 2.33548 4.32528   1
   3  11   4 49.8872  7.8603   4
   3  11   4 65.1010  8.1689   1
   3  11   4 64.8931  8.0557   5
   4  11   4 63.5816  7.6536   5
   4  11   4 59.5271  8.0468   4
   4  11   4 41.7702  7.2512   1
   5  11   4 5.10236 6.20118   1
   5  11   4 4.04172 6.22919   4
   5  11   4 3.30991 4.87671   5
   6  11   4 32.3096  6.1867   1
   6  11   4 30.2729  6.0405   5
   6  11   4 25.5669  7.5990   4
   7  11   4 24.2804  6.2591   1
   7  11   4 28.5161  7.7290   4
   7  11   4 18.6288  5.7980   5
  -8 -11  -4 -0.0217  5.4045   2
   3  12   4 23.7093  7.0893   1
   3  12   4 23.8732  7.5455   4
   3  12   4 17.9441  6.5453   5
   4  12   4 7.19450 6.85043   4
   4  12   4 10.8384  6.0879   1
   4  12   4 6.22867 5.71291   5
   5  12   4 3.04876 5.43706   5
   5  12   4 12.9621  7.3597   4
   5  12   4 13.9382  6.2424   1
   6  12   4 16.9458  7.6544   1
   5  10  -5 35.2138  7.1130   1
   5  10  -5 28.6096  6.7315   5
   4  10  -5 12.1268  4.5477   5
   4  10  -5 8.36531 6.24835   1
   3  10  -5 66.8837  8.4294   5
   3  10  -5 69.2273  8.6989   1
   2  10  -5 30.5684  7.0559   5
   1  10  -5 16.6511  6.6794   5
   1  10  -5 8.77862 6.00848   1
   0  10  -5 77.4934  9.7830   1
   0  10  -5 90.7876 10.0097   5
  -1  10  -5 14.7746  7.3124   1
   7   9  -5 21.6629  6.2872   1
   6   9  -5 48.0411  8.2536   1
   6   9  -5 45.3358  6.8018   5
   6   9  -5 61.1948  8.6226   4
   5   9  -5 32.9431  7.2093   5
   5   9  -5 33.1092  6.6893   1
   4   9  -5 61.4039  7.6253   1
   4   9  -5 43.7857  6.9914   5
   3   9  -5 77.7327  8.3511   1
   3   9  -5 62.9213  6.9921   5
   2   9  -5 0.90809 3.88000   5
   2   9  -5 13.0431  6.2201   1
   1   9  -5 109.011   9.556   5
   1   9  -5 121.140  10.426   1
   0   9  -5 68.2743  8.4333   5
   0   9  -5 77.5747  6.4145   8
   0   9  -5 78.1919  8.7943   1
  -1   9  -5 2.98645 6.01061   5
  -1   9  -5 -0.4061  5.8987   1
  -1   9  -5 3.98750 4.02698   8
  -2   9  -5 36.9564  6.1918   7
  -2   9  -5 38.2642  5.9033   8
  -2   9  -5 38.2977  7.5766   1
  -2   9  -5 37.7188  7.5721   5
  -3   9  -5 58.2356  8.9839   5
  -3   9  -5 69.8594  8.4565   7
  -3   9  -5 55.5769  8.7889   1
  -3   9  -5 83.3142 14.5758   8
   7   8  -5 64.4491  8.1266   4
   7   8  -5 67.1774  7.4038   1
   6   8  -5 70.7203  8.2460   1
   6   8  -5 63.6012  7.2121   5
   6   8  -5 79.7828  8.4970   4
   5   8  -5 22.0050  5.4697   1
   5   8  -5 24.4300  5.5139   5
   4   8  -5 73.5224  7.6871   5
   3   8  -5 192.505  15.484   1
   3   8  -5 182.917  11.896   5
   2   8  -5 62.5636  4.1736   8
   2   8  -5 71.3042  7.7818   1
   2   8  -5 80.2917  7.9046   5
   1   8  -5 564.894  28.680   8
   1   8  -5 601.320  31.737   1
   1   8  -5 561.272  29.906   5
   0   8  -5 160.989  12.226   5
   0   8  -5 189.426  11.590   8
   0   8  -5 166.332  14.542   1
  -1   8  -5 16.7406  5.9551   5
  -1   8  -5 26.7260  6.2357   7
  -1   8  -5 16.3426  5.6901   1
  -1   8  -5 15.8704  3.7950   8
  -2   8  -5 120.505  10.310   5
  -2   8  -5 127.119   9.305   8
  -2   8  -5 115.292  11.081   7
  -3   8  -5 25.8118  5.4030   1
  -3   8  -5 19.1308  5.5746   8
  -3   8  -5 9.32301 6.22259   7
  -4   8  -5 25.5209  7.0726   5
  -4   8  -5 17.8028  6.9563   7
  -4   8  -5 19.2814  6.8051   1
  -4   8  -5 24.3410  6.5462   8
  -5   8  -5 35.9010  7.7638   1
   8   7  -5 5.51135 4.91287   1
   8   7  -5 10.8145  4.8444   4
   7   7  -5 81.9509  7.7766   5
   7   7  -5 70.7221  7.6384   4
   7   7  -5 76.9411  7.2201   1
   6   7  -5 61.4872  7.0912   4
   6   7  -5 49.3730  6.8827   1
   6   7  -5 57.9969  6.2587   5
   5   7  -5 30.4631  5.3543   5
   4   7  -5 233.168  13.514   5
   4   7  -5 215.890  13.058   1
   3   7  -5 92.3272  4.0850   8
   3   7  -5 95.1411  7.9733   1
   2   7  -5 187.028  12.222   5
   2   7  -5 204.553   9.893   8
   2   7  -5 196.219  13.222   1
   1   7  -5 373.975  20.136   8
   1   7  -5 386.870  21.444   1
   1   7  -5 355.858  18.749   5
   0   7  -5 91.7403  7.9412   5
   0   7  -5 72.8837  7.6693   1
   0   7  -5 78.4132  5.9218   8
  -1   7  -5 135.271   9.996   1
  -1   7  -5 120.977   8.027   8
  -1   7  -5 144.407  10.050   5
  -1   7  -5 121.188   8.901   7
  -2   7  -5 209.196  17.406   7
  -2   7  -5 219.227  12.264   8
  -2   7  -5 215.642  13.302   1
  -2   7  -5 223.806  15.623   5
  -3   7  -5 0.56474 5.11747   7
  -3   7  -5 9.90507 4.72324   8
  -3   7  -5 11.3438  5.3266   1
  -3   7  -5 5.08186 5.08773   5
  -4   7  -5 41.4168  6.9016   5
  -4   7  -5 53.2064  7.0592   8
  -4   7  -5 45.1722  6.8484   1
  -4   7  -5 40.2818  7.4292   7
  -5   7  -5 140.695  11.944   7
  -5   7  -5 138.576  11.894   8
  -5   7  -5 120.691  10.667   1
  -5   7  -5 164.439  11.776   5
  -6   7  -5 2.08285 5.74896   1
  -6   7  -5 2.62948 5.97465   5
   8   6  -5 21.5431  5.9017   4
   8   6  -5 30.5930  4.7306   1
   7   6  -5 39.6103  5.1920   1
   7   6  -5 26.7390  5.1592   4
  -7  -6   5 29.5429  5.0141   6
   6   6  -5 29.9211  5.9981   4
   6   6  -5 36.7687  5.0919   1
  -6  -6   5 34.9551  9.0023   6
   5   6  -5 363.292  21.315   4
   5   6  -5 381.103  19.545   1
  -5  -6   5 401.937  23.258   6
   4   6  -5 244.156  13.460   1
  -4  -6   5 229.602  14.864   6
   3   6  -5 49.2924  3.0394   8
   3   6  -5 35.8074  5.4453   1
  -3  -6   5 48.1150  6.2449   6
   2   6  -5 546.290  27.883   8
   2   6  -5 595.060  27.848   5
   2   6  -5 555.680  27.516   1
  -2  -6   5 557.731  31.788   6
   1   6  -5 78.8297  7.0403   5
   1   6  -5 82.7225  7.2255   1
   1   6  -5 79.7490  5.1427   8
   0   6  -5 70.9650  7.0586   5
   0   6  -5 91.8372  7.5478   1
   0   6  -5 92.4267  5.9267   8
  -1   6  -5 559.395  26.315   5
  -1   6  -5 586.320  29.217   8
  -1   6  -5 532.835  30.494   1
  -1   6  -5 594.185  28.582   7
  -2   6  -5 76.4371  7.3234   1
  -2   6  -5 60.8661  6.8435   5
  -2   6  -5 65.0186  6.3443   8
  -2   6  -5 67.8463  7.1937   7
  -3   6  -5 58.9428  7.2398   7
  -3   6  -5 67.0063  7.3373   1
  -3   6  -5 82.0878  6.6031   8
  -3   6  -5 75.6573  7.3804   5
  -4   6  -5 281.096  15.038   1
  -4   6  -5 279.852  15.916   7
  -4   6  -5 281.249  15.452   5
  -4   6  -5 230.052  14.587   8
  -5   6  -5 69.3401  8.5578   7
  -5   6  -5 85.5393  7.9004   1
  -5   6  -5 75.9292  7.9662   5
  -5   6  -5 85.4458  8.8968   8
  -6   6  -5 5.99823 6.44646   8
  -6   6  -5 6.95906 5.38534   5
  -6   6  -5 10.2396  6.4484   1
  -6   6  -5 3.80095 6.53752   7
  -7   6  -5 42.0314  6.8407   1
  -7   6  -5 43.9776  7.1737   5
   8   5  -5 69.1712  6.8957   4
   7   5  -5 59.4873  5.8589   4
   7   5  -5 55.7074  6.2726   1
  -7  -5   5 46.2227  4.9387   6
   6   5  -5 244.755  14.285   1
   6   5  -5 260.226  14.823   4
  -6  -5   5 254.005  16.464   6
   5   5  -5 393.955  20.441   4
   5   5  -5 382.316  18.941   1
  -5  -5   5 391.207  19.571   6
  -5  -5   5 358.754  17.134   8
   4   5  -5 280.474  16.186   1
   4   5  -5 240.365  13.548   2
  -4  -5   5 250.617  11.727   8
  -4  -5   5 237.619  14.113   6
   3   5  -5 877.925  41.210   1
   3   5  -5 894.899  41.082   8
   3   5  -5 876.798  48.516   2
  -3  -5   5 939.756  47.913   6
   2   5  -5 600.306  29.175   1
   2   5  -5 569.935  26.025   2
   2   5  -5 595.441  27.185   8
  -2  -5   5 601.608  30.472   6
   1   5  -5 72.3153  6.4785   1
   1   5  -5 84.1971  4.2776   2
   1   5  -5 86.8090  4.9606   8
  -1  -5   5 83.9014  6.8753   6
   0   5  -5 1454.52   74.72   8
   0   5  -5 1445.34   73.81   1
   0   5  -5 1482.51   70.44   5
   0  -5   5 1445.75   85.02   7
   0  -5   5 1586.97   80.97   6
  -1   5  -5 1368.89   75.79   5
  -1   5  -5 1375.84   65.63   1
  -1   5  -5 1370.96   68.04   8
  -1   5  -5 1338.26   68.64   7
  -2   5  -5 389.052  20.484   1
  -2   5  -5 394.934  22.303   8
  -2   5  -5 426.497  21.091   5
  -2   5  -5 454.317  22.407   7
  -3   5  -5 389.838  21.427   8
  -3   5  -5 427.165  23.567   7
  -3   5  -5 394.024  20.144   5
  -3   5  -5 424.555  20.222   1
  -4   5  -5 328.735  20.701   7
  -4   5  -5 341.797  18.145   1
  -4   5  -5 342.572  17.865   8
  -4   5  -5 330.102  20.209   5
  -5   5  -5 6.15011 5.13227   7
  -5   5  -5 11.2881  5.2174   1
  -5   5  -5 3.76601 5.11421   5
  -5   5  -5 12.4918  5.5771   8
  -6   5  -5 114.019   9.404   5
  -6   5  -5 114.970  10.378   1
  -6   5  -5 110.990   9.738   7
  -6   5  -5 114.287  10.501   8
  -7   5  -5 83.3667  9.9650   8
  -7   5  -5 105.970   9.201   1
  -9  -4   5 19.8266  7.2432   7
   8   4  -5 36.9181  5.2411   4
   8   4  -5 56.1430  5.2963   1
  -8  -4   5 47.8933  6.7154   7
   7   4  -5 59.8616  5.6896   4
   7   4  -5 58.8388  6.3753   1
  -7  -4   5 50.2816  5.5122   6
   6   4  -5 229.483  14.934   1
   6   4  -5 222.065  12.240   4
  -6  -4   5 234.564  12.118   6
   5   4  -5 460.991  24.215   4
   5   4  -5 445.509  24.933   1
  -5  -4   5 456.777  23.158   8
  -5  -4   5 496.564  24.249   6
   4   4  -5 88.3960  6.5948   1
   4   4  -5 90.0703  5.9604   2
  -4  -4   5 74.9055  6.5662   6
  -4  -4   5 77.8516  4.8831   8
   3   4  -5 424.331  21.508   1
   3   4  -5 410.185  24.124   6
   3   4  -5 398.835  21.593   8
   3   4  -5 399.592  19.961   2
  -3  -4   5 395.472  18.489   8
  -3  -4   5 419.027  20.656   6
   2   4  -5 704.561  42.726   6
   2   4  -5 801.606  44.161   8
   2   4  -5 755.153  33.758   1
   2   4  -5 734.948  34.701   2
  -2  -4   5 757.340  33.310   8
  -2  -4   5 763.821  39.949   6
  -2  -4   5 731.759  43.441   7
   1   4  -5 329.663  17.184   6
   1   4  -5 370.506  17.826   8
   1   4  -5 358.703  18.320   1
   1   4  -5 361.296  19.962   2
  -1  -4   5 356.436  18.092   7
  -1  -4   5 333.034  20.638   1
  -1  -4   5 365.251  18.093   6
   0   4  -5 1193.24   56.34   1
   0   4  -5 1108.32   76.51   6
   0   4  -5 1190.53   52.21   2
   0   4  -5 1173.63   56.62   8
   0  -4   5 1168.34   58.01   6
   0  -4   5 1115.49   65.42   7
   0  -4   5 1109.92   66.84   1
  -1   4  -5 900.624  42.681   7
  -1   4  -5 918.814  39.439   2
  -1   4  -5 868.602  43.549   1
  -1   4  -5 839.141  55.923   6
  -1   4  -5 960.847  44.017   8
   1  -4   5 970.511  49.610   6
   1  -4   5 890.499  58.885   1
   1  -4   5 955.295  43.881   7
  -2   4  -5 174.125   9.912   1
  -2   4  -5 162.984   9.667   8
  -2   4  -5 169.117   7.563   2
  -2   4  -5 180.931  11.206   5
  -2   4  -5 174.539   9.510   7
   2  -4   5 167.160   9.772   7
  -3   4  -5 732.176  37.191   7
  -3   4  -5 763.938  37.410   1
  -3   4  -5 775.738  39.491   8
  -3   4  -5 694.689  35.760   5
  -3   4  -5 700.913  30.926   2
   3  -4   5 739.762  41.252   7
  -4   4  -5 186.943  12.119   8
  -4   4  -5 189.801  10.799   5
  -4   4  -5 191.928  13.041   1
  -4   4  -5 190.877  11.045   7
  -4   4  -5 185.264   8.540   2
  -5   4  -5 47.5396  6.6195   8
  -5   4  -5 30.8929  5.6439   7
  -5   4  -5 43.8096  3.4793   2
  -5   4  -5 48.1144  5.4236   5
  -6   4  -5 364.365  17.905   1
  -6   4  -5 353.877  18.647   2
  -6   4  -5 345.673  20.746   7
  -6   4  -5 345.556  18.863   8
  -6   4  -5 375.462  46.657   5
  -7   4  -5 46.5023  6.3753   1
  -7   4  -5 50.4868  4.6865   2
  -7   4  -5 52.8897  7.7330   7
  -7   4  -5 35.5025  5.5072   5
  -7   4  -5 51.1514  6.8873   8
  -8   4  -5 7.76043 5.09694   8
  -8   4  -5 0.80755 5.94320   7
  -9  -3   5 66.6871  9.4285   7
  -9  -3   5 62.0945  7.4485   3
   8   3  -5 28.2790  4.6257   1
   7   3  -5 83.2463  6.6188   4
   7   3  -5 93.2316  7.6281   1
  -7  -3   5 88.7301 10.2274   7
  -7  -3   5 100.136   7.011   6
   6   3  -5 259.557  14.578   1
   6   3  -5 253.398  14.681   4
  -6  -3   5 240.213  15.669   6
  -6  -3   5 223.180  13.187   8
   5   3  -5 86.5543  8.3768   5
   5   3  -5 114.428   7.464   1
   5   3  -5 106.229   6.540   4
  -5  -3   5 98.8679  8.3096   8
  -5  -3   5 119.085   7.285   6
   4   3  -5 666.266  48.574   2
   4   3  -5 692.871  36.381   5
   4   3  -5 680.621  32.123   1
   4   3  -5 671.158  34.573   4
  -4  -3   5 650.527  41.627   1
  -4  -3   5 619.504  30.681   6
  -4  -3   5 622.623  36.296   8
   3   3  -5 1320.37   69.64   5
   3   3  -5 1326.50   71.06   8
   3   3  -5 1405.32   60.67   2
   3   3  -5 1354.51   67.64   1
  -3  -3   5 1331.81   70.00   8
  -3  -3   5 1320.94   76.29   1
  -3  -3   5 1274.09   64.04   6
   2   3  -5 264.493  14.266   6
   2   3  -5 246.377  12.616   1
   2   3  -5 253.572  13.714   8
   2   3  -5 261.122  11.314   2
  -2  -3   5 258.795  13.547   6
  -2  -3   5 244.420  12.527   1
  -2  -3   5 245.108  14.337   8
   1   3  -5 1878.64   89.11   2
   1   3  -5 1866.29   92.19   6
   1   3  -5 1888.50   91.14   1
   1   3  -5 1874.74   92.84   8
  -1  -3   5 1885.49   88.12   6
  -1  -3   5 1796.90  100.11   1
  -1  -3   5 1880.10   90.22   7
  -1  -3   5 1863.03   90.14   8
   0   3  -5 2985.01  139.33   8
   0   3  -5 2764.25  126.79   1
   0   3  -5 2788.30  160.11   6
   0  -3   5 2750.32  132.88   6
   0  -3   5 2788.29  131.88   7
   0  -3   5 2882.01  139.14   8
   0  -3   5 2698.31  128.03   1
  -1   3  -5 157.137   9.899   6
  -1   3  -5 191.206   9.421   8
  -1   3  -5 159.776   9.630   1
  -1   3  -5 146.802   8.533   7
   1  -3   5 167.722   9.674   6
   1  -3   5 163.252   8.482   7
   1  -3   5 151.077  10.120   1
  -2   3  -5 638.649  29.701   1
  -2   3  -5 597.588  29.164   8
  -2   3  -5 590.938  30.001   6
  -2   3  -5 624.989  30.963   7
   2  -3   5 504.099  30.122   1
   2  -3   5 544.536  27.984   7
   2  -3   5 557.466  26.741   6
  -3   3  -5 1467.08   71.34   1
  -3   3  -5 1474.94   67.21   8
  -3   3  -5 1432.05   71.79   7
  -3   3  -5 1346.86   94.42   6
  -3   3  -5 1432.33   64.46   5
   3  -3   5 1355.80   66.71   7
   3  -3   5 1312.15   66.33   1
  -4   3  -5 5.18907 3.34191   7
  -4   3  -5 8.32696 2.13598   2
  -4   3  -5 15.8892  4.2172   8
  -4   3  -5 4.38354 3.20575   6
  -4   3  -5 5.12368 3.23964   5
  -4   3  -5 9.85462 3.42707   1
   4  -3   5 8.21169 3.49652   1
   4  -3   5 10.5353  3.4100   7
  -5   3  -5 494.658  26.889   1
  -5   3  -5 517.304  25.181   8
  -5   3  -5 492.083  25.212   7
  -5   3  -5 484.102  22.328   2
  -5   3  -5 495.675  24.700   5
   5  -3   5 492.414  24.962   1
  -6   3  -5 239.432  17.187   8
  -6   3  -5 248.686  13.045   2
  -6   3  -5 216.492  13.330   5
  -6   3  -5 260.570  15.708   7
  -6   3  -5 248.924  13.069   1
   6  -3   5 215.443  17.335   1
  -7   3  -5 15.0607  4.3491   5
  -7   3  -5 16.5282  5.4293   7
  -7   3  -5 16.7828  4.2537   1
  -7   3  -5 19.8549  6.1816   8
  -7   3  -5 13.4209  3.5923   2
  -8   3  -5 33.1631  6.9898   7
  -8   3  -5 35.3197  6.2345   8
  -8   3  -5 58.9354 17.6728   2
  -9   3  -5 35.1707  8.1657   7
  -9   3  -5 30.4041  5.0450   2
  -9   3  -5 24.4328  7.8244   8
  -9  -2   5 61.9195  7.2710   3
  -9  -2   5 64.5005  9.5586   7
   8   2  -5 -3.1209  3.5241   1
  -8  -2   5 -1.1558  4.1136   3
  -8  -2   5 3.02284 3.88612   7
  -7  -2   5 93.5293  8.6869   7
  -7  -2   5 78.1510  6.0995   6
  -7  -2   5 74.0903  7.1347   3
   6   2  -5 325.100  15.771   1
   6   2  -5 315.717  16.638   4
  -6  -2   5 324.028  17.009   6
  -6  -2   5 358.784  19.383   7
  -6  -2   5 292.228  20.837   8
   5   2  -5 31.1601  3.3343   4
   5   2  -5 23.4111  3.8329   1
   5   2  -5 26.9833  3.9998   5
   5   2  -5 31.9239  4.1726   1
  -5  -2   5 31.3800  3.9513   8
  -5  -2   5 35.1251  4.1321   6
   4   2  -5 1241.81   60.51   1
   4   2  -5 1336.48   63.98   4
   4   2  -5 1293.16   65.22   5
  -4  -2   5 1289.37   67.31   1
  -4  -2   5 1288.97   72.95   8
  -4  -2   5 1346.29   64.33   6
   3   2  -5 1626.92  104.68   8
   3   2  -5 1599.38   78.14   1
   3   2  -5 1558.45   79.56   5
   3   2  -5 1602.68   68.64   2
  -3  -2   5 1520.46   71.26   8
  -3  -2   5 1540.97   77.26   6
  -3  -2   5 1542.47   74.53   1
   2   2  -5 39.3779  3.6977   1
   2   2  -5 33.5293  3.9333   8
   2   2  -5 34.9243  3.9338   5
  -2  -2   5 29.3053  3.6537   1
  -2  -2   5 24.4174  3.1542   8
  -2  -2   5 27.0256  3.8826   6
   1   2  -5 1400.63   79.06   1
   1   2  -5 1449.23   74.03   8
   1   2  -5 1375.17   68.64   6
  -1  -2   5 1573.47   77.66   6
  -1  -2   5 1512.06   85.21   1
  -1  -2   5 1498.62   71.49   8
   0   2  -5 884.614  49.285   8
   0   2  -5 916.749  45.467   1
   0   2  -5 901.374  50.990   6
   0  -2   5 1030.78   43.59   7
   0  -2   5 1002.69   64.99   6
   0  -2   5 1029.49   52.34   8
   0  -2   5 997.874  62.178   1
  -1   2  -5 11.1281  2.9120   8
  -1   2  -5 17.2482  3.5241   1
  -1   2  -5 13.0931  3.1722   6
   1  -2   5 10.9753  2.6198   8
   1  -2   5 10.0432  3.0870   1
   1  -2   5 11.2159  3.4160   6
   1  -2   5 7.86933 2.40325   7
  -2   2  -5 3148.95  141.84   1
  -2   2  -5 3042.89  176.57   6
  -2   2  -5 3068.08  144.99   7
  -2   2  -5 3179.01  144.59   8
   2  -2   5 3115.46  140.89   1
   2  -2   5 3175.78  160.46   6
   2  -2   5 3071.03  148.93   7
  -3   2  -5 1043.22   61.54   7
  -3   2  -5 1095.13   54.78   1
  -3   2  -5 1140.43   61.54   8
  -3   2  -5 1068.13   56.91   6
   3  -2   5 1072.71   55.02   7
   3  -2   5 1117.02   64.31   3
   3  -2   5 1184.27   53.19   6
   3  -2   5 1140.75   52.51   1
  -4   2  -5 347.670  19.736   8
  -4   2  -5 358.785  18.018   1
  -4   2  -5 345.412  18.646   7
  -4   2  -5 366.194  21.095   6
  -4   2  -5 375.595  18.947   5
   4  -2   5 370.778  18.669   3
   4  -2   5 384.274  20.682   1
   4  -2   5 411.782  20.585   7
  -5   2  -5 782.620  33.509   5
  -5   2  -5 803.725  47.030   8
  -5   2  -5 779.857  37.778   1
  -5   2  -5 727.039  38.525   6
  -5   2  -5 778.412  38.595   7
  -5   2  -5 768.417  35.922   2
   5  -2   5 683.132  42.485   7
   5  -2   5 784.163  41.727   1
  -6   2  -5 187.812  13.643   6
  -6   2  -5 214.479  12.811   8
  -6   2  -5 225.994  11.134   2
  -6   2  -5 179.270  11.677   5
  -6   2  -5 231.171  14.161   7
  -6   2  -5 223.415  12.895   1
   6  -2   5 215.319  11.109   1
  -7   2  -5 24.9387  4.1022   1
  -7   2  -5 25.8582  6.1688   7
  -7   2  -5 24.9734  3.9846   5
  -7   2  -5 22.2864  4.4855   6
  -7   2  -5 30.7762  6.0388   8
  -7   2  -5 18.4648  3.6821   2
   7  -2   5 19.2588  3.2805   1
  -8   2  -5 155.040   9.221   2
  -8   2  -5 168.812  11.800   8
  -8   2  -5 139.059  12.174   7
  -8   2  -5 145.801   9.166   5
  -9   2  -5 31.3473  7.6561   8
  -9   2  -5 23.2430  8.0355   7
  -9   2  -5 18.7775  5.5157   2
  -9  -1   5 10.4315  6.8788   7
  -9  -1   5 21.9748  6.1161   3
   8   1  -5 33.2514  4.9529   1
  -8  -1   5 28.8199  6.9481   7
  -7  -1   5 67.2552  6.2373   3
  -7  -1   5 70.7139  7.8766   7
  -7  -1   5 55.2150  5.6485   6
   6   1  -5 102.809   7.142   1
  -6  -1   5 87.2183  6.9371   6
  -6  -1   5 99.5201  8.1905   7
  -6  -1   5 80.0486  6.4642   3
   5   1  -5 319.821  23.403   5
   5   1  -5 364.527  18.435   1
   5   1  -5 356.429  16.659   4
   5   1  -5 317.964  19.371   1
  -5  -1   5 360.453  18.153   7
  -5  -1   5 367.076  25.236   8
  -5  -1   5 394.815  18.014   6
   4   1  -5 1722.53   95.28   4
   4   1  -5 1658.33   80.15   1
   4   1  -5 1760.77   85.88   1
   4   1  -5 1664.64   98.44   5
  -4  -1   5 1714.88   95.94   6
  -4  -1   5 1557.31   88.84   8
   3   1  -5 252.342  15.658   5
   3   1  -5 249.602  15.963   2
   3   1  -5 273.849  13.220   4
   3   1  -5 260.243  12.801   1
   3   1  -5 257.862  14.448   8
  -3  -1   5 275.050  13.423   8
  -3  -1   5 263.877  13.850   1
  -3  -1   5 296.683  15.297   6
   2   1  -5 1182.79   59.31   5
   2   1  -5 1227.49   66.31   1
   2   1  -5 1200.39   73.19   8
  -2  -1   5 1301.81   64.34   6
  -2  -1   5 1237.76   69.17   8
  -2  -1   5 1179.01   66.66   1
   1   1  -5 1744.98   75.90   1
   1   1  -5 1695.33   85.32   5
   1   1  -5 1757.97  101.84   8
  -1  -1   5 1584.39   82.91   6
  -1  -1   5 1501.49   80.60   1
  -1  -1   5 1526.45   77.22   8
   0   1  -5 199.989  10.926   1
   0   1  -5 231.958  11.739   8
   0  -1   5 221.478  10.661   8
   0  -1   5 245.415  19.080   1
   0  -1   5 240.016  13.659   6
  -1   1  -5 4216.05  196.42   1
  -1   1  -5 3939.10  206.54   6
  -1   1  -5 4224.10  224.51   8
   1  -1   5 4270.17  217.95   7
   1  -1   5 3958.87  186.98   8
   1  -1   5 4128.76  187.83   1
   1  -1   5 4181.67  220.68   6
  -2   1  -5 2295.20  121.69   8
  -2   1  -5 2407.45  123.99   1
  -2   1  -5 2444.62  109.26   7
  -2   1  -5 2290.28  122.10   6
   2  -1   5 2451.97  129.52   3
   2  -1   5 2521.62  124.93   6
   2  -1   5 2381.62  111.53   8
   2  -1   5 2345.03  107.28   7
   2  -1   5 2520.23  124.19   1
  -3   1  -5 97.3333  6.1219   7
  -3   1  -5 93.1473  5.7801   1
  -3   1  -5 98.8557  6.1707   6
  -3   1  -5 96.6641  6.3758   8
   3  -1   5 88.3153  5.9227   6
   3  -1   5 80.0900  5.4018   1
   3  -1   5 84.9254  5.9050   3
   3  -1   5 83.4355  5.0272   7
  -4   1  -5 530.125  26.542   5
  -4   1  -5 551.243  27.487   1
  -4   1  -5 521.471  23.082   7
  -4   1  -5 513.877  26.690   6
  -4   1  -5 512.187  24.815   8
   4  -1   5 513.448  27.751   1
   4  -1   5 539.133  28.907   7
   4  -1   5 545.543  29.580   6
   4  -1   5 507.400  24.045   3
  -5   1  -5 502.130  26.473   6
  -5   1  -5 505.931  26.530   8
  -5   1  -5 499.777  23.018   7
  -5   1  -5 518.354  26.533   5
  -5   1  -5 534.161  28.891   1
   5  -1   5 550.383  30.230   7
   5  -1   5 518.337  29.028   1
  -6   1  -5 28.9783  5.1283   8
  -6   1  -5 21.5798  3.1966   5
  -6   1  -5 19.9012  3.5924   6
  -6   1  -5 27.9536  4.7336   7
  -6   1  -5 18.0228  2.9880   1
  -6   1  -5 23.5900  3.6301   2
   6  -1   5 23.6172  3.7705   7
  -7   1  -5 179.767   9.699   5
  -7   1  -5 222.055  13.753   8
  -7   1  -5 196.373  11.551   6
  -7   1  -5 185.906  10.554   1
  -7   1  -5 188.508  11.998   7
  -7   1  -5 200.354  11.030   2
   7  -1   5 193.624  12.323   1
  -8   1  -5 304.221  19.664   7
  -8   1  -5 280.451  14.414   5
  -8   1  -5 269.370  17.670   8
  -8   1  -5 312.914  17.194   2
  -9   1  -5 4.69236 5.40732   7
  -9   1  -5 0.66117 6.07175   8
  -9   1  -5 11.0610  4.5525   2
 -10   1  -5 23.5243  7.9427   7
 -10   1  -5 6.13934 4.70433   2
 -10   1  -5 1.14285 6.64479   8
  -8   0   5 69.5439  7.5322   7
  -8   0   5 65.1945  7.0265   3
   7   0  -5 68.8330  6.9955   1
  -7   0   5 58.2298  7.5750   7
  -7   0   5 60.8515  6.1582   3
   6   0  -5 7.71461 3.53383   1
  -6   0   5 -2.5553  3.2347   3
  -6   0   5 3.99733 3.37771   7
   5   0  -5 774.386  39.828   1
  -5   0   5 864.006  39.588   5
  -5   0   5 894.635  44.341   7
  -5   0   5 796.236  41.374   3
   4   0  -5 518.351  29.344   1
   4   0  -5 518.093  29.337   1
   4   0  -5 513.735  42.273   5
  -4   0   5 509.617  26.211   7
  -4   0   5 529.909  33.257   5
  -4   0   5 488.063  24.353   8
  -4   0   5 510.731  27.781   3
   3   0  -5 12.0242  3.3670   2
   3   0  -5 13.2184  3.1379   1
   3   0  -5 6.41631 3.35333   8
   3   0  -5 9.14000 3.01765   5
   3   0  -5 17.7106  3.4874   1
  -3   0   5 9.44263 3.27257   5
  -3   0   5 14.1200  3.8776   7
  -3   0   5 12.4323  3.4109   8
   2   0  -5 2444.15  115.83   1
   2   0  -5 2404.93  137.59   8
   2   0  -5 2364.60  105.47   4
   2   0  -5 2325.90  111.16   1
   2   0  -5 2246.75  110.20   5
  -2   0   5 2160.14  125.31   8
  -2   0   5 2278.59  111.38   5
  -2   0   5 2254.06  101.30   7
   1   0  -5 3197.44  201.15   1
   1   0  -5 3041.27  146.44   5
   1   0  -5 3050.98  178.12   8
  -1   0   5 3028.54  161.65   1
  -1   0   5 3060.58  160.07   8
   0   0  -5 1961.29   91.45   8
   0   0  -5 1952.35   85.25   1
   0   0  -5 1886.63  112.05   5
   0   0   5 1885.60  113.62   1
   0   0   5 1914.56   95.30   6
   0   0   5 1845.93   89.00   8
  -1   0  -5 4558.63  245.37   1
  -1   0  -5 4599.47  221.30   8
  -1   0  -5 4580.84  216.58   5
   1   0   5 4813.28  237.53   6
   1   0   5 4496.48  229.73   3
   1   0   5 4748.41  245.18   8
   1   0   5 5034.43  220.57   7
   1   0   5 4681.13  215.53   1
  -2   0  -5 3470.02  184.47   5
  -2   0  -5 3418.15  167.08   1
  -2   0  -5 3502.08  216.06   8
   2   0   5 3441.07  166.82   8
   2   0   5 3651.86  194.22   6
   2   0   5 3500.76  198.19   1
   2   0   5 3557.30  164.36   7
   2   0   5 3351.34  196.38   3
  -3   0  -5 503.324  23.107   8
  -3   0  -5 514.310  29.477   6
  -3   0  -5 489.144  25.370   1
  -3   0  -5 478.301  23.779   7
   3   0   5 509.103  24.065   1
   3   0   5 484.814  28.257   8
   3   0   5 533.666  33.130   6
   3   0   5 528.007  21.750   7
   3   0   5 505.177  23.154   3
  -4   0  -5 2310.59  112.14   6
  -4   0  -5 2406.47  129.80   7
  -4   0  -5 2457.09  117.67   8
  -4   0  -5 2336.74  105.14   1
   4   0   5 2268.22  113.87   6
   4   0   5 2338.15  112.22   1
   4   0   5 2254.20  134.73   3
   4   0   5 2314.90  111.04   7
  -5   0  -5 331.555  16.356   7
  -5   0  -5 367.430  18.773   5
  -5   0  -5 343.426  19.737   1
  -5   0  -5 299.089  18.516   4
  -5   0  -5 364.765  19.695   6
  -5   0  -5 377.891  17.894   8
   5   0   5 350.729  18.477   1
   5   0   5 343.244  16.535   6
   5   0   5 332.037  18.125   3
   5   0   5 338.788  20.307   7
  -6   0  -5 148.200   8.076   6
  -6   0  -5 123.457   8.445   7
  -6   0  -5 135.148   7.405   1
  -6   0  -5 142.570   7.790   5
  -6   0  -5 141.903   9.252   8
   6   0   5 144.255   8.574   1
  -7   0  -5 569.315  31.606   7
  -7   0  -5 595.449  29.062   6
  -7   0  -5 564.747  27.232   5
  -7   0  -5 627.539  27.352   2
  -7   0  -5 614.076  27.679   8
  -7   0  -5 621.746  32.296   1
   7   0   5 593.574  29.737   1
  -8   0  -5 136.814  10.821   7
  -8   0  -5 134.197   7.340   5
  -8   0  -5 141.332  10.282   8
  -8   0  -5 138.249   8.957   2
  -9   0  -5 39.1438  7.0344   8
  -9   0  -5 30.6976  5.5434   2
 -10   0  -5 61.3197  8.4505   7
 -10   0  -5 44.9161  6.7552   8
   8  -1  -5 32.2459  5.1093   1
  -8   1   5 20.4130  5.5824   5
   7  -1  -5 58.0401  6.9500   1
  -7   1   5 63.6195  8.0686   7
  -7   1   5 78.8954  6.9176   5
   6  -1  -5 77.8767  6.7465   1
  -6   1   5 77.9700  7.9082   7
  -6   1   5 87.2339  8.7895   5
  -6   1   5 89.0550  6.3600   3
   5  -1  -5 383.842  19.981   1
  -5   1   5 375.205  21.012   3
  -5   1   5 373.454  19.929   7
  -5   1   5 365.098  19.209   5
   4  -1  -5 190.147  14.423   1
   4  -1  -5 191.084  11.614   1
   4  -1  -5 196.122  14.377   5
  -4   1   5 216.229  10.155   3
  -4   1   5 225.509  12.148   5
  -4   1   5 228.586  11.753   7
   3  -1  -5 652.244  39.873   1
   3  -1  -5 630.313  34.905   1
   3  -1  -5 614.355  33.041   5
  -3   1   5 738.830  37.573   5
  -3   1   5 685.508  30.957   3
  -3   1   5 678.168  35.260   7
  -3   1   5 659.229  38.975   8
   2  -1  -5 2433.90  110.31   1
   2  -1  -5 2216.58  118.43   5
   2  -1  -5 2112.17  145.20   1
   2  -1  -5 2376.33  111.09   8
  -2   1   5 2159.78  103.01   3
  -2   1   5 2165.98  105.95   8
  -2   1   5 2199.53  103.14   7
  -2   1   5 2201.73  114.63   5
   1  -1  -5 435.282  24.564   1
   1  -1  -5 427.619  23.028   5
   1  -1  -5 455.005  24.013   1
   1  -1  -5 426.685  20.556   8
  -1   1   5 492.937  20.900   7
  -1   1   5 438.808  22.237   8
  -1   1   5 449.131  23.308   5
   0  -1  -5 1199.02   52.20   1
   0  -1  -5 1173.72   56.05   1
   0  -1  -5 1229.98   54.66   5
   0  -1  -5 1167.56   57.08   4
   0  -1  -5 1284.02   55.11   8
   0   1   5 1015.65   53.90   8
   0   1   5 1058.40   55.56   5
   0   1   5 1063.15   53.86   7
  -1  -1  -5 4941.04  241.39   8
  -1  -1  -5 4988.48  249.38   1
  -1  -1  -5 5016.77  245.45   4
  -1  -1  -5 4812.69  235.06   5
  -1  -1  -5 4774.66  246.10   1
   1   1   5 5092.85  255.77   5
   1   1   5 5030.73  249.16   8
   1   1   5 4851.62  262.31   1
  -2  -1  -5 396.690  19.104   5
  -2  -1  -5 400.681  19.949   1
  -2  -1  -5 406.001  19.172   8
  -2  -1  -5 408.279  20.864   3
  -2  -1  -5 401.891  20.362   4
   2   1   5 401.411  21.189   6
   2   1   5 395.788  20.980   8
   2   1   5 393.095  18.834   1
  -3  -1  -5 331.173  15.054   5
  -3  -1  -5 339.167  15.184   7
  -3  -1  -5 353.115  15.706   3
  -3  -1  -5 348.393  15.554   4
  -3  -1  -5 345.955  16.014   8
  -3  -1  -5 330.024  18.224   1
   3   1   5 286.629  16.004   6
   3   1   5 284.935  16.942   1
   3   1   5 278.376  15.014   8
  -4  -1  -5 3712.36  195.31   1
  -4  -1  -5 3807.18  199.86   7
  -4  -1  -5 3699.23  191.84   8
  -4  -1  -5 3843.31  181.40   4
  -4  -1  -5 3773.52  187.48   5
  -4  -1  -5 3779.62  161.95   3
   4   1   5 3775.82  177.59   8
   4   1   5 3667.62  161.87   1
   4   1   5 3713.99  187.56   6
  -5  -1  -5 31.4340  4.3184   3
  -5  -1  -5 30.5539  2.5679   5
  -5  -1  -5 28.4180  2.4501   1
  -5  -1  -5 25.7656  4.2227   8
  -5  -1  -5 28.3199  4.1833   4
  -5  -1  -5 30.5734  3.1685   7
  -6  -1  -5 355.207  15.773   5
  -6  -1  -5 322.557  15.755   7
  -6  -1  -5 367.679  18.518   8
  -6  -1  -5 357.316  18.333   1
  -6  -1  -5 347.347  18.577   5
  -6  -1  -5 306.020  17.805   3
   6   1   5 346.287  16.604   1
  -7  -1  -5 651.515  34.252   7
  -7  -1  -5 686.503  30.781   2
  -7  -1  -5 604.113  29.247   1
  -7  -1  -5 624.912  31.702   3
  -7  -1  -5 627.542  27.983   1
  -7  -1  -5 638.460  28.118   5
  -7  -1  -5 623.614  28.608   5
  -7  -1  -5 684.686  30.254   8
  -8  -1  -5 21.3946  4.6280   2
  -8  -1  -5 13.9602  4.2115   7
  -8  -1  -5 23.6158  5.3564   3
  -9  -1  -5 28.4076  6.1350   3
  -9  -1  -5 31.1496  5.4671   7
  -9  -1  -5 45.5842  6.8864   8
 -10  -1  -5 55.3394  6.8953   2
 -10  -1  -5 41.2370  6.4363   3
 -10  -1  -5 59.1239  8.5985   7
   8  -2  -5 43.1436  6.1925   1
  -8   2   5 38.2568  5.9949   5
  -8   2   5 40.9396  8.4937   7
   7  -2  -5 20.4192  5.6824   1
  -7   2   5 9.68357 6.06985   7
  -7   2   5 2.68638 4.90434   5
   6  -2  -5 184.871  11.647   1
  -6   2   5 229.750  13.014   5
  -6   2   5 192.158  12.076   7
   5  -2  -5 253.417  14.348   1
  -5   2   5 207.654  13.664   5
  -5   2   5 230.938  15.889   7
  -5   2   5 217.282  10.973   4
   4  -2  -5 131.943   9.724   1
  -4   2   5 147.009   9.080   5
  -4   2   5 141.752   9.312   7
   3  -2  -5 1113.19   64.02   1
   3  -2  -5 1066.77   69.17   1
   3  -2  -5 1097.16   66.18   5
  -3   2   5 1117.26   62.83   8
  -3   2   5 1179.92   58.10   5
  -3   2   5 1142.87   54.33   7
   2  -2  -5 848.808  53.697   1
   2  -2  -5 851.623  46.959   1
   2  -2  -5 838.117  42.540   5
   2  -2  -5 881.841  46.164   8
  -2   2   5 763.955  36.141   7
  -2   2   5 814.186  39.768   5
  -2   2   5 759.282  36.544   8
  -2   2   5 810.915  47.406   1
   1  -2  -5 772.783  41.027   5
   1  -2  -5 801.821  39.719   1
   1  -2  -5 804.704  35.153   8
   1  -2  -5 810.629  51.305   1
  -1   2   5 772.469  34.738   8
  -1   2   5 759.676  36.412   5
  -1   2   5 782.813  37.985   7
  -1   2   5 750.582  38.923   1
   0  -2  -5 2390.61  145.05   1
   0  -2  -5 2471.29  123.68   1
   0  -2  -5 2587.81  146.39   8
   0  -2  -5 2536.45  118.13   7
   0  -2  -5 2569.89  166.27   5
   0   2   5 2885.68  151.04   8
   0   2   5 2850.45  136.33   5
   0   2   5 2893.56  126.34   7
  -1  -2  -5 812.004  44.649   4
  -1  -2  -5 832.149  50.203   1
  -1  -2  -5 847.872  39.340   3
  -1  -2  -5 806.190  40.579   1
  -1  -2  -5 856.273  42.491   8
  -1  -2  -5 846.910  45.707   5
   1   2   5 929.085  44.000   5
   1   2   5 885.094  40.311   8
   1   2   5 918.509  41.107   7
  -2  -2  -5 60.8444  4.5106   1
  -2  -2  -5 63.2622  3.8292   3
  -2  -2  -5 59.0642  3.9941   4
  -2  -2  -5 55.8262  4.3241   5
  -2  -2  -5 62.5815  4.7581   1
   2   2   5 49.5954  4.2048   5
   2   2   5 47.9612  4.4501   8
  -3  -2  -5 4100.99  206.20   8
  -3  -2  -5 4097.10  198.35   4
  -3  -2  -5 3882.51  199.22   5
  -3  -2  -5 3934.77  189.95   1
  -3  -2  -5 4116.92  203.24   3
   3   2   5 3870.63  190.35   5
   3   2   5 3796.37  206.99   8
  -4  -2  -5 813.727  40.522   3
  -4  -2  -5 794.262  44.262   1
  -4  -2  -5 802.783  44.407   4
  -4  -2  -5 760.851  33.919   7
  -4  -2  -5 838.792  38.101   1
  -4  -2  -5 795.791  50.073   8
  -4  -2  -5 795.884  39.781   5
   4   2   5 735.856  40.480   8
   4   2   5 768.866  36.692   6
  -5  -2  -5 90.4154  5.1613   5
  -5  -2  -5 100.435   6.083   7
  -5  -2  -5 99.4818  4.9812   1
  -5  -2  -5 96.0507  6.7301   4
  -5  -2  -5 88.7129  6.4162   3
  -5  -2  -5 97.8933  4.8385   1
  -5  -2  -5 85.8737  6.2994   8
  -6  -2  -5 726.842  32.948   5
  -6  -2  -5 726.905  33.601   7
  -6  -2  -5 749.652  38.297   3
  -6  -2  -5 741.267  33.272   1
  -6  -2  -5 755.925  43.671   8
  -6  -2  -5 716.254  36.014   1
  -6  -2  -5 737.185  35.230   5
   6   2   5 721.545  37.278   6
  -7  -2  -5 151.459   9.635   3
  -7  -2  -5 144.569   9.267   7
  -7  -2  -5 140.206   9.125   8
  -8  -2  -5 87.3428  7.7163   3
  -8  -2  -5 99.0239  7.5347   2
  -8  -2  -5 92.4108  7.8828   8
  -8  -2  -5 74.3391  6.5333   7
  -9  -2  -5 150.486  10.675   8
  -9  -2  -5 131.281   9.886   2
  -9  -2  -5 119.860  10.070   3
  -9  -2  -5 118.225   8.848   7
 -10  -2  -5 18.3906  5.3722   7
 -10  -2  -5 24.7845  6.5361   3
 -10  -2  -5 31.5934  6.4473   2
 -10  -2  -5 28.1797  6.3851   8
 -11  -2  -5 5.73904 5.97736   7
 -11  -2  -5 4.43784 7.01626   3
 -11  -2  -5 -2.9931  6.1970   2
 -11  -2  -5 -0.5461  6.5237   8
  -8   3   5 18.5222  5.7535   5
   7  -3  -5 22.9384  6.3326   1
  -7   3   5 28.9667  7.5076   7
  -7   3   5 20.0521  5.5807   5
   6  -3  -5 164.477  11.621   1
  -6   3   5 152.570  10.629   5
  -6   3   5 158.432  11.755   7
   5  -3  -5 89.0321  7.5074   1
  -5   3   5 81.7788  8.1317   1
  -5   3   5 76.5635  7.3657   5
  -5   3   5 86.0055  7.3995   7
  -4   3   5 576.067  28.837   5
  -4   3   5 567.629  30.928   7
  -4   3   5 580.483  28.207   4
  -4   3   5 597.917  36.673   1
   3  -3  -5 826.524  65.795   7
  -3   3   5 833.318  38.129   7
  -3   3   5 832.940  42.714   1
  -3   3   5 838.490  43.563   5
  -3   3   5 829.051  36.587   4
   2  -3  -5 474.294  34.299   5
   2  -3  -5 487.389  27.664   7
   2  -3  -5 470.075  28.838   1
  -2   3   5 499.398  26.472   1
  -2   3   5 558.690  22.454   4
  -2   3   5 517.758  30.429   8
  -2   3   5 562.849  28.089   7
  -2   3   5 547.503  26.481   5
   1  -3  -5 667.539  36.660   8
   1  -3  -5 659.825  29.007   3
   1  -3  -5 613.871  30.492   5
   1  -3  -5 644.694  29.184   7
   1  -3  -5 650.324  39.845   1
  -1   3   5 686.794  32.948   5
  -1   3   5 698.452  34.728   1
  -1   3   5 608.590  29.428   7
  -1   3   5 630.978  29.877   4
  -1   3   5 597.282  31.160   8
   0  -3  -5 2741.72  152.78   5
   0  -3  -5 2697.22  127.17   7
   0  -3  -5 2815.96  133.74   8
   0  -3  -5 2733.55  166.64   1
   0   3   5 2798.58  133.17   7
   0   3   5 2713.03  122.36   4
   0   3   5 2786.99  141.11   5
   0   3   5 2619.40  133.39   8
   0   3   5 2679.94  139.27   1
  -1  -3  -5 521.251  27.985   5
  -1  -3  -5 553.417  24.558   1
  -1  -3  -5 565.085  25.150   8
  -1  -3  -5 546.410  24.622   7
   1   3   5 468.438  23.100   4
   1   3   5 467.741  24.072   8
   1   3   5 485.807  23.787   1
   1   3   5 445.540  24.123   7
   1   3   5 478.953  22.571   5
  -2  -3  -5 1783.67  110.47   1
  -2  -3  -5 1853.03   96.82   4
  -2  -3  -5 1739.43   91.77   5
  -2  -3  -5 1793.39   91.01   7
  -2  -3  -5 1792.91   84.09   8
   2   3   5 1942.33   91.92   8
   2   3   5 1941.14   89.30   4
   2   3   5 1944.50   96.64   5
   2   3   5 1933.47   84.14   7
   2   3   5 1921.27  120.35   1
  -3  -3  -5 3726.95  225.94   1
  -3  -3  -5 3632.30  211.71   1
  -3  -3  -5 3588.48  169.44   5
  -3  -3  -5 3898.95  212.56   4
  -3  -3  -5 3763.48  193.24   8
   3   3   5 3915.13  236.37   8
   3   3   5 3750.80  194.27   1
   3   3   5 3709.37  182.09   5
   3   3   5 3741.70  166.36   4
  -4  -3  -5 101.464   6.853   5
  -4  -3  -5 113.409   5.807   1
  -4  -3  -5 108.140   6.051   1
  -4  -3  -5 102.857   6.515   8
  -4  -3  -5 98.0336  7.1146   4
   4   3   5 90.6147  6.4814   4
   4   3   5 91.4644  5.4311   5
   4   3   5 90.2409  6.0304   8
  -5  -3  -5 304.691  14.965   7
  -5  -3  -5 306.877  15.600   1
  -5  -3  -5 305.138  16.099   8
  -5  -3  -5 318.322  17.961   5
  -5  -3  -5 290.288  15.552   3
  -5  -3  -5 299.753  16.251   4
  -5  -3  -5 306.421  16.464   1
   5   3   5 365.187  16.924   6
   5   3   5 344.445  18.875   4
   5   3   5 368.613  16.266   8
  -6  -3  -5 549.622  25.909   5
  -6  -3  -5 604.633  25.538   1
  -6  -3  -5 595.791  31.964   3
  -6  -3  -5 548.908  26.428   7
  -6  -3  -5 565.320  28.681   1
  -6  -3  -5 603.588  30.153   8
   6   3   5 515.969  34.157   6
  -7  -3  -5 38.6972  4.9088   8
  -7  -3  -5 33.8377  4.2411   7
  -7  -3  -5 49.3647  5.8835   3
  -8  -3  -5 239.623  13.704   8
  -8  -3  -5 263.954  13.705   2
  -8  -3  -5 235.381  13.937   7
  -8  -3  -5 224.883  17.526   3
  -9  -3  -5 206.492  12.594   2
  -9  -3  -5 187.097  12.673   7
  -9  -3  -5 206.332  12.920   3
  -9  -3  -5 197.328  12.576   8
 -10  -3  -5 15.3720  5.6420   2
 -10  -3  -5 8.51009 5.11218   8
 -10  -3  -5 7.50931 5.40431   3
 -10  -3  -5 12.7675  4.6647   7
 -11  -3  -5 14.5420  6.0450   8
 -11  -3  -5 23.5833  7.3476   3
 -11  -3  -5 14.3737  6.0176   7
   7  -4  -5 53.2483  7.3263   1
  -7   4   5 48.3806  8.8122   7
  -7   4   5 48.2686  7.9863   5
  -6   4   5 57.2234  7.0341   1
  -6   4   5 55.0864  7.1723   5
  -6   4   5 42.6861  7.4319   7
  -5   4   5 -3.9557  4.6060   7
  -5   4   5 -0.0434  4.3570   5
  -5   4   5 4.37549 4.36531   1
  -4   4   5 427.708  31.910   1
  -4   4   5 383.055  20.323   5
  -4   4   5 362.106  18.814   4
  -4   4   5 412.977  24.565   7
   3  -4  -5 398.500  20.102   3
  -3   4   5 433.527  25.084   1
  -3   4   5 382.505  19.572   5
  -3   4   5 382.666  21.279   7
   2  -4  -5 16.5435  2.5204   3
   2  -4  -5 15.0774  3.6490   7
  -2   4   5 8.36762 4.08315   5
  -2   4   5 17.5958  3.1915   7
  -2   4   5 13.8802  4.4221   1
   1  -4  -5 1658.68   78.73   7
   1  -4  -5 1610.75   92.85   1
   1  -4  -5 1655.16   87.21   8
   1  -4  -5 1650.24   75.83   5
  -1   4   5 1622.80   77.70   8
  -1   4   5 1717.74   84.70   5
  -1   4   5 1701.00   73.18   7
  -1   4   5 1694.88   86.44   1
   0  -4  -5 1057.47   55.04   8
   0  -4  -5 1086.85   64.86   1
   0  -4  -5 1069.64   49.12   7
   0  -4  -5 1051.39   55.77   5
   0   4   5 1075.65   51.14   8
   0   4   5 1131.79   54.84   4
   0   4   5 1174.56   57.43   5
   0   4   5 1125.17   52.20   7
   0   4   5 1101.45   59.92   1
  -1  -4  -5 220.857  11.176   8
  -1  -4  -5 223.684  12.872   1
  -1  -4  -5 225.107  10.462   7
  -1  -4  -5 212.421  11.215   5
   1   4   5 192.739  10.262   4
   1   4   5 213.003  10.886   1
   1   4   5 187.879  13.693   7
   1   4   5 225.747  12.087   5
   1   4   5 187.729  10.604   8
  -2  -4  -5 2596.68  126.78   1
  -2  -4  -5 2685.86  134.49   5
  -2  -4  -5 2712.64  136.94   7
  -2  -4  -5 2638.35  135.29   8
   2   4   5 2856.22  138.04   4
   2   4   5 2708.59  157.80   8
   2   4   5 2793.81  134.97   1
   2   4   5 2766.92  155.74   5
   2   4   5 2964.58  127.44   7
  -3  -4  -5 779.945  42.304   4
  -3  -4  -5 775.840  41.666   5
  -3  -4  -5 794.389  41.597   1
  -3  -4  -5 837.480  36.133   7
  -3  -4  -5 787.491  39.251   8
   3   4   5 873.476  47.612   8
   3   4   5 916.943  50.124   1
   3   4   5 865.629  38.468   4
   3   4   5 876.313  46.773   5
  -4  -4  -5 105.309   6.699   8
  -4  -4  -5 94.6732  5.7110   7
  -4  -4  -5 110.901   7.313   4
  -4  -4  -5 110.948   6.451   5
  -4  -4  -5 110.982   6.837   1
   4   4   5 116.659   6.648   1
   4   4   5 116.220   6.344   5
   4   4   5 104.038   6.709   4
   4   4   5 115.117   6.815   8
  -5  -4  -5 795.571  44.483   4
  -5  -4  -5 845.388  41.937   8
  -5  -4  -5 829.927  39.690   1
  -5  -4  -5 840.703  40.730   5
  -5  -4  -5 832.784  42.286   1
   5   4   5 751.168  42.751   8
   5   4   5 774.554  37.736   4
   5   4   5 809.567  42.970   5
  -6  -4  -5 305.162  14.978   8
  -6  -4  -5 297.166  13.719   1
  -6  -4  -5 295.927  14.004   5
  -6  -4  -5 286.932  14.161   1
   6   4   5 299.359  14.831   4
   6   4   5 310.754  15.185   6
  -7  -4  -5 59.4086  5.8197   3
  -7  -4  -5 72.5151  5.6837   7
  -7  -4  -5 75.0747  6.0611   8
   7   4   5 81.1420  3.6866   6
  -8  -4  -5 157.428  10.295   7
  -8  -4  -5 167.990  10.196   8
  -8  -4  -5 205.465  11.732   3
  -9  -4  -5 112.236   9.391   3
  -9  -4  -5 93.4224  7.4095   7
  -9  -4  -5 103.419   7.793   8
 -10  -4  -5 0.18191 5.17993   3
 -10  -4  -5 1.64171 3.88521   7
 -10  -4  -5 1.16298 4.38357   8
 -10  -4  -5 3.62017 4.70673   2
 -11  -4  -5 64.0214  8.7323   3
 -11  -4  -5 62.4909  8.5394   7
 -11  -4  -5 65.5051  7.8657   8
 -11  -4  -5 47.6391  7.7199   2
  -7   5   5 61.7694  8.2888   1
  -6   5   5 46.7714  8.5437   7
  -6   5   5 58.2434  7.5579   1
  -6   5   5 47.9163  7.4664   5
  -5   5   5 46.3289  6.8355   1
  -5   5   5 45.2395  7.3640   7
   4  -5  -5 154.399   9.509   3
  -4   5   5 175.755  13.600   5
  -4   5   5 178.630  12.234   7
  -4   5   5 159.839  11.400   1
   3  -5  -5 37.7829  4.1767   3
  -3   5   5 55.6664  6.5682   1
  -3   5   5 52.8491  6.3282   7
  -3   5   5 45.3689  6.3280   5
   2  -5  -5 565.883  29.420   3
  -2   5   5 534.060  31.498   1
  -2   5   5 575.666  25.481   7
  -2   5   5 545.159  29.777   5
   1  -5  -5 1066.53   72.57   7
  -1   5   5 1010.42   56.44   5
  -1   5   5 1030.64   57.65   1
  -1   5   5 1011.09   47.76   7
   0  -5  -5 44.8234  4.5342   7
   0  -5  -5 44.2990  5.5591   8
   0   5   5 47.2417  4.7145   7
   0   5   5 56.7261  5.7234   5
   0   5   5 55.6337  5.9810   1
   0   5   5 56.2951  4.2110   4
   0   5   5 48.5492  5.3730   8
  -1  -5  -5 381.718  22.000   7
  -1  -5  -5 362.073  22.294   5
  -1  -5  -5 378.450  23.282   8
  -1  -5  -5 352.813  19.376   1
   1   5   5 318.566  19.641   8
   1   5   5 353.354  20.593   7
   1   5   5 334.061  18.361   5
   1   5   5 330.812  17.764   1
   1   5   5 327.209  17.124   4
  -2  -5  -5 2051.59  105.11   7
  -2  -5  -5 2072.51  127.53   5
  -2  -5  -5 1964.25   98.87   8
  -2  -5  -5 1970.16  131.10   1
   2   5   5 2113.54  112.57   1
   2   5   5 2022.88  101.50   5
   2   5   5 2058.45  108.57   7
   2   5   5 2075.73   98.06   4
   2   5   5 2057.17  101.74   8
  -3  -5  -5 13.4089  3.1709   1
  -3  -5  -5 16.9785  4.3269   8
  -3  -5  -5 14.0203  3.2035   5
  -3  -5  -5 12.5121  2.3538   7
   3   5   5 17.5999  4.1810   1
   3   5   5 20.1777  3.5064   5
  -4  -5  -5 888.480  47.259   1
  -4  -5  -5 910.690  58.458   5
  -4  -5  -5 868.346  38.837   8
  -4  -5  -5 877.292  43.335   7
   4   5   5 817.794  41.384   4
   4   5   5 863.775  43.419   5
   4   5   5 878.983  51.156   1
   4   5   5 837.300  42.480   8
  -5  -5  -5 1546.55   73.22   7
  -5  -5  -5 1587.19   82.58   1
  -5  -5  -5 1594.23   85.24   5
  -5  -5  -5 1656.37   79.90   8
   5   5   5 1595.56   77.77   1
   5   5   5 1599.45   78.73   5
   5   5   5 1529.34   80.94   8
   5   5   5 1639.88   76.67   4
  -6  -5  -5 103.367   5.227   5
  -6  -5  -5 106.202   7.249   8
  -6  -5  -5 89.6714  5.6220   1
   6   5   5 90.6630  7.4588   4
   6   5   5 88.5495  5.0520   5
   6   5   5 85.6014  6.5243   8
   6   5   5 95.6069  5.2611   1
  -7  -5  -5 143.273   6.200   1
  -7  -5  -5 134.559   6.564   1
  -7  -5  -5 143.678   8.152   8
   7   5   5 116.150   6.659   6
   7   5   5 120.836   9.216   4
  -8  -5  -5 177.682  11.531   8
   8   5   5 196.850  12.289   4
  -9  -5  -5 9.25020 5.22763   2
  -9  -5  -5 0.16367 5.29309   3
  -9  -5  -5 11.9685  4.7939   7
  -9  -5  -5 15.8899  4.6059   8
 -10  -5  -5 26.4286  5.7691   7
 -10  -5  -5 20.9334  5.0402   8
 -10  -5  -5 19.2232  6.2881   3
 -11  -5  -5 27.9760  5.9044   7
 -11  -5  -5 29.2327  6.9972   3
 -11  -5  -5 31.9187  6.8768   8
 -11  -5  -5 39.5206  7.0841   2
  -6   6   5 7.24220 5.87216   1
  -6   6   5 -0.2992  7.4880   7
  -6   6   5 0.00000 5.41554   5
  -5   6   5 55.1226  7.9866   1
  -5   6   5 54.5215  8.7652   7
  -4   6   5 98.2698  9.2665   5
  -4   6   5 88.3239  9.0858   7
  -4   6   5 101.015   9.049   1
   3  -6  -5 5.53093 2.78148   3
  -3   6   5 17.9363  5.7000   5
  -3   6   5 11.0519  5.3388   1
  -3   6   5 8.37992 5.19520   7
   2  -6  -5 497.576  26.008   3
  -2   6   5 496.533  30.076   7
  -2   6   5 505.824  26.341   5
  -2   6   5 540.214  29.226   1
  -1   6   5 617.188  30.687   5
  -1   6   5 662.558  34.027   7
  -1   6   5 646.690  38.318   1
   0   6   5 18.6843  4.8543   1
   0   6   5 22.2478  4.2396   7
   0   6   5 16.9316  4.8928   5
  -1  -6  -5 821.765  45.432   8
  -1  -6  -5 784.818  38.382   7
   1   6   5 780.204  36.491   4
   1   6   5 834.443  42.635   7
   1   6   5 833.342  40.144   5
   1   6   5 735.799  44.454   1
   1   6   5 778.162  62.248   8
  -2  -6  -5 319.795  19.156   5
  -2  -6  -5 329.963  17.585   8
  -2  -6  -5 329.300  17.486   7
   2   6   5 367.096  17.529   4
   2   6   5 340.648  16.326   7
   2   6   5 343.432  16.774   8
   2   6   5 293.455  16.055   1
   2   6   5 338.240  17.247   5
  -3  -6  -5 51.5696  5.7770   8
  -3  -6  -5 70.1311  5.0649   7
  -3  -6  -5 56.1329  6.7348   1
  -3  -6  -5 66.4618  5.6626   5
   3   6   5 60.0572  5.5466   1
   3   6   5 76.1387  5.8858   5
   3   6   5 80.0210  6.1600   4
   3   6   5 70.2035  5.3419   8
  -4  -6  -5 1394.73   67.76   1
  -4  -6  -5 1397.94   67.11   8
  -4  -6  -5 1384.76   75.31   5
  -4  -6  -5 1369.79   63.18   7
   4   6   5 1350.06   74.72   1
   4   6   5 1376.51   70.85   4
   4   6   5 1402.55   70.87   5
   4   6   5 1339.68   83.24   8
  -5  -6  -5 543.549  31.561   5
  -5  -6  -5 553.407  24.909   7
  -5  -6  -5 527.341  28.216   1
  -5  -6  -5 569.044  31.188   8
   5   6   5 548.819  30.307   5
   5   6   5 561.516  28.559   1
   5   6   5 563.621  27.540   4
   5   6   5 541.161  28.032   8
  -6  -6  -5 5.38251 2.82710   8
  -6  -6  -5 5.15291 2.41401   5
  -6  -6  -5 5.17518 2.40117   1
  -6  -6  -5 4.01758 2.53433   7
   6   6   5 6.82011 2.25860   5
   6   6   5 8.73462 2.63565   1
   6   6   5 3.32451 2.70969   8
   6   6   5 4.13991 4.37923   4
  -7  -6  -5 290.778  14.452   1
  -7  -6  -5 303.559  17.299   8
  -7  -6  -5 295.925  15.757   5
   7   6   5 350.191  17.034   4
   7   6   5 315.490  16.708   1
   7   6   5 314.610  19.805   5
  -8  -6  -5 16.4081  3.9997   8
   8   6   5 16.5784  5.5489   4
  -9  -6  -5 12.3689  3.9797   2
  -9  -6  -5 17.0810  4.3215   8
   9   6   5 9.10927 5.50153   4
 -10  -6  -5 48.2446  7.6452   2
 -10  -6  -5 57.1964  6.4216   8
 -10  -6  -5 69.3098  9.9264   3
 -10  -6  -5 44.6035  6.2226   7
 -11  -6  -5 7.59938 6.72708   3
 -11  -6  -5 14.5406  6.6537   7
 -11  -6  -5 19.5428  6.5556   2
  -5   7   5 32.5213  7.4013   1
  -5   7   5 26.7146  7.4213   5
  -5   7   5 34.0623  8.1756   7
  -4   7   5 42.2800  7.6789   7
  -4   7   5 49.6456  8.0142   5
  -3   7   5 26.1561  6.3054   1
  -3   7   5 36.2141  6.8251   5
  -3   7   5 25.4394  5.3555   7
  -2   7   5 250.974  15.184   7
  -2   7   5 261.225  19.450   1
  -2   7   5 292.551  15.996   5
  -1   7   5 96.1431  8.5574   5
  -1   7   5 78.2481  7.8589   7
  -1   7   5 95.8363  7.8641   1
   0   7   5 127.511   9.902   1
   0   7   5 174.783  10.593   5
   0   7   5 141.243   9.520   7
   1   7   5 361.316  18.214   5
   1   7   5 321.475  20.949   1
   1   7   5 351.872  20.726   7
  -2  -7  -5 14.3793  4.1016   7
  -2  -7  -5 11.8419  4.0123   8
   2   7   5 15.5819  3.8520   4
   2   7   5 19.4598  4.3475   8
   2   7   5 19.7990  4.5814   5
   2   7   5 13.7333  4.7394   1
  -3  -7  -5 79.2242  6.3246   8
  -3  -7  -5 77.5914  5.9747   7
   3   7   5 80.2408  7.2648   4
   3   7   5 72.5871  6.4754   8
   3   7   5 89.0051  6.7187   5
   3   7   5 70.9264  6.0850   1
  -4  -7  -5 403.926  23.368   8
  -4  -7  -5 410.669  21.500   7
  -4  -7  -5 342.740  20.411   5
   4   7   5 373.225  21.346   5
   4   7   5 367.422  26.292   8
   4   7   5 361.991  23.593   4
   4   7   5 417.235  21.282   1
  -5  -7  -5 36.4978  4.8189   8
  -5  -7  -5 26.6881  3.7853   7
  -5  -7  -5 27.5747  4.5766   1
  -5  -7  -5 26.2296  3.8269   5
   5   7   5 30.2600  5.3446   4
   5   7   5 26.0276  3.9408   5
   5   7   5 25.7818  3.8789   1
  -6  -7  -5 76.7425  6.5607   1
  -6  -7  -5 92.9283  6.5940   8
  -6  -7  -5 77.4422  5.8399   5
  -6  -7  -5 76.9956  6.4271   7
   6   7   5 90.7772  5.9916   5
   6   7   5 74.1392  7.2330   4
   6   7   5 94.7077  6.0765   1
   6   7   5 89.3377  5.7103   8
  -7  -7  -5 133.227   8.785   8
   7   7   5 115.519   9.521   4
   7   7   5 128.643   7.501   1
   7   7   5 124.227   8.585   5
  -8  -7  -5 18.1406  3.4826   8
   8   7   5 17.9186  2.0291   5
   8   7   5 14.2202  2.2947   1
   8   7   5 20.1693  5.9954   4
  -9  -7  -5 39.8100  4.9552   8
   9   7   5 40.8350  7.1687   4
 -10  -7  -5 39.7498  7.3635   2
  10   7   5 47.8486  7.6968   4
  -4   8   5 8.22827 6.86558   7
  -4   8   5 16.7982  5.6836   5
  -4   8   5 22.0880  7.5312   1
  -3   8   5 105.800  10.290   7
  -3   8   5 137.134  12.077   5
  -3   8   5 124.813  11.379   1
  -2   8   5 176.465  12.397   7
  -2   8   5 173.608  12.798   1
  -2   8   5 172.733  12.530   5
  -1   8   5 47.1416  6.3283   5
  -1   8   5 59.1769  7.3530   1
  -1   8   5 50.4041  6.9358   7
   0   8   5 239.099  14.308   5
   0   8   5 250.446  13.789   7
   0   8   5 238.938  15.807   1
   1   8   5 131.756   9.068   7
   1   8   5 123.922   9.210   1
   1   8   5 135.492  10.016   5
   2   8   5 135.799   9.815   5
   2   8   5 143.498   9.097   4
   2   8   5 115.719   8.965   7
   2   8   5 149.096  13.200   1
  -3  -8  -5 1028.40   47.80   8
   3   8   5 1026.21   50.55   4
   3   8   5 988.815  50.312   5
   3   8   5 987.240  55.263   8
   3   8   5 954.468  45.974   1
  -4  -8  -5 262.013  19.184   8
   4   8   5 268.423  16.404   1
   4   8   5 253.112  14.311   8
   4   8   5 281.578  15.009   5
   4   8   5 293.880  15.035   4
  -5  -8  -5 143.258   8.544   8
   5   8   5 152.473   9.357   5
   5   8   5 154.699  10.276   4
   5   8   5 127.440   8.707   8
   5   8   5 151.175   9.898   1
  -6  -8  -5 141.939  11.203   5
  -6  -8  -5 141.577   8.240   8
   6   8   5 137.702  10.269   4
   6   8   5 137.637  10.278   5
   6   8   5 135.722   9.559   1
   6   8   5 137.738   8.748   8
  -7  -8  -5 32.8695  4.4331   8
   7   8   5 34.4551  4.2480   1
   7   8   5 24.9543  3.7831   5
   7   8   5 34.9880  6.5114   4
  -8  -8  -5 13.0070  3.6195   8
   8   8   5 6.60773 2.79095   1
   8   8   5 8.33007 5.61435   4
   9   8   5 36.4090  6.1028   4
 -10  -8  -5 2.97532 5.31707   2
  10   8   5 11.6420  4.8273   4
  -3   9   5 43.9862  8.7462   1
  -3   9   5 28.1107  8.2563   5
  -2   9   5 10.9472  6.9112   1
  -2   9   5 4.37461 6.50237   5
  -2   9   5 3.08599 4.37209   7
  -1   9   5 32.7955  6.8698   7
  -1   9   5 36.3551  7.3165   5
  -1   9   5 42.0074  7.3411   1
   0   9   5 204.690  18.231   1
   0   9   5 205.652  14.801   5
   0   9   5 232.022  14.647   7
   1   9   5 277.058  17.363   1
   1   9   5 224.450  15.022   5
   1   9   5 218.916  21.640   7
   2   9   5 9.00391 5.27255   5
   2   9   5 4.37577 4.35444   7
   2   9   5 6.96760 5.29988   1
   3   9   5 335.358  21.610   5
   3   9   5 352.236  20.757   4
   3   9   5 334.287  20.010   1
   4   9   5 16.5654  5.5008   4
   4   9   5 17.0778  4.1322   8
   4   9   5 26.9803  5.4428   1
  -5  -9  -5 148.799  11.754   8
   5   9   5 130.551  10.638   5
   5   9   5 155.291   8.512   8
   5   9   5 136.121   9.548   1
   5   9   5 115.700  11.639   4
  -6  -9  -5 165.289   9.758   8
   6   9   5 148.229  11.264   5
   6   9   5 157.823  11.594   4
   6   9   5 144.572  11.273   1
   7   9   5 5.24980 2.96248   5
   7   9   5 9.72002 4.56370   4
   7   9   5 2.58763 3.50791   1
   8   9   5 22.6050  6.5881   4
   8   9   5 14.0979  3.7055   1
   9   9   5 41.5770  7.7975   4
 -10  -9  -5 6.21507 4.45520   2
  -2  10   5 5.34586 6.95156   1
  -1  10   5 22.0856  7.5105   5
  -1  10   5 28.4053  7.3826   7
  -1  10   5 30.0639  7.5290   1
   0  10   5 20.9128  6.3502   7
   0  10   5 17.3528  5.4885   1
   0  10   5 30.5401  7.4197   5
   1  10   5 5.47413 5.31226   7
   1  10   5 7.16226 6.05824   1
   1  10   5 0.64083 5.59408   5
   2  10   5 201.134  13.521   7
   2  10   5 201.365  13.121   5
   2  10   5 187.923  14.492   4
   2  10   5 158.696  12.653   1
   3  10   5 32.4052  6.5732   1
   3  10   5 35.9230  6.6478   5
   3  10   5 41.7758  6.5431   4
   4  10   5 12.4303  5.3433   1
   4  10   5 10.0285  4.1181   4
   5  10   5 119.966   9.909   5
   5  10   5 107.235  10.541   1
   5  10   5 114.963   9.947   4
   6  10   5 42.0977  7.2100   4
   6  10   5 32.2544  5.4373   5
   6  10   5 41.8140  6.0101   1
   7  10   5 23.0890 26.2303   5
   8  10   5 16.9729  7.1441   4
  -9 -10  -5 2.44104 5.62401   2
   9  10   5 7.70764 6.55630   4
   0  11   5 28.3229  8.0457   1
   1  11   5 12.9474  6.9297   1
   1  11   5 10.7478  6.1017   7
   1  11   5 19.0119  7.1956   5
   2  11   5 48.4481  7.9877   5
   2  11   5 46.5373  7.8890   1
   2  11   5 47.9636  7.6657   7
   2  11   5 66.4589  8.7796   4
   3  11   5 0.36184 5.40586   1
   3  11   5 5.65761 5.44528   4
   3  11   5 2.43397 5.60679   5
   4  11   5 12.5100  5.8295   1
   4  11   5 19.3179  5.9858   5
   4  11   5 6.59203 6.08647   4
   5  11   5 76.5420  8.3268   1
   5  11   5 53.7458  7.2862   5
   5  11   5 63.8331  8.7035   4
   6  11   5 13.3273  5.3536   1
   6  11   5 9.52679 6.26205   5
   6  11   5 9.47538 6.76741   4
   7  11   5 12.5413  5.3333   5
   7  11   5 22.9665  7.6315   4
   7  11   5 10.2026  4.6122   1
   3  12   5 6.16567 6.19767   1
   4  12   5 23.5818  7.3890   1
   5  12   5 4.55139 6.09721   1
   3  10  -6 7.91988 6.92666   5
   3  10  -6 8.13850 6.30650   1
   2  10  -6 11.1062  6.3021   5
   2  10  -6 17.2630  6.8381   1
   1  10  -6 43.3730  8.1488   1
   6   9  -6 3.40015 5.89435   1
   5   9  -6 84.6160  9.1356   1
   5   9  -6 67.7273  9.0924   5
   4   9  -6 64.9013  8.2960   1
   4   9  -6 42.9729  7.4676   5
   3   9  -6 9.19621 6.06633   1
   3   9  -6 8.47032 5.71282   5
   2   9  -6 70.9139  8.6748   1
   2   9  -6 85.3467  9.1022   5
   1   9  -6 43.3668  6.3451   1
   0   9  -6 20.2461  6.7129   5
   0   9  -6 19.3548  6.5980   1
  -1   9  -6 213.490  48.658   8
  -1   9  -6 123.411  11.261   5
  -1   9  -6 148.951  11.979   1
  -2   9  -6 46.8152  8.3141   5
  -2   9  -6 39.6107  8.4126   7
  -2   9  -6 46.6973  6.9113   8
  -2   9  -6 51.5412  8.3368   1
   7   8  -6 -0.3148  5.0401   5
   7   8  -6 -5.3063  6.0711   1
   7   8  -6 -4.8102  5.3155   4
   6   8  -6 52.3488  8.5636   4
   6   8  -6 45.2133  8.2227   5
   6   8  -6 30.3164  6.5867   1
   5   8  -6 101.277   9.062   1
   5   8  -6 76.1683  8.2244   5
   4   8  -6 42.7110  6.7489   1
   4   8  -6 36.6135  6.3711   5
   3   8  -6 30.5707  6.3492   1
   3   8  -6 25.7917  6.0857   5
   2   8  -6 122.465  10.758   1
   2   8  -6 137.726  11.313   5
   1   8  -6 7.95641 5.64189   1
   1   8  -6 6.76540 5.26785   5
   1   8  -6 1.65643 2.53704   8
   0   8  -6 71.1562  5.9174   8
   0   8  -6 79.0716  8.6326   5
   0   8  -6 62.7502  7.9187   1
  -1   8  -6 172.904  12.631   5
  -1   8  -6 207.526  12.122   8
  -1   8  -6 161.263  12.448   1
  -2   8  -6 5.65843 4.22727   7
  -2   8  -6 0.42548 5.99807   5
  -2   8  -6 9.59318 5.98223   1
  -2   8  -6 7.50872 4.23796   8
  -3   8  -6 24.4755  7.1847   7
  -3   8  -6 29.2730  5.9965   8
  -3   8  -6 41.6406  7.3763   1
  -4   8  -6 22.7660  5.5323   5
  -4   8  -6 23.3117  6.7013   1
  -4   8  -6 12.3775  7.3208   7
  -4   8  -6 25.9258  6.3756   8
   7   7  -6 12.9929  6.2771   1
   7   7  -6 11.6432  5.3000   4
   6   7  -6 93.6043  8.9732   1
   6   7  -6 84.8571  8.3903   4
   5   7  -6 55.7944  6.8033   1
  -5  -7   6 48.3795  6.5506   6
   4   7  -6 13.5214  5.0684   1
   4   7  -6 23.4039  5.5022   5
   3   7  -6 450.627  30.499   5
   3   7  -6 508.456  22.149   8
   3   7  -6 504.643  24.211   1
   2   7  -6 118.444   9.119   1
   2   7  -6 99.7896  8.7567   5
   2   7  -6 94.5628  6.1091   8
   1   7  -6 14.6477  5.3242   5
   1   7  -6 13.9425  3.1164   8
   1   7  -6 23.1517  5.6468   1
   0   7  -6 438.955  23.532   1
   0   7  -6 439.504  27.557   8
   0   7  -6 412.037  25.264   5
  -1   7  -6 69.1802  6.4276   8
  -1   7  -6 57.4059  7.3926   1
  -2   7  -6 21.7982  5.4045   8
  -2   7  -6 26.5155  5.1266   5
  -2   7  -6 21.7887  4.6564   7
  -2   7  -6 20.3948  5.8064   1
  -3   7  -6 192.064  11.819   8
  -3   7  -6 172.498  12.312   5
  -3   7  -6 189.694  12.641   7
  -3   7  -6 172.354  13.281   1
  -4   7  -6 15.4777  6.1921   7
  -4   7  -6 4.47379 5.17199   1
  -4   7  -6 12.1579  5.6011   8
  -4   7  -6 20.6026  6.2749   5
  -5   7  -6 40.0940  7.8219   8
  -5   7  -6 27.4457  7.5009   1
  -5   7  -6 29.1919  7.4477   7
  -5   7  -6 27.6384  5.8058   5
   8   6  -6 8.16117 3.99279   4
   8   6  -6 5.97594 4.64869   1
   7   6  -6 18.6617  4.5940   4
   7   6  -6 21.9673  5.0469   1
   6   6  -6 78.0702  7.2935   1
   6   6  -6 60.5622  7.2359   4
  -6  -6   6 94.9644  8.1124   6
   5   6  -6 61.8898  6.7589   1
  -5  -6   6 56.6428  6.5858   6
   4   6  -6 219.629  13.065   1
  -4  -6   6 206.202  12.924   6
   3   6  -6 315.037  15.641   2
   3   6  -6 327.567  15.503   8
   3   6  -6 305.799  18.153   1
  -3  -6   6 325.510  16.926   6
   2   6  -6 69.7098  7.0998   1
   2   6  -6 75.2965  5.1023   8
  -2  -6   6 75.6279  7.2191   6
   1   6  -6 378.065  24.031   8
   1   6  -6 367.596  21.399   1
   1   6  -6 389.197  18.638   5
  -1  -6   6 369.458  21.044   6
   0   6  -6 388.101  21.176   8
   0   6  -6 417.876  20.477   1
   0   6  -6 375.999  20.066   5
  -1   6  -6 8.46459 3.21350   8
  -1   6  -6 14.7153  4.9812   5
  -1   6  -6 3.39021 4.54866   1
  -2   6  -6 281.692  14.615   7
  -2   6  -6 253.228  19.023   1
  -2   6  -6 270.602  16.417   5
  -2   6  -6 271.288  14.933   8
  -3   6  -6 287.898  16.154   5
  -3   6  -6 276.303  15.591   8
  -3   6  -6 283.462  17.737   1
  -3   6  -6 281.448  15.395   7
  -4   6  -6 39.6468  6.4695   1
  -4   6  -6 47.4986  6.7085   7
  -4   6  -6 33.2623  6.2461   5
  -4   6  -6 32.0728  7.0431   8
  -5   6  -6 78.5482  8.2140   5
  -5   6  -6 83.9694  9.6554   7
  -5   6  -6 87.8488  8.2937   1
  -5   6  -6 71.3622  8.5816   8
  -6   6  -6 68.2818  7.6067   8
  -6   6  -6 55.8717  8.4200   7
  -6   6  -6 53.1253  7.4565   1
   8   5  -6 2.62575 4.06032   4
   8   5  -6 1.69618 3.74943   1
   7   5  -6 63.8626  6.3883   1
   7   5  -6 65.8667  6.1828   4
  -7  -5   6 52.6393  6.1490   6
   6   5  -6 55.8634  6.1697   1
   6   5  -6 61.1795  5.7730   4
  -6  -5   6 54.3259  5.9281   6
   5   5  -6 90.6477  6.9693   4
   5   5  -6 85.3766  7.3507   1
  -5  -5   6 71.8221  7.3215   6
   4   5  -6 574.084  28.943   1
  -4  -5   6 538.742  25.724   8
  -4  -5   6 620.998  33.586   6
   3   5  -6 264.951  14.481   1
   3   5  -6 260.485  13.780   8
   3   5  -6 260.275  13.616   2
  -3  -5   6 300.337  15.072   8
  -3  -5   6 308.758  15.837   6
   2   5  -6 20.9496  2.8725   2
   2   5  -6 18.3948  4.7283   1
   2   5  -6 19.8544  2.7976   8
  -2  -5   6 19.3936  4.7409   6
   1   5  -6 610.134  30.657   8
   1   5  -6 613.635  32.012   1
   1   5  -6 575.684  26.598   2
  -1  -5   6 675.680  33.389   6
   0   5  -6 198.817  11.985   1
   0   5  -6 216.204  12.079   8
   0   5  -6 218.297   9.927   2
   0  -5   6 211.372  12.329   6
  -1   5  -6 245.917  13.105   8
  -1   5  -6 265.101  13.510   1
  -1   5  -6 251.933  14.101   5
   1  -5   6 203.193  13.167   6
  -2   5  -6 771.268  36.458   8
  -2   5  -6 751.874  38.069   7
  -2   5  -6 829.726  36.036   1
  -2   5  -6 841.348  42.627   5
  -3   5  -6 98.6156  7.6109   7
  -3   5  -6 82.8100  7.6284   1
  -3   5  -6 85.1558  7.5975   5
  -3   5  -6 95.6156  7.4228   8
  -4   5  -6 62.9324  7.1962   5
  -4   5  -6 59.9998  6.7084   8
  -4   5  -6 58.1116  6.5569   1
  -4   5  -6 46.3586  6.2325   7
  -5   5  -6 162.100  11.336   8
  -5   5  -6 165.680  10.690   1
  -5   5  -6 142.278  10.703   7
  -5   5  -6 148.573  10.327   5
  -6   5  -6 24.5606  7.5491   7
  -6   5  -6 25.9124  6.5705   8
  -6   5  -6 28.7216  5.6830   5
  -6   5  -6 25.1666  5.1758   1
  -7   5  -6 20.4600  6.6435   7
  -7   5  -6 14.0793  6.0365   1
  -7   5  -6 20.2871  7.2022   8
  -7   5  -6 16.7435  6.3983   5
   8   4  -6 5.78784 4.48682   1
  -8  -4   6 13.0485  6.6894   7
   7   4  -6 106.379   7.370   4
   7   4  -6 108.848   8.004   1
  -7  -4   6 95.6476  7.8031   6
   6   4  -6 57.7514  5.8144   4
   6   4  -6 63.0232  6.8865   1
  -6  -4   6 55.2697  5.8955   6
   5   4  -6 278.141  18.931   1
   5   4  -6 278.216  15.339   4
  -5  -4   6 276.033  13.325   8
  -5  -4   6 290.822  16.182   6
   4   4  -6 537.171  27.360   1
  -4  -4   6 541.533  29.176   6
  -4  -4   6 515.165  25.575   8
   3   4  -6 273.592  16.996   1
   3   4  -6 328.011  15.188   8
   3   4  -6 303.605  15.432   2
  -3  -4   6 310.987  14.887   8
  -3  -4   6 306.606  15.759   6
   2   4  -6 462.836  21.478   1
   2   4  -6 459.370  20.836   8
   2   4  -6 423.437  22.843   2
  -2  -4   6 426.437  23.841   6
  -2  -4   6 401.963  31.635   7
  -2  -4   6 419.245  20.145   8
   1   4  -6 1192.71   50.80   2
   1   4  -6 1213.06   62.39   8
   1   4  -6 1257.58   58.35   1
  -1  -4   6 1176.12   58.74   7
  -1  -4   6 1201.29   64.76   8
  -1  -4   6 1305.95   64.86   6
   0   4  -6 31.3174  4.7953   1
   0   4  -6 20.4664  3.5077   8
   0   4  -6 23.7416  2.2709   2
   0  -4   6 19.9823  3.6678   6
   0  -4   6 21.0896  3.6693   7
  -1   4  -6 1089.04   56.77   8
  -1   4  -6 999.744  51.899   1
   1  -4   6 1090.03   50.70   7
   1  -4   6 1065.36   52.16   6
  -2   4  -6 1256.88   60.20   1
  -2   4  -6 1272.35   62.17   8
  -2   4  -6 1302.71   58.42   7
  -2   4  -6 1250.35   60.46   5
   2  -4   6 1217.58   62.51   6
   2  -4   6 1170.40   69.01   7
  -3   4  -6 138.486  11.222   7
  -3   4  -6 137.699   8.891   5
  -3   4  -6 130.502   8.864   8
  -3   4  -6 139.790   6.239   2
  -3   4  -6 139.782   8.513   1
   3  -4   6 135.468   9.346   7
  -4   4  -6 148.189   7.042   2
  -4   4  -6 158.461  10.135   8
  -4   4  -6 156.797   9.804   5
  -4   4  -6 177.406  10.339   1
  -4   4  -6 140.119  10.073   7
  -5   4  -6 293.778  14.189   2
  -5   4  -6 319.500  17.020   1
  -5   4  -6 271.553  16.875   7
  -5   4  -6 328.055  18.007   8
  -5   4  -6 309.251  16.978   5
  -6   4  -6 1.55339 5.89047   7
  -6   4  -6 7.55014 5.63832   8
  -6   4  -6 6.41879 3.95996   5
  -6   4  -6 12.8218  4.1686   1
  -6   4  -6 7.12035 2.33079   2
  -7   4  -6 80.2625  7.4653   5
  -7   4  -6 84.8609  7.4275   1
  -7   4  -6 96.4060  9.3666   7
  -7   4  -6 100.912   9.704   8
  -8   4  -6 41.5977  8.4075   8
  -8   4  -6 43.0293  7.5574   7
   8   3  -6 62.1299  6.5947   1
  -8  -3   6 61.3224  8.7776   7
  -8  -3   6 61.0785  7.2126   3
   7   3  -6 138.988  10.272   1
   7   3  -6 136.439   8.247   4
  -7  -3   6 127.101  10.662   7
  -7  -3   6 155.125   9.552   6
   6   3  -6 20.4060  4.3101   1
   6   3  -6 19.8552  3.3633   4
   5   3  -6 178.215  13.033   1
   5   3  -6 173.836  10.113   4
  -5  -3   6 193.766  10.485   8
  -5  -3   6 210.526  11.249   6
   4   3  -6 332.554  16.160   4
   4   3  -6 337.047  17.185   1
  -4  -3   6 322.168  16.237   6
  -4  -3   6 320.001  16.239   8
   3   3  -6 85.4832  7.3458   2
   3   3  -6 103.509   6.526   1
   3   3  -6 92.0631  6.1674   8
  -3  -3   6 89.0449  5.5189   8
  -3  -3   6 81.0764  6.7051   6
   2   3  -6 2251.97  101.03   2
   2   3  -6 2275.33  103.26   8
   2   3  -6 2371.25  100.14   1
  -2  -3   6 2213.66  103.29   6
  -2  -3   6 2039.27  120.38   8
   1   3  -6 430.242  23.527   1
   1   3  -6 406.347  23.620   6
   1   3  -6 438.515  21.311   8
   1   3  -6 411.999  18.336   2
  -1  -3   6 396.590  19.623   7
  -1  -3   6 361.112  20.269   8
  -1  -3   6 383.306  19.223   6
   0   3  -6 27.4104  3.8870   8
   0   3  -6 30.1396  3.9470   6
   0   3  -6 29.9532  3.8425   1
   0  -3   6 42.0318  4.5401   1
   0  -3   6 35.4876  3.7225   8
  -1   3  -6 1634.87   74.16   1
  -1   3  -6 1601.52   78.17   8
  -1   3  -6 1500.13   84.52   6
   1  -3   6 1602.51   96.05   1
   1  -3   6 1694.28   95.16   7
   1  -3   6 1706.11   78.31   6
  -2   3  -6 409.329  22.498   7
  -2   3  -6 368.045  25.142   6
  -2   3  -6 388.570  21.987   8
  -2   3  -6 427.539  23.646   1
   2  -3   6 445.014  21.946   6
   2  -3   6 419.309  22.149   1
   2  -3   6 462.175  19.708   7
  -3   3  -6 43.0966  4.9307   1
  -3   3  -6 42.3218  4.2745   7
  -3   3  -6 48.0297  5.0350   5
   3  -3   6 41.3066  5.0775   6
   3  -3   6 32.3891  4.4909   7
   3  -3   6 42.0416  4.4895   1
  -4   3  -6 751.613  46.336   1
  -4   3  -6 795.216  35.879   8
  -4   3  -6 785.944  39.597   7
  -4   3  -6 806.438  38.649   5
   4  -3   6 708.908  40.063   7
  -5   3  -6 88.9097  5.1472   2
  -5   3  -6 69.4637  6.2205   1
  -5   3  -6 89.1582  6.9595   7
  -5   3  -6 86.1944  6.6769   5
  -5   3  -6 86.8714  7.0262   8
  -6   3  -6 27.2546  4.9484   5
  -6   3  -6 30.7106  3.5533   2
  -6   3  -6 28.0276  5.9310   7
  -6   3  -6 29.9877  6.3718   8
  -6   3  -6 32.5993  4.9102   1
  -7   3  -6 192.965  10.708   2
  -7   3  -6 189.725  11.653   1
  -7   3  -6 210.109  13.088   8
  -7   3  -6 172.443  11.489   5
  -7   3  -6 152.089  12.362   7
  -8   3  -6 62.0068  7.5119   8
  -8   3  -6 49.8801  5.0062   2
  -8   3  -6 53.0248  8.4965   7
  -9   3  -6 -2.6313  6.6216   7
   8   2  -6 91.6430  7.9432   1
  -8  -2   6 105.836  10.027   7
  -8  -2   6 72.5914  7.6677   3
   7   2  -6 11.6272  4.6584   1
  -7  -2   6 18.0976  4.8133   7
  -7  -2   6 14.8840  4.5350   3
  -7  -2   6 15.9587  4.6742   6
   6   2  -6 146.137   8.570   4
   6   2  -6 163.039  11.121   1
  -6  -2   6 168.852  10.646   6
  -6  -2   6 184.884  11.320   7
   5   2  -6 132.946   8.344   1
   5   2  -6 137.756   6.954   4
  -5  -2   6 110.179   8.012   8
  -5  -2   6 124.071   8.962   6
   4   2  -6 153.020   8.328   4
   4   2  -6 164.984   9.129   1
  -4  -2   6 132.219   8.137   8
  -4  -2   6 147.402   9.075   6
   3   2  -6 982.830  66.326   2
   3   2  -6 993.366  47.321   8
   3   2  -6 962.771  47.493   1
   3   2  -6 933.606  50.099   5
  -3  -2   6 960.324  45.803   6
  -3  -2   6 916.885  45.479   8
   2   2  -6 1778.23   80.82   1
   2   2  -6 1656.33   94.60   5
   2   2  -6 1701.44   87.25   2
   2   2  -6 1871.11   85.59   8
  -2  -2   6 1667.21   87.23   1
  -2  -2   6 1834.73   82.36   6
  -2  -2   6 1632.29   85.20   8
   1   2  -6 265.298  13.709   5
   1   2  -6 302.210  14.762   8
   1   2  -6 287.779  14.024   1
  -1  -2   6 249.690  14.249   8
  -1  -2   6 260.492  15.764   1
  -1  -2   6 262.945  14.833   6
   0   2  -6 1451.71   70.09   8
   0   2  -6 1338.62   79.85   6
   0   2  -6 1409.75   66.00   1
   0  -2   6 1377.67   84.26   6
   0  -2   6 1420.36   63.14   7
   0  -2   6 1385.00   67.84   1
   0  -2   6 1424.58   69.14   8
  -1   2  -6 1033.81   51.00   1
  -1   2  -6 991.677  56.139   6
  -1   2  -6 941.498  46.630   8
   1  -2   6 980.151  47.522   1
   1  -2   6 952.662  45.376   7
   1  -2   6 1017.62   51.38   6
   1  -2   6 977.404  46.186   8
  -2   2  -6 150.026   9.143   8
  -2   2  -6 157.586   8.749   7
  -2   2  -6 137.529   8.751   6
  -2   2  -6 149.795   8.582   1
   2  -2   6 156.507   8.191   7
   2  -2   6 153.967   8.426   1
   2  -2   6 170.411   9.105   6
  -3   2  -6 1817.15   95.26   8
  -3   2  -6 1851.53   95.36   1
  -3   2  -6 1847.02   86.56   7
  -3   2  -6 1772.73  105.42   6
   3  -2   6 1837.68   89.77   7
   3  -2   6 1779.17   87.02   3
   3  -2   6 1829.31  101.13   1
   3  -2   6 1794.18   83.20   6
  -4   2  -6 790.808  43.908   6
  -4   2  -6 850.714  46.733   8
  -4   2  -6 853.057  42.982   7
  -4   2  -6 862.532  41.447   5
  -4   2  -6 868.139  40.841   1
   4  -2   6 813.144  46.403   7
   4  -2   6 812.753  37.975   6
   4  -2   6 744.391  43.087   1
  -5   2  -6 12.3190  3.5584   7
  -5   2  -6 14.4259  4.5050   8
  -5   2  -6 13.6811  3.2658   5
  -5   2  -6 11.7716  3.7379   1
  -5   2  -6 8.52323 4.07156   6
   5  -2   6 10.1887  2.9833   7
   5  -2   6 8.92028 2.72274   1
  -6   2  -6 264.408  14.613   5
  -6   2  -6 246.390  14.119   2
  -6   2  -6 248.296  15.994   7
  -6   2  -6 244.825  14.987   1
  -6   2  -6 247.470  14.241   8
   6  -2   6 279.789  16.616   1
  -7   2  -6 136.052  10.235   8
  -7   2  -6 123.868   9.798   2
  -7   2  -6 124.996   9.139   7
  -7   2  -6 123.062   8.024   1
  -7   2  -6 132.909   9.522   5
   7  -2   6 122.805   7.962   1
  -8   2  -6 8.25277 5.08394   7
  -8   2  -6 -2.7731  4.1033   2
  -8   2  -6 0.50130 4.16800   8
  -9   2  -6 28.5234  5.6621   2
  -9   2  -6 45.2824  8.6442   7
  -9   2  -6 49.0534  8.6086   8
   8   1  -6 86.6105  8.0535   1
  -8  -1   6 97.8061  9.0059   7
   7   1  -6 25.7537  4.6594   1
  -7  -1   6 24.4985  6.2414   7
  -7  -1   6 24.5016  5.0271   6
  -7  -1   6 18.2023  3.8685   3
   6   1  -6 180.923  11.601   1
  -6  -1   6 206.657  12.527   7
  -6  -1   6 192.203  11.199   6
  -6  -1   6 206.393  11.241   3
   5   1  -6 17.2167  4.0637   1
  -5  -1   6 10.0576  3.5559   6
  -5  -1   6 10.7908  4.4801   7
   4   1  -6 7.77929 3.63396   1
  -4  -1   6 0.57671 3.55690   7
  -4  -1   6 4.85342 3.18285   6
  -4  -1   6 3.29658 3.13821   8
   3   1  -6 1532.36   69.58   1
   3   1  -6 1423.00   76.58   5
   3   1  -6 1477.52   85.77   8
   3   1  -6 1515.77   70.39   4
  -3  -1   6 1493.66   76.67   8
  -3  -1   6 1549.32   81.02   6
  -3  -1   6 1369.16   84.36   1
   2   1  -6 870.111  42.152   5
   2   1  -6 908.414  47.216   1
   2   1  -6 956.371  48.933   8
  -2  -1   6 991.269  47.190   6
  -2  -1   6 900.849  55.922   1
  -2  -1   6 939.945  46.123   8
   1   1  -6 0.08849 2.13907   1
   1   1  -6 1.84539 2.95481   8
   1   1  -6 3.35978 2.18893   5
  -1  -1   6 1.65544 3.34327   6
  -1  -1   6 8.51530 2.95447   1
  -1  -1   6 3.72322 2.39599   8
   0   1  -6 2424.34  118.71   5
   0   1  -6 2461.65  114.07   1
   0   1  -6 2492.80  134.51   8
   0  -1   6 2267.81  104.18   1
   0  -1   6 2276.19  115.16   8
   0  -1   6 2344.94  132.06   6
  -1   1  -6 748.182  37.000   1
  -1   1  -6 749.533  39.332   6
  -1   1  -6 774.666  39.102   8
   1  -1   6 729.746  33.361   1
   1  -1   6 738.929  41.355   7
   1  -1   6 752.721  41.028   6
   1  -1   6 728.357  40.401   8
  -2   1  -6 497.060  23.113   1
  -2   1  -6 454.368  28.323   6
  -2   1  -6 515.236  29.648   8
   2  -1   6 481.714  27.192   3
   2  -1   6 460.235  21.786   6
   2  -1   6 461.807  23.673   7
   2  -1   6 462.324  23.955   8
   2  -1   6 439.525  24.174   1
  -3   1  -6 2049.60  101.59   7
  -3   1  -6 2054.49   99.87   8
  -3   1  -6 2006.47  105.23   6
  -3   1  -6 2071.47   99.70   1
   3  -1   6 2096.10  104.14   1
   3  -1   6 1991.49   97.17   3
   3  -1   6 2098.30  115.42   6
   3  -1   6 1975.82  104.27   7
  -4   1  -6 812.491  44.496   7
  -4   1  -6 905.823  39.722   1
  -4   1  -6 793.891  47.142   6
  -4   1  -6 841.683  43.463   8
   4  -1   6 867.923  41.427   7
   4  -1   6 889.132  41.281   1
   4  -1   6 851.156  46.515   3
   4  -1   6 876.222  50.445   6
  -5   1  -6 121.555   9.038   8
  -5   1  -6 138.648   7.279   5
  -5   1  -6 121.658   7.537   6
  -5   1  -6 107.560   8.040   1
  -5   1  -6 124.074   7.426   7
   5  -1   6 128.879   7.432   7
   5  -1   6 116.203   7.570   6
   5  -1   6 115.819   6.794   1
  -6   1  -6 425.785  26.582   6
  -6   1  -6 423.643  20.631   1
  -6   1  -6 432.221  22.117   5
  -6   1  -6 396.078  19.817   7
  -6   1  -6 430.286  23.056   8
   6  -1   6 420.062  24.785   7
   6  -1   6 467.455  23.369   1
  -7   1  -6 91.8236  6.0062   5
  -7   1  -6 73.4613 19.0217   6
  -7   1  -6 95.0628  6.9800   2
  -7   1  -6 91.9090  7.5025   7
  -7   1  -6 104.240   9.047   8
  -7   1  -6 89.3192  7.0286   1
   7  -1   6 101.957   6.653   1
  -8   1  -6 31.2551  3.4988   5
  -8   1  -6 38.1142  6.6573   7
  -9   1  -6 88.9394  9.5737   8
  -9   1  -6 75.2393  8.2658   7
  -9   1  -6 86.8499  8.0192   2
 -10   1  -6 5.31904 5.61419   7
 -10   1  -6 33.6777  8.3106   8
 -10   1  -6 17.3221  5.3868   2
   8   0  -6 47.6139  6.0950   1
  -8   0   6 51.1873  8.2631   7
   7   0  -6 134.090  10.879   1
  -7   0   6 124.328  10.443   7
  -7   0   6 127.239   9.190   6
  -7   0   6 126.922   8.532   3
   6   0  -6 58.4056  6.0955   1
  -6   0   6 57.6819  5.3430   3
  -6   0   6 59.5949  7.1830   7
   5   0  -6 135.636   8.305   1
  -5   0   6 108.294   7.181   3
  -5   0   6 113.210   8.541   7
   4   0  -6 287.671  15.553   1
  -4   0   6 260.998  14.169   7
  -4   0   6 265.773  12.828   3
   3   0  -6 1238.47   58.05   1
   3   0  -6 1264.63   76.52   8
   3   0  -6 1180.08   72.17   1
   3   0  -6 1237.02   69.39   5
  -3   0   6 1320.38   65.70   7
  -3   0   6 1287.56   72.79   8
   2   0  -6 313.148  16.471   1
   2   0  -6 284.816  14.913   1
   2   0  -6 271.517  14.302   5
   2   0  -6 308.461  13.554   4
   2   0  -6 295.737  15.560   8
  -2   0   6 308.816  14.489   7
  -2   0   6 294.625  16.092   8
   1   0  -6 701.979  33.616   1
   1   0  -6 706.684  34.564   5
   1   0  -6 722.505  37.190   8
  -1   0   6 734.599  35.009   1
  -1   0   6 751.441  35.039   6
  -1   0   6 735.385  42.506   8
   0   0  -6 1000.38   44.61   8
   0   0  -6 997.539  51.133   1
   0   0  -6 993.369  42.685   5
   0   0   6 946.708  45.774   6
   0   0   6 893.356  52.347   1
   0   0   6 866.842  45.583   8
  -1   0  -6 372.592  18.631   1
  -1   0  -6 385.436  17.199   5
  -1   0  -6 368.463  20.176   8
   1   0   6 381.750  20.090   7
   1   0   6 368.652  20.657   8
   1   0   6 355.695  19.550   3
   1   0   6 368.635  19.120   1
   1   0   6 381.801  19.785   6
  -2   0  -6 1900.57   87.05   1
  -2   0  -6 2008.22   93.98   5
  -2   0  -6 2079.48  100.78   8
   2   0   6 1843.73   88.62   7
   2   0   6 1892.14   99.81   6
   2   0   6 1835.89   85.97   1
   2   0   6 1809.43  102.84   8
   2   0   6 1795.11  106.09   3
  -3   0  -6 2944.87  135.65   7
  -3   0  -6 2920.02  132.93   8
  -3   0  -6 2967.04  134.90   5
  -3   0  -6 3096.88  140.59   1
   3   0   6 2790.72  132.84   8
   3   0   6 2875.07  156.63   3
   3   0   6 2839.75  142.12   1
   3   0   6 3032.00  157.47   7
   3   0   6 2890.51  147.93   6
  -4   0  -6 240.839  12.600   6
  -4   0  -6 244.901  11.307   1
  -4   0  -6 240.600  13.398   8
  -4   0  -6 240.059  10.944   7
   4   0   6 236.902  12.640   3
   4   0   6 229.703  12.097   1
   4   0   6 243.546  13.294   6
   4   0   6 233.328  11.568   7
  -5   0  -6 151.063   8.251   7
  -5   0  -6 155.360   8.264   1
  -5   0  -6 145.984   8.700   6
  -5   0  -6 166.486   9.777   8
   5   0   6 152.740   8.137   1
   5   0   6 167.813  11.540   3
   5   0   6 161.169   8.068   7
   5   0   6 160.918   8.572   6
  -6   0  -6 629.557  35.491   6
  -6   0  -6 646.685  34.111   1
  -6   0  -6 593.669  30.231   7
  -6   0  -6 594.712  33.102   5
  -6   0  -6 613.208  30.058   8
   6   0   6 655.510  35.290   1
  -7   0  -6 10.8593  2.4068   1
  -7   0  -6 16.9950  2.8827   5
  -7   0  -6 17.3771  3.8271   7
  -7   0  -6 14.9673  5.1785   8
  -7   0  -6 19.7162  4.1497   2
   7   0   6 13.6424  2.4722   1
  -8   0  -6 103.322   8.736   2
  -8   0  -6 132.370   9.738   7
  -8   0  -6 112.487   9.475   8
  -9   0  -6 109.881   9.159   7
  -9   0  -6 124.069  10.516   8
  -9   0  -6 113.513   8.760   2
 -10   0  -6 17.3034  5.4938   2
 -10   0  -6 10.9801  5.6256   7
 -10   0  -6 11.7369  6.8750   8
   8  -1  -6 13.0437  4.6369   1
  -8   1   6 7.85371 7.08919   7
   7  -1  -6 108.125   8.465   1
  -7   1   6 86.0688  8.3526   7
  -7   1   6 74.4285  7.6117   5
   6  -1  -6 168.872  12.470   1
  -6   1   6 174.811  11.179   5
  -6   1   6 203.234  12.209   7
   5  -1  -6 24.4493  4.6743   1
  -5   1   6 24.7894  4.7985   5
  -5   1   6 22.9526  3.2972   3
  -5   1   6 23.2278  4.1737   7
   4  -1  -6 916.913  52.485   1
  -4   1   6 905.093  44.948   7
  -4   1   6 951.625  46.875   3
  -4   1   6 972.954  46.539   5
   3  -1  -6 659.689  32.136   1
   3  -1  -6 586.788  33.660   8
  -3   1   6 663.794  30.709   5
  -3   1   6 598.232  29.771   8
  -3   1   6 613.768  29.975   3
  -3   1   6 619.662  30.914   7
   2  -1  -6 344.193  17.769   1
   2  -1  -6 363.559  19.387   5
   2  -1  -6 379.953  17.768   1
   2  -1  -6 382.710  19.685   8
  -2   1   6 387.755  16.117   3
  -2   1   6 380.561  19.901   7
  -2   1   6 380.518  19.879   5
  -2   1   6 357.904  21.532   8
   1  -1  -6 3130.45  160.68   1
   1  -1  -6 3115.05  172.98   8
   1  -1  -6 2853.51  158.42   1
   1  -1  -6 3043.58  163.77   5
  -1   1   6 2895.82  157.50   5
  -1   1   6 2808.43  142.59   7
  -1   1   6 2748.57  150.49   8
   0  -1  -6 1226.76   54.65   4
   0  -1  -6 1176.65   62.27   5
   0  -1  -6 1131.16   58.80   1
   0  -1  -6 1198.42   53.44   1
   0  -1  -6 1208.89   55.12   8
   0   1   6 1099.51   54.85   5
   0   1   6 1105.55   52.54   7
   0   1   6 1051.95   58.90   8
  -1  -1  -6 229.207  11.990   8
  -1  -1  -6 221.680  11.226   1
  -1  -1  -6 214.101  10.019   4
  -1  -1  -6 226.296  11.308   1
  -1  -1  -6 230.820  12.052   5
   1   1   6 218.175  12.610   8
   1   1   6 192.850  11.576   1
   1   1   6 226.242   9.661   7
  -2  -1  -6 2498.84  117.28   8
  -2  -1  -6 2464.80  118.51   5
  -2  -1  -6 2516.88  125.98   1
  -2  -1  -6 2497.70  122.70   4
   2   1   6 2655.10  148.28   8
   2   1   6 2763.36  127.71   6
   2   1   6 2596.29  133.84   1
  -3  -1  -6 634.009  28.733   1
  -3  -1  -6 626.304  32.251   5
  -3  -1  -6 652.182  32.636   4
  -3  -1  -6 613.552  30.590   8
   3   1   6 668.880  36.314   1
   3   1   6 696.693  30.338   8
   3   1   6 692.079  34.883   6
  -4  -1  -6 59.3749  5.5698   8
  -4  -1  -6 58.1613  5.0723   4
  -4  -1  -6 66.5221  4.5105   1
  -4  -1  -6 69.4286  5.4611   3
  -4  -1  -6 55.5864  4.1244   5
   4   1   6 46.2382  4.7878   8
   4   1   6 51.8253  3.9741   1
   4   1   6 52.1145  4.4841   6
  -5  -1  -6 1454.69   71.50   7
  -5  -1  -6 1339.03   72.77   4
  -5  -1  -6 1436.11   67.20   1
  -5  -1  -6 1395.52   69.79   8
  -5  -1  -6 1421.36   70.66   3
  -5  -1  -6 1335.54   73.33   5
   5   1   6 1389.00   75.10   1
   5   1   6 1384.80   69.69   6
  -6  -1  -6 290.989  15.475   5
  -6  -1  -6 284.805  14.580   8
  -6  -1  -6 297.967  16.673   1
  -6  -1  -6 274.039  16.859   7
  -6  -1  -6 307.970  16.692   3
  -6  -1  -6 284.137  13.646   5
   6   1   6 273.567  14.371   1
   6   1   6 264.897  14.286   6
  -7  -1  -6 68.7591  4.9266   5
  -7  -1  -6 60.2760  3.7461   1
  -7  -1  -6 68.3567  6.8201   8
  -7  -1  -6 59.1974  3.9630   1
  -7  -1  -6 70.6749  4.0304   5
  -7  -1  -6 75.4715  7.1047   3
  -7  -1  -6 66.8661  5.5198   7
  -8  -1  -6 222.136  12.721   7
  -8  -1  -6 248.705  15.458   8
  -8  -1  -6 225.676  14.253   2
  -8  -1  -6 228.501  14.909   3
  -9  -1  -6 61.0959  6.5817   2
  -9  -1  -6 46.0869  7.0221   3
  -9  -1  -6 37.9293  5.9860   8
  -9  -1  -6 55.1013  6.6183   7
 -10  -1  -6 23.7669  5.8772   7
 -10  -1  -6 34.3712  6.2430   2
 -10  -1  -6 22.1280  7.1027   8
   8  -2  -6 31.0596  6.3075   1
  -8   2   6 26.0426  6.7618   5
   7  -2  -6 87.3285  8.1471   1
  -7   2   6 90.4892  9.5341   7
  -7   2   6 79.9694  8.1550   5
   6  -2  -6 97.9825  8.9704   1
  -6   2   6 74.3740  7.5916   5
  -6   2   6 89.4465  8.7953   7
   5  -2  -6 67.6197  6.7212   1
  -5   2   6 60.6621  6.4665   5
  -5   2   6 56.9745  6.9170   7
   4  -2  -6 457.919  28.073   1
  -4   2   6 448.990  26.246   7
  -4   2   6 484.931  23.894   5
   3  -2  -6 168.212   9.988   1
  -3   2   6 160.714   9.904   5
  -3   2   6 158.465   9.484   7
   2  -2  -6 994.753  56.369   1
   2  -2  -6 1063.59   57.75   5
   2  -2  -6 1103.27   51.00   8
  -2   2   6 1135.47   55.07   7
  -2   2   6 1006.66   59.47   8
  -2   2   6 1064.39   58.29   5
   1  -2  -6 1373.26   89.85   1
   1  -2  -6 1469.61   77.07   8
   1  -2  -6 1381.04   68.96   5
   1  -2  -6 1456.12   79.76   1
  -1   2   6 1493.43   82.73   5
  -1   2   6 1532.56   70.28   7
  -1   2   6 1461.58   88.13   8
   0  -2  -6 297.096  14.686   8
   0  -2  -6 299.497  19.619   1
   0  -2  -6 305.693  14.801   4
   0  -2  -6 313.208  18.496   1
   0  -2  -6 277.970  15.279   5
   0   2   6 287.702  13.759   7
   0   2   6 270.909  14.034   5
   0   2   6 312.396  15.941   8
  -1  -2  -6 1632.32   75.95   1
  -1  -2  -6 1694.76   88.57   8
  -1  -2  -6 1603.18   75.50   1
  -1  -2  -6 1689.09   86.72   5
  -1  -2  -6 1599.00   75.96   4
   1   2   6 1554.72   76.96   8
   1   2   6 1632.54   74.72   7
   1   2   6 1660.27   81.60   5
  -2  -2  -6 2405.05  107.62   8
  -2  -2  -6 2318.27  132.96   1
  -2  -2  -6 2462.61  132.80   4
  -2  -2  -6 2422.87  116.23   1
  -2  -2  -6 2402.86  104.54   3
  -2  -2  -6 2428.08  118.73   5
   2   2   6 2173.64  115.19   8
   2   2   6 2333.70  116.48   5
  -3  -2  -6 66.6873  4.4990   3
  -3  -2  -6 60.3614  5.3631   1
  -3  -2  -6 63.2937  4.6736   5
  -3  -2  -6 73.8844  4.8039   1
  -3  -2  -6 62.3340  5.1172   4
  -4  -2  -6 1580.93   74.04   8
  -4  -2  -6 1574.63   84.60   1
  -4  -2  -6 1641.28   71.63   7
  -4  -2  -6 1580.28   75.96   1
  -4  -2  -6 1515.60   80.27   4
  -4  -2  -6 1581.37   82.78   5
  -4  -2  -6 1560.30   89.43   3
   4   2   6 1545.08   80.25   8
   4   2   6 1633.78   83.23   6
  -5  -2  -6 918.168  40.977   1
  -5  -2  -6 893.567  44.075   3
  -5  -2  -6 877.326  47.838   1
  -5  -2  -6 864.355  40.266   4
  -5  -2  -6 927.872  50.960   8
  -5  -2  -6 888.672  42.861   7
  -5  -2  -6 901.385  49.852   5
   5   2   6 869.394  48.819   6
   5   2   6 856.122  46.054   8
  -6  -2  -6 101.840   7.138   3
  -6  -2  -6 88.1301  5.5047   5
  -6  -2  -6 95.1485  4.9840   1
  -6  -2  -6 88.0422  4.8738   1
  -6  -2  -6 82.1925  8.3475   8
  -6  -2  -6 77.6881  5.3120   7
   6   2   6 91.9843  5.3001   6
  -7  -2  -6 260.177  11.047   5
  -7  -2  -6 266.337  11.505   1
  -7  -2  -6 239.156  15.530   3
  -7  -2  -6 259.608  13.977   7
  -7  -2  -6 251.526  13.870   8
  -7  -2  -6 251.364  12.222   1
  -7  -2  -6 251.702  11.909   5
   7   2   6 280.156  14.432   6
  -8  -2  -6 149.958   9.338   7
  -8  -2  -6 155.355  10.191   3
  -8  -2  -6 174.485  10.880   8
  -9  -2  -6 7.17607 3.76135   7
  -9  -2  -6 11.6497  5.4162   3
  -9  -2  -6 4.30877 3.40226   2
  -9  -2  -6 12.1655  5.4835   8
 -10  -2  -6 42.6451  7.2534   8
 -10  -2  -6 43.7379  7.6463   3
 -10  -2  -6 41.1772  6.0754   7
 -10  -2  -6 60.8420  7.3214   2
 -11  -2  -6 39.8347  7.7810   8
 -11  -2  -6 32.2611  7.3488   2
 -11  -2  -6 20.4958  6.5903   7
   7  -3  -6 49.1471  7.0825   1
  -7   3   6 57.8469  7.6440   5
  -7   3   6 55.5966  8.8510   7
   6  -3  -6 37.1024  6.1360   1
  -6   3   6 34.4327  7.0569   7
  -6   3   6 29.4082  6.0419   5
   5  -3  -6 178.797  13.825   1
  -5   3   6 203.402  13.145   7
  -5   3   6 227.991  13.288   5
   4  -3  -6 160.863   9.624   1
  -4   3   6 135.649   9.697   5
  -4   3   6 131.498   9.609   7
   3  -3  -6 64.5086  6.0532   1
  -3   3   6 87.4113  7.2921   1
  -3   3   6 84.1715  7.6683   5
  -3   3   6 69.3599  6.2880   7
   2  -3  -6 1381.48   66.97   7
   2  -3  -6 1401.90   72.73   8
  -2   3   6 1521.67   70.72   7
  -2   3   6 1407.98   75.89   1
  -2   3   6 1447.12   77.14   5
   1  -3  -6 518.033  24.910   7
   1  -3  -6 532.848  27.168   1
   1  -3  -6 498.387  29.070   5
   1  -3  -6 504.758  25.068   8
  -1   3   6 556.357  28.913   7
  -1   3   6 547.205  26.986   5
  -1   3   6 510.041  30.304   8
  -1   3   6 542.985  26.353   1
   0  -3  -6 13.6222  4.3289   8
   0  -3  -6 7.28440 2.30742   7
   0  -3  -6 4.77625 3.04891   5
   0  -3  -6 4.78458 3.19632   1
   0   3   6 5.94564 3.49605   5
   0   3   6 1.76837 1.94522   7
   0   3   6 4.96408 1.41675   4
   0   3   6 4.35681 3.14725   8
   0   3   6 -0.5599  3.3696   1
  -1  -3  -6 1505.87   70.34   1
  -1  -3  -6 1539.09   79.97   1
  -1  -3  -6 1578.49   69.89   3
  -1  -3  -6 1614.30   78.16   8
  -1  -3  -6 1551.63   85.23   5
  -1  -3  -6 1560.02   69.64   7
   1   3   6 1514.20   75.43   8
   1   3   6 1590.05   79.15   1
   1   3   6 1523.24   74.86   7
   1   3   6 1497.81   77.99   5
   1   3   6 1537.15   90.76   4
  -2  -3  -6 487.139  29.785   1
  -2  -3  -6 461.537  22.828   3
  -2  -3  -6 458.549  22.391   1
  -2  -3  -6 430.335  22.951   8
  -2  -3  -6 455.131  22.690   4
  -2  -3  -6 485.303  24.046   7
  -2  -3  -6 474.193  22.359   5
   2   3   6 505.454  26.316   4
   2   3   6 496.757  23.083   5
   2   3   6 495.644  27.766   8
   2   3   6 530.949  23.574   7
  -3  -3  -6 645.048  32.938   3
  -3  -3  -6 620.809  31.109   1
  -3  -3  -6 689.713  35.185   8
  -3  -3  -6 641.285  34.135   5
  -3  -3  -6 654.261  27.319   7
  -3  -3  -6 655.193  33.236   4
  -3  -3  -6 638.448  32.538   1
   3   3   6 619.283  36.046   8
   3   3   6 617.603  31.635   4
   3   3   6 616.290  30.682   5
  -4  -3  -6 1281.27   65.40   1
  -4  -3  -6 1268.35   54.74   7
  -4  -3  -6 1291.92   63.86   5
  -4  -3  -6 1234.34   57.75   8
  -4  -3  -6 1330.31   59.99   1
  -4  -3  -6 1284.80   62.95   3
  -4  -3  -6 1247.50   56.22   7
  -4  -3  -6 1259.35   76.71   4
   4   3   6 1317.79   72.35   8
   4   3   6 1336.41   73.64   5
  -5  -3  -6 733.185  34.558   4
  -5  -3  -6 748.411  36.353   3
  -5  -3  -6 756.453  35.880   1
  -5  -3  -6 773.372  36.008   1
  -5  -3  -6 714.267  35.686   7
  -5  -3  -6 712.561  36.521   8
  -5  -3  -6 736.446  40.505   5
   5   3   6 719.069  35.224   8
   5   3   6 726.687  35.698   6
  -6  -3  -6 200.425  10.063   7
  -6  -3  -6 193.897  11.676   5
  -6  -3  -6 194.832  11.043   3
  -6  -3  -6 206.722   9.590   1
  -6  -3  -6 189.234  10.724   8
  -6  -3  -6 188.345  12.274   1
   6   3   6 202.138  11.641   6
  -7  -3  -6 136.498   6.366   1
  -7  -3  -6 135.327   6.300   5
  -7  -3  -6 145.989   9.290   8
  -7  -3  -6 152.702   9.663   3
  -7  -3  -6 142.942   6.250   5
  -7  -3  -6 141.933   6.047   1
  -7  -3  -6 155.187   9.129   7
   7   3   6 136.058   7.293   6
  -8  -3  -6 45.2677  4.6593   7
  -8  -3  -6 42.6381  5.9063   8
  -8  -3  -6 57.5803  6.9649   3
  -9  -3  -6 17.0479  5.2232   8
  -9  -3  -6 29.0259  4.5865   7
  -9  -3  -6 27.9094  6.4028   3
  -9  -3  -6 18.6467  5.5130   2
 -10  -3  -6 38.0560  7.1511   3
 -10  -3  -6 50.9554  7.2733   8
 -10  -3  -6 47.7828  6.0163   7
 -10  -3  -6 56.0873  7.1291   2
 -11  -3  -6 0.85950 5.73985   2
 -11  -3  -6 11.5108  6.4474   8
 -11  -3  -6 8.19346 6.29244   3
 -11  -3  -6 11.3708  6.6988   7
   7  -4  -6 12.8569  5.9001   1
  -7   4   6 5.24652 5.92773   5
  -7   4   6 0.74741 6.98379   7
   6  -4  -6 62.8608  7.9287   1
  -6   4   6 69.9151  8.3112   5
  -6   4   6 78.6037  8.8208   7
   5  -4  -6 234.477  15.498   1
  -5   4   6 228.977  14.212   1
  -5   4   6 264.807  16.814   5
  -5   4   6 204.375  16.130   7
  -4   4   6 72.2886  7.5176   7
  -4   4   6 78.9073  7.8523   5
  -4   4   6 87.1853  7.9667   1
  -3   4   6 160.402  10.768   1
  -3   4   6 141.262   6.284   4
  -3   4   6 153.064   6.367   4
  -3   4   6 136.811  10.313   5
  -3   4   6 152.885  10.779   7
   2  -4  -6 659.290  35.265   7
  -2   4   6 739.457  38.746   1
  -2   4   6 732.773  35.216   7
  -2   4   6 720.219  32.771   5
  -2   4   6 748.223  32.316   4
   1  -4  -6 96.0680  7.3119   8
   1  -4  -6 102.012   6.492   7
   1  -4  -6 106.210   5.874   3
  -1   4   6 106.765   7.181   7
  -1   4   6 103.648   5.172   4
  -1   4   6 113.821   7.992   1
  -1   4   6 90.6030  7.7432   5
   0  -4  -6 951.086  46.199   7
   0  -4  -6 905.230  50.266   5
   0  -4  -6 952.275  52.054   8
   0   4   6 949.883  44.291   4
   0   4   6 933.017  60.210   8
   0   4   6 1022.38   45.85   7
   0   4   6 959.191  47.028   5
   0   4   6 929.812  47.748   1
  -1  -4  -6 1082.21   51.79   7
  -1  -4  -6 1072.08   47.61   5
  -1  -4  -6 1070.36   68.59   1
  -1  -4  -6 1150.32   51.01   8
   1   4   6 934.057  52.356   1
   1   4   6 998.464  47.985   7
   1   4   6 946.286  56.052   8
   1   4   6 1001.60   48.54   5
   1   4   6 973.537  52.834   4
  -2  -4  -6 48.3862  5.4271   8
  -2  -4  -6 42.5033  3.3795   7
   2   4   6 57.9369  3.5175   7
   2   4   6 54.4906  5.0627   1
   2   4   6 56.1868  5.4222   5
   2   4   6 51.1852  4.2455   4
   2   4   6 59.8333  5.4579   8
  -3  -4  -6 579.434  29.476   8
  -3  -4  -6 558.293  29.842   1
  -3  -4  -6 594.890  28.965   7
  -3  -4  -6 574.258  37.008   4
  -3  -4  -6 598.468  35.893   5
   3   4   6 528.406  27.164   4
   3   4   6 508.143  36.911   8
   3   4   6 559.468  29.457   1
   3   4   6 518.841  30.304   5
  -4  -4  -6 1893.06   91.41   8
  -4  -4  -6 1832.09   98.89   4
  -4  -4  -6 1910.12   83.86   7
  -4  -4  -6 1825.83   93.95   1
  -4  -4  -6 1742.17   98.18   1
  -4  -4  -6 1853.22   93.03   5
   4   4   6 1924.80   96.77   5
   4   4   6 1857.96   85.83   8
   4   4   6 1867.04  100.75   4
  -5  -4  -6 23.2556  3.1793   1
  -5  -4  -6 17.4190  3.8131   4
  -5  -4  -6 23.7760  3.0225   5
  -5  -4  -6 22.8797  2.2359   7
  -5  -4  -6 17.0856  3.8436   8
   5   4   6 24.5159  3.7643   8
   5   4   6 13.9291  4.0335   4
   5   4   6 17.8972  2.7772   5
  -6  -4  -6 405.518  18.919   1
  -6  -4  -6 431.171  21.788   8
  -6  -4  -6 422.177  20.125   3
  -6  -4  -6 404.301  20.153   5
  -6  -4  -6 418.836  19.483   1
  -6  -4  -6 411.504  21.357   7
   6   4   6 381.138  23.521   8
   6   4   6 422.340  20.510   6
   6   4   6 443.064  25.215   4
  -7  -4  -6 442.243  21.872   8
  -7  -4  -6 400.228  17.846   5
  -7  -4  -6 413.776  22.808   7
  -7  -4  -6 430.271  18.472   1
  -7  -4  -6 420.586  21.917   3
  -7  -4  -6 412.162  18.051   1
   7   4   6 382.578  21.005   6
  -8  -4  -6 1.65181 3.86203   8
  -8  -4  -6 1.58488 4.83510   3
  -8  -4  -6 -0.6662  3.2781   7
  -9  -4  -6 99.6968  7.4219   7
  -9  -4  -6 103.249   8.347   8
  -9  -4  -6 108.366   9.541   3
 -10  -4  -6 46.5598  8.0248   8
 -10  -4  -6 55.3096  7.1132   2
 -10  -4  -6 37.7443  7.4022   3
 -10  -4  -6 41.3991  5.8234   7
 -11  -4  -6 6.94534 5.92628   2
 -11  -4  -6 -0.6704  5.4243   8
 -11  -4  -6 7.04248 5.92813   3
 -11  -4  -6 0.21897 4.76602   7
   6  -5  -6 48.0532  7.5724   1
  -6   5   6 46.6749  7.6626   1
  -6   5   6 50.0289  7.5570   5
  -5   5   6 32.9256  6.7816   1
  -5   5   6 26.5655  6.6076   5
  -4   5   6 2.55739 4.95752   1
  -4   5   6 2.92203 5.23648   5
  -4   5   6 6.24441 4.99622   7
   3  -5  -6 222.948  12.321   3
  -3   5   6 235.637  13.271   7
  -3   5   6 232.840  13.901   5
  -3   5   6 233.862  13.960   1
   2  -5  -6 198.177  10.022   3
  -2   5   6 195.352  13.963   7
  -2   5   6 182.649  13.082   5
  -2   5   6 172.442  11.721   1
   1  -5  -6 63.7468  4.0829   3
   1  -5  -6 66.3554  5.5585   7
  -1   5   6 57.0833  5.8124   5
  -1   5   6 63.9668  4.1432   4
  -1   5   6 63.5047  6.2985   7
  -1   5   6 48.8661  6.4368   1
   0  -5  -6 810.870  43.624   8
   0  -5  -6 819.291  41.824   7
   0   5   6 841.819  40.561   1
   0   5   6 791.853  36.416   4
   0   5   6 771.624  40.232   7
   0   5   6 851.694  40.416   5
  -1  -5  -6 1072.57   53.22   7
  -1  -5  -6 1041.26   57.41   8
   1   5   6 1156.67   56.17   5
   1   5   6 1040.10   61.27   8
   1   5   6 1086.05   61.57   7
   1   5   6 1053.69   54.51   4
   1   5   6 1038.14   56.06   1
  -2  -5  -6 36.2063  4.4704   5
  -2  -5  -6 36.8501  3.4361   7
  -2  -5  -6 34.2309  5.0055   8
  -2  -5  -6 36.9801  4.6255   1
   2   5   6 29.0549  3.3816   7
   2   5   6 35.8223  4.3187   8
   2   5   6 26.7564  3.5864   4
   2   5   6 36.0818  4.6052   1
   2   5   6 35.1549  4.7307   5
  -3  -5  -6 981.656  48.138   8
  -3  -5  -6 1019.70   49.65   7
  -3  -5  -6 998.661  55.503   1
  -3  -5  -6 1042.87   54.31   5
   3   5   6 1022.15   58.03   8
   3   5   6 1079.90   58.83   5
   3   5   6 1087.44   51.56   4
   3   5   6 1094.09   57.65   1
  -4  -5  -6 444.871  23.787   5
  -4  -5  -6 473.638  22.502   8
  -4  -5  -6 481.760  21.282   4
  -4  -5  -6 481.948  24.565   1
  -4  -5  -6 464.423  26.160   7
   4   5   6 448.095  24.090   5
   4   5   6 450.575  22.792   4
   4   5   6 436.063  25.603   8
   4   5   6 483.127  32.153   1
  -5  -5  -6 19.4142  3.2831   5
  -5  -5  -6 14.7736  3.9097   8
  -5  -5  -6 22.8098  3.4869   1
   5   5   6 22.4770  4.5359   4
   5   5   6 24.5968  3.1115   1
   5   5   6 30.7446  4.2390   8
   5   5   6 25.3216  3.0491   5
  -6  -5  -6 520.564  23.051   5
  -6  -5  -6 510.630  26.606   7
  -6  -5  -6 507.844  25.082   1
  -6  -5  -6 500.804  27.252   1
  -6  -5  -6 502.631  27.535   8
   6   5   6 503.364  29.290   5
   6   5   6 486.246  24.699   4
   6   5   6 479.832  25.195   8
  -7  -5  -6 410.366  19.139   5
  -7  -5  -6 415.674  19.969   1
  -7  -5  -6 427.408  25.655   8
  -7  -5  -6 406.712  19.630   1
   7   5   6 469.676  24.550   4
   7   5   6 424.801  21.697   6
  -8  -5  -6 28.3717  5.7902   3
  -8  -5  -6 25.7122  4.5437   8
   8   5   6 23.4263  1.5750   6
   8   5   6 20.7812  6.0849   4
  -9  -5  -6 68.3706  6.6992   8
  -9  -5  -6 79.6536  8.5540   3
  -9  -5  -6 64.8319  6.0940   7
 -10  -5  -6 9.02423 5.25647   2
 -10  -5  -6 -2.9831  5.7476   3
 -10  -5  -6 7.01609 4.92265   7
 -10  -5  -6 3.97889 4.90664   8
 -11  -5  -6 1.02616 4.19414   3
 -11  -5  -6 2.96286 4.19509   2
 -11  -5  -6 12.6427  4.9690   8
 -11  -5  -6 6.28226 4.92280   7
  -5   6   6 27.7647  7.4521   7
  -5   6   6 15.3856  6.3327   5
  -5   6   6 25.3676  6.8267   1
  -4   6   6 33.2603  7.1297   7
  -4   6   6 32.8833  7.1397   5
  -4   6   6 35.2355  6.9799   1
  -3   6   6 140.470  10.793   5
  -3   6   6 129.317  10.434   1
  -3   6   6 133.007  10.229   7
   2  -6  -6 93.5792  5.7073   3
  -2   6   6 77.2507  8.0177   1
  -2   6   6 86.1907  8.4099   7
  -2   6   6 70.9800  8.2893   5
  -1   6   6 232.125  17.174   7
  -1   6   6 232.899  14.723   5
  -1   6   6 242.792  11.643   4
  -1   6   6 259.165  14.854   1
   0  -6  -6 1012.10   53.17   7
   0   6   6 1072.37   52.42   1
   0   6   6 1056.73   57.74   4
   0   6   6 1045.41   56.01   5
   0   6   6 1077.81   48.71   7
  -1  -6  -6 23.6340  4.2311   7
  -1  -6  -6 20.9847  3.9894   8
   1   6   6 26.4160  3.8712   4
   1   6   6 25.9126  5.0035   1
   1   6   6 26.4890  5.2175   5
   1   6   6 28.4140  4.0361   7
  -2  -6  -6 410.208  19.909   7
  -2  -6  -6 412.555  18.959   8
   2   6   6 408.762  21.907   5
   2   6   6 401.114  20.069   4
   2   6   6 358.835  20.263   8
   2   6   6 400.744  28.191   1
   2   6   6 391.908  20.645   7
  -3  -6  -6 343.360  18.765   7
  -3  -6  -6 333.983  21.124   8
  -3  -6  -6 328.286  18.436   5
   3   6   6 337.835  18.367   8
   3   6   6 360.941  19.933   1
   3   6   6 372.436  17.893   5
   3   6   6 359.582  18.067   4
  -4  -6  -6 7.35318 2.71196   7
  -4  -6  -6 1.72996 3.59169   5
  -4  -6  -6 5.57368 4.47561   8
  -4  -6  -6 11.9225  4.0248   1
   4   6   6 2.76865 2.91508   8
   4   6   6 14.1278  3.6080   5
  -5  -6  -6 206.340  10.440   8
  -5  -6  -6 192.280  14.335   1
  -5  -6  -6 185.697  14.307   5
  -5  -6  -6 181.650   9.042   7
   5   6   6 164.995  10.180   4
   5   6   6 172.109  12.020   8
   5   6   6 168.699   9.831   1
   5   6   6 196.329  10.342   5
  -6  -6  -6 230.233  13.273   5
  -6  -6  -6 231.867  11.454   7
  -6  -6  -6 223.578  13.604   1
  -6  -6  -6 235.658  11.981   8
   6   6   6 211.760  11.132   5
   6   6   6 201.549  14.045   4
   6   6   6 211.635  13.070   1
   6   6   6 202.133  12.903   8
  -7  -6  -6 4.96991 2.28558   5
  -7  -6  -6 7.39090 3.14122   7
  -7  -6  -6 7.53651 2.23036   1
  -7  -6  -6 0.97947 3.22634   8
  -7  -6  -6 5.62699 2.25375   1
   7   6   6 7.21433 2.02445   5
   7   6   6 11.1544  4.9918   4
  -8  -6  -6 123.450   8.881   8
   8   6   6 127.823   6.770   6
   8   6   6 128.754  10.145   4
  -9  -6  -6 29.7539  5.5441   7
   9   6   6 27.1200  6.5140   4
 -10  -6  -6 5.34310 3.91732   8
 -10  -6  -6 4.60364 3.93055   7
 -10  -6  -6 1.86093 5.58451   2
 -10  -6  -6 -0.5106  5.7442   3
 -11  -6  -6 22.4399  5.2718   2
  -5   7   6 0.71799 5.92281   1
  -4   7   6 32.5932  7.5160   1
  -4   7   6 26.4270  7.4059   5
  -4   7   6 36.4405  7.6568   7
  -3   7   6 28.4382  6.6349   7
  -3   7   6 25.1884  6.3962   1
  -2   7   6 39.4146  5.4372   7
  -2   7   6 48.0559  7.2156   5
  -1   7   6 604.250  35.262   5
  -1   7   6 621.440  35.693   1
  -1   7   6 628.148  34.552   7
   0   7   6 303.141  16.406   7
   0   7   6 316.772  21.166   5
   0   7   6 293.376  14.898   4
   0   7   6 291.077  18.103   1
  -1  -7  -6 103.588   9.332   7
  -1  -7  -6 122.221   8.795   8
   1   7   6 123.189   7.798   4
   1   7   6 111.453   9.052   5
   1   7   6 102.212  11.311   7
  -2  -7  -6 323.142  19.909   7
  -2  -7  -6 320.846  19.399   8
   2   7   6 316.929  18.856   4
   2   7   6 317.347  16.759   1
   2   7   6 313.434  18.698   7
   2   7   6 340.817  21.261   5
  -3  -7  -6 340.588  17.278   7
  -3  -7  -6 346.944  18.227   8
   3   7   6 319.533  18.255   4
   3   7   6 320.294  17.762   5
   3   7   6 289.648  16.702   1
  -4  -7  -6 262.520  13.428   8
  -4  -7  -6 255.095  16.692   7
   4   7   6 308.363  15.023   4
   4   7   6 255.141  13.484   5
   4   7   6 239.992  15.599   8
   4   7   6 252.635  17.755   1
  -5  -7  -6 803.253  44.767   8
  -5  -7  -6 810.837  41.269   7
  -5  -7  -6 790.611  44.424   5
  -5  -7  -6 760.400  49.497   1
   5   7   6 805.537  46.734   1
   5   7   6 796.275  44.449   4
   5   7   6 847.768  48.860   5
   5   7   6 804.283  40.565   8
  -6  -7  -6 311.507  18.215   5
  -6  -7  -6 282.807  17.007   7
  -6  -7  -6 274.997  28.020   1
  -6  -7  -6 274.695  19.412   8
   6   7   6 286.323  14.926   8
   6   7   6 299.140  17.562   1
   6   7   6 289.780  23.395   4
   6   7   6 309.652  15.456   5
  -7  -7  -6 102.599   7.265   8
   7   7   6 95.8757  6.6561   1
   7   7   6 105.407   9.053   4
   7   7   6 109.849   6.920   5
   8   7   6 24.3605  6.2200   4
   8   7   6 32.3875  2.8194   5
  -9  -7  -6 18.4872  4.7823   8
   9   7   6 14.5481  5.8819   4
 -10  -7  -6 18.7052  6.4649   2
 -10  -7  -6 9.79303 4.51093   7
 -10  -7  -6 7.90933 6.47174   3
  10   7   6 10.7241  6.3220   4
  -4   8   6 10.3403  6.8969   1
  -4   8   6 17.9091  7.7027   5
  -3   8   6 14.5000  6.9431   1
  -3   8   6 14.7770  7.5069   5
  -3   8   6 21.5110  6.5731   7
  -2   8   6 66.2096  8.4183   1
  -2   8   6 46.0436  7.9510   5
  -2   8   6 50.8400  7.7523   7
  -1   8   6 139.166  11.160   5
  -1   8   6 141.981  11.095   7
  -1   8   6 146.340  12.261   1
   0   8   6 7.80227 3.31460   4
   0   8   6 6.44691 5.46948   7
   0   8   6 10.8813  5.5986   1
   0   8   6 10.5916  5.8414   5
   1   8   6 84.5931  8.1653   1
   1   8   6 77.4191  6.7657   7
   1   8   6 60.8283  6.2789   4
   1   8   6 53.3186  7.3761   5
   2   8   6 264.154  15.288   7
   2   8   6 290.401  16.583   5
   2   8   6 299.985  16.884   4
   2   8   6 293.902  16.001   1
  -3  -8  -6 279.308  17.797   8
   3   8   6 284.415  16.638   5
   3   8   6 269.937  19.519   1
   3   8   6 301.598  17.863   7
   3   8   6 249.259  16.319   4
  -4  -8  -6 16.1784  4.3596   7
  -4  -8  -6 18.0777  4.9776   8
   4   8   6 13.8184  4.6949   5
   4   8   6 9.77470 4.53028   1
   4   8   6 12.9982  5.2847   4
  -5  -8  -6 280.589  27.635   7
  -5  -8  -6 294.271  16.318   8
   5   8   6 336.818  17.524   4
   5   8   6 350.256  19.293   1
   5   8   6 302.751  18.676   5
   5   8   6 314.296  16.436   8
  -6  -8  -6 11.2526  3.7265   8
  -6  -8  -6 8.87978 3.98824   5
   6   8   6 8.01045 2.97270   8
   6   8   6 9.61382 5.10510   4
   6   8   6 3.54022 3.28449   1
   6   8   6 7.99283 3.78207   5
  -7  -8  -6 85.9742  6.8610   8
   7   8   6 93.1889  6.4031   1
   7   8   6 91.5217  6.4054   5
   7   8   6 80.4831  6.7076   8
   7   8   6 103.815   9.469   4
  -8  -8  -6 39.9650  5.2245   8
   8   8   6 30.8760  3.7768   1
   8   8   6 48.8193  7.5238   4
   9   8   6 -0.2074  5.5999   4
 -10  -8  -6 10.6643  6.0403   2
  10   8   6 6.91949 6.39829   4
  -3   9   6 14.1040  6.8600   1
  -2   9   6 52.8424  7.5229   5
  -2   9   6 56.6310  7.5614   1
  -2   9   6 56.7781  8.5322   7
  -1   9   6 20.3507  7.0526   5
  -1   9   6 26.2307  7.2503   1
  -1   9   6 20.5498  6.1362   7
   0   9   6 5.40287 6.09559   1
   0   9   6 20.5550  6.8822   7
   0   9   6 10.3772  6.1124   5
   1   9   6 73.8006  8.5028   5
   1   9   6 83.2136  8.9278   1
   1   9   6 83.4777  8.2579   7
   1   9   6 84.1262  7.2623   4
   2   9   6 66.4445  7.5198   1
   2   9   6 69.9619  7.4765   7
   2   9   6 67.2955  7.7677   5
   2   9   6 57.6684  7.2749   4
   3   9   6 2.11012 4.23752   4
   3   9   6 12.9995  5.0635   1
   3   9   6 5.61026 5.96753   5
  -4  -9  -6 205.427  12.663   8
   4   9   6 189.778  12.891   1
   4   9   6 182.438  12.637   4
   4   9   6 192.849  12.485   5
  -5  -9  -6 81.8908  7.1376   8
   5   9   6 71.1044  7.7507   5
   5   9   6 74.6233  7.8139   4
   5   9   6 81.9689  7.8683   1
  -6  -9  -6 23.2212  4.9772   8
   6   9   6 26.0121  5.1556   4
   6   9   6 20.4731  4.3153   5
   6   9   6 23.1228  5.1710   1
  -7  -9  -6 93.5492  7.2307   8
   7   9   6 90.0986  9.3565   4
   7   9   6 89.7992  7.3583   5
   7   9   6 90.8215  8.3328   1
   8   9   6 38.4701  7.1787   4
   8   9   6 32.0906  3.9005   1
   9   9   6 6.82706 6.45005   4
  -1  10   6 1.51901 6.76360   1
  -1  10   6 4.97630 7.12830   5
  -1  10   6 13.0652  6.5818   7
   0  10   6 43.3427  7.9529   5
   0  10   6 31.7569  5.4313   4
   0  10   6 34.9795  7.7147   1
   0  10   6 35.8807  7.0174   7
   1  10   6 70.1694  9.0994   7
   1  10   6 77.4852  9.1959   1
   1  10   6 93.0022  9.4537   5
   1  10   6 81.7091 10.7898   4
   2  10   6 58.4183  6.8898   5
   2  10   6 52.4422  6.9926   4
   2  10   6 66.8113  7.4086   7
   3  10   6 24.9776  5.7027   4
   3  10   6 30.0955  6.3371   5
   3  10   6 22.4778  6.1495   1
   4  10   6 63.4743  7.4320   1
   4  10   6 62.1601  7.3446   4
   5  10   6 15.0145  5.5566   4
   5  10   6 15.4653  4.9541   1
   5  10   6 13.8881  4.9413   5
   6  10   6 26.4429  5.8471   1
   6  10   6 14.8250  5.7379   5
   7  10   6 63.9890  8.6356   4
   7  10   6 44.5537  5.8339   1
   7  10   6 56.6063  5.8251   5
   8  10   6 5.74563 6.40551   4
   1  11   6 22.4527  5.5688   4
   1  11   6 25.1098  6.8601   7
   1  11   6 18.1392  7.0871   1
   1  11   6 10.2598  6.9237   5
   2  11   6 10.4840  6.3137   5
   2  11   6 3.06452 6.46616   7
   2  11   6 6.10804 6.17160   4
   2  11   6 6.23813 5.84227   1
   3  11   6 31.6128  7.3345   1
   3  11   6 37.5291  7.4555   5
   3  11   6 36.4409  6.7083   4
   4  11   6 17.9566  6.1618   1
   4  11   6 11.6526  5.5327   5
   4  11   6 20.5270  6.4057   4
   5  11   6 12.7236  5.6688   5
   5  11   6 8.37751 6.17317   4
   5  11   6 3.93144 5.00176   1
   6  11   6 28.2141  7.4386   4
   6  11   6 28.2548  5.8639   1
   6  11   6 36.2158  6.6262   5
   7  11   6 0.06381 5.56522   1
   7  11   6 -0.2566  4.6274   4
   7  11   6 4.43177 4.84961   5
   4   9  -7 36.7253  7.9779   1
   4   9  -7 46.2509  7.9355   5
   3   9  -7 101.393   9.798   5
   3   9  -7 69.9204  9.3312   1
   2   9  -7 5.16818 6.11561   1
   2   9  -7 2.78686 6.11480   5
   1   9  -7 23.0384  6.9649   1
   1   9  -7 15.4298  5.1742   5
   0   9  -7 27.4258  7.5762   1
   0   9  -7 43.1112  8.1034   5
  -1   9  -7 4.65750 6.58483   5
  -1   9  -7 -7.4606  6.2848   1
   6   8  -7 27.5304  7.4450   4
   6   8  -7 16.2356  6.1957   1
   6   8  -7 18.6925  6.3699   5
   5   8  -7 6.17256 4.29302   1
   5   8  -7 -5.9472  6.6156   5
   4   8  -7 67.3048  8.1832   1
   4   8  -7 63.9648  7.9911   5
   3   8  -7 44.8188  7.5095   1
   3   8  -7 50.1870  7.4767   5
   2   8  -7 15.0448  6.0429   1
   2   8  -7 10.9175  6.1301   5
   1   8  -7 115.205  10.160   5
   1   8  -7 100.063   8.797   1
   0   8  -7 27.0872  4.2298   8
   0   8  -7 28.0229  6.5153   5
  -1   8  -7 46.6305  5.4294   8
  -1   8  -7 34.2951  7.3371   5
  -1   8  -7 38.1899  7.2965   1
  -2   8  -7 95.6371  8.2988   8
  -2   8  -7 68.7739  9.2975   1
  -2   8  -7 95.9102  9.9797   5
  -3   8  -7 34.4660  6.6090   8
  -3   8  -7 28.3487  7.3791   7
  -3   8  -7 21.7922  7.3841   5
  -3   8  -7 42.1253  7.8792   1
   7   7  -7 20.5139  5.6582   1
   6   7  -7 -0.1091  4.8385   4
   6   7  -7 5.70085 5.06362   1
  -6  -7   7 8.56880 5.81589   6
   5   7  -7 55.3920  7.3295   1
  -5  -7   7 70.4610  7.5858   6
   4   7  -7 90.2921  8.6999   1
  -4  -7   7 89.8276  9.1304   6
   3   7  -7 13.0545  5.6206   1
   3   7  -7 18.1357  5.8104   5
  -3  -7   7 23.0367  5.8041   6
   2   7  -7 83.5333  8.4768   1
   2   7  -7 71.7255  8.2708   5
   2   7  -7 92.4978  5.5062   8
   1   7  -7 190.188  11.270   8
   1   7  -7 225.552  14.865   5
   1   7  -7 175.592  12.686   1
   0   7  -7 18.9689  3.9264   8
   0   7  -7 9.62632 4.03873   1
   0   7  -7 15.6125  5.6699   5
  -1   7  -7 181.411  12.611   1
  -1   7  -7 168.132  12.553   5
  -1   7  -7 211.082  12.637   8
  -2   7  -7 127.311  10.887   5
  -2   7  -7 132.772   9.793   8
  -2   7  -7 157.362  11.362   1
  -3   7  -7 5.70045 6.12819   8
  -3   7  -7 17.4690  6.3073   5
  -3   7  -7 7.87456 5.93090   1
  -3   7  -7 1.85277 5.17978   7
  -4   7  -7 56.6653  7.7570   8
  -4   7  -7 44.9235  7.7615   7
  -4   7  -7 66.2393  8.0515   1
  -4   7  -7 51.3032  7.9656   5
  -5   7  -7 31.7562  7.4351   5
  -5   7  -7 43.9512  7.9006   7
  -5   7  -7 30.3628  7.1188   1
  -5   7  -7 35.3260  8.5613   8
   7   6  -7 30.2969  5.6024   4
   7   6  -7 22.1799  5.6095   1
   6   6  -7 -4.8563  4.5720   1
   6   6  -7 -3.9298  4.3269   4
  -6  -6   7 -6.7164  4.3434   6
   5   6  -7 102.059   8.938   1
   5   6  -7 105.756   9.156   4
  -5  -6   7 118.731   9.308   6
   4   6  -7 128.433  10.666   1
  -4  -6   7 150.394  10.477   6
   3   6  -7 46.4114  6.6554   1
   3   6  -7 52.2518  4.2761   8
   3   6  -7 62.8964  5.2315   2
  -3  -6   7 57.5719  6.2364   6
   2   6  -7 320.696  14.556   2
   2   6  -7 343.836  17.931   8
   2   6  -7 333.557  17.995   1
  -2  -6   7 340.134  19.693   6
   1   6  -7 289.941  18.949   1
   1   6  -7 262.679  12.208   2
   1   6  -7 263.147  13.401   8
  -1  -6   7 294.241  15.758   6
   0   6  -7 35.8329  5.1079   5
   0   6  -7 41.5414  6.2723   1
   0   6  -7 40.1923  4.2048   8
   0  -6   7 28.4692  4.9235   6
  -1   6  -7 293.142  15.174   8
  -1   6  -7 236.289  15.150   1
  -1   6  -7 257.619  16.778   5
  -2   6  -7 150.847  10.153   8
  -2   6  -7 157.962  11.029   5
  -2   6  -7 146.906  12.144   1
  -3   6  -7 58.3971  6.6819   8
  -3   6  -7 65.4232  7.5778   1
  -3   6  -7 66.8445  7.7101   5
  -3   6  -7 49.6497  6.7783   7
  -4   6  -7 116.428   9.982   8
  -4   6  -7 115.335  10.748   5
  -4   6  -7 122.574  10.105   1
  -4   6  -7 145.894  10.358   7
  -5   6  -7 49.1943  7.0957   7
  -5   6  -7 34.5341  7.1089   8
  -5   6  -7 29.4437  7.4252   1
  -5   6  -7 49.8281  7.3322   5
  -6   6  -7 12.5203  5.3121   8
  -6   6  -7 17.1754  6.0931   1
  -6   6  -7 10.9132  5.7371   5
   8   5  -7 42.3782  5.9934   1
   7   5  -7 14.8205  4.9599   1
   7   5  -7 16.2389  3.8106   4
  -7  -5   7 12.7439  5.3884   6
   6   5  -7 33.2343  5.0755   4
   6   5  -7 40.7073  6.5673   1
  -6  -5   7 34.9866  5.4543   6
   5   5  -7 87.2091  7.4076   4
   5   5  -7 92.9510  7.6055   1
  -5  -5   7 106.271   9.122   6
   4   5  -7 1.26847 4.21872   1
  -4  -5   7 2.23101 4.28814   6
   3   5  -7 332.050  17.544   1
   3   5  -7 331.846  16.828   8
   3   5  -7 311.493  17.169   2
  -3  -5   7 312.274  17.209   8
  -3  -5   7 324.051  17.089   6
   2   5  -7 589.612  32.254   1
   2   5  -7 583.444  29.096   2
   2   5  -7 579.313  27.455   8
  -2  -5   7 540.178  27.543   6
   1   5  -7 143.012  11.205   1
   1   5  -7 133.002   7.868   8
   1   5  -7 134.634   7.656   2
  -1  -5   7 145.716  10.067   6
   0   5  -7 191.110  13.267   8
   0   5  -7 206.416   9.226   2
   0   5  -7 207.822  12.396   1
   0  -5   7 180.783  11.939   6
  -1   5  -7 472.102  24.790   8
  -1   5  -7 534.635  26.627   1
  -1   5  -7 508.577  28.812   5
  -1   5  -7 483.961  21.712   2
   1  -5   7 562.731  25.632   6
  -2   5  -7 22.8206  4.2630   1
  -3   5  -7 281.400  15.437   5
  -3   5  -7 268.771  15.453   8
  -3   5  -7 285.476  16.078   1
  -3   5  -7 275.430  16.883   7
  -4   5  -7 319.879  17.804   1
  -4   5  -7 298.986  19.082   7
  -4   5  -7 348.938  18.005   5
  -4   5  -7 311.145  19.243   8
  -5   5  -7 5.47039 5.03913   5
  -5   5  -7 11.5555  5.1318   1
  -5   5  -7 16.8129  6.1673   7
  -6   5  -7 29.1816  5.6794   8
  -6   5  -7 40.9736  7.0994   7
  -6   5  -7 37.0436  6.1143   5
  -6   5  -7 31.6920  5.8363   1
  -7   5  -7 29.7127  7.1641   7
  -7   5  -7 38.3582  7.4799   1
  -7   5  -7 28.2162  6.0803   5
  -7   5  -7 46.0158  8.7746   8
   8   4  -7 19.3914  5.8425   1
  -8  -4   7 23.1299  7.4396   7
   7   4  -7 9.56191 4.70839   1
  -7  -4   7 14.5945  4.3252   6
   6   4  -7 175.350  14.471   1
   6   4  -7 179.809  10.480   4
  -6  -4   7 174.802  11.331   6
   5   4  -7 226.663  12.900   4
   5   4  -7 258.265  13.693   1
  -5  -4   7 223.757  15.243   6
   4   4  -7 86.0189  6.1434   8
   4   4  -7 77.1529  7.5513   1
  -4  -4   7 92.0047  7.6535   6
  -4  -4   7 95.5137  5.7594   8
   3   4  -7 331.708  17.183   1
   3   4  -7 300.558  16.415   8
  -3  -4   7 321.914  18.850   6
  -3  -4   7 357.984  17.300   8
   2   4  -7 445.056  23.807   2
   2   4  -7 460.078  22.214   1
   2   4  -7 461.260  25.866   8
  -2  -4   7 469.426  26.249   6
  -2  -4   7 435.530  21.527   8
   1   4  -7 82.3221  4.9297   2
   1   4  -7 77.9193  5.6446   8
   1   4  -7 85.5981  7.0629   1
  -1  -4   7 82.3369  7.2590   6
  -1  -4   7 64.2242  7.3661   7
  -1  -4   7 68.6171  5.1171   8
   0   4  -7 923.484  42.476   2
   0   4  -7 919.598  46.420   1
   0   4  -7 960.537  58.278   8
   0  -4   7 890.251  46.026   6
   0  -4   7 885.172  46.283   7
  -1   4  -7 208.673  11.977   1
  -1   4  -7 192.037  10.893   8
   1  -4   7 185.435  11.545   6
   1  -4   7 183.899  10.662   7
  -2   4  -7 124.359   8.546   1
  -2   4  -7 110.470   7.838   8
   2  -4   7 113.499   8.659   7
   2  -4   7 127.246   9.049   6
  -3   4  -7 890.045  37.158   5
  -3   4  -7 821.291  41.485   8
  -3   4  -7 837.475  44.499   1
  -3   4  -7 856.244  40.154   7
   3  -4   7 803.299  47.010   6
  -4   4  -7 125.999   9.643   8
  -4   4  -7 154.136   9.942   1
  -4   4  -7 135.573   9.612   5
  -4   4  -7 152.419   7.148   2
  -4   4  -7 139.860   9.030   7
  -5   4  -7 49.7715  3.6638   2
  -5   4  -7 50.0881  6.1510   1
  -5   4  -7 47.7219  6.0625   7
  -5   4  -7 65.5018  6.7269   5
  -5   4  -7 52.2502  7.0424   8
  -6   4  -7 96.1686  9.6488   8
  -6   4  -7 112.679   8.507   5
  -6   4  -7 96.5058  6.5699   2
  -6   4  -7 108.884   8.709   7
  -6   4  -7 101.088   9.285   1
  -7   4  -7 9.25339 5.24586   5
  -7   4  -7 17.6509  4.5693   1
  -7   4  -7 6.19304 6.24151   8
  -7   4  -7 11.6246  5.4853   7
  -8   4  -7 13.6091  7.2493   7
   8   3  -7 7.33533 4.36664   1
  -8  -3   7 10.1923  6.6623   7
   7   3  -7 29.2361  5.1455   1
  -7  -3   7 18.3480  5.2527   6
  -7  -3   7 33.3508  5.6013   7
   6   3  -7 130.699   7.508   4
   6   3  -7 114.051   9.077   1
  -6  -3   7 113.056   8.580   6
   5   3  -7 46.7671  4.1479   4
   5   3  -7 34.2862  5.4185   1
  -5  -3   7 37.1961  4.6116   8
   4   3  -7 214.734  12.469   1
   4   3  -7 230.765  12.456   8
   4   3  -7 230.940  11.858   4
  -4  -3   7 230.470  13.417   6
  -4  -3   7 248.719  12.041   8
   3   3  -7 163.235  10.335   8
   3   3  -7 159.370   9.724   1
  -3  -3   7 171.531  10.316   8
  -3  -3   7 146.259   9.796   6
   2   3  -7 50.3580  4.8557   8
   2   3  -7 55.2528  4.5799   2
  -2  -3   7 49.8825  4.1689   8
  -2  -3   7 56.3100  5.8637   6
   1   3  -7 310.625  16.524   8
   1   3  -7 304.295  15.659   1
  -1  -3   7 276.351  14.760   8
  -1  -3   7 270.758  16.581   7
  -1  -3   7 280.699  15.500   6
   0   3  -7 1401.29   74.63   8
   0   3  -7 1549.02   71.21   1
   0  -3   7 1408.76   65.94   6
   0  -3   7 1370.84   69.65   8
   0  -3   7 1307.11   64.70   7
  -1   3  -7 8.90807 3.19093   8
  -1   3  -7 10.3139  4.0568   1
   1  -3   7 17.0851  4.3682   6
   1  -3   7 15.5874  3.6320   8
   1  -3   7 15.7316  3.5492   7
  -2   3  -7 410.257  20.756   1
  -2   3  -7 447.949  22.250   8
   2  -3   7 449.764  24.472   6
   2  -3   7 455.529  22.357   7
  -3   3  -7 569.934  26.666   1
  -3   3  -7 507.736  26.680   8
  -3   3  -7 566.104  31.011   7
   3  -3   7 562.143  25.317   7
   3  -3   7 570.992  28.946   6
  -4   3  -7 46.7907  6.0776   8
  -4   3  -7 44.9627  5.3694   1
  -4   3  -7 46.7929  5.2975   7
   4  -3   7 45.7665  5.4213   7
   4  -3   7 56.7769  5.9118   6
  -5   3  -7 219.448  13.503   8
  -5   3  -7 246.825  14.994   7
  -5   3  -7 233.008  12.682   1
  -5   3  -7 231.437  15.157   5
  -5   3  -7 247.343  11.549   2
  -6   3  -7 203.822  13.008   7
  -6   3  -7 216.384  13.485   5
  -6   3  -7 226.592  14.136   1
  -6   3  -7 207.971  13.045   2
  -6   3  -7 227.497  15.036   8
  -7   3  -7 8.37798 3.56319   1
  -7   3  -7 7.61678 4.33910   8
  -7   3  -7 6.79328 3.54794   5
  -7   3  -7 -0.5204  4.6479   7
  -7   3  -7 3.13764 2.99820   2
  -8   3  -7 58.0015  7.4305   7
  -8   3  -7 67.3599  8.6697   8
  -8   3  -7 44.7431  5.2639   2
   8   2  -7 8.17526 4.60623   1
  -8  -2   7 18.8492  7.2397   7
   7   2  -7 141.289  10.568   1
  -7  -2   7 151.542  11.796   7
  -7  -2   7 135.939  10.512   6
  -7  -2   7 127.417   8.684   3
   6   2  -7 243.018  12.523   4
   6   2  -7 226.560  14.794   1
  -6  -2   7 261.571  14.829   7
  -6  -2   7 262.322  14.480   6
   5   2  -7 71.8084  6.5075   1
   5   2  -7 51.9770  4.4456   4
  -5  -2   7 77.0483  6.6334   6
   4   2  -7 376.573  19.289   1
   4   2  -7 348.244  18.475   4
  -4  -2   7 370.156  18.786   6
  -4  -2   7 336.599  21.205   8
   3   2  -7 6.36577 2.90552   1
   3   2  -7 7.91933 3.91556   8
  -3  -2   7 8.09564 3.32485   8
  -3  -2   7 10.9780  3.8689   6
   2   2  -7 5.38040 3.82512   1
   2   2  -7 9.78859 3.85440   2
  -2  -2   7 11.9286  3.2924   8
  -2  -2   7 7.59876 3.94866   6
   1   2  -7 1501.89   77.89   1
   1   2  -7 1591.16   93.83   8
  -1  -2   7 1659.18   80.18   6
  -1  -2   7 1450.67   90.30   8
   0   2  -7 782.423  38.200   1
   0   2  -7 757.726  42.430   8
   0  -2   7 800.892  41.473   8
   0  -2   7 830.748  40.810   6
   0  -2   7 823.391  38.842   7
  -1   2  -7 133.252   8.913   1
  -1   2  -7 147.484   9.597   8
   1  -2   7 151.529   9.846   8
   1  -2   7 176.541   9.675   6
  -2   2  -7 1241.91   64.57   8
  -2   2  -7 1303.45   62.51   1
   2  -2   7 1217.45   62.80   8
   2  -2   7 1251.26   59.34   1
   2  -2   7 1254.36   58.50   6
   2  -2   7 1226.01   59.57   7
  -3   2  -7 405.748  20.771   7
  -3   2  -7 398.946  18.142   1
  -3   2  -7 404.119  22.595   8
   3  -2   7 375.658  18.462   6
   3  -2   7 347.922  21.174   1
   3  -2   7 339.413  19.456   3
   3  -2   7 353.199  18.064   7
  -4   2  -7 376.870  18.827   8
  -4   2  -7 412.111  21.644   1
  -4   2  -7 389.828  29.221   7
   4  -2   7 381.852  22.738   1
   4  -2   7 391.437  20.566   6
   4  -2   7 375.431  21.496   7
  -5   2  -7 435.996  22.198   5
  -5   2  -7 407.726  20.888   7
  -5   2  -7 389.410  20.789   1
  -5   2  -7 423.883  26.586   8
   5  -2   7 412.793  22.832   6
   5  -2   7 430.449  22.679   7
   5  -2   7 396.710  23.787   1
  -6   2  -7 81.7341  6.0577   2
  -6   2  -7 75.3577  7.1047   8
  -6   2  -7 81.2207  6.2749   1
  -6   2  -7 84.0282  6.7267   7
   6  -2   7 84.8887  6.3360   1
  -7   2  -7 67.7169  7.9937   8
  -7   2  -7 61.3052  6.9758   7
  -7   2  -7 58.6985  5.5273   2
  -7   2  -7 60.8690  5.8772   5
  -8   2  -7 66.4126  8.7946   8
  -8   2  -7 75.0015  9.9631   7
  -8   2  -7 83.1415  6.5504   2
  -9   2  -7 14.7202  4.2151   2
  -9   2  -7 13.1163  7.4644   8
  -9   2  -7 4.83872 6.80769   7
   8   1  -7 21.2934  5.3137   1
  -8  -1   7 22.5110  7.4269   7
   7   1  -7 159.891  11.856   1
  -7  -1   7 134.443  11.629   7
  -7  -1   7 142.263  11.136   6
   6   1  -7 126.369   9.039   1
  -6  -1   7 117.771   8.155   3
  -6  -1   7 137.212  10.112   7
  -6  -1   7 125.075  10.036   6
   5   1  -7 207.857  12.334   1
  -5  -1   7 245.652  13.456   7
  -5  -1   7 220.302  12.342   3
  -5  -1   7 206.530  14.906   6
   4   1  -7 87.5176  7.3809   1
   4   1  -7 98.8752  8.0537   4
  -4  -1   7 117.180   8.010   6
  -4  -1   7 98.5358  7.5478   7
   3   1  -7 169.417   7.735   4
   3   1  -7 185.160  10.237   1
   3   1  -7 153.206  10.017   8
  -3  -1   7 170.432   9.833   8
  -3  -1   7 164.974  10.192   6
   2   1  -7 731.105  36.775   1
   2   1  -7 789.090  42.412   8
  -2  -1   7 837.391  37.176   6
  -2  -1   7 771.317  40.157   8
   1   1  -7 2106.68  111.53   1
   1   1  -7 2111.21   95.68   8
   1   1  -7 2009.33   99.56   5
  -1  -1   7 2013.28  103.17   8
  -1  -1   7 2272.06  103.20   6
   0   1  -7 350.455  27.095   5
   0   1  -7 388.212  19.070   8
   0   1  -7 390.047  20.714   1
   0  -1   7 377.330  19.583   8
   0  -1   7 395.628  21.344   1
   0  -1   7 379.512  21.098   6
  -1   1  -7 710.307  37.020   8
  -1   1  -7 697.114  34.412   1
  -1   1  -7 696.841  40.518   5
   1  -1   7 866.842  41.094   6
   1  -1   7 846.993  36.326   7
   1  -1   7 806.911  45.701   1
   1  -1   7 806.660  37.216   8
  -2   1  -7 1187.42   57.29   6
  -2   1  -7 1184.13   55.23   1
  -2   1  -7 1201.38   61.21   8
   2  -1   7 1135.69   57.85   7
   2  -1   7 1185.72   70.45   6
   2  -1   7 1122.29   56.07   3
   2  -1   7 1097.18   54.70   1
   2  -1   7 1094.67   64.88   8
  -3   1  -7 47.3101  3.7138   7
  -3   1  -7 58.0916  5.2183   6
  -3   1  -7 50.5033  4.8339   1
  -3   1  -7 48.0637  5.2134   8
   3  -1   7 48.8077  4.9952   8
   3  -1   7 39.5175  4.3632   3
   3  -1   7 52.4613  5.2138   6
   3  -1   7 52.4074  4.5390   1
   3  -1   7 61.9538  3.8553   7
  -4   1  -7 644.061  41.058   6
  -4   1  -7 688.066  33.887   7
  -4   1  -7 712.815  33.137   1
  -4   1  -7 715.645  36.960   8
   4  -1   7 704.832  34.054   6
   4  -1   7 657.232  40.395   3
   4  -1   7 637.952  37.300   1
   4  -1   7 657.296  35.163   7
  -5   1  -7 1427.19   67.93   1
  -5   1  -7 1292.17   80.85   6
  -5   1  -7 1555.19   74.10   8
  -5   1  -7 1414.49   78.27   7
   5  -1   7 1406.17   71.49   1
   5  -1   7 1398.50   70.60   7
   5  -1   7 1417.87   71.52   6
  -6   1  -7 65.9681  6.0939   6
  -6   1  -7 53.6318  5.1685   1
  -6   1  -7 72.7311  6.8847   7
  -6   1  -7 69.1451  8.1189   8
  -6   1  -7 69.7576  5.6395   5
   6  -1   7 65.5704  5.2262   7
   6  -1   7 68.1084  5.2967   1
  -7   1  -7 87.2421  6.8762   7
  -7   1  -7 85.7511  6.5102   1
  -7   1  -7 86.6814  6.2496   5
  -7   1  -7 87.4117  7.3216   2
  -7   1  -7 87.9327  7.6877   8
   7  -1   7 90.6912  6.0564   1
  -8   1  -7 101.630   9.662   8
  -8   1  -7 95.8958  7.2860   2
  -9   1  -7 -3.1237  6.1009   8
  -9   1  -7 6.41932 5.13095   2
  -9   1  -7 5.74574 4.78087   7
   8   0  -7 24.2743  6.4421   1
  -8   0   7 19.4130  7.0919   7
   7   0  -7 68.1834  7.9745   1
  -7   0   7 71.5105  7.2105   6
  -7   0   7 71.7230  8.6018   7
   6   0  -7 71.9952  6.9683   1
  -6   0   7 69.3743  5.3519   3
  -6   0   7 72.3257  7.0945   6
  -6   0   7 63.2814  7.5712   7
   5   0  -7 317.537  16.974   1
  -5   0   7 247.762  15.205   6
  -5   0   7 266.671  13.202   3
  -5   0   7 268.246  14.999   7
   4   0  -7 385.252  22.234   1
  -4   0   7 435.383  24.244   7
  -4   0   7 447.702  21.661   6
  -4   0   7 415.855  20.620   3
   3   0  -7 163.005   9.868   1
   3   0  -7 161.051   9.986   8
  -3   0   7 144.407  10.372   7
  -3   0   7 178.421  10.142   6
  -3   0   7 162.403   8.564   3
   2   0  -7 1229.76   65.33   1
   2   0  -7 1306.91   56.12   8
   2   0  -7 1252.39   53.98   4
  -2   0   7 1333.67   59.84   6
  -2   0   7 1268.64   58.04   7
  -2   0   7 1210.34   71.75   8
   1   0  -7 1043.08   48.60   8
   1   0  -7 968.161  65.679   5
   1   0  -7 990.183  48.171   1
  -1   0   7 849.391  54.760   1
  -1   0   7 1052.75   46.63   6
  -1   0   7 946.512  44.590   8
   0   0  -7 400.429  19.980   1
   0   0  -7 430.914  19.018   8
   0   0  -7 376.550  22.273   5
   0   0   7 418.506  21.939   6
   0   0   7 401.545  19.692   8
   0   0   7 392.238  23.864   1
  -1   0  -7 3219.85  157.02   5
  -1   0  -7 3465.00  174.11   8
  -1   0  -7 3347.34  150.07   1
   1   0   7 3163.17  190.07   1
   1   0   7 3137.89  147.69   7
   1   0   7 3294.54  151.97   6
   1   0   7 3123.66  162.30   3
   1   0   7 3122.79  147.84   8
  -2   0  -7 177.654  11.676   5
   2   0   7 132.298   8.177   8
   2   0   7 138.422   8.251   3
   2   0   7 134.626   8.058   1
   2   0   7 136.148   8.369   6
   2   0   7 139.977   6.810   7
   3   0   7 15.6708  3.2381   3
   3   0   7 15.2798  1.6775   7
   3   0   7 11.2120  2.7477   1
   3   0   7 14.0616  3.5646   6
   3   0   7 12.6126  2.6579   8
  -4   0  -7 1032.00   52.66   7
  -4   0  -7 1054.55   55.10   1
  -4   0  -7 1079.30   58.28   8
  -4   0  -7 1022.62   55.42   5
   4   0   7 1100.10   49.16   7
   4   0   7 1045.93   51.58   1
   4   0   7 1136.80   55.95   6
   4   0   7 1066.67   52.00   3
  -5   0  -7 206.018  11.944   1
  -5   0  -7 211.147  11.065   7
  -5   0  -7 202.239  12.324   8
  -5   0  -7 194.653  11.732   5
   5   0   7 226.527  13.764   1
   5   0   7 244.121  12.175   6
   5   0   7 227.936  12.450   7
  -6   0  -7 59.6695  4.8642   5
  -6   0  -7 64.4319  6.7520   8
  -6   0  -7 61.8033  4.6845   1
  -6   0  -7 57.7633  4.9382   5
  -6   0  -7 60.4093  4.7317   7
   6   0   7 51.8201  4.9241   6
   6   0   7 53.9318  4.4124   1
  -7   0  -7 227.915  12.978   5
  -7   0  -7 214.067  12.576   7
  -7   0  -7 229.541  11.637   1
  -7   0  -7 218.043  14.198   8
  -7   0  -7 222.679  11.687   5
   7   0   7 244.788  12.455   1
  -8   0  -7 25.2856  6.2510   8
  -8   0  -7 28.7338  4.9268   2
  -8   0  -7 25.4255  5.4883   7
  -9   0  -7 1.81934 4.25620   8
  -9   0  -7 9.03980 4.68476   2
 -10   0  -7 54.8751  7.1047   2
 -10   0  -7 65.5496  9.4124   8
 -10   0  -7 51.0482  7.2493   7
   7  -1  -7 8.42198 4.90695   1
  -7   1   7 1.18092 5.75829   7
   6  -1  -7 129.331  10.733   1
  -6   1   7 128.826  10.195   7
  -6   1   7 122.609   9.586   5
   5  -1  -7 238.751  14.294   1
  -5   1   7 271.327  16.771   7
  -5   1   7 272.933  15.877   5
   4  -1  -7 166.666  10.828   1
  -4   1   7 129.356   9.665   5
  -4   1   7 168.876   9.916   7
   3  -1  -7 280.303  16.764   8
   3  -1  -7 306.349  17.194   1
  -3   1   7 316.768  19.773   5
  -3   1   7 368.794  18.024   7
   2  -1  -7 747.204  45.827   8
   2  -1  -7 746.316  38.738   1
  -2   1   7 773.903  41.963   7
  -2   1   7 683.320  38.393   8
  -2   1   7 781.550  41.668   5
   1  -1  -7 215.489  12.802   1
   1  -1  -7 168.847  11.609   5
   1  -1  -7 207.291   8.454   4
   1  -1  -7 208.233  11.439   8
  -1   1   7 210.082  11.116   5
  -1   1   7 214.718  11.070   7
  -1   1   7 193.222  10.811   8
   0  -1  -7 1655.42   87.77   1
   0  -1  -7 1661.26   80.32   5
   0  -1  -7 1781.83   76.65   4
   0  -1  -7 1747.93   80.43   8
   0  -1  -7 1774.72   89.00   1
   0   1   7 1769.42   96.34   5
   0   1   7 1588.86   99.49   8
   0   1   7 1757.52   83.27   7
  -1  -1  -7 1103.10   51.05   4
  -1  -1  -7 1036.91   51.31   8
  -1  -1  -7 1054.67   53.34   1
  -1  -1  -7 1042.32   48.11   5
  -1  -1  -7 1005.31   46.74   1
   1   1   7 914.836  46.694   8
   1   1   7 963.548  47.972   7
   1   1   7 946.483  55.401   6
  -2  -1  -7 5.21626 2.70023   5
  -2  -1  -7 1.67056 2.19336   4
  -2  -1  -7 7.43332 3.19820   1
  -2  -1  -7 1.72497 3.53597   8
   2   1   7 3.24406 2.91336   8
   2   1   7 1.20761 2.42538   1
   2   1   7 4.50726 3.06936   6
  -3  -1  -7 1047.99   52.24   1
  -3  -1  -7 986.862  50.143   5
  -3  -1  -7 1076.02   47.14   4
  -3  -1  -7 1017.40   51.56   8
   3   1   7 948.502  53.091   8
   3   1   7 996.784  53.564   1
   3   1   7 1011.29   48.57   6
  -4  -1  -7 1487.39   69.80   1
  -4  -1  -7 1439.16   63.69   7
  -4  -1  -7 1431.79   68.54   5
  -4  -1  -7 1423.58   80.84   4
  -4  -1  -7 1419.30   68.38   8
   4   1   7 1272.79   69.87   8
   4   1   7 1379.98   71.99   6
   4   1   7 1305.92   81.00   1
  -5  -1  -7 10.9652  2.9043   5
  -5  -1  -7 5.91364 1.79981   7
  -5  -1  -7 6.08763 4.08736   8
  -5  -1  -7 6.91123 2.76767   1
   5   1   7 9.36751 2.79910   6
  -6  -1  -7 450.102  23.039   3
  -6  -1  -7 458.238  21.526   5
  -6  -1  -7 479.412  22.532   1
  -6  -1  -7 436.078  24.491   7
  -6  -1  -7 447.175  24.139   8
   6   1   7 426.981  22.606   1
   6   1   7 454.677  24.188   6
  -7  -1  -7 247.977  13.997   3
  -7  -1  -7 219.333  12.924   7
  -7  -1  -7 202.989  13.327   1
  -7  -1  -7 214.544  11.579   5
  -7  -1  -7 216.210  10.673   5
  -7  -1  -7 208.887  14.716   8
  -7  -1  -7 225.704  13.739   1
   7   1   7 218.130  12.145   6
   7   1   7 222.223  11.983   1
  -8  -1  -7 2.89136 3.60392   7
  -8  -1  -7 9.78431 4.06604   8
  -9  -1  -7 81.9713  7.7425   7
  -9  -1  -7 95.0798  8.9844   2
  -9  -1  -7 75.8711  8.9350   8
 -10  -1  -7 30.7224  7.2344   8
 -10  -1  -7 21.9471  5.8301   2
 -10  -1  -7 18.5551  5.7295   7
   7  -2  -7 19.0679  5.5307   1
  -7   2   7 18.7774  5.3634   7
  -7   2   7 12.9204  6.3509   5
   6  -2  -7 62.6987  7.5745   1
  -6   2   7 68.9437  8.2244   7
  -6   2   7 66.2960  7.7091   5
   5  -2  -7 253.419  15.640   1
  -5   2   7 247.202  17.858   7
  -5   2   7 216.594  13.708   5
   4  -2  -7 119.205   8.738   1
  -4   2   7 144.646   9.426   7
  -4   2   7 125.109   9.292   5
   3  -2  -7 306.546  15.753   1
  -3   2   7 263.952  13.797   7
  -3   2   7 250.318  14.318   5
   2  -2  -7 100.706   7.863   8
   2  -2  -7 105.900   7.588   1
  -2   2   7 87.0825  6.6736   7
  -2   2   7 82.0722  7.2095   5
   1  -2  -7 125.486   8.474   1
   1  -2  -7 127.430   8.895   8
  -1   2   7 152.325   8.932   5
  -1   2   7 139.020  10.168   8
  -1   2   7 132.847   7.291   7
   0  -2  -7 1793.16  103.75   1
   0  -2  -7 1948.89  111.60   5
   0  -2  -7 2062.55  118.67   8
   0  -2  -7 1889.67   81.06   4
   0  -2  -7 1935.75   97.92   1
   0   2   7 1881.68  110.55   8
   0   2   7 1985.46   92.10   7
   0   2   7 2020.75   91.11   5
  -1  -2  -7 648.987  30.191   4
  -1  -2  -7 643.258  38.207   8
  -1  -2  -7 621.861  34.190   5
  -1  -2  -7 647.980  30.188   1
  -1  -2  -7 657.816  34.317   1
   1   2   7 686.402  33.989   7
   1   2   7 633.352  34.803   8
   1   2   7 734.012  34.648   5
  -2  -2  -7 2.85986 2.99016   1
  -2  -2  -7 2.24863 2.83153   5
  -2  -2  -7 5.44209 2.89294   1
  -2  -2  -7 6.19068 2.59468   4
  -2  -2  -7 3.15957 3.42724   8
   2   2   7 11.2070  3.1916   8
   2   2   7 8.23552 3.15914   5
  -3  -2  -7 1014.36   49.44   8
  -3  -2  -7 1076.30   50.78   1
  -3  -2  -7 993.849  49.952   1
  -3  -2  -7 1121.81   59.88   4
  -3  -2  -7 1056.32   55.29   5
  -3  -2  -7 1070.24   47.97   3
   3   2   7 1066.17   48.69   6
   3   2   7 1061.92   55.71   8
  -4  -2  -7 248.514  17.569   1
  -4  -2  -7 244.749  12.768   1
  -4  -2  -7 263.045  17.037   4
  -4  -2  -7 236.456  12.788   8
  -4  -2  -7 241.586  13.000   3
  -4  -2  -7 238.541  14.621   5
   4   2   7 263.519  14.594   8
   4   2   7 275.102  14.513   6
  -5  -2  -7 156.737  10.195   5
  -5  -2  -7 173.052  10.231   3
  -5  -2  -7 171.752   9.926   8
  -5  -2  -7 167.126   7.956   7
  -5  -2  -7 158.802  10.559   1
  -5  -2  -7 159.937   8.651   1
  -6  -2  -7 662.719  40.601   7
  -6  -2  -7 680.397  39.303   5
  -6  -2  -7 707.278  36.114   3
  -6  -2  -7 639.264  31.897   1
  -6  -2  -7 697.776  32.843   1
  -6  -2  -7 713.841  36.368   8
   6   2   7 692.955  38.763   6
  -7  -2  -7 135.563   7.336   5
  -7  -2  -7 160.675  10.683   3
  -7  -2  -7 156.733   9.575   5
  -7  -2  -7 160.210   9.371   7
  -7  -2  -7 146.232   7.903   1
  -7  -2  -7 151.091  10.615   8
  -7  -2  -7 144.005   8.143   1
   7   2   7 152.937   8.124   6
  -8  -2  -7 16.6460  4.1036   8
  -8  -2  -7 21.7685  5.6465   3
  -8  -2  -7 15.8785  3.8224   7
  -9  -2  -7 32.4686  6.8657   3
  -9  -2  -7 37.9659  6.8532   8
  -9  -2  -7 44.4211  5.5804   7
 -10  -2  -7 6.26398 3.89738   2
 -10  -2  -7 5.53787 5.89939   3
 -10  -2  -7 8.19038 4.91647   7
 -10  -2  -7 13.9039  6.4174   8
   7  -3  -7 8.20211 5.68506   1
  -7   3   7 13.3439  6.0615   5
  -7   3   7 13.7044  5.4437   7
   6  -3  -7 83.9154  8.7181   1
  -6   3   7 88.8082  8.8142   5
  -6   3   7 75.6155  9.0556   7
  -5   3   7 24.4718  5.9200   7
  -5   3   7 19.8805  5.8402   5
   4  -3  -7 188.892  12.290   1
  -4   3   7 224.282  15.350   5
  -4   3   7 185.368  11.830   7
   3  -3  -7 377.151  22.461   1
  -3   3   7 395.592  18.235   7
  -3   3   7 363.846  20.019   5
   2  -3  -7 153.589   9.774   1
   2  -3  -7 127.209   9.539   8
  -2   3   7 128.026   9.214   5
  -2   3   7 134.430   8.279   7
   1  -3  -7 454.803  24.565   1
   1  -3  -7 454.610  23.850   8
  -1   3   7 483.175  22.029   5
  -1   3   7 454.882  23.204   7
   0  -3  -7 1440.46   75.99   1
   0  -3  -7 1425.13   82.83   8
   0   3   7 1586.53   74.16   5
   0   3   7 1543.77   69.60   7
  -1  -3  -7 254.129  16.963   1
  -1  -3  -7 249.141  14.021   5
  -1  -3  -7 281.568  15.240   1
  -1  -3  -7 254.156  14.111   8
  -1  -3  -7 260.155  13.182   4
   1   3   7 285.406  12.952   7
   1   3   7 276.066  13.695   5
   1   3   7 260.251  15.539   8
  -2  -3  -7 548.585  27.712   5
  -2  -3  -7 577.537  28.554   4
  -2  -3  -7 561.047  37.595   1
  -2  -3  -7 571.935  30.583   1
  -2  -3  -7 573.809  28.970   3
  -2  -3  -7 592.827  29.593   8
   2   3   7 577.267  27.033   8
   2   3   7 624.979  25.879   7
   2   3   7 577.304  28.557   5
  -3  -3  -7 730.828  37.192   4
  -3  -3  -7 728.359  36.742   8
  -3  -3  -7 728.493  32.403   3
  -3  -3  -7 734.893  32.782   1
  -3  -3  -7 680.965  47.262   1
  -3  -3  -7 735.551  39.808   5
   3   3   7 639.872  33.971   8
   3   3   7 616.461  35.016   5
  -4  -3  -7 21.3587  3.1123   5
  -4  -3  -7 19.5764  4.2634   8
  -4  -3  -7 13.2658  2.8928   1
  -4  -3  -7 22.8225  3.2788   3
  -4  -3  -7 16.4234  3.0417   1
   4   3   7 18.1922  3.7179   8
   4   3   7 21.9361  3.1727   5
  -5  -3  -7 633.461  30.307   5
  -5  -3  -7 614.553  25.852   7
  -5  -3  -7 617.209  29.431   1
  -5  -3  -7 592.818  29.563   1
  -5  -3  -7 603.937  30.566   3
  -5  -3  -7 586.301  25.696   7
  -5  -3  -7 661.064  34.768   8
   5   3   7 627.572  36.401   6
  -6  -3  -7 511.921  25.520   8
  -6  -3  -7 558.033  28.121   5
  -6  -3  -7 606.255  26.433   3
  -6  -3  -7 573.073  32.126   1
  -6  -3  -7 545.625  26.948   7
  -6  -3  -7 594.486  28.774   1
   6   3   7 616.629  36.111   6
  -7  -3  -7 4.76171 1.95360   5
  -7  -3  -7 4.62463 4.35605   3
  -7  -3  -7 4.50852 1.66421   1
  -7  -3  -7 3.37432 2.41750   7
  -7  -3  -7 3.38654 4.20960   8
  -7  -3  -7 6.10863 1.75748   1
   7   3   7 2.79425 1.94444   6
  -8  -3  -7 94.7878  8.3446   8
  -8  -3  -7 82.6258  6.0174   7
   8   3   7 95.0589  5.2275   6
  -9  -3  -7 69.6238  7.2093   3
  -9  -3  -7 66.7118  7.6662   8
  -9  -3  -7 59.1619  6.8299   7
 -10  -3  -7 4.39427 3.81168   7
 -10  -3  -7 7.03028 5.68060   2
 -10  -3  -7 1.36945 5.37882   8
 -10  -3  -7 3.50957 6.10064   3
 -11  -3  -7 27.1445  5.7458   2
 -11  -3  -7 15.3458  6.7469   8
 -11  -3  -7 29.1245  7.7698   3
   6  -4  -7 64.5833  8.2281   1
  -6   4   7 52.7880  8.0473   5
  -6   4   7 73.5617  9.0819   7
   5  -4  -7 19.1781  6.1772   1
  -5   4   7 18.4997  5.9353   5
  -5   4   7 28.9768  6.4349   7
   4  -4  -7 114.973  10.482   1
  -4   4   7 106.514   9.175   5
  -4   4   7 89.1218  8.3882   7
   3  -4  -7 288.171  15.412   1
  -3   4   7 272.384  14.788   5
  -3   4   7 224.045  14.435   1
  -3   4   7 241.717  15.360   7
  -2   4   7 75.3815  6.5320   7
  -2   4   7 82.5120  7.4842   5
   1  -4  -7 739.371  35.628   7
   1  -4  -7 740.422  36.511   8
  -1   4   7 797.507  35.918   5
  -1   4   7 765.541  42.750   7
  -1   4   7 708.589  39.162   1
   0  -4  -7 463.141  23.224   7
   0  -4  -7 428.918  26.047   8
   0   4   7 483.341  25.800   7
   0   4   7 476.006  23.128   5
   0   4   7 474.670  26.185   1
   0   4   7 475.606  21.950   4
  -1  -4  -7 101.455   7.722   8
  -1  -4  -7 105.842   5.814   7
   1   4   7 96.5090  5.6223   7
   1   4   7 78.2212  6.9561   5
   1   4   7 97.3986  5.5374   4
   1   4   7 99.3637  8.5358   1
  -2  -4  -7 1312.73   65.54   7
  -2  -4  -7 1320.44   74.76   5
  -2  -4  -7 1340.82   62.92   8
  -2  -4  -7 1406.21   70.76   1
  -2  -4  -7 1332.92   61.94   1
   2   4   7 1267.81   76.38   8
   2   4   7 1343.27   69.10   4
   2   4   7 1328.14   69.21   1
   2   4   7 1342.98   64.86   5
   2   4   7 1379.81   65.66   7
  -3  -4  -7 768.480  36.295   7
  -3  -4  -7 723.091  37.431   1
  -3  -4  -7 776.088  37.501   8
  -3  -4  -7 737.475  43.174   1
  -3  -4  -7 734.542  35.645   5
  -3  -4  -7 766.652  38.053   4
   3   4   7 730.061  44.910   8
   3   4   7 836.027  43.058   4
   3   4   7 811.447  40.886   5
  -4  -4  -7 109.418   4.833   7
  -4  -4  -7 97.1331  6.5036   1
  -4  -4  -7 107.204   6.371   3
  -4  -4  -7 107.542   8.135   8
  -4  -4  -7 86.4211  6.2798   5
  -4  -4  -7 104.797   6.815   1
  -4  -4  -7 91.9639  6.7253   4
   4   4   7 100.969   7.880   8
   4   4   7 107.261   6.941   4
   4   4   7 105.131   6.434   5
  -5  -4  -7 713.242  34.053   7
  -5  -4  -7 739.668  37.578   5
  -5  -4  -7 735.115  36.448   1
  -5  -4  -7 826.441  39.866   3
  -5  -4  -7 752.364  35.037   8
  -5  -4  -7 725.642  37.934   1
  -5  -4  -7 762.273  41.208   7
   5   4   7 759.520  42.749   5
  -6  -4  -7 226.572  13.395   7
  -6  -4  -7 258.024  13.496   8
  -6  -4  -7 234.288  12.376   1
  -6  -4  -7 227.527  13.216   5
  -6  -4  -7 222.658  12.544   3
  -6  -4  -7 239.995  11.651   1
   6   4   7 236.704  12.209   6
  -7  -4  -7 18.2334  2.3762   1
  -7  -4  -7 25.0588  2.4898   1
  -7  -4  -7 21.3565  4.7655   8
  -7  -4  -7 24.5492  3.1170   7
  -7  -4  -7 19.5887  2.2747   5
  -7  -4  -7 16.2419  4.8255   3
  -8  -4  -7 323.935  22.381   7
  -8  -4  -7 347.890  17.850   3
  -8  -4  -7 335.984  18.125   8
   8   4   7 334.804  17.286   6
  -9  -4  -7 45.7586  7.2621   3
  -9  -4  -7 37.3267  5.1886   7
  -9  -4  -7 51.3255  6.5294   8
 -10  -4  -7 5.33765 5.31143   8
 -10  -4  -7 17.4534  6.4474   3
 -10  -4  -7 5.91172 3.74712   7
 -10  -4  -7 12.4387  5.8755   2
 -11  -4  -7 14.2195  5.6249   3
 -11  -4  -7 30.8039  7.3060   2
 -11  -4  -7 25.0852  6.9685   8
   6  -5  -7 -4.7937  6.4130   1
  -6   5   7 -2.0270  6.3638   5
   5  -5  -7 88.0364  9.1162   1
  -5   5   7 72.1950  9.0782   7
  -5   5   7 71.1034  9.0428   5
  -4   5   7 204.599  13.425   5
  -4   5   7 186.371  12.870   7
  -4   5   7 207.751  14.892   1
  -3   5   7 48.1363  6.9321   7
  -3   5   7 36.4194  6.4410   1
  -3   5   7 31.7779  6.3603   5
  -2   5   7 95.8727  4.6031   4
  -2   5   7 113.648   8.987   5
  -2   5   7 92.3172  7.5219   7
  -2   5   7 102.217   8.927   1
   1  -5  -7 375.512  17.376   7
   1  -5  -7 392.979  22.287   8
   1  -5  -7 371.842  16.988   3
  -1   5   7 364.721  19.303   1
  -1   5   7 345.355  19.484   5
  -1   5   7 386.457  29.020   7
  -1   5   7 340.034  16.280   4
   0  -5  -7 120.815   8.966   8
   0  -5  -7 97.0400  7.1558   7
   0   5   7 103.700   5.879   4
   0   5   7 110.208   8.531   1
   0   5   7 116.709   8.710   5
   0   5   7 122.941   7.180   7
  -1  -5  -7 543.881  26.264   8
  -1  -5  -7 524.022  28.450   7
   1   5   7 537.553  26.713   5
   1   5   7 546.706  33.639   1
   1   5   7 506.073  27.900   4
   1   5   7 519.687  24.459   7
  -2  -5  -7 1662.86   78.34   8
  -2  -5  -7 1626.94   80.40   7
   2   5   7 1603.19   93.88   1
   2   5   7 1541.63   76.31   7
   2   5   7 1488.89   69.89   4
   2   5   7 1555.86   84.69   5
  -3  -5  -7 204.153  10.999   1
  -3  -5  -7 209.770  12.522   8
  -3  -5  -7 202.492  12.485   5
  -3  -5  -7 209.990  11.831   7
   3   5   7 183.951  10.785   5
   3   5   7 200.591  10.664   4
   3   5   7 185.578  13.730   1
  -4  -5  -7 443.716  24.040   1
  -4  -5  -7 433.929  23.043   5
  -4  -5  -7 432.227  20.503   8
  -4  -5  -7 425.072  28.671   4
  -4  -5  -7 458.702  20.788   7
   4   5   7 437.171  22.807   1
   4   5   7 442.943  26.645   5
   4   5   7 478.396  23.144   4
   4   5   7 401.816  23.958   8
  -5  -5  -7 251.381  12.898   1
  -5  -5  -7 245.701  14.489   5
  -5  -5  -7 239.483  13.463   7
  -5  -5  -7 219.264  14.881   1
  -5  -5  -7 269.909  15.760   8
   5   5   7 294.227  14.647   5
   5   5   7 265.397  17.099   4
  -6  -5  -7 57.7353  6.1110   1
  -6  -5  -7 70.1173  6.3425   8
  -6  -5  -7 67.2186  4.8432   1
  -6  -5  -7 58.3595  4.7486   5
  -6  -5  -7 61.1673  4.2208   7
   6   5   7 78.6339  7.0571   4
   6   5   7 69.4264  4.7251   5
  -7  -5  -7 187.215   9.902   1
  -7  -5  -7 176.556  10.525   5
  -7  -5  -7 168.322  12.942   7
  -7  -5  -7 201.180  12.232   3
  -7  -5  -7 211.911   9.974   7
  -7  -5  -7 177.079  11.226   1
  -7  -5  -7 172.060  10.597   8
   7   5   7 179.648  12.026   4
   7   5   7 171.192  10.853   6
  -8  -5  -7 55.6376  6.4804   8
  -8  -5  -7 41.5660  4.5021   7
   8   5   7 46.1626  3.5351   6
  -9  -5  -7 19.4997  6.0861   3
  -9  -5  -7 19.7133  4.9156   8
  -9  -5  -7 17.0246  4.1605   7
 -10  -5  -7 47.9633  6.9488   2
 -10  -5  -7 34.0291  6.0596   8
 -10  -5  -7 42.9996  7.7031   3
 -11  -5  -7 22.1940  7.3113   3
 -11  -5  -7 19.5721  6.3041   8
  -5   6   7 35.1857  7.4914   1
  -5   6   7 37.3394  7.5505   5
  -5   6   7 51.2739  8.3938   7
  -4   6   7 47.1266  7.7741   1
  -4   6   7 45.5185  7.6948   7
  -3   6   7 20.9978  6.2845   5
  -3   6   7 21.6361  6.6560   7
  -2   6   7 64.8636  6.8124   1
  -2   6   7 59.3396  6.7636   7
  -2   6   7 56.5593  6.6225   5
  -1   6   7 37.1180  6.3295   1
  -1   6   7 30.5466  5.7421   7
  -1   6   7 27.1646  5.7084   5
  -1   6   7 23.3972  2.8904   4
   0  -6  -7 15.6990  3.7371   7
   0  -6  -7 16.8852  5.2928   8
   0   6   7 20.5110  2.9215   4
   0   6   7 24.1821  5.6855   5
   0   6   7 20.7332  5.4659   1
   0   6   7 23.1209  4.2018   7
  -1  -6  -7 839.055  51.368   7
  -1  -6  -7 851.872  53.258   8
   1   6   7 877.292  39.730   7
   1   6   7 954.296  48.198   1
   1   6   7 908.220  53.529   5
   1   6   7 872.590  45.001   4
  -2  -6  -7 355.120  19.794   7
  -2  -6  -7 287.636  19.677   8
   2   6   7 332.724  21.127   5
   2   6   7 337.576  17.795   4
   2   6   7 349.932  22.182   1
   2   6   7 332.016  20.696   7
  -3  -6  -7 409.241  20.734   8
  -3  -6  -7 392.294  21.868   7
   3   6   7 391.817  19.845   4
   3   6   7 399.225  19.255   1
   3   6   7 340.682  21.175   5
  -4  -6  -7 375.114  24.254   5
  -4  -6  -7 389.464  19.427   8
  -4  -6  -7 375.351  18.846   7
   4   6   7 358.607  18.328   4
   4   6   7 324.375  19.873   1
   4   6   7 316.235  18.189   5
  -5  -6  -7 77.2542  5.0300   7
  -5  -6  -7 82.5432  6.9053   8
  -5  -6  -7 83.7385  6.5886   5
  -5  -6  -7 74.7391  7.5008   1
   5   6   7 69.0667  5.5209   5
   5   6   7 73.9596  6.1466   1
   5   6   7 62.7589  6.6468   4
  -6  -6  -7 150.236   8.783   1
  -6  -6  -7 162.664   9.583   8
  -6  -6  -7 140.730   8.640   5
  -6  -6  -7 153.969   9.622   7
  -6  -6  -7 150.956  10.491   1
   6   6   7 165.852  10.547   4
   6   6   7 153.282   8.634   5
  -7  -6  -7 351.995  17.952   7
  -7  -6  -7 387.931  25.993   8
  -7  -6  -7 365.398  17.915   1
   7   6   7 362.467  20.038   5
   7   6   7 407.768  20.575   4
  -8  -6  -7 62.4191  7.3075   3
  -8  -6  -7 60.1230  6.3720   8
   8   6   7 48.4863  7.0977   4
   8   6   7 59.7601  4.0459   6
  -9  -6  -7 15.6011  5.8445   3
  -9  -6  -7 21.8713  4.5683   7
  -9  -6  -7 16.6517  4.8225   8
 -10  -6  -7 21.5409  7.3376   3
 -10  -6  -7 20.0533  6.1803   8
  -4   7   7 40.1916  7.8736   1
  -4   7   7 23.7656  7.5008   5
  -4   7   7 37.8867  7.9894   7
  -3   7   7 71.3371  8.8526   5
  -3   7   7 75.1443  8.9691   1
  -2   7   7 21.1570  5.0932   1
  -2   7   7 30.6412  5.8404   5
  -2   7   7 30.6748  5.9579   7
  -1   7   7 9.92389 3.13100   4
  -1   7   7 16.6489  5.7926   5
  -1   7   7 14.1952  5.5838   1
  -1   7   7 12.4324  4.5530   7
   0   7   7 159.204  11.435   7
   0   7   7 168.434  11.028   5
   0   7   7 121.713   7.856   4
   0   7   7 134.184  10.872   1
  -1  -7  -7 579.829  33.547   8
   1   7   7 533.689  28.846   5
   1   7   7 547.629  25.168   4
   1   7   7 558.748  34.583   1
   1   7   7 558.794  29.367   7
  -2  -7  -7 4.92933 4.69767   8
  -2  -7  -7 8.21482 3.17642   7
   2   7   7 3.33941 3.50155   7
   2   7   7 0.89102 4.64441   5
   2   7   7 13.7833  4.9594   1
   2   7   7 12.0829  4.0764   4
  -3  -7  -7 83.2474  6.2197   7
   3   7   7 71.2597  7.1569   5
   3   7   7 78.4667  7.3842   1
   3   7   7 82.1966  5.7063   7
  -4  -7  -7 204.006  12.549   8
  -4  -7  -7 188.744  11.873   7
   4   7   7 225.600  12.320   5
   4   7   7 271.484  13.683   4
  -5  -7  -7 165.243  10.596   8
  -5  -7  -7 174.476   9.143   7
   5   7   7 170.076  10.273   1
   5   7   7 161.856  10.507   4
   5   7   7 168.658  12.094   5
  -6  -7  -7 43.4718  5.3638   1
  -6  -7  -7 64.2457  6.6918   8
  -6  -7  -7 52.4699  4.9131   7
  -6  -7  -7 57.4681  5.1695   5
   6   7   7 61.3954  5.6050   1
   6   7   7 50.6691  5.2377   5
   6   7   7 47.6811  6.5509   4
  -7  -7  -7 256.055  16.899   8
  -7  -7  -7 271.487  15.680   1
   7   7   7 251.366  15.905   4
   7   7   7 264.787  13.850   5
   7   7   7 292.257  14.738   1
  -8  -7  -7 15.3129  5.3727   8
   8   7   7 15.7278  5.9154   4
  -9  -7  -7 30.2857  6.1857   8
   9   7   7 42.2645  7.4721   4
 -10  -7  -7 7.89415 4.99667   3
 -10  -7  -7 9.35448 4.73828   8
  10   7   7 2.08413 4.53147   4
  -3   8   7 58.8684  8.5601   7
  -3   8   7 48.9843  8.4402   1
  -3   8   7 50.7080  9.1435   5
  -2   8   7 58.0585  8.7002   5
  -2   8   7 51.0890  7.5391   7
  -2   8   7 42.0411  7.7032   1
  -1   8   7 36.3324  7.1493   1
  -1   8   7 19.8422  6.6704   5
  -1   8   7 27.3781  5.9270   7
   0   8   7 180.569  12.104   7
   0   8   7 212.294  16.434   1
   0   8   7 204.630  13.519   5
   0   8   7 206.276  12.599   4
   1   8   7 59.0119  5.8488   4
   1   8   7 51.5385  6.5397   7
   1   8   7 58.2797  7.5844   5
   1   8   7 62.7945  7.7552   1
   2   8   7 36.0113  6.1260   5
   2   8   7 38.4116  5.4826   7
   2   8   7 29.3450  4.9715   1
   2   8   7 35.2121  4.9365   4
  -3  -8  -7 64.9572  8.0033   7
  -3  -8  -7 82.6291  7.4802   8
   3   8   7 74.5995  6.1251   7
   3   8   7 74.2644  7.4540   5
   3   8   7 86.9065  7.4074   4
   3   8   7 71.6973  7.3933   1
  -4  -8  -7 114.230   8.633   8
  -4  -8  -7 105.685   8.437   7
   4   8   7 110.650   8.343   4
   4   8   7 90.4962  8.3769   1
   4   8   7 117.334   8.579   5
  -5  -8  -7 2.03606 3.41052   7
  -5  -8  -7 4.77706 4.14708   8
   5   8   7 5.61546 4.54468   4
   5   8   7 5.08926 4.65048   1
   5   8   7 0.15275 3.67643   5
  -6  -8  -7 221.202  19.319   8
   6   8   7 229.552  13.388   4
   6   8   7 184.158  13.432   1
   6   8   7 216.550  12.025   5
  -7  -8  -7 29.2213  5.5772   8
   7   8   7 35.4105  6.7070   4
   7   8   7 33.5694  4.6234   1
   7   8   7 28.9721  4.1807   5
  -8  -8  -7 5.43863 4.82227   8
   8   8   7 6.97581 2.72928   1
   8   8   7 5.04776 3.84503   4
  -9  -8  -7 69.5010  6.9587   8
   9   8   7 72.9966  9.2950   4
  10   8   7 6.08389 7.21853   4
  -2   9   7 13.8641  7.7334   7
  -2   9   7 4.97678 6.84196   1
  -2   9   7 17.9051  7.4434   5
  -1   9   7 43.8474  7.1731   1
  -1   9   7 40.0275  7.6765   5
  -1   9   7 38.1072  7.0113   7
   0   9   7 63.6425  6.1408   4
   0   9   7 85.2762  9.2268   1
   0   9   7 76.1975  8.3360   7
   0   9   7 83.0665  9.1247   5
   1   9   7 -1.1519  5.4699   1
   1   9   7 1.55479 3.60663   4
   1   9   7 3.09289 4.38505   7
   1   9   7 -2.3798  5.5346   5
   2   9   7 59.3680  8.0209   1
   2   9   7 68.3108  7.3198   7
   2   9   7 66.7190  7.9157   5
  -3  -9  -7 177.507  11.483   8
   3   9   7 146.454  14.081   1
   3   9   7 185.216  12.412   5
   3   9   7 158.479  10.686   4
   3   9   7 156.108  12.061   7
  -4  -9  -7 45.5447  6.1501   8
   4   9   7 58.2865  6.9943   1
   4   9   7 46.2251  6.4002   5
   4   9   7 42.8266  6.3957   4
  -5  -9  -7 83.9902  7.6042   8
   5   9   7 93.9616  8.5524   4
   5   9   7 85.0165  7.6706   5
   5   9   7 113.101   9.482   1
  -6  -9  -7 66.2547  7.0708   8
   6   9   7 65.6242  7.8485   4
   6   9   7 62.4778  7.1123   1
   6   9   7 55.0505  6.1594   5
  -7  -9  -7 12.5627  4.9802   8
   7   9   7 11.6384  4.0439   5
   7   9   7 14.2462  4.3428   1
   7   9   7 1.39432 5.37980   4
   8   9   7 20.7287  6.6267   4
   9   9   7 37.6784  8.3446   4
   0  10   7 18.1274  6.3194   7
   0  10   7 14.9152  6.8741   1
   0  10   7 15.6201  5.4777   5
   1  10   7 0.24992 3.94863   4
   1  10   7 9.05795 6.65150   1
   1  10   7 10.1135  6.6715   5
   1  10   7 -0.9541  4.7349   7
   2  10   7 108.109   9.213   7
   2  10   7 85.9159  9.9882   1
   2  10   7 87.9711  9.4084   5
   2  10   7 91.6863 13.3866   4
   3  10   7 25.0401  5.5845   4
   3  10   7 28.9739  6.8488   1
   3  10   7 42.2465  6.9704   5
   4  10   7 10.0768  5.0597   4
   4  10   7 -3.9393  4.7675   5
   4  10   7 4.08315 5.06936   1
  -5 -10  -7 174.074  55.728   8
   5  10   7 52.8924  7.3285   4
   5  10   7 63.2318  8.7084   1
   5  10   7 58.8287  7.2760   5
  -6 -10  -7 14.6513  5.1624   8
   6  10   7 11.4504  4.7429   1
   6  10   7 9.95011 5.31141   5
   6  10   7 12.2535  6.1355   4
   7  10   7 15.1040  4.7644   5
   7  10   7 6.38182 5.62668   4
   7  10   7 10.1606  4.8300   1
   8  10   7 15.2451  4.9976   4
   2  11   7 22.3966  7.5667   1
   2  11   7 14.2254  5.5029   7
   2  11   7 18.9452  7.1056   5
   2  11   7 20.1219  6.4122   4
   3  11   7 -0.6401  6.4603   5
   3  11   7 6.43718 6.24193   1
   3  11   7 3.14364 4.88277   4
   4  11   7 17.0443  6.4667   5
   4  11   7 23.5689  6.3773   1
   4  11   7 22.3515  7.3010   4
   5  11   7 23.0782  7.5844   5
   5  11   7 8.10230 6.06946   4
   5  11   7 9.00746 5.62917   1
   6  11   7 0.10628 6.11929   4
   6  11   7 -4.5435  5.0572   1
   6  11   7 5.65099 4.87257   5
   7  11   7 24.2679  5.6957   1
   7  11   7 32.4533  8.1182   4
   5   8  -8 32.6708  7.2189   1
   4   8  -8 25.6625  7.1094   1
   4   8  -8 15.8881  7.0000   5
   3   8  -8 62.9865  8.3335   5
   3   8  -8 51.6870  8.0450   1
   2   8  -8 71.0692  8.7328   1
   2   8  -8 62.8337  8.4227   5
   1   8  -8 25.8875  6.8273   1
   1   8  -8 24.4593  7.0818   5
   0   8  -8 74.5361  9.4278   1
   0   8  -8 101.722  10.958   5
  -1   8  -8 47.3198  8.0471   5
  -1   8  -8 31.2976  5.7448   8
  -2   8  -8 10.9470  7.0190   5
  -2   8  -8 6.47377 6.81973   1
  -3   8  -8 69.2291  9.3413   1
   6   7  -8 29.6111  6.6472   1
   5   7  -8 14.6964  5.9597   1
  -5  -7   8 24.0868  6.2522   6
   4   7  -8 3.23528 5.31855   1
  -4  -7   8 9.22253 5.64866   6
   3   7  -8 112.045   9.694   1
  -3  -7   8 88.0598  9.1989   6
   2   7  -8 117.401  10.204   5
   2   7  -8 114.949   9.974   1
  -2  -7   8 113.142  10.102   6
   1   7  -8 20.4901  3.7459   8
   1   7  -8 20.6947  6.7188   5
   1   7  -8 20.8349  6.3115   1
   0   7  -8 113.034   7.516   8
   0   7  -8 96.2289  9.3978   5
   0   7  -8 90.4837  8.5099   1
  -1   7  -8 35.2235  7.0249   1
  -1   7  -8 31.0353  5.4460   8
  -1   7  -8 45.0347  7.5541   5
  -2   7  -8 37.0974  5.7907   8
  -2   7  -8 25.6919  7.0349   1
  -2   7  -8 28.1930  6.8859   5
  -3   7  -8 103.778  10.710   1
  -3   7  -8 136.052  11.386   5
  -3   7  -8 149.312  12.269   8
  -4   7  -8 17.7800  6.9475   5
  -4   7  -8 16.0958  6.7609   1
  -4   7  -8 11.9561  6.3799   8
  -4   7  -8 20.8750  6.4065   7
   6   6  -8 113.848   8.999   4
   6   6  -8 102.942   9.460   1
  -6  -6   8 99.3709  9.9630   6
   5   6  -8 17.3145  5.6907   1
  -5  -6   8 11.9943  5.6297   6
   4   6  -8 66.9641  7.6432   1
  -4  -6   8 45.0283  7.8369   6
   3   6  -8 55.9789  7.4663   1
   3   6  -8 65.4835  4.8129   8
  -3  -6   8 64.5702  6.8425   6
   2   6  -8 3.83665 5.12967   1
  -2  -6   8 4.59028 5.37647   6
   1   6  -8 403.203  22.308   8
   1   6  -8 388.026  24.693   1
  -1  -6   8 447.097  23.126   6
   0   6  -8 233.269  13.033   5
   0   6  -8 207.057  11.134   8
   0   6  -8 217.190  14.488   1
   0  -6   8 176.677  13.886   6
  -1   6  -8 44.1763  7.0364   5
  -1   6  -8 54.6625  6.0613   8
  -1   6  -8 65.4867  7.6462   1
  -2   6  -8 138.270  11.307   5
  -2   6  -8 144.865  11.174   8
  -2   6  -8 154.212  11.327   1
  -3   6  -8 83.2255  8.1305   1
  -3   6  -8 97.9576  8.5906   7
  -3   6  -8 92.2664  9.2167   5
  -3   6  -8 119.949  10.676   8
  -4   6  -8 11.2699  5.9333   5
  -4   6  -8 9.62999 6.33396   7
  -4   6  -8 3.09964 5.60661   1
  -4   6  -8 16.6701  5.9718   8
  -5   6  -8 75.0441  8.8721   1
  -5   6  -8 99.3378  9.4868   5
  -5   6  -8 88.8351 11.2245   7
  -5   6  -8 93.2996  9.5998   8
  -6   6  -8 21.6377  7.5099   1
   7   5  -8 46.2747  6.9438   1
   6   5  -8 39.1016  5.1922   4
   6   5  -8 37.3073  6.6352   1
  -6  -5   8 41.7474  6.4182   6
   5   5  -8 12.6077  4.2293   4
   5   5  -8 10.6700  5.3088   1
  -5  -5   8 7.21597 4.57566   6
   4   5  -8 105.162   7.650   8
   4   5  -8 105.653   8.993   1
  -4  -5   8 114.459   9.086   6
   3   5  -8 177.189  10.619   8
   3   5  -8 174.809  11.651   1
  -3  -5   8 177.654  11.733   6
   2   5  -8 41.5969  4.6231   8
   2   5  -8 46.1649  4.4907   2
   2   5  -8 31.2930  5.2338   1
  -2  -5   8 43.9489  6.4679   6
   1   5  -8 248.214  15.081   1
   1   5  -8 270.545  13.673   2
   1   5  -8 259.169  16.026   8
  -1  -5   8 272.175  15.706   6
   0   5  -8 219.389  22.320   2
   0   5  -8 215.116  18.081   8
   0   5  -8 227.467  13.276   1
   0  -5   8 201.058  15.601   6
  -1   5  -8 25.5650  2.3444   2
  -1   5  -8 23.0585  4.9037   8
  -1   5  -8 16.9044  4.2741   1
   1  -5   8 21.6353  5.5416   6
  -2   5  -8 226.434  14.860   5
  -2   5  -8 256.502  16.144   8
  -2   5  -8 222.537  14.160   1
   2  -5   8 245.378  16.235   6
  -3   5  -8 45.6847  6.6666   5
  -3   5  -8 52.5452  6.7591   1
  -3   5  -8 55.6098  6.5770   8
  -3   5  -8 53.3770  6.3360   7
  -4   5  -8 54.0751  6.3935   7
  -4   5  -8 51.8058  6.0808   5
  -4   5  -8 51.1104  7.1199   8
  -4   5  -8 53.0181  7.8486   1
  -5   5  -8 172.269  11.740   1
  -5   5  -8 162.667  11.468   7
  -5   5  -8 177.001  13.418   8
  -5   5  -8 180.428  12.695   5
  -6   5  -8 29.5356  7.3537   7
  -6   5  -8 35.1538  6.1219   1
  -6   5  -8 25.0765  7.1641   8
  -6   5  -8 44.4336  7.5868   5
   7   4  -8 56.7318  7.3859   1
  -7  -4   8 54.6303  7.3311   6
   6   4  -8 5.10492 4.77636   1
  -6  -4   8 0.79785 4.33133   6
   5   4  -8 45.5680  7.1030   1
   5   4  -8 41.1414  4.2727   4
  -5  -4   8 36.1869  6.0050   6
   4   4  -8 129.969   8.061   8
   4   4  -8 117.862   9.224   1
  -4  -4   8 120.426   9.418   6
   3   4  -8 18.9248  5.2075   1
   3   4  -8 24.0503  4.1177   8
  -3  -4   8 32.2380  5.6613   6
  -3  -4   8 29.7634  3.5679   8
   2   4  -8 383.884  18.965   8
   2   4  -8 343.966  17.187   2
   2   4  -8 366.143  21.778   1
  -2  -4   8 350.555  23.608   8
  -2  -4   8 405.694  19.960   6
   1   4  -8 115.445   7.373   8
   1   4  -8 103.415   6.289   2
   1   4  -8 97.3682  7.4828   1
  -1  -4   8 98.1407  7.7803   6
  -1  -4   8 99.7059  6.5253   8
   0   4  -8 74.6440  4.9345   2
   0   4  -8 69.2625  6.9604   1
   0   4  -8 82.0115  6.1103   8
   0  -4   8 71.4565  6.5697   6
  -1   4  -8 193.935  10.763   8
  -1   4  -8 204.221  12.323   1
   1  -4   8 185.467  12.163   6
  -2   4  -8 377.433  19.969   1
  -2   4  -8 402.117  22.794   8
   2  -4   8 360.268  19.946   7
   2  -4   8 399.693  23.714   6
  -3   4  -8 7.00622 3.61313   7
  -3   4  -8 10.1118  4.5150   8
  -3   4  -8 10.4626  4.6186   5
  -3   4  -8 1.15905 4.36694   1
   3  -4   8 15.7591  4.8610   6
  -4   4  -8 220.870  14.772   1
  -4   4  -8 235.362  14.753   5
  -4   4  -8 200.774  12.807   7
  -4   4  -8 180.582  12.344   8
  -5   4  -8 89.7879  5.1975   2
  -5   4  -8 85.4865  8.8223   8
  -5   4  -8 73.8357  8.2526   1
  -5   4  -8 89.5723  8.6194   5
  -6   4  -8 18.8358  5.3226   5
  -6   4  -8 16.7757  6.3833   8
  -6   4  -8 23.5542  5.2467   1
  -6   4  -8 11.7375  4.8856   7
  -7   4  -8 59.5644  8.8208   8
  -7   4  -8 55.3388  6.7460   5
  -7   4  -8 52.8358  7.9669   7
  -7   4  -8 51.3641  6.3088   1
   7   3  -8 28.7217  5.7957   1
  -7  -3   8 37.7843  7.3221   7
  -7  -3   8 25.9310  5.4622   6
   6   3  -8 21.5788  5.7937   1
  -6  -3   8 16.0478  4.8611   6
  -6  -3   8 18.4647  4.9914   7
   5   3  -8 238.802  14.371   1
   5   3  -8 243.494  12.336   4
  -5  -3   8 252.468  15.419   6
   4   3  -8 352.672  20.186   1
   4   3  -8 359.597  19.705   8
   4   3  -8 355.234  17.091   4
  -4  -3   8 352.906  19.305   6
  -4  -3   8 325.627  18.330   8
   3   3  -8 114.361   8.118   8
   3   3  -8 138.580   9.197   1
  -3  -3   8 111.435   8.105   8
  -3  -3   8 131.019  10.141   6
   2   3  -8 836.298  40.093   1
   2   3  -8 796.336  43.391   8
  -2  -3   8 813.875  51.423   8
  -2  -3   8 943.680  50.601   6
   1   3  -8 43.0085  5.6907   8
   1   3  -8 58.5821  6.2766   1
  -1  -3   8 45.7553  4.7460   7
  -1  -3   8 40.3431  6.0011   6
  -1  -3   8 47.5687  5.0204   8
   0   3  -8 24.2517  4.9888   1
   0   3  -8 26.5775  4.7099   8
   0  -3   8 20.1432  3.8986   8
   0  -3   8 18.2613  3.8637   7
   0  -3   8 19.4816  4.8953   6
  -1   3  -8 954.530  58.586   8
  -1   3  -8 1020.17   52.59   1
   1  -3   8 968.317  71.347   8
   1  -3   8 985.658  60.323   7
   1  -3   8 1056.71   48.82   6
  -2   3  -8 321.786  17.099   1
  -2   3  -8 338.843  18.264   8
   2  -3   8 286.250  17.242   7
   2  -3   8 326.627  19.827   6
  -3   3  -8 154.622  10.106   1
  -3   3  -8 149.361  10.277   8
   3  -3   8 180.875   9.756   7
   3  -3   8 172.964  12.145   6
  -4   3  -8 558.446  32.493   1
  -4   3  -8 603.343  33.572   5
  -4   3  -8 584.910  30.005   8
  -4   3  -8 562.134  35.055   7
   4  -3   8 552.830  25.961   7
   4  -3   8 614.438  36.091   6
  -5   3  -8 190.128  10.569   7
  -5   3  -8 172.406  13.264   5
  -5   3  -8 189.756  15.960   8
  -5   3  -8 178.207  11.093   1
  -6   3  -8 81.7953  5.8611   2
  -6   3  -8 90.8195  7.5350   1
  -6   3  -8 91.8620  9.9656   8
  -6   3  -8 91.7628  7.7876   5
  -6   3  -8 93.1031  7.5102   7
  -7   3  -8 62.9682  7.6177   7
  -7   3  -8 66.7416  8.3135   8
  -7   3  -8 57.3956  5.1867   2
  -7   3  -8 61.2134  6.2319   1
  -7   3  -8 59.6124  6.4036   5
  -8   3  -8 8.90636 7.10392   8
  -8   3  -8 8.04498 6.00755   7
   7   2  -8 6.47935 5.93402   1
  -7  -2   8 1.14008 6.05266   7
  -7  -2   8 3.73042 4.17853   6
   6   2  -8 65.5679  7.8207   1
  -6  -2   8 62.7664  6.9744   6
   5   2  -8 228.910  11.965   4
   5   2  -8 238.119  14.726   1
  -5  -2   8 241.704  14.802   6
  -5  -2   8 265.976  15.498   7
   4   2  -8 140.259   7.565   4
   4   2  -8 143.606   9.264   8
   4   2  -8 129.533   9.438   1
  -4  -2   8 137.168   9.695   6
   3   2  -8 428.589  21.665   8
   3   2  -8 476.553  24.259   1
  -3  -2   8 445.026  22.114   6
  -3  -2   8 420.666  20.361   8
   2   2  -8 69.7337  6.4311   1
   2   2  -8 48.4314  5.7199   8
  -2  -2   8 62.4517  5.1457   8
  -2  -2   8 66.2562  6.5236   6
   1   2  -8 145.766   9.421   1
   1   2  -8 146.262   8.943   8
  -1  -2   8 156.416   8.901   8
  -1  -2   8 143.652   9.853   6
   0   2  -8 713.931  37.322   8
   0   2  -8 696.489  33.616   1
   0  -2   8 748.054  35.250   6
   0  -2   8 692.433  32.465   7
  -1   2  -8 1102.12   49.04   8
  -1   2  -8 1086.96   56.79   1
   1  -2   8 996.126  52.711   7
   1  -2   8 942.115  52.755   8
   1  -2   8 1099.41   51.81   6
  -2   2  -8 137.087   8.687   1
  -2   2  -8 127.765   8.659   8
   2  -2   8 121.558   7.082   7
   2  -2   8 121.371   8.238   6
  -3   2  -8 348.513  17.271   1
  -3   2  -8 344.310  19.324   8
   3  -2   8 341.616  19.370   7
   3  -2   8 372.983  19.266   6
  -4   2  -8 245.370  11.681   7
  -4   2  -8 218.402  12.940   8
  -4   2  -8 229.062  12.481   1
   4  -2   8 225.358  12.008   7
   4  -2   8 242.627  13.044   6
  -5   2  -8 17.2179  3.3166   7
  -5   2  -8 17.3049  5.3617   8
  -5   2  -8 19.1041  4.2217   5
  -5   2  -8 21.6269  4.1936   1
   5  -2   8 13.7794  3.5832   7
   5  -2   8 26.6525  4.7519   6
  -6   2  -8 176.126  10.578   1
  -6   2  -8 183.926  11.491   5
  -6   2  -8 182.050  13.303   8
  -6   2  -8 165.032  12.745   7
   6  -2   8 171.026  11.224   7
  -7   2  -8 249.813  15.501   8
  -7   2  -8 214.577  12.529   7
  -7   2  -8 240.477  13.024   5
  -7   2  -8 213.624  11.647   2
  -7   2  -8 238.825  13.531   1
  -8   2  -8 6.27956 4.28070   2
  -8   2  -8 12.6160  6.4339   8
  -8   2  -8 5.21719 4.62311   7
   7   1  -8 17.1282  6.4987   1
  -7  -1   8 11.7112  5.7718   6
  -7  -1   8 15.9204  6.8529   7
   6   1  -8 112.897   9.230   1
  -6  -1   8 112.913   9.174   6
  -6  -1   8 123.901   9.855   7
   5   1  -8 189.323  11.821   1
  -5  -1   8 201.432  12.005   6
  -5  -1   8 179.124  12.188   7
  -5  -1   8 169.954   9.396   3
   4   1  -8 104.149   8.349   1
   4   1  -8 111.781   5.248   4
  -4  -1   8 109.168   8.178   7
  -4  -1   8 103.968   8.512   6
   3   1  -8 489.978  24.183   8
   3   1  -8 506.562  28.236   4
   3   1  -8 497.790  24.952   1
  -3  -1   8 438.472  25.936   6
   2   1  -8 88.7563  7.4057   8
   2   1  -8 114.463   7.904   1
  -2  -1   8 98.7718 10.9013   8
   1   1  -8 264.196  14.071   8
   1   1  -8 281.945  16.697   1
  -1  -1   8 298.200  17.314   6
  -1  -1   8 279.388  15.547   8
   0   1  -8 1677.44   79.65   1
   0   1  -8 1673.52   83.56   8
   0  -1   8 1650.99   95.52   8
   0  -1   8 1644.30   81.10   6
   0  -1   8 1648.08   82.16   7
  -1   1  -8 702.884  38.003   1
  -1   1  -8 680.837  30.573   8
   1  -1   8 613.282  30.193   7
   1  -1   8 551.203  37.928   8
   1  -1   8 615.473  31.043   6
  -2   1  -8 365.174  19.420   1
  -2   1  -8 368.683  20.737   8
   2  -1   8 374.734  18.759   6
   2  -1   8 363.106  19.711   3
   2  -1   8 357.439  17.658   7
  -3   1  -8 838.945  41.316   1
  -3   1  -8 865.545  47.699   8
   3  -1   8 813.053  54.435   3
   3  -1   8 862.427  46.880   6
   3  -1   8 803.649  49.107   7
  -4   1  -8 49.2137  4.9135   1
   4  -1   8 41.6448  4.5266   1
   4  -1   8 35.4931  3.2070   7
   4  -1   8 35.3648  4.8400   6
  -5   1  -8 103.837   7.319   1
  -5   1  -8 91.6844  5.8688   7
   5  -1   8 89.2127  5.8961   7
   5  -1   8 89.5160  7.3797   6
   5  -1   8 94.9513  6.8998   1
  -6   1  -8 299.927  15.731   5
  -6   1  -8 319.125  19.191   8
  -6   1  -8 276.177  17.000   1
  -6   1  -8 285.948  16.619   7
   6  -1   8 290.164  17.426   6
   6  -1   8 260.859  23.837   7
   6  -1   8 263.980  14.439   1
  -7   1  -8 31.6678  4.5451   5
  -7   1  -8 36.4086  6.7627   8
  -7   1  -8 33.0248  4.3467   1
  -7   1  -8 34.6640  5.1838   7
   7  -1   8 32.9335  4.0139   7
  -8   1  -8 19.2725  4.5779   7
  -8   1  -8 23.6956  5.1960   2
  -8   1  -8 24.6854  7.1345   8
  -9   1  -8 30.1137  5.3530   2
  -9   1  -8 37.5113  7.9066   8
   7   0  -8 22.5493  5.9116   1
  -7   0   8 16.0369  6.5858   7
  -7   0   8 7.99475 5.43024   6
   6   0  -8 128.787   9.620   1
  -6   0   8 100.854   9.596   6
  -6   0   8 114.206   9.797   7
   5   0  -8 27.3333  5.7850   1
  -5   0   8 33.2318  5.9581   7
  -5   0   8 40.9090  6.2454   6
   4   0  -8 287.604  15.834   1
  -4   0   8 256.715  13.472   3
  -4   0   8 256.039  14.573   7
  -4   0   8 279.090  16.145   6
   3   0  -8 210.575  11.747   1
   3   0  -8 210.737  12.993   8
  -3   0   8 192.372  10.988   7
  -3   0   8 183.975   9.254   3
  -3   0   8 193.347  12.074   6
   2   0  -8 409.170  17.886   4
   2   0  -8 418.059  22.654   1
   2   0  -8 441.771  25.876   8
  -2   0   8 448.482  22.448   7
  -2   0   8 437.895  25.357   6
   1   0  -8 664.760  44.126   8
   1   0  -8 686.612  34.718   1
  -1   0   8 756.398  33.323   7
  -1   0   8 728.021  37.545   6
  -1   0   8 725.912  40.521   8
   0   0  -8 911.815  46.825   1
   0   0  -8 938.853  45.013   8
   0   0   8 964.300  48.933   6
   0   0   8 895.887  52.952   8
   0   0   8 915.558  43.028   3
  -1   0  -8 235.414  14.658   1
  -1   0  -8 245.306  15.961   8
   1   0   8 263.209  11.909   7
   1   0   8 250.551  15.372   8
   1   0   8 253.706  12.010   3
   1   0   8 282.914  13.912   6
  -2   0  -8 665.495  32.230   1
  -2   0  -8 674.108  29.884   8
  -2   0  -8 572.361  29.910   5
   2   0   8 568.646  31.509   3
   2   0   8 588.644  27.817   7
   2   0   8 584.792  40.475   1
   2   0   8 585.595  35.784   8
   2   0   8 603.023  30.491   6
  -3   0  -8 494.908  22.701   8
  -3   0  -8 456.012  27.920   5
  -3   0  -8 519.557  23.962   1
   3   0   8 451.289  29.390   1
   3   0   8 427.588  24.472   3
   3   0   8 457.324  22.920   6
   3   0   8 445.478  19.324   7
  -4   0  -8 2.48025 3.53821   5
  -4   0  -8 9.41780 4.30324   8
  -4   0  -8 4.81784 3.12920   1
   4   0   8 3.99800 3.34958   6
   4   0   8 9.14435 3.37784   3
   4   0   8 2.97332 3.35516   1
  -5   0  -8 377.561  21.006   8
  -5   0  -8 396.135  21.851   5
  -5   0  -8 399.541  20.092   1
  -5   0  -8 406.808  19.140   7
   5   0   8 403.537  19.645   6
   5   0   8 412.869  19.086   1
   5   0   8 395.263  19.704   7
  -6   0  -8 407.274  24.974   7
  -6   0  -8 388.331  20.902   5
  -6   0  -8 420.909  25.376   8
  -6   0  -8 414.925  22.159   1
   6   0   8 418.889  21.199   6
   6   0   8 419.597  19.969   1
  -7   0  -8 2.41790 3.14287   7
  -7   0  -8 1.44670 2.99100   5
  -7   0  -8 0.32312 5.21261   8
  -7   0  -8 5.09545 2.81927   1
   7   0   8 6.29226 2.63749   1
   7   0   8 3.66170 3.37153   6
  -8   0  -8 87.4007  9.1777   8
  -8   0  -8 96.6356  7.4477   7
  -8   0  -8 82.3986  7.1403   2
  -9   0  -8 49.3988  6.3197   2
  -9   0  -8 34.9337  7.8159   8
 -10   0  -8 5.15464 4.97058   2
 -10   0  -8 2.05420 6.96607   8
   7  -1  -8 14.3720  5.4600   1
  -7   1   8 25.8887  7.0506   7
  -7   1   8 16.2598  5.4390   6
   6  -1  -8 37.0679  6.2985   1
  -6   1   8 26.6774  6.3477   7
   5  -1  -8 42.4600  6.2387   1
  -5   1   8 43.4511  6.2968   7
   4  -1  -8 150.578  10.931   1
  -4   1   8 181.654  11.178   7
  -4   1   8 187.155  11.700   5
   3  -1  -8 258.475  14.722   1
   3  -1  -8 289.700  15.739   8
  -3   1   8 300.070  18.934   7
  -3   1   8 312.664  16.732   5
   2  -1  -8 299.301  17.170   1
   2  -1  -8 322.387  16.660   8
  -2   1   8 275.494  16.739   5
  -2   1   8 297.365  16.388   7
   1  -1  -8 479.710  28.153   1
   1  -1  -8 435.821  22.043   8
   1  -1  -8 451.878  18.811   4
  -1   1   8 452.203  24.097   7
   0  -1  -8 19.2964  4.6838   8
   0  -1  -8 15.2579  3.2096   1
   0  -1  -8 17.2233  2.0605   4
  -1  -1  -8 72.3565  5.8919   5
  -1  -1  -8 75.7775  6.0096   1
   1   1   8 60.3758  5.7892   8
   1   1   8 64.7516  6.1941   6
   1   1   8 63.7382  3.6805   7
  -2  -1  -8 1320.83   69.43   1
  -2  -1  -8 1358.07   59.56   4
  -2  -1  -8 1398.03   62.54   1
  -2  -1  -8 1321.17   83.43   5
  -2  -1  -8 1384.29   66.00   8
   2   1   8 1267.00   86.12   1
   2   1   8 1458.76   67.73   6
  -3  -1  -8 300.393  16.253   8
  -3  -1  -8 317.291  14.734   1
  -3  -1  -8 287.445  18.266   5
  -3  -1  -8 301.327  18.198   4
   3   1   8 296.478  14.979   6
   3   1   8 310.775  19.358   1
  -4  -1  -8 54.3272  4.9765   1
  -4  -1  -8 63.1856  5.3166   5
  -4  -1  -8 67.9945  6.2798   8
  -4  -1  -8 53.4316  5.3605   4
   4   1   8 58.3012  5.3422   6
   4   1   8 65.4910  4.9428   1
  -5  -1  -8 439.031  25.055   8
  -5  -1  -8 429.178  25.884   5
  -5  -1  -8 440.414  24.442   1
  -5  -1  -8 414.688  21.032   7
   5   1   8 457.483  27.970   1
   5   1   8 471.842  24.888   6
  -6  -1  -8 146.040   9.128   5
  -6  -1  -8 175.172   8.895   7
  -6  -1  -8 184.910  11.173   8
  -6  -1  -8 145.799   8.982   1
   6   1   8 171.914   9.340   1
   6   1   8 178.185  10.235   6
  -7  -1  -8 69.8054  4.9496   1
  -7  -1  -8 68.2441  7.5861   8
  -7  -1  -8 64.4569  5.1421   7
  -7  -1  -8 69.8510  5.0476   5
   7   1   8 58.2076  4.5622   1
   7   1   8 53.5921  5.1585   6
  -8  -1  -8 104.245   8.152   7
  -8  -1  -8 101.120   9.241   8
  -9  -1  -8 18.9026  5.0268   8
 -10  -1  -8 1.90927 5.25518   2
 -10  -1  -8 8.85269 6.75909   8
   7  -2  -8 26.2242  7.4131   1
   6  -2  -8 10.1614  5.4072   1
  -6   2   8 13.2990  6.2402   7
   5  -2  -8 109.569   9.257   1
  -5   2   8 122.550   9.888   5
  -5   2   8 102.816   9.135   7
   4  -2  -8 241.163  16.619   1
  -4   2   8 240.700  13.813   7
  -4   2   8 251.999  16.175   5
   3  -2  -8 204.747  12.437   1
   3  -2  -8 213.871  15.057   8
  -3   2   8 205.370  13.892   5
  -3   2   8 203.139  11.486   7
   2  -2  -8 730.641  40.686   8
   2  -2  -8 681.714  39.194   1
  -2   2   8 747.938  39.027   5
  -2   2   8 782.685  35.639   7
   1  -2  -8 396.618  20.023   1
   1  -2  -8 381.911  22.194   8
  -1   2   8 388.240  19.208   7
  -1   2   8 420.989  21.661   5
   0  -2  -8 193.082  10.559   1
   0  -2  -8 156.833  10.630   8
   0  -2  -8 176.686   7.742   4
   0   2   8 169.616  10.286   5
   0   2   8 177.777   9.134   7
  -1  -2  -8 1095.92   54.12   4
  -1  -2  -8 1078.22   54.66   8
  -1  -2  -8 1100.28   61.60   1
   1   2   8 1137.74   54.84   5
   1   2   8 1080.82   52.96   7
  -2  -2  -8 1703.59   85.00   1
  -2  -2  -8 1813.45   78.38   4
  -2  -2  -8 1731.71   79.48   8
  -2  -2  -8 1615.54   82.33   1
  -2  -2  -8 1701.58   91.99   5
  -3  -2  -8 136.454  10.821   4
  -3  -2  -8 121.632   7.729   1
  -3  -2  -8 125.102   9.008   5
  -3  -2  -8 122.966   8.551   1
  -3  -2  -8 134.179   9.797   8
   3   2   8 121.477   8.049   6
  -4  -2  -8 553.596  30.063   4
  -4  -2  -8 592.414  30.772   1
  -4  -2  -8 497.675  29.543   5
  -4  -2  -8 536.995  29.896   8
  -4  -2  -8 513.933  31.035   1
   4   2   8 589.199  30.041   6
  -5  -2  -8 470.318  26.776   1
  -5  -2  -8 487.126  29.392   8
  -5  -2  -8 483.908  24.646   1
  -5  -2  -8 446.502  26.073   5
  -5  -2  -8 489.993  25.283   3
   5   2   8 468.493  27.712   6
  -6  -2  -8 9.76053 2.88222   5
  -6  -2  -8 6.16753 4.03693   3
  -6  -2  -8 6.88740 2.89176   1
  -6  -2  -8 9.27319 2.85497   1
  -6  -2  -8 6.83943 3.35420   8
  -6  -2  -8 7.86165 1.75219   7
   6   2   8 10.2469  2.9779   6
  -7  -2  -8 220.964  12.391   5
  -7  -2  -8 219.495  11.431   1
  -7  -2  -8 242.234  14.562   3
  -7  -2  -8 235.972  13.200   7
  -7  -2  -8 236.239  14.627   8
   7   2   8 240.723  12.752   6
  -8  -2  -8 151.850  10.763   8
  -8  -2  -8 147.557   9.114   7
  -8  -2  -8 121.904   9.416   3
   8   2   8 130.586   8.060   6
  -9  -2  -8 0.44519 5.91353   8
  -9  -2  -8 10.2582  5.9411   3
 -10  -2  -8 27.6963  7.4625   8
 -10  -2  -8 31.5474  6.6676   2
   6  -3  -8 18.9873  7.3196   1
  -6   3   8 20.0165  7.0997   7
  -6   3   8 10.0370  5.9593   5
   5  -3  -8 137.298  11.418   1
  -5   3   8 121.315  10.087   7
  -5   3   8 120.101  10.404   5
   4  -3  -8 163.953  13.356   1
  -4   3   8 188.873  13.547   5
  -4   3   8 194.615  12.089   7
   3  -3  -8 57.2974  6.0957   1
  -3   3   8 50.8057  5.9131   7
  -3   3   8 41.2315  6.4981   5
   2  -3  -8 350.360  18.456   1
   2  -3  -8 335.440  21.034   8
  -2   3   8 271.446  15.001   7
  -2   3   8 294.115  16.719   5
   1  -3  -8 237.442  17.513   1
   1  -3  -8 241.698  14.912   8
  -1   3   8 248.756  14.209   5
  -1   3   8 260.802  14.212   7
   0  -3  -8 98.4504  7.5726   8
   0  -3  -8 96.8443  8.3868   1
   0   3   8 110.021   6.177   7
   0   3   8 108.623   7.970   5
  -1  -3  -8 1253.41   73.27   4
  -1  -3  -8 1287.93   63.79   8
  -1  -3  -8 1285.12   62.02   1
   1   3   8 1356.56   60.09   7
   1   3   8 1313.32   73.75   5
  -2  -3  -8 534.490  24.467   8
  -2  -3  -8 492.413  28.831   5
  -2  -3  -8 525.877  23.690   4
  -2  -3  -8 523.775  27.673   1
   2   3   8 507.106  21.213   7
   2   3   8 498.846  24.073   5
  -3  -3  -8 173.631   9.150   4
  -3  -3  -8 160.583  10.064   1
  -3  -3  -8 200.294  10.448   1
  -3  -3  -8 168.562   9.243   3
  -3  -3  -8 163.394   9.664   5
  -3  -3  -8 175.306  10.267   8
   3   3   8 182.444   9.680   5
  -4  -3  -8 758.301  34.860   4
  -4  -3  -8 784.704  37.748   1
  -4  -3  -8 770.074  38.664   1
  -4  -3  -8 818.424  41.860   8
  -4  -3  -8 766.959  36.865   3
  -4  -3  -8 800.759  39.364   5
   4   3   8 809.499  41.965   6
  -5  -3  -8 168.338   9.436   5
  -5  -3  -8 162.006   9.941   8
  -5  -3  -8 149.107   8.689   1
  -5  -3  -8 140.473  10.296   3
  -5  -3  -8 153.731   9.503   1
   5   3   8 172.867   9.651   6
  -6  -3  -8 162.270   9.837   1
  -6  -3  -8 168.859   9.013   7
  -6  -3  -8 179.372   9.182   1
  -6  -3  -8 162.202  10.044   3
  -6  -3  -8 162.269  10.287   5
  -6  -3  -8 183.129  10.894   8
   6   3   8 173.557  10.713   6
  -7  -3  -8 298.341  17.174   8
  -7  -3  -8 268.074  17.098   1
  -7  -3  -8 305.703  14.535   5
  -7  -3  -8 326.623  16.800   7
  -7  -3  -8 288.924  17.200   1
  -7  -3  -8 306.670  16.868   3
   7   3   8 283.100  15.198   6
  -8  -3  -8 102.346  11.529   3
  -8  -3  -8 84.4025  6.2061   7
  -8  -3  -8 86.9657  8.2758   8
   8   3   8 86.7851  5.6330   6
  -9  -3  -8 23.1226  6.3573   3
  -9  -3  -8 31.5389  6.7794   8
 -10  -3  -8 38.1614  7.6846   3
 -10  -3  -8 41.8077  7.7752   8
   6  -4  -8 11.3121  6.9646   1
  -6   4   8 24.8402  6.9458   5
   5  -4  -8 16.2389  6.5124   1
  -5   4   8 30.7043  6.6981   7
  -5   4   8 23.6024  6.8747   5
   4  -4  -8 0.99653 5.17336   1
  -4   4   8 6.28880 4.97301   7
  -4   4   8 6.28301 3.95889   5
   3  -4  -8 248.382  18.554   1
  -3   4   8 247.022  15.569   5
  -3   4   8 286.140  15.574   7
   2  -4  -8 309.405  25.247   8
   2  -4  -8 296.133  17.125   1
  -2   4   8 288.472  17.340   7
  -2   4   8 280.867  17.106   5
   1  -4  -8 30.0771  5.6515   1
   1  -4  -8 30.6558  6.0878   8
  -1   4   8 29.9194  5.5500   5
  -1   4   8 33.6366  4.3515   7
   0  -4  -8 361.626  25.996   8
   0  -4  -8 383.991  19.185   1
   0   4   8 376.258  21.179   5
   0   4   8 349.711  20.402   7
  -1  -4  -8 357.120  19.145   8
  -1  -4  -8 379.766  19.508   1
   1   4   8 342.026  18.169   5
   1   4   8 329.170  16.778   7
  -2  -4  -8 103.018   8.146   8
  -2  -4  -8 98.4749  5.0676   3
  -2  -4  -8 97.1712  7.2532   1
   2   4   8 111.560   7.670   5
   2   4   8 98.3507  4.9889   7
  -3  -4  -8 473.376  38.631   1
  -3  -4  -8 498.281  23.426   8
  -3  -4  -8 463.508  24.827   3
  -3  -4  -8 492.503  24.707   4
  -3  -4  -8 472.458  32.064   5
  -3  -4  -8 451.481  34.375   1
   3   4   8 439.283  23.183   5
  -4  -4  -8 985.353  64.819   5
  -4  -4  -8 927.190  59.871   1
  -4  -4  -8 936.183  47.175   4
  -4  -4  -8 970.390  49.645   1
  -4  -4  -8 945.809  51.389   8
  -4  -4  -8 999.667  48.630   3
   4   4   8 921.986  45.788   5
  -5  -4  -8 68.4470  5.5144   3
  -5  -4  -8 62.2514  6.4590   8
  -5  -4  -8 50.8091  6.0531   1
  -5  -4  -8 56.2361  5.1219   1
  -5  -4  -8 68.1339  5.3292   5
  -6  -4  -8 203.119  10.301   7
  -6  -4  -8 216.875  12.238   3
  -6  -4  -8 209.101  13.419   1
  -6  -4  -8 207.459  13.171   1
  -6  -4  -8 208.156  11.940   5
  -6  -4  -8 219.202   9.791   7
  -6  -4  -8 214.575  12.630   8
   6   4   8 210.464  11.324   6
  -7  -4  -8 105.959   8.620   8
  -7  -4  -8 124.516   8.941   3
  -7  -4  -8 103.173   6.638   7
  -7  -4  -8 104.672   6.195   1
   7   4   8 118.386   6.808   6
  -8  -4  -8 89.2260  8.3376   8
  -8  -4  -8 91.0791  5.9369   7
  -8  -4  -8 95.7837  8.5657   3
   8   4   8 87.0567  5.9086   6
  -9  -4  -8 23.9824  6.4354   3
  -9  -4  -8 30.8095  7.2790   8
 -10  -4  -8 7.75036 6.28002   3
 -10  -4  -8 4.49827 5.46230   8
   5  -5  -8 27.9440  7.3501   1
  -5   5   8 32.9169  7.4127   7
  -5   5   8 39.9602  8.1203   5
   4  -5  -8 12.7300  6.1233   1
  -4   5   8 12.8680  5.8923   7
  -4   5   8 21.5238  6.4662   5
   3  -5  -8 170.543  12.046   1
  -3   5   8 196.111  15.087   5
  -3   5   8 152.771  11.186   7
  -3   5   8 188.372  12.948   1
  -2   5   8 121.925   8.629   7
  -2   5   8 119.622   9.219   1
  -2   5   8 112.011   9.000   5
  -1   5   8 54.0644  5.4098   7
  -1   5   8 45.9176  6.5572   5
  -1   5   8 58.7020  6.8894   1
   0  -5  -8 170.783  13.470   7
   0  -5  -8 163.449  11.702   8
   0   5   8 206.789  13.044   5
   0   5   8 191.870  12.562   1
   0   5   8 198.328   9.454   4
   0   5   8 204.539  11.875   7
  -1  -5  -8 30.8365  6.0851   8
  -1  -5  -8 30.4907  3.3486   7
   1   5   8 24.4533  3.2373   4
   1   5   8 22.8362  5.1878   1
   1   5   8 26.7900  3.1186   7
   1   5   8 37.7112  5.5161   5
  -2  -5  -8 72.2287  6.5976   8
  -2  -5  -8 65.4737  5.2980   7
   2   5   8 67.8817  5.3173   4
   2   5   8 80.3480  4.6039   7
   2   5   8 67.5434  6.6952   5
   2   5   8 77.2040  7.0187   1
  -3  -5  -8 773.107  37.326   7
  -3  -5  -8 836.874  43.262   1
  -3  -5  -8 821.061  47.896   8
   3   5   8 748.269  45.950   5
   3   5   8 842.951  43.823   4
   3   5   8 825.793  42.882   1
  -4  -5  -8 228.867  11.239   7
  -4  -5  -8 229.091  17.816   5
  -4  -5  -8 215.805  13.939   8
  -4  -5  -8 240.060  14.613   1
  -4  -5  -8 224.783  12.787   4
   4   5   8 239.772  13.419   5
   4   5   8 201.828  12.432   4
  -5  -5  -8 277.851  12.501   7
  -5  -5  -8 283.166  15.303   5
  -5  -5  -8 291.551  17.074   8
  -5  -5  -8 296.839  15.630   3
  -5  -5  -8 289.788  15.764   1
  -5  -5  -8 248.835  17.328   1
   5   5   8 263.229  14.476   5
   5   5   8 253.157  14.520   4
  -6  -5  -8 209.341  12.817   1
  -6  -5  -8 201.045  11.425   7
  -6  -5  -8 233.693  13.153   3
  -6  -5  -8 203.109  12.829   5
  -6  -5  -8 223.617  12.045   7
  -6  -5  -8 220.794  12.633   1
  -6  -5  -8 233.263  12.586   8
   6   5   8 213.068  12.379   5
  -7  -5  -8 43.2214  3.7695   7
  -7  -5  -8 33.1841  5.6219   8
  -7  -5  -8 42.6388  3.9531   1
   7   5   8 32.3194  3.9121   6
  -8  -5  -8 28.8106  5.5926   8
  -8  -5  -8 42.9475  4.0825   7
  -8  -5  -8 24.3294  6.6254   3
   8   5   8 34.3007  3.3073   6
  -9  -5  -8 106.929   8.647   8
  -9  -5  -8 79.4137  8.9226   3
 -10  -5  -8 7.41229 4.50810   3
 -10  -5  -8 9.53172 5.53466   8
   4  -6  -8 31.2095  7.5989   1
  -4   6   8 46.4829  8.1678   1
  -4   6   8 43.2892  7.7209   5
  -4   6   8 37.1627  7.4743   7
  -3   6   8 101.343  10.162   1
  -3   6   8 109.687   9.432   7
  -3   6   8 103.795  10.203   5
  -2   6   8 83.0776  7.8999   5
  -2   6   8 69.1244  7.2489   7
  -2   6   8 66.6370  7.2460   1
  -1   6   8 127.753  11.016   1
  -1   6   8 137.354  11.489   5
  -1   6   8 145.481   9.617   7
   0  -6  -8 29.4552  4.8093   7
   0  -6  -8 31.2607  2.4438   3
   0  -6  -8 32.5455  6.3267   8
   0   6   8 39.1372  4.6205   7
  -1  -6  -8 57.2626  7.2124   8
  -1  -6  -8 55.2255  5.1251   7
   1   6   8 54.0266  4.9142   7
   1   6   8 53.2126  6.0174   1
   1   6   8 65.8705  7.0947   5
   1   6   8 53.8631  4.4488   4
  -2  -6  -8 324.910  17.276   8
  -2  -6  -8 311.190  17.264   7
   2   6   8 339.577  19.469   1
   2   6   8 339.560  17.516   5
   2   6   8 329.799  16.500   4
   2   6   8 308.277  15.993   7
  -3  -6  -8 732.323  43.289   8
  -3  -6  -8 701.158  34.325   7
   3   6   8 717.046  35.604   4
   3   6   8 681.632  39.031   5
   3   6   8 700.104  38.275   1
  -4  -6  -8 6.28828 2.26733   7
  -4  -6  -8 12.6362  6.0664   8
   4   6   8 3.54896 3.44400   4
   4   6   8 2.46506 3.66967   1
   4   6   8 6.77861 3.74810   5
  -5  -6  -8 63.6834  4.2787   7
  -5  -6  -8 63.9865  5.9098   5
  -5  -6  -8 53.7607  6.6263   8
  -5  -6  -8 66.1788  5.6598   1
   5   6   8 82.2854  8.0747   4
  -6  -6  -8 95.3625  7.4506   1
  -6  -6  -8 103.848   7.294   1
  -6  -6  -8 113.269   8.453   8
  -6  -6  -8 126.319  20.153   5
   6   6   8 127.801   7.845   5
  -7  -6  -8 75.6778  5.9104   1
  -7  -6  -8 91.9426  7.7618   8
  -7  -6  -8 85.9044  7.5421   3
   7   6   8 82.1868  6.1969   5
   7   6   8 85.8236  7.9926   4
  -8  -6  -8 36.6176  7.0329   3
  -8  -6  -8 37.7944  5.8002   8
   8   6   8 31.1642  3.3813   6
  -9  -6  -8 124.007  10.968   8
  -9  -6  -8 169.956  12.081   3
 -10  -6  -8 3.05611 6.16481   8
 -10  -6  -8 -7.2654  6.2239   3
  -4   7   8 30.7334  7.8669   1
  -3   7   8 42.9942  8.1560   5
  -3   7   8 38.2098  7.7452   1
  -2   7   8 40.0916  7.0433   7
  -2   7   8 44.7738  7.8423   1
  -2   7   8 29.4194  7.3718   5
  -1   7   8 189.032  14.777   1
  -1   7   8 185.570  12.241   7
  -1   7   8 173.320  13.677   5
   0   7   8 150.736  11.352   1
   0   7   8 143.936   8.681   4
   0   7   8 141.281  10.397   7
   0   7   8 165.490  11.938   5
  -1  -7  -8 54.4830  7.4981   8
   1   7   8 70.8190  5.9737   7
   1   7   8 76.9884  8.1525   5
   1   7   8 67.5929  5.4444   4
   1   7   8 66.4941  6.8346   1
  -2  -7  -8 369.841  23.291   7
  -2  -7  -8 372.337  21.263   8
   2   7   8 360.359  22.790   1
   2   7   8 366.518  17.573   4
   2   7   8 358.095  20.026   7
   2   7   8 361.698  19.882   5
  -3  -7  -8 32.6641  3.9747   7
  -3  -7  -8 29.4002  6.0272   8
   3   7   8 42.8907  6.1279   1
  -4  -7  -8 66.4280  4.9318   7
  -4  -7  -8 52.7713  7.3621   8
   4   7   8 58.1886  6.8878   1
   4   7   8 57.8956  6.2200   5
   4   7   8 52.1691  6.3029   4
  -5  -7  -8 158.483  10.495   8
   5   7   8 150.282  11.914   1
   5   7   8 140.005   9.063   5
   5   7   8 132.125   9.964   4
  -6  -7  -8 33.6779  6.1952   8
  -6  -7  -8 36.4199  4.5868   1
   6   7   8 34.9647  5.0515   1
   6   7   8 43.1769  6.2582   4
   6   7   8 31.3909  4.5752   5
  -7  -7  -8 2.65543 4.37152   8
  -7  -7  -8 9.29884 3.36207   1
   7   7   8 3.01194 5.05281   4
   7   7   8 10.6100  3.0728   5
  -8  -7  -8 100.714   8.493   8
   8   7   8 77.7857  5.8820   6
   8   7   8 88.6998  9.1284   4
  -9  -7  -8 13.4230  6.3687   3
  -9  -7  -8 8.05425 4.81638   8
   9   7   8 13.2383  6.5927   4
 -10  -7  -8 11.7258  5.2850   3
 -10  -7  -8 4.78103 6.25947   8
  -3   8   8 11.4341  7.2443   1
  -2   8   8 29.4902  6.7470   7
  -2   8   8 22.7881  7.5991   5
  -1   8   8 73.2171  9.4618   1
  -1   8   8 87.0619  9.4205   5
  -1   8   8 72.5747  8.4771   7
   0   8   8 12.2503  4.4138   7
   0   8   8 23.6770  6.8266   5
   0   8   8 16.8473  6.4324   1
   1   8   8 122.186  12.133   1
   1   8   8 114.217  10.133   5
   1   8   8 135.522   9.174   7
   1   8   8 122.272   8.028   4
  -2  -8  -8 146.855  13.088   8
   2   8   8 139.432  10.909   5
   2   8   8 168.788  11.653   1
   2   8   8 150.590   9.438   4
   2   8   8 148.080   9.575   7
  -3  -8  -8 1.88152 5.13756   8
   3   8   8 5.78890 4.44073   4
   3   8   8 3.63772 4.79350   5
   3   8   8 6.36940 3.59463   7
   3   8   8 7.66328 4.98093   1
  -4  -8  -8 175.185  11.612   8
   4   8   8 169.373  11.475   1
   4   8   8 183.027  13.993   5
  -5  -8  -8 154.826  10.214   8
   5   8   8 128.188   9.674   1
   5   8   8 135.520   9.567   5
   5   8   8 154.541  10.187   4
  -6  -8  -8 9.16566 4.88323   8
   6   8   8 15.7254  5.5122   4
   6   8   8 18.4754  4.4461   1
   6   8   8 25.5478  4.9650   5
  -7  -8  -8 54.8002  7.2143   8
   7   8   8 60.2634  5.9050   1
   7   8   8 46.3022  6.2021   4
   7   8   8 72.8889  5.7795   5
  -8  -8  -8 36.6385  6.5374   8
   8   8   8 28.5223  6.7251   4
  -9  -8  -8 4.09339 4.35331   8
   9   8   8 17.9836  6.9811   4
 -10  -8  -8 23.2323  7.3613   3
  -1   9   8 15.9257  5.7760   7
  -1   9   8 14.4641  7.2198   1
   0   9   8 8.12577 6.26890   5
   0   9   8 5.94072 5.07124   7
   0   9   8 4.25581 6.02081   1
   1   9   8 13.2118  4.7157   7
   1   9   8 15.6746  6.2723   1
   1   9   8 23.1445  6.9127   5
   2   9   8 14.3920  4.2759   7
   2   9   8 20.3192  6.3299   5
   2   9   8 11.9579  6.1759   1
   2   9   8 18.6958  4.9793   4
  -3  -9  -8 31.3278  6.9883   8
   3   9   8 27.9932  4.5624   7
   3   9   8 28.6546  6.5480   1
   3   9   8 28.6122  6.4035   5
   3   9   8 32.4969  5.1292   4
  -4  -9  -8 76.3463  8.0242   8
   4   9   8 66.8588  7.7696   1
   4   9   8 70.5663  7.2775   4
  -5  -9  -8 31.8965  6.0513   8
   5   9   8 26.7761  5.4866   1
   5   9   8 28.9960  5.9874   4
   5   9   8 34.9675  5.7953   5
  -6  -9  -8 16.1726  5.8794   8
   6   9   8 7.23293 5.27877   4
   6   9   8 5.76912 4.91271   1
   6   9   8 4.56965 4.75875   5
  -7  -9  -8 21.6189  5.1666   8
   7   9   8 26.4325  4.9395   5
   7   9   8 23.0515  6.4250   4
  -8  -9  -8 1.67917 4.15178   8
   8   9   8 1.98604 5.83167   4
   9   9   8 8.09835 7.06131   4
   1  10   8 44.5721  6.8085   7
   1  10   8 32.7453  6.3215   1
   1  10   8 29.8162  7.6937   5
   2  10   8 5.97646 4.63842   7
   2  10   8 8.84248 6.46502   1
   2  10   8 5.30726 6.10609   5
   2  10   8 1.21064 3.92941   4
   3  10   8 34.6959  8.3792   1
   3  10   8 43.5183  6.9527   4
   3  10   8 52.9679  7.8302   5
  -4 -10  -8 37.9093  6.4529   8
   4  10   8 34.4217  6.2919   4
   4  10   8 28.2405  6.6352   1
   4  10   8 36.4698  6.6480   5
  -5 -10  -8 -0.0859  4.5425   8
   5  10   8 7.98601 5.11576   5
   5  10   8 10.2321  5.6041   4
   5  10   8 4.64481 6.23274   1
  -6 -10  -8 6.05252 5.65760   8
   6  10   8 3.54783 4.41817   5
   6  10   8 6.16387 4.77566   1
   6  10   8 3.12375 5.47355   4
   7  10   8 7.13336 3.88073   1
   7  10   8 9.73663 5.71394   4
   7  10   8 11.3703  5.3427   5
   8  10   8 2.73666 5.63798   4
   3  11   8 22.1852  7.4301   5
   3  11   8 18.6796  6.7875   1
   4  11   8 22.3246  7.2474   5
   4  11   8 17.8453  6.0697   4
   5  11   8 14.1738  6.3519   4
   5  11   8 20.7007  6.5672   5
   6  11   8 34.1314  7.9148   4
   6  11   8 28.2393  6.4758   1
   3   8  -9 7.53429 6.94197   1
   2   8  -9 28.3655  7.8976   5
   2   8  -9 16.9250  5.4822   1
   1   8  -9 88.5980 10.4448   5
   1   8  -9 93.0888 10.3119   1
   0   8  -9 24.0578  7.2512   1
  -1   8  -9 -6.2784  6.4199   1
   4   7  -9 65.0660  8.4849   1
  -4  -7   9 55.4164  8.2131   6
   3   7  -9 26.5584  6.9376   1
  -3  -7   9 4.69587 5.98950   6
   2   7  -9 37.8451  7.3555   1
  -2  -7   9 46.7062  7.6046   6
   1   7  -9 27.3708  7.0940   1
   1   7  -9 40.8449  7.4977   5
  -1  -7   9 34.7847  7.7807   6
   0   7  -9 7.44704 6.24042   5
   0   7  -9 14.1342  4.2165   8
   0   7  -9 12.0692  6.4899   1
  -1   7  -9 91.5375  9.7357   1
  -1   7  -9 105.589   8.765   8
  -1   7  -9 84.4434  9.7308   5
  -2   7  -9 51.6442  8.6515   1
  -2   7  -9 48.5496  8.1467   5
  -2   7  -9 57.9977  6.8822   8
  -3   7  -9 1.23449 6.47075   1
  -3   7  -9 1.22992 6.46743   5
  -3   7  -9 -0.2408  5.5020   8
   5   6  -9 50.4956  6.6948   4
   5   6  -9 42.8814  7.4784   1
  -5  -6   9 40.1206  7.2695   6
   4   6  -9 42.5226  7.2959   1
  -4  -6   9 42.7424  7.4446   6
   3   6  -9 17.5479  6.2129   1
   2   6  -9 66.9991  7.1568   1
   2   6  -9 66.8006  5.6468   8
  -2  -6   9 49.4767  7.6921   6
   1   6  -9 54.4490  5.5987   8
   1   6  -9 66.1470  7.9728   1
  -1  -6   9 56.4003  8.2401   6
   0   6  -9 16.1474  4.4503   8
   0   6  -9 18.1459  6.0111   1
   0  -6   9 8.75404 5.77550   6
  -1   6  -9 134.419  10.847   1
  -1   6  -9 148.197  11.338   5
  -1   6  -9 129.672   9.835   8
   1  -6   9 137.156  11.207   6
  -2   6  -9 59.0580  7.2627   8
  -2   6  -9 61.2585  7.9781   5
  -2   6  -9 40.5726  7.3375   1
  -3   6  -9 11.0385  6.0278   5
  -3   6  -9 -4.5454  5.2944   8
  -3   6  -9 1.94140 5.55027   1
  -4   6  -9 66.7877  8.7669   1
  -4   6  -9 85.3612  9.2079   8
  -4   6  -9 76.8085  8.1147   7
  -4   6  -9 73.1108  9.1310   5
  -5   6  -9 23.7781  7.0057   5
  -5   6  -9 10.2175  6.7584   8
  -5   6  -9 15.8301  6.8746   7
  -5   6  -9 24.8558  6.8621   1
   6   5  -9 48.3084  7.8813   1
  -6  -5   9 67.5333  7.9929   6
   5   5  -9 112.682   9.776   1
   5   5  -9 86.3524  7.5582   4
  -5  -5   9 99.0140  9.3273   6
   4   5  -9 15.5612  4.6259   1
  -4  -5   9 13.7219  5.3900   6
   3   5  -9 41.1908  4.8945   8
   3   5  -9 41.3767  6.7553   1
  -3  -5   9 34.9158  5.4057   6
   2   5  -9 131.102   9.887   1
   2   5  -9 115.213   7.789   8
  -2  -5   9 88.6479  8.4323   6
   1   5  -9 3.61420 3.71880   1
   1   5  -9 11.9339  4.1233   8
   0   5  -9 273.641  15.984   1
   0   5  -9 274.010  16.697   8
   0  -5   9 279.272  18.907   6
  -1   5  -9 134.994  10.399   1
  -1   5  -9 167.055  11.030   8
   1  -5   9 121.584  10.582   6
  -2   5  -9 1.54040 5.02283   8
  -2   5  -9  9.9999  4.2480   5
  -2   5  -9 4.78375 3.77424   1
   2  -5   9 5.12479 3.84088   6
  -3   5  -9 45.4087  6.1974   8
  -3   5  -9 37.5336  6.5214   1
  -3   5  -9 26.1440  6.2156   5
  -4   5  -9 125.158  10.093   8
  -4   5  -9 110.589  10.419   1
  -4   5  -9 141.616  12.515   5
  -4   5  -9 112.778   9.282   7
  -5   5  -9 0.72445 5.80516   7
  -5   5  -9 -0.8667  5.9294   8
  -5   5  -9 -7.3719  5.4631   5
  -5   5  -9 8.39891 5.55944   1
  -6   5  -9 48.5980  7.5037   5
  -6   5  -9 57.9066  8.3900   1
  -6   5  -9 40.6881  6.9270   7
  -6   5  -9 40.9132  8.2631   8
   6   4  -9 41.3597  7.2294   1
  -6  -4   9 30.5355  7.2143   6
   5   4  -9 67.5121  7.8298   1
  -5  -4   9 69.6659  8.5219   6
   4   4  -9 30.1122  4.7815   8
   4   4  -9 24.5567  4.8299   1
  -4  -4   9 31.5454  6.0914   6
   3   4  -9 190.728  12.368   1
   3   4  -9 172.550  10.819   8
  -3  -4   9 166.175  13.052   6
   2   4  -9 156.514  10.335   1
   2   4  -9 160.070  10.461   8
  -2  -4   9 153.908  11.019   6
   1   4  -9 122.445   8.308   2
   1   4  -9 121.696   9.189   8
   1   4  -9 138.034   9.876   1
  -1  -4   9 152.118  10.542   6
   0   4  -9 670.155  39.923   2
   0   4  -9 719.144  41.759   8
   0   4  -9 714.406  34.912   1
   0  -4   9 621.418  40.272   6
  -1   4  -9 29.4445  5.7631   1
  -1   4  -9 29.5746  4.8063   8
   1  -4   9 20.1918  5.6942   6
  -2   4  -9 1.68309 4.93154   8
  -2   4  -9 1.35333 4.67479   1
   2  -4   9 -2.8456  4.7260   6
  -3   4  -9 243.281  15.899   1
  -3   4  -9 243.389  16.166   8
   3  -4   9 253.738  15.723   6
  -4   4  -9 31.5022  5.9796   5
  -4   4  -9 44.1327  5.1047   7
   4  -4   9 32.1103  6.0802   6
  -5   4  -9 43.2223  7.6991   1
  -5   4  -9 46.6550  7.4251   8
  -5   4  -9 61.0009  7.9147   5
  -6   4  -9 176.913  13.074   8
  -6   4  -9 145.178  11.431   1
  -6   4  -9 154.795  11.162   5
  -6   4  -9 143.896  10.876   7
  -7   4  -9 19.1509  5.2377   1
  -7   4  -9 19.2062  5.6683   5
  -7   4  -9 18.4113  5.8194   8
   6   3  -9 50.0229  6.7520   1
  -6  -3   9 52.5248  6.9000   6
  -6  -3   9 49.7981  7.5570   7
   5   3  -9 0.90002 4.51787   1
  -5  -3   9 9.37149 5.79723   6
   4   3  -9 174.690  10.643   4
   4   3  -9 181.890  12.725   8
   4   3  -9 212.078  12.512   1
  -4  -3   9 209.767  12.834   6
   3   3  -9 306.999  16.545   8
   3   3  -9 282.393  16.735   1
  -3  -3   9 301.604  19.022   6
   2   3  -9 5.08817 3.52652   1
   2   3  -9 11.6437  5.0735   8
  -2  -3   9 12.3906  4.9903   6
   1   3  -9 596.208  29.848   1
   1   3  -9 648.627  39.322   8
  -1  -3   9 620.177  40.602   6
   0   3  -9 42.1486  6.4076   1
   0   3  -9 49.8994  5.4657   8
   0  -3   9 51.1642  5.1891   7
   0  -3   9 59.0019  6.7662   6
  -1   3  -9 19.6878  4.4252   8
  -1   3  -9 34.8000  5.9406   1
   1  -3   9 15.4141  5.2873   6
   1  -3   9 28.2395  3.8389   7
  -2   3  -9 199.678  11.369   1
  -2   3  -9 184.527  11.097   8
   2  -3   9 151.581  11.584   6
   2  -3   9 165.392  10.197   7
  -3   3  -9 274.824  14.820   8
  -3   3  -9 271.511  16.699   1
   3  -3   9 288.876  15.602   6
   3  -3   9 250.344  14.541   7
  -4   3  -9 -2.4670  4.0790   1
  -4   3  -9 6.59986 3.56603   7
  -4   3  -9 8.13514 5.16720   8
   4  -3   9 -2.5160  4.4840   6
   4  -3   9 2.99099 2.77348   7
  -5   3  -9 188.072  12.268   8
  -5   3  -9 149.442   9.757   7
  -5   3  -9 173.692  12.428   5
  -5   3  -9 172.037  11.239   1
   5  -3   9 174.673  11.673   6
  -6   3  -9 54.5255  4.9367   2
  -6   3  -9 59.5843  6.7343   5
  -6   3  -9 52.5985  7.8237   8
  -6   3  -9 45.4850  6.2535   7
  -6   3  -9 45.1202  6.1533   1
  -7   3  -9 6.51318 4.44947   5
  -7   3  -9 11.3987  5.1437   8
  -7   3  -9 7.67398 4.98421   1
   7   2  -9 4.30413 5.54515   1
   6   2  -9 42.4249  6.6986   1
  -6  -2   9 39.7567  7.0924   7
  -6  -2   9 40.7229  6.3326   6
   5   2  -9 29.7246  5.8912   1
  -5  -2   9 26.4692  5.7390   7
  -5  -2   9 31.1387  6.0714   6
   4   2  -9 212.626  14.559   1
   4   2  -9 196.056   9.886   4
   4   2  -9 236.275  14.174   8
  -4  -2   9 208.491  13.176   6
   3   2  -9 266.477  14.949   8
   3   2  -9 265.616  15.740   1
  -3  -2   9 282.598  15.610   6
   2   2  -9 78.5807  6.7368   8
  -2  -2   9 65.4772  7.1664   6
   1   2  -9 213.857  12.155   1
   1   2  -9 192.787  13.696   8
   0   2  -9 158.230  10.276   8
   0   2  -9 185.325  11.033   1
   0  -2   9 188.015   9.903   7
   0  -2   9 187.479  11.678   6
  -1   2  -9 262.732  13.853   8
  -1   2  -9 262.508  15.515   1
   1  -2   9 246.180  12.917   7
   1  -2   9 272.670  14.893   6
  -2   2  -9 1080.63   46.35   8
  -2   2  -9 1072.85   51.19   1
   2  -2   9 954.960  46.086   3
   2  -2   9 954.042  47.250   7
   2  -2   9 977.917  51.194   6
  -3   2  -9 225.123  12.791   8
  -3   2  -9 193.234  11.176   1
   3  -2   9 190.246  10.589   7
   3  -2   9 196.346  12.037   6
  -4   2  -9 67.0931  6.6465   1
  -4   2  -9 64.8611  7.0248   8
   4  -2   9 81.9008  7.3133   6
   4  -2   9 81.4590  5.7501   7
  -5   2  -9 228.584  13.798   1
  -5   2  -9 233.422  13.387   7
  -5   2  -9 206.780  12.772   8
   5  -2   9 201.394  13.596   7
   5  -2   9 214.030  14.749   6
  -6   2  -9 15.0263  5.9198   8
  -6   2  -9 21.1614  4.3863   7
  -6   2  -9 13.5882  4.3841   5
  -6   2  -9 23.0429  8.6402   1
   6  -2   9 23.7056  5.0560   6
  -7   2  -9 20.6246  4.2568   7
  -7   2  -9 12.5507  4.2195   2
  -7   2  -9 17.6391  5.3910   5
  -7   2  -9 19.5690  4.9622   1
  -7   2  -9 23.3636  6.8626   8
  -8   2  -9 56.8593 10.1999   8
  -8   2  -9 74.1833  7.9347   2
   7   1  -9 37.3105  6.7130   1
   6   1  -9 4.06073 5.05144   1
  -6  -1   9 8.28925 5.11409   6
  -6  -1   9 4.96953 5.59609   7
   5   1  -9 92.8311 10.1600   1
  -5  -1   9 85.1828  8.2232   7
  -5  -1   9 87.0972  8.4675   6
   4   1  -9 204.730  15.733   1
  -4  -1   9 254.077  13.205   7
  -4  -1   9 219.448  15.951   6
   3   1  -9 21.5114  5.6428   1
   3   1  -9 31.2450  2.4314   4
   3   1  -9 26.9513  6.1863   8
  -3  -1   9 34.6008  4.9730   6
  -3  -1   9 30.0262  4.7559   7
   2   1  -9 263.048  14.628   8
   2   1  -9 294.971  17.321   1
   1   1  -9 304.964  16.704   1
   1   1  -9 319.106  16.460   8
  -1  -1   9 307.605  16.482   6
   0   1  -9 142.672   9.557   1
   0   1  -9 172.133   9.962   8
   0  -1   9 169.393  10.490   6
   0  -1   9 145.215   8.120   7
  -1   1  -9 324.580  20.063   8
  -1   1  -9 334.006  18.010   1
   1  -1   9 340.845  18.202   7
   1  -1   9 375.023  18.297   6
   1  -1   9 340.428  19.949   3
  -2   1  -9 725.170  43.617   1
  -2   1  -9 742.522  43.715   8
   2  -1   9 809.144  33.877   3
   2  -1   9 796.439  36.353   7
   2  -1   9 837.569  37.376   6
  -3   1  -9 59.9730  6.3230   8
   3  -1   9 48.4852  3.9250   7
   3  -1   9 53.8634  6.2032   6
   3  -1   9 57.6957  5.2664   3
  -4   1  -9 259.219  14.808   1
  -4   1  -9 241.649  15.056   8
   4  -1   9 218.488  10.901   7
   4  -1   9 240.779  13.447   6
  -5   1  -9 116.122   7.982   1
  -5   1  -9 107.384   7.194   7
  -5   1  -9 122.230   9.235   8
   5  -1   9 132.493   9.125   6
   5  -1   9 109.689   6.338   7
  -6   1  -9 12.1637  3.9844   5
  -6   1  -9 9.74444 3.09330   7
  -6   1  -9 6.50833 5.56968   8
  -6   1  -9 4.81090 4.12785   1
   6  -1   9 12.0289  5.0494   6
  -7   1  -9 66.1102  6.5149   5
  -7   1  -9 66.1638  5.8053   1
  -7   1  -9 76.3070  6.0793   7
  -8   1  -9 67.9076  6.7032   2
  -8   1  -9 86.7352  9.5206   8
  -9   1  -9 1.24081 4.30066   2
  -9   1  -9 5.51720 6.36349   8
   6   0  -9 8.00152 5.70187   1
  -6   0   9 3.89831 4.97186   6
  -6   0   9 3.73196 5.22894   7
   5   0  -9 93.8501  8.8020   1
  -5   0   9 93.2793  8.6394   6
  -5   0   9 93.5733  9.1625   7
   4   0  -9 81.4486  7.2585   1
  -4   0   9 90.5851  7.9958   7
  -4   0   9 84.7320  8.0167   6
   3   0  -9 11.9913  5.1087   1
  -3   0   9 19.6569  1.6850   3
  -3   0   9 15.3856  4.7681   7
   2   0  -9 352.393  24.516   8
   2   0  -9 356.256  22.285   1
   2   0  -9 350.154  14.685   4
   2   0  -9 337.311  14.806   4
  -2   0   9 396.613  17.532   7
  -2   0   9 365.410  20.532   6
   1   0  -9 229.203  12.628   1
   1   0  -9 221.434  13.831   8
  -1   0   9 224.518  14.148   6
  -1   0   9 219.196  11.390   7
  -1   0   9 193.779  10.498   3
   0   0  -9 287.033  18.970   8
   0   0  -9 297.576  15.938   1
   0   0   9 277.236  15.469   3
   0   0   9 287.848  14.635   7
   0   0   9 287.161  17.609   6
  -1   0  -9 821.787  38.140   8
  -1   0  -9 777.208  39.718   1
   1   0   9 753.614  38.160   6
   1   0   9 708.273  35.843   3
   1   0   9 710.177  34.697   7
  -2   0  -9 113.945   8.565   8
  -2   0  -9 103.073   7.661   1
   2   0   9 108.911   8.433   6
   2   0   9 114.618   6.544   3
   2   0   9 116.643   5.879   7
  -3   0  -9 11.6537  3.5509   8
  -3   0  -9 16.0006  4.1176   1
   3   0   9 20.2293  3.7089   3
   3   0   9 17.5046  1.5321   7
   3   0   9 15.0519  4.5162   6
  -4   0  -9 593.405  32.774   8
  -4   0  -9 586.857  30.530   1
   4   0   9 596.190  32.726   3
   4   0   9 602.708  33.133   6
   4   0   9 606.252  26.417   7
  -5   0  -9 85.8336  7.8599   8
  -5   0  -9 80.7306  4.6262   7
  -5   0  -9 87.5936  6.3626   1
   5   0   9 71.1850  6.5158   6
  -6   0  -9 82.8199  5.4351   7
  -6   0  -9 69.6305  6.2790   1
  -6   0  -9 66.9339  8.2822   8
   6   0   9 88.9286  8.5486   1
  -7   0  -9 224.840  14.588   7
  -7   0  -9 232.762  18.131   8
  -7   0  -9 248.233  16.234   1
  -7   0  -9 254.713  13.666   5
   7   0   9 228.923  13.724   6
  -8   0  -9 39.4801  7.6910   8
  -9   0  -9 13.1726  5.0973   2
  -9   0  -9 20.3278  6.9547   8
   6  -1  -9 13.0632  5.9882   1
  -6   1   9 13.7817  5.7922   6
  -6   1   9 5.36333 5.72217   7
   5  -1  -9 53.4962  7.4384   1
  -5   1   9 64.6809  7.7549   6
  -5   1   9 72.9318  7.5254   7
   4  -1  -9 20.3784  5.5427   1
  -4   1   9 29.1789  5.2118   7
   3  -1  -9 289.074  15.561   1
   3  -1  -9 272.690  20.047   8
  -3   1   9 248.675  14.406   7
   2  -1  -9 512.860  25.381   1
   2  -1  -9 531.673  31.883   8
  -2   1   9 507.502  27.870   6
  -2   1   9 504.256  25.271   7
   1  -1  -9 142.662   9.833   8
   1  -1  -9 137.934   5.394   4
   1  -1  -9 128.969   9.241   1
  -1   1   9 119.161   9.293   6
  -1   1   9 119.079   7.196   7
   0  -1  -9 437.631  22.927   1
   0  -1  -9 456.435  23.118   8
   0  -1  -9 437.785  22.254   4
   0   1   9 476.908  25.081   7
   0   1   9 476.447  22.345   6
  -1  -1  -9 655.172  31.527   4
  -1  -1  -9 633.224  31.403   8
  -1  -1  -9 601.263  30.851   1
   1   1   9 723.413  32.479   6
   1   1   9 677.443  32.155   7
  -2  -1  -9 11.4051  3.1819   4
  -3  -1  -9 597.732  30.482   8
  -3  -1  -9 594.886  42.415   4
  -3  -1  -9 603.763  30.467   1
   3   1   9 608.896  34.591   6
  -4  -1  -9 740.471  35.301   8
  -4  -1  -9 730.751  32.890   1
   4   1   9 710.578  33.014   6
  -5  -1  -9 6.07793 3.73458   5
  -5  -1  -9 11.4756  4.1880   1
   5   1   9 12.7220  3.0549   1
   5   1   9 8.66607 4.48051   6
  -6  -1  -9 234.857  13.381   1
  -6  -1  -9 220.581  16.424   5
  -6  -1  -9 269.096  15.048   8
  -6  -1  -9 231.639  12.173   7
   6   1   9 214.683  13.730   1
   6   1   9 226.605  15.027   6
  -7  -1  -9 89.9116  5.5535   7
  -7  -1  -9 94.8108  6.6422   1
  -7  -1  -9 109.887   9.145   8
  -8  -1  -9 3.68277 6.01852   8
   8   1   9 -1.5875  2.8858   6
  -9  -1  -9 28.8391  7.5058   8
 -10  -1  -9 9.79215 6.81415   2
  -6   2   9 15.7855  5.2272   7
   5  -2  -9 47.8297  7.3437   1
  -5   2   9 35.2498  6.5396   7
  -5   2   9 38.7222  7.0905   5
   4  -2  -9 28.8981  5.2144   1
  -4   2   9 29.8223  6.5017   7
  -4   2   9 38.1195  6.8956   5
   3  -2  -9 457.992  27.759   1
   3  -2  -9 418.555  24.218   8
  -3   2   9 439.665  25.429   7
  -3   2   9 427.422  26.255   5
   2  -2  -9 151.701  11.232   1
   2  -2  -9 159.162  11.149   8
  -2   2   9 165.574  10.956   5
  -2   2   9 164.070   9.624   7
   1  -2  -9 47.5128  6.2718   1
   1  -2  -9 41.4393  6.7466   8
  -1   2   9 53.6476  6.3939   5
   0  -2  -9 484.223  22.912   1
   0  -2  -9 453.273  20.365   4
   0  -2  -9 495.750  25.049   8
   0   2   9 415.583  23.174   7
   0   2   9 465.714  24.344   5
  -1  -2  -9 72.7619  7.3353   8
  -1  -2  -9 78.9110  6.3249   1
  -1  -2  -9 69.7868  4.5630   4
   1   2   9 88.2890  4.3499   7
  -2  -2  -9 215.604  13.450   8
  -2  -2  -9 205.770  11.662   1
  -2  -2  -9 204.385  10.722   4
   2   2   9 231.751  12.402   6
  -3  -2  -9 887.659  43.260   8
  -3  -2  -9 862.286  38.344   1
  -3  -2  -9 829.837  39.241   4
   3   2   9 791.609  40.031   6
  -4  -2  -9 152.795  12.458   5
  -4  -2  -9 154.821   9.114   1
  -4  -2  -9 152.061  13.507   1
  -4  -2  -9 152.379  10.168   8
   4   2   9 150.294   9.490   6
  -5  -2  -9 93.5084  7.9613   8
  -5  -2  -9 94.2302  6.5009   1
  -5  -2  -9 89.5651  6.3299   1
  -5  -2  -9 93.3943  6.5923   5
   5   2   9 73.1953  6.8540   6
  -6  -2  -9 187.475  11.270   8
  -6  -2  -9 153.701  11.802   1
  -6  -2  -9 140.025   9.111   5
  -6  -2  -9 201.188  37.476   1
   6   2   9 153.126   9.355   6
  -7  -2  -9 14.2617  3.0519   1
  -7  -2  -9 13.9975  5.7619   8
  -8  -2  -9 126.979  11.732   8
   8   2   9 122.179   8.332   6
  -9  -2  -9 80.6046  9.6071   8
 -10  -2  -9 10.5802  5.4488   8
 -10  -2  -9 15.7367  6.5028   2
   5  -3  -9 5.18324 6.05069   1
  -5   3   9 29.2973  7.5968   7
  -5   3   9 15.3523  6.1550   5
   4  -3  -9 77.5490  8.8137   1
  -4   3   9 71.5008  8.5192   5
  -4   3   9 85.6373  7.9269   7
   3  -3  -9 90.1670  8.8541   1
  -3   3   9 89.4653  7.4548   7
  -3   3   9 81.7218  7.9010   5
   2  -3  -9 18.5241  5.8199   8
   2  -3  -9 19.6869  5.4370   1
  -2   3   9 10.9134  3.8783   7
  -2   3   9 12.6400  5.3549   5
   1  -3  -9 167.646  11.154   1
   1  -3  -9 181.664  11.717   8
  -1   3   9 177.311  11.432   5
  -1   3   9 169.677  10.735   7
   0  -3  -9 388.695  23.302   8
   0  -3  -9 369.404  20.766   1
   0   3   9 349.395  22.658   5
   0   3   9 415.723  19.263   7
  -1  -3  -9 2.36100 2.93700   1
  -1  -3  -9 -1.8891  4.8250   8
  -1  -3  -9 1.15322 1.76949   4
   1   3   9 1.99059 4.00784   5
   1   3   9 3.94478 1.80689   7
  -2  -3  -9 376.459  18.892   8
  -2  -3  -9 368.684  17.687   4
  -2  -3  -9 348.653  18.728   1
   2   3   9 363.571  18.953   5
  -3  -3  -9 272.657  14.472   1
  -3  -3  -9 288.499  14.476   4
  -3  -3  -9 288.336  15.268   8
  -4  -3  -9 42.0283  6.2406   8
  -4  -3  -9 32.3810  4.6415   5
  -4  -3  -9 48.5304  4.9976   4
  -4  -3  -9 43.0340  5.3542   1
   4   3   9 51.5468  5.9609   6
  -5  -3  -9 100.883   7.063   1
  -5  -3  -9 88.6993  7.1368   3
  -5  -3  -9 95.1790  7.1355   5
  -5  -3  -9 102.523   7.569   1
  -5  -3  -9 103.948   8.366   8
   5   3   9 100.794   8.614   6
  -6  -3  -9 548.672  31.368   1
  -6  -3  -9 580.814  30.612   3
  -6  -3  -9 534.639  27.235   5
  -6  -3  -9 510.646  35.266   1
  -6  -3  -9 533.230  31.466   8
   6   3   9 571.574  32.093   6
  -7  -3  -9 5.15642 2.76072   1
  -7  -3  -9 5.70164 4.52710   3
  -7  -3  -9 14.4827  5.3264   8
   7   3   9 9.22087 3.34991   6
  -8  -3  -9 85.1992  8.4186   3
  -8  -3  -9 76.6481  8.5394   8
   8   3   9 86.6480  6.1374   6
  -9  -3  -9 30.3423  7.1983   8
  -9  -3  -9 35.4521  5.9336   3
 -10  -3  -9 15.8553  6.7077   8
 -10  -3  -9 18.9285  7.0124   3
   5  -4  -9 2.19462 5.81092   1
  -5   4   9 -3.0872  6.9711   7
  -5   4   9 3.58715 5.92276   5
   4  -4  -9 95.7515 10.2318   1
  -4   4   9 93.9070  9.9631   5
  -4   4   9 118.040   9.278   7
   3  -4  -9 76.2511  8.7263   1
  -3   4   9 67.1240  8.5586   5
  -3   4   9 69.4608  7.7048   7
   2  -4  -9 30.0476  6.3359   1
   2  -4  -9 25.6740  5.2297   8
  -2   4   9 31.6896  4.9725   7
   1  -4  -9 384.365  29.346   8
   1  -4  -9 498.221  25.766   1
  -1   4   9 429.497  22.324   7
  -1   4   9 416.257  26.364   5
   0  -4  -9 93.0197  8.8813   8
   0  -4  -9 101.595   7.725   1
   0   4   9 85.3130  7.5522   5
   0   4   9 100.635   6.413   7
  -1  -4  -9 79.6058  7.8573   8
  -1  -4  -9 77.4546  7.1710   1
   1   4   9 68.8940  4.8437   7
   1   4   9 90.0758  7.5569   5
  -2  -4  -9 301.406  17.626   8
  -2  -4  -9 316.706  17.727   1
   2   4   9 387.686  22.628   5
   2   4   9 353.779  15.281   7
  -3  -4  -9 47.5570  3.8828   3
  -3  -4  -9 49.5858  6.5701   8
  -3  -4  -9 48.1102  4.8564   4
  -3  -4  -9 55.3097  5.7312   1
   3   4   9 60.4456  5.8050   5
  -4  -4  -9 190.983  11.098   1
  -4  -4  -9 191.477   9.938   3
  -4  -4  -9 182.347  11.593   8
  -4  -4  -9 194.452  11.466   4
   4   4   9 188.979  12.925   5
  -5  -4  -9 583.977  28.293   1
  -5  -4  -9 552.885  36.859   1
  -5  -4  -9 559.498  29.408   8
  -5  -4  -9 560.266  28.085   5
  -5  -4  -9 556.471  31.736   3
   5   4   9 565.654  33.108   6
  -6  -4  -9 64.8053  6.0531   3
  -6  -4  -9 65.5758  7.0989   8
  -6  -4  -9 58.2201  5.3731   1
  -6  -4  -9 52.5245  5.4206   5
   6   4   9 63.2727  5.4766   6
  -7  -4  -9 146.565  10.148   8
  -7  -4  -9 129.009  10.851   3
  -7  -4  -9 142.810   7.754   1
   7   4   9 131.432   8.448   6
  -8  -4  -9 57.1936  7.4023   8
  -8  -4  -9 75.1187  7.7204   3
   8   4   9 66.7457  5.2307   6
  -9  -4  -9 25.6851  6.4868   3
  -9  -4  -9 31.8769  6.8331   8
 -10  -4  -9 5.38624 6.13110   8
 -10  -4  -9 8.64439 6.47099   3
   4  -5  -9 33.7594  7.8754   1
  -4   5   9 43.8972  8.0183   5
  -4   5   9 39.5427  7.3927   7
   3  -5  -9 7.28339 4.52271   1
  -3   5   9 5.32771 5.73585   5
  -3   5   9 -0.6662  4.5646   7
   2  -5  -9 126.582  10.797   1
  -2   5   9 146.733   9.563   7
  -2   5   9 134.023  10.958   5
   1  -5  -9 250.733  17.742   8
   1  -5  -9 329.569  22.312   1
  -1   5   9 259.892  17.569   5
  -1   5   9 271.150  16.322   7
   0  -5  -9 61.2213  7.2009   1
   0  -5  -9 53.7336  7.6513   8
   0   5   9 57.6661  5.4368   7
   0   5   9 60.9326  6.3812   5
  -1  -5  -9 182.059  12.500   1
  -1  -5  -9 193.765  12.748   8
  -1  -5  -9 193.857  11.220   7
   1   5   9 214.501  12.337   5
   1   5   9 198.197  10.910   7
  -2  -5  -9 53.1674  6.2844   1
  -2  -5  -9 46.8137  7.1323   8
   2   5   9 60.1158  6.6201   5
   2   5   9 57.2451  3.8563   7
  -3  -5  -9 16.7063  2.5207   3
  -3  -5  -9 24.2008  5.8188   8
  -3  -5  -9 16.1903  4.6053   1
   3   5   9 20.2812  4.7555   5
  -4  -5  -9 485.130  28.355   8
  -4  -5  -9 512.566  25.873   1
  -4  -5  -9 507.120  27.370   3
   4   5   9 543.637  29.740   5
  -5  -5  -9 532.028  27.014   1
  -5  -5  -9 585.709  28.531   3
  -5  -5  -9 548.937  32.284   8
   5   5   9 543.507  32.806   5
  -6  -5  -9 9.10025 3.70244   5
  -6  -5  -9 2.93661 5.04790   8
  -6  -5  -9 5.20097 2.90829   1
  -6  -5  -9 11.1413  3.3726   1
  -6  -5  -9 11.2065  3.8439   3
   6   5   9 8.86978 3.44895   6
  -7  -5  -9 38.9873  6.2426   8
  -7  -5  -9 47.2939  5.8749   3
  -7  -5  -9 37.7012  4.1673   1
   7   5   9 35.9148  4.5403   6
  -8  -5  -9 44.6005  6.8297   8
  -8  -5  -9 52.8711  7.1715   3
   8   5   9 40.8780  4.4970   6
  -9  -5  -9 -0.5961  5.0556   8
  -9  -5  -9 4.66705 5.75029   3
 -10  -5  -9 27.9447  7.2972   3
 -10  -5  -9 19.8093  6.2578   8
   4  -6  -9 22.8230  7.6445   1
  -4   6   9 18.1419  7.2811   5
   3  -6  -9 23.5223  7.2241   1
  -3   6   9 15.3486  6.0048   7
  -3   6   9 11.6441  6.7708   5
   2  -6  -9 131.652  11.030   1
  -2   6   9 113.650  10.914   7
  -2   6   9 113.194  10.879   1
  -2   6   9 99.4150 10.4849   5
  -1   6   9 83.2635  7.9021   1
  -1   6   9 57.0921  8.0106   5
  -1   6   9 71.7862  7.3243   7
   0  -6  -9 37.0784  7.0431   8
   0   6   9 21.9037  6.0619   1
   0   6   9 25.1109  4.4513   7
  -1  -6  -9 302.886  18.651   7
  -1  -6  -9 350.074  15.143   3
  -1  -6  -9 342.944  18.586   8
   1   6   9 359.774  20.137   1
   1   6   9 330.603  19.744   4
   1   6   9 340.252  17.999   5
   1   6   9 363.000  18.882   7
  -2  -6  -9 111.281   9.540   8
  -2  -6  -9 101.695   6.581   7
  -2  -6  -9 96.8428  8.4815   1
   2   6   9 119.656   9.099   5
   2   6   9 102.952   6.647   7
   2   6   9 115.610   9.088   1
   2   6   9 109.953   6.940   4
  -3  -6  -9 96.3795  8.1602   1
  -3  -6  -9 103.485   6.492   7
  -3  -6  -9 103.874   9.256   8
   3   6   9 117.209   7.740   4
   3   6   9 115.114   8.799   1
   3   6   9 109.403   8.511   5
  -4  -6  -9 456.450  26.494   1
  -4  -6  -9 494.603  25.649   8
   4   6   9 463.779  26.960   5
   4   6   9 432.594  25.701   4
  -5  -6  -9 4.70440 5.15736   8
  -5  -6  -9 10.4307  4.6087   1
  -5  -6  -9 7.00979 3.16343   3
   5   6   9 12.9388  3.8828   5
   5   6   9 5.93416 4.74736   4
  -6  -6  -9 45.7679  4.8859   1
  -6  -6  -9 54.4970  6.6895   8
  -6  -6  -9 51.6792  6.6108   3
   6   6   9 52.9421  5.2317   5
   6   6   9 55.3598  6.7757   4
  -7  -6  -9 46.9336  4.8353   1
  -7  -6  -9 50.3997  6.6522   8
   7   6   9 46.8888  5.0711   6
  -8  -6  -9 10.9639  5.3108   3
  -8  -6  -9 -6.0542  5.8060   8
   8   6   9 8.92631 2.89614   6
  -9  -6  -9 15.1271  5.9381   3
  -9  -6  -9 13.9180  5.4793   8
 -10  -6  -9 29.3131  6.8957   8
 -10  -6  -9 27.7343  7.5075   3
  -3   7   9 14.8435  7.3415   1
  -3   7   9 13.7382  7.1206   5
  -3   7   9 29.2826  7.7013   7
  -2   7   9 53.3062  7.8948   7
  -2   7   9 46.9940  7.0248   5
  -2   7   9 49.8130  7.1404   1
  -1   7   9 24.6434  5.0922   7
  -1   7   9 25.5784  7.0714   1
  -1   7   9 23.7919  7.0473   5
   0   7   9 58.3646  8.0430   1
   0   7   9 60.0253  8.2408   5
  -1  -7  -9 87.7939  8.8899   8
   1   7   9 64.2607  5.9855   7
   1   7   9 79.5952  8.5726   1
   1   7   9 82.7628  5.7164   4
   1   7   9 78.5963  8.6223   5
   2   7   9 5.88913 3.09757   7
   2   7   9 2.41231 5.36915   5
   2   7   9 11.4253  5.3196   1
   2   7   9 7.39171 3.53383   4
  -3  -7  -9 171.075  11.633   8
   3   7   9 138.624  12.037   1
   3   7   9 166.318  11.801   5
   3   7   9 157.762   9.504   4
  -4  -7  -9 120.185  11.843   8
   4   7   9 117.135   9.993   5
   4   7   9 213.248  63.536   4
   4   7   9 139.414  10.378   1
  -5  -7  -9 8.53401 6.38514   8
   5   7   9 17.2897  4.6078   4
   5   7   9 11.2482  4.7875   5
  -6  -7  -9 94.7263  9.4402   1
  -6  -7  -9 82.3383  8.0005   8
   6   7   9 102.074   7.588   5
   6   7   9 74.0669  7.8223   4
  -7  -7  -9 46.8998  5.2452   1
  -7  -7  -9 57.2417  7.0700   8
  -7  -7  -9 49.8174  6.3035   3
   7   7   9 42.1694  4.7125   5
   7   7   9 38.2794  6.6849   4
  -8  -7  -9 4.71167 4.92012   8
  -8  -7  -9 11.0535  5.3179   3
   8   7   9 0.95007 2.71784   6
  -9  -7  -9 30.7301  7.1922   3
  -9  -7  -9 35.5257  6.7899   8
 -10  -7  -9 4.06095 6.14291   3
  -2   8   9 16.7372  6.3575   7
  -2   8   9 10.7049  7.5647   1
  -1   8   9 39.9032  7.1895   7
  -1   8   9 28.7970  7.5267   5
  -1   8   9 49.8876  8.3967   1
   0   8   9 73.9969  9.2000   1
   0   8   9 65.2985  6.7971   7
   0   8   9 57.1781  8.5548   5
  -1  -8  -9 26.4746  6.6275   8
   1   8   9 33.6652  7.0032   1
   1   8   9 19.9268  4.9471   7
   1   8   9 27.6717  6.7914   5
  -2  -8  -9 6.75258 5.59577   8
   2   8   9 9.71037 5.52190   5
   2   8   9 3.64063 5.34765   1
   2   8   9 4.92964 3.72526   7
   2   8   9 1.99232 3.41855   4
  -3  -8  -9 66.6104  8.8802   8
   3   8   9 66.7148  7.7425   5
   3   8   9 60.7104  6.3888   4
   3   8   9 61.6809  7.6059   1
   4   8   9 17.8354  4.5157   4
   4   8   9 13.9855  5.0852   1
   4   8   9 15.3873  5.1116   5
  -5  -8  -9 6.51391 5.16455   8
   5   8   9 9.37919 5.46061   1
   5   8   9 9.58347 5.01780   5
   5   8   9 4.37134 4.34285   4
  -6  -8  -9 68.5899  7.8074   8
  -6  -8  -9 61.1185  6.4663   1
   6   8   9 62.4818  7.1354   1
   6   8   9 78.6772  8.1804   4
  -7  -8  -9 8.51336 4.09286   1
   7   8   9 13.2000  4.0788   5
   7   8   9 6.06450 5.49190   4
  -8  -8  -9 5.50521 4.89713   8
   8   8   9 2.87358 6.11558   4
  -9  -8  -9 11.8778  5.8693   8
  -9  -8  -9 12.2702  6.4390   3
   0   9   9 37.3935  8.2473   5
   0   9   9 52.3675  8.5369   1
   1   9   9 7.47764 6.42382   1
   1   9   9 13.2997  5.5221   7
   1   9   9 1.41458 6.17210   5
  -2  -9  -9 40.5352  7.7356   8
   2   9   9 51.8813  5.8103   7
   2   9   9 37.3169  7.4011   1
   3   9   9 26.6699  4.9006   4
   3   9   9 27.6257  5.3888   5
  -4  -9  -9 10.2142  5.5433   8
   4   9   9 9.50139 5.25510   5
   4   9   9 -0.0209  5.0849   4
   4   9   9 1.09969 5.05812   1
  -5  -9  -9 54.5434  7.4835   8
   5   9   9 60.0240  7.7734   4
   5   9   9 58.7207  7.0329   5
   5   9   9 63.4223  7.4416   1
  -6  -9  -9 40.4666  7.4732   8
   6   9   9 34.6829  5.8452   1
   6   9   9 34.0240  6.6136   4
   6   9   9 43.4018  6.4884   5
  -7  -9  -9 7.08019 5.10438   8
   7   9   9 5.09425 3.56388   5
   7   9   9 3.84400 5.67692   4
   7   9   9 9.38641 4.04785   1
  -8  -9  -9 13.2341  5.0385   8
   8   9   9 10.5288  6.8520   4
   1  10   9 2.30869 6.59372   1
   2  10   9 43.6212  6.9401   7
   2  10   9 28.3176  7.7428   5
   2  10   9 50.4376  8.2877   1
   3  10   9 14.9104  6.6335   5
   3  10   9 16.7325  8.3386   1
  -4 -10  -9 4.44168 6.12251   8
   4  10   9 -3.9082  5.8714   1
   4  10   9 5.97538 6.94868   5
   4  10   9 3.52532 4.84957   4
  -5 -10  -9 33.5590  6.9081   8
   5  10   9 20.7916  6.0337   5
   5  10   9 31.2627  6.2603   4
   5  10   9 30.3688  6.7298   1
  -6 -10  -9 12.8149  5.3809   8
   6  10   9 25.1347  7.2021   4
   6  10   9 1.59021 5.79819   1
   6  10   9 16.2455  5.5050   5
   7  10   9 8.87773 6.40689   4
   7  10   9 10.5898  4.3623   1
   3   7 -10 72.7546  9.8482   1
   2   7 -10 18.0082  7.1685   1
  -2  -7  10 23.3130  7.3777   6
   1   7 -10 31.4727  7.6359   1
   1   7 -10 14.8398  7.3368   5
  -1  -7  10 15.8167  7.1801   6
   0   7 -10 56.8332  8.9044   1
   0   7 -10 52.2883  7.7380   5
   0  -7  10 49.8395  7.5307   6
  -1   7 -10 37.6453  8.1956   1
  -1   7 -10 25.1687  5.9233   8
  -2   7 -10 3.98560 6.68002   1
   4   6 -10 58.4701  8.7754   1
  -4  -6  10 70.4929  9.2209   6
   3   6 -10 74.0568  9.2296   1
  -3  -6  10 65.1113  8.5113   6
   2   6 -10 9.07298 6.28681   1
  -2  -6  10 9.85222 6.09061   6
   1   6 -10 42.7207  7.2243   1
  -1  -6  10 46.2741  7.8024   6
   0   6 -10 54.8751  6.1009   8
   0   6 -10 37.8394  7.4510   1
   0  -6  10 65.2720  8.5502   6
  -1   6 -10 27.3453  7.1907   5
   1  -6  10 22.6627  6.8456   6
  -2   6 -10 96.2699 10.1535   1
  -2   6 -10 100.083  11.187   5
  -2   6 -10 118.248   9.190   8
  -3   6 -10 54.5499  7.7175   8
  -3   6 -10 58.0225  7.4111   1
  -4   6 -10 -1.8676  6.4534   1
   5   5 -10 18.7266  7.2493   1
  -5  -5  10 9.01794 6.22016   6
   4   5 -10 77.2045  8.7817   1
  -4  -5  10 97.8642  9.5244   6
  -3  -5  10 13.1037  6.1746   6
   2   5 -10 24.3161  4.1466   8
   2   5 -10 14.2201  5.9917   1
  -2  -5  10 20.3982  6.2904   6
   1   5 -10 100.265   9.515   1
   1   5 -10 115.426   8.285   8
  -1  -5  10 94.2946  8.8615   6
   0   5 -10 30.2993  5.0541   8
   0  -5  10 28.6703  6.7906   6
  -1   5 -10 102.200   9.557   1
  -1   5 -10 117.314   8.719   8
   1  -5  10 109.993  10.285   6
  -2   5 -10 236.581  15.925   8
  -2   5 -10 198.208  16.363   1
   2  -5  10 222.048  15.377   6
  -3   5 -10 -0.3687  5.5671   1
  -3   5 -10 0.59690 5.09803   8
  -3   5 -10 3.12665 4.26564   5
   3  -5  10 -0.5159  3.9722   6
  -4   5 -10 0.05755 5.43490   1
  -4   5 -10 -5.3339  5.8469   5
  -4   5 -10 -0.6201  5.5550   8
  -5   5 -10 48.0528  7.9748   5
  -5   5 -10 37.7171  7.5418   1
   5   4 -10 27.6910  7.2311   1
  -5  -4  10 33.4755  7.8735   6
   4   4 -10 53.1913  6.1746   8
   4   4 -10 49.0378  7.7533   1
  -4  -4  10 70.0925  8.1116   6
   3   4 -10 9.79315 4.77553   8
  -3  -4  10 15.5756  5.9096   6
   2   4 -10 113.084  10.241   1
   2   4 -10 133.030   9.416   8
  -2  -4  10 150.547  11.863   6
   1   4 -10 153.174  11.071   1
   1   4 -10 155.616  10.433   8
  -1  -4  10 155.267  10.982   6
   0   4 -10 -2.1181  4.8871   1
   0   4 -10 0.82125 4.88236   8
   0  -4  10 7.41466 3.88388   6
  -1   4 -10 402.016  22.611   8
  -1   4 -10 400.542  23.164   1
   1  -4  10 364.341  26.122   6
  -2   4 -10 27.2741  5.3572   8
  -2   4 -10 19.5748  6.0768   1
   2  -4  10 34.5848  6.5719   6
  -3   4 -10 66.5815  7.3819   8
  -3   4 -10 52.3236  7.4290   1
   3  -4  10 57.1130  7.7522   6
  -4   4 -10 33.0308  6.3791   1
  -4   4 -10 31.8981  7.5820   8
   4  -4  10 29.2538  6.4426   6
  -5   4 -10 50.3468  7.7488   8
  -5   4 -10 39.2965  6.8811   5
  -5   4 -10 39.7840  6.7685   1
  -6   4 -10 16.2503  5.9037   5
  -6   4 -10 1.75693 6.38298   8
  -6   4 -10 15.6103  5.7439   1
   6   3 -10 8.09781 5.56434   1
   5   3 -10 24.0078  5.9887   1
   4   3 -10 38.2450  6.6625   1
   4   3 -10 35.1745  6.0613   8
  -4  -3  10 45.2200  7.9907   6
   3   3 -10 40.2626  5.9465   8
   3   3 -10 59.5519  7.3200   1
  -3  -3  10 56.1384  7.4540   6
   2   3 -10 223.042  13.445   8
   2   3 -10 213.836  14.325   1
  -2  -3  10 175.819  12.885   6
   1   3 -10 128.671  10.752   1
   1   3 -10 115.321   9.253   8
  -1  -3  10 138.992  10.481   6
   0   3 -10 34.4512  5.2076   1
   0   3 -10 31.5836  5.3298   8
   0  -3  10 45.6729  6.6331   6
   0  -3  10 35.2903  4.7418   7
  -1   3 -10 24.3652  5.8691   1
  -1   3 -10 33.1981  5.4533   8
   1  -3  10 33.2625  4.4254   7
   1  -3  10 44.3841  6.7643   6
  -2   3 -10 153.864  11.282   1
  -2   3 -10 180.585  11.356   8
   2  -3  10 194.359  12.024   7
   2  -3  10 187.134  12.252   6
  -3   3 -10 114.345  10.020   8
  -3   3 -10 128.216   9.132   1
   3  -3  10 130.528   9.893   6
  -4   3 -10 300.206  19.034   8
  -4   3 -10 290.738  22.110   1
   4  -3  10 267.855  17.900   6
  -5   3 -10 47.0988  7.7332   5
  -5   3 -10 46.7015  5.2260   7
  -5   3 -10 56.5613  6.8289   1
   5  -3  10 49.3391  7.0603   6
  -6   3 -10 17.4625  6.8159   8
  -6   3 -10 19.7918  5.6869   5
  -6   3 -10 14.0858  5.2024   1
  -7   3 -10 48.3132  8.6176   8
  -7   3 -10 32.1570  5.9093   1
  -7   3 -10 31.7211  6.7312   5
   6   2 -10 14.9238  6.4291   1
  -6  -2  10 17.1051  6.0909   6
   5   2 -10 24.5763  5.1854   1
  -5  -2  10 27.8245  7.1083   6
  -5  -2  10 30.0780  6.3409   7
   4   2 -10 -0.0571  4.9474   1
   4   2 -10 -3.7008  5.0148   8
  -4  -2  10 10.6773  4.9215   7
  -4  -2  10 4.60717 5.05068   6
   3   2 -10 184.604   9.713   4
   3   2 -10 184.192  12.336   1
   3   2 -10 173.673  11.938   8
  -3  -2  10 187.682  12.811   6
   2   2 -10 348.153  21.529   1
   2   2 -10 302.953  20.586   8
  -2  -2  10 346.509  20.703   6
   1   2 -10 8.34306 4.44865   8
  -1  -2  10 3.24650 3.39693   7
  -1  -2  10 -0.8004  5.0088   6
   0   2 -10 288.058  16.979   8
   0   2 -10 258.759  16.861   1
   0  -2  10 275.790  17.139   7
   0  -2  10 303.616  17.682   6
  -1   2 -10 196.101  13.267   1
  -1   2 -10 223.486  14.082   8
   1  -2  10 253.598  13.936   6
   1  -2  10 223.856  13.955   7
  -2   2 -10 61.5919  6.8351   1
  -2   2 -10 46.6484  6.2930   8
   2  -2  10 64.5464  7.1460   6
   2  -2  10 51.0836  4.4706   7
  -3   2 -10 294.742  16.490   8
  -3   2 -10 264.852  15.682   1
   3  -2  10 294.737  14.579   7
   3  -2  10 324.827  17.367   6
  -4   2 -10 199.713  12.637   1
  -4   2 -10 196.208  13.291   8
   4  -2  10 209.465  13.960   6
  -5   2 -10 12.4014  5.8519   8
   5  -2  10 13.3506  5.8719   6
  -6   2 -10 79.1668  9.4888   8
  -6   2 -10 99.6779  8.1604   1
  -6   2 -10 95.0947  8.1013   5
   6  -2  10 108.811   9.702   6
  -7   2 -10 32.1544  7.6822   8
  -7   2 -10 26.8225  5.1349   1
  -6  -1  10 33.5101  7.8946   6
  -6  -1  10 44.5845  7.4249   7
   5   1 -10 23.4040  5.1858   1
  -5  -1  10 35.7873  7.5538   6
   4   1 -10 28.5950  5.0729   1
  -4  -1  10 30.9194  5.4210   7
  -4  -1  10 26.1483  6.1156   6
   3   1 -10 144.264  10.348   8
   3   1 -10 130.607  10.351   1
  -3  -1  10 140.927  10.533   6
  -3  -1  10 152.810  10.381   7
   2   1 -10 225.773  16.999   1
   2   1 -10 208.423  14.897   8
  -2  -1  10 235.284  12.697   7
  -2  -1  10 215.065  15.870   6
   1   1 -10 26.4027  5.5529   8
   1   1 -10 19.8716  5.0786   1
  -1  -1  10 20.6362  5.4737   6
   0   1 -10 150.221  10.205   8
   0   1 -10 132.680   9.917   1
   0  -1  10 151.645  10.475   6
   0  -1  10 157.276   8.162   3
   0  -1  10 146.547   9.536   7
  -1   1 -10 95.8981  8.3424   1
  -1   1 -10 95.9859  8.2280   8
   1  -1  10 109.685   6.548   7
   1  -1  10 110.096   8.860   6
   1  -1  10 108.050   6.514   3
  -2   1 -10 273.326  19.820   8
  -2   1 -10 272.774  14.021   1
   2  -1  10 234.311  11.429   7
   2  -1  10 266.711  17.404   6
   2  -1  10 226.677  13.935   3
  -3   1 -10 540.834  30.091   8
  -3   1 -10 507.986  29.382   1
   3  -1  10 535.016  29.657   7
   3  -1  10 498.088  27.316   6
  -4   1 -10 75.9435  7.8736   8
  -4   1 -10 74.2194  6.9343   1
   4  -1  10 68.0389  4.3929   7
   4  -1  10 74.3299  7.1892   6
  -5   1 -10 11.9047  4.2576   1
  -5   1 -10 14.2678  5.6730   8
   5  -1  10 14.2681  4.6601   6
  -6   1 -10 126.186  10.084   8
  -6   1 -10 114.104   8.380   1
   6  -1  10 109.458   8.799   6
  -7   1 -10 13.9165  4.0794   5
  -7   1 -10 4.47268 4.40796   1
  -7   1 -10 11.9272  6.6227   8
   7  -1  10 5.19261 4.07279   6
  -8   1 -10 49.0371  8.7451   8
   6   0 -10 36.1531  7.1286   1
  -6   0  10 32.5746  6.9820   6
   5   0 -10 11.4811  5.7534   1
  -5   0  10 9.70609 5.69358   6
  -5   0  10 3.18553 5.19218   7
   4   0 -10 31.9907  6.5057   1
  -4   0  10 35.1149  6.5287   7
  -4   0  10 32.6480  6.5679   6
   3   0 -10 161.422  11.369   8
   3   0 -10 176.012  11.697   1
  -3   0  10 164.470  10.049   7
  -3   0  10 154.015  11.890   6
  -2   0  10 31.8100  4.6348   7
   1   0 -10 488.738  28.427   8
   1   0 -10 517.151  25.668   4
   1   0 -10 482.360  27.726   1
  -1   0  10 522.353  23.482   7
  -1   0  10 472.033  33.285   6
   0   0 -10 308.509  22.651   8
   0   0 -10 330.824  16.093   1
   0   0  10 276.574  14.102   3
   0   0  10 292.330  14.369   7
   0   0  10 290.679  16.270   6
  -1   0 -10 39.4881  5.7763   1
  -1   0 -10 40.3836  6.0994   8
   1   0  10 30.7360  5.6692   6
   1   0  10 35.3656  3.2185   3
   1   0  10 33.6100  3.0048   7
   1   0  10 37.8098  3.1284   7
  -2   0 -10 532.350  29.607   8
  -2   0 -10 508.369  25.773   1
   2   0  10 580.406  38.311   6
   2   0  10 487.606  27.264   3
   2   0  10 523.940  25.574   7
  -3   0 -10 136.331   9.331   8
  -3   0 -10 117.092   8.974   1
   3   0  10 117.886   8.516   6
   3   0  10 127.644   5.434   7
   3   0  10 105.223   7.133   3
  -4   0 -10 63.0487  6.2375   1
  -4   0 -10 56.5065  6.1733   8
   4   0  10 58.7316  6.4360   6
  -5   0 -10 188.158  12.054   1
  -5   0 -10 171.946  12.007   8
   5   0  10 179.880  11.266   6
  -6   0 -10 130.694  10.270   8
  -6   0 -10 115.119   8.058   1
   6   0  10 117.994   9.237   6
  -7   0 -10 10.0283  4.4545   5
  -7   0 -10 9.59064 3.50754   1
  -7   0 -10 13.8436  6.0851   8
   7   0  10 11.7323  5.0210   6
  -8   0 -10 59.4646  7.7634   8
  -9   0 -10 18.2098  5.4588   2
  -9   0 -10 34.9418  8.6196   8
  -5   1  10 16.8534  6.0921   7
  -5   1  10 6.57819 5.75386   6
   4  -1 -10 50.5836  7.4496   1
  -4   1  10 68.2038  6.7339   7
  -4   1  10 55.9560  7.8219   6
   3  -1 -10 88.0002  8.5619   8
   3  -1 -10 71.1597  8.1944   1
  -3   1  10 74.5320  8.3498   6
  -3   1  10 97.3529  8.0681   7
   2  -1 -10 98.5769  8.9942   8
   2  -1 -10 118.453   9.327   1
  -2   1  10 103.203   7.028   7
  -2   1  10 88.3794  8.1395   6
   1  -1 -10 386.717  20.101   1
   1  -1 -10 430.648  23.512   8
  -1   1  10 403.373  20.868   6
  -1   1  10 411.952  24.544   7
   0  -1 -10 316.487  14.908   4
   0  -1 -10 307.844  17.034   1
   0  -1 -10 341.037  17.904   8
   0   1  10 351.996  15.838   7
   0   1  10 322.633  17.866   6
  -1  -1 -10 28.6634  5.6376   8
  -1  -1 -10 18.0578  3.0057   4
   1   1  10 19.8127  2.1348   7
   1   1  10 14.1346  5.0166   6
   1   1  10 20.4225  2.1560   7
  -2  -1 -10 247.644  13.669   8
  -2  -1 -10 229.973  12.211   4
  -2  -1 -10 243.620  14.037   1
   2   1  10 222.414  14.056   6
  -3  -1 -10 109.408   8.928   8
  -3  -1 -10 131.396   8.578   1
  -3  -1 -10 118.769   8.831   4
   3   1  10 114.478   9.519   6
  -4  -1 -10 149.702  10.054   1
  -4  -1 -10 160.412  11.000   8
   4   1  10 173.576  10.451   6
  -5  -1 -10 265.628  16.062   8
  -5  -1 -10 256.429  17.227   1
   5   1  10 257.962  14.515   6
  -6  -1 -10 39.1805  5.8110   8
  -6  -1 -10 55.7288  5.7845   1
   6   1  10 55.5688  6.3492   6
  -7  -1 -10 3.31607 4.02480   8
  -7  -1 -10 9.71565 3.73578   1
   7   1  10 0.85731 4.09092   6
  -8  -1 -10 48.2062  8.0350   8
   8   1  10 39.6739  4.7822   6
  -9  -1 -10 6.09883 5.00692   8
   5  -2 -10 27.5104  7.0652   1
  -5   2  10 12.6924  5.9167   7
   4  -2 -10 64.1114  7.9834   1
  -4   2  10 50.8393  6.7129   7
   3  -2 -10 -0.6113  5.3219   8
   3  -2 -10 10.4496  5.5245   1
  -3   2  10 1.38768 4.54607   7
  -3   2  10 5.88808 5.66353   5
   2  -2 -10 193.637  13.154   1
   2  -2 -10 186.093  12.833   8
  -2   2  10 195.278  11.057   7
  -2   2  10 179.916  12.699   5
   1  -2 -10 136.207  10.723   8
   1  -2 -10 144.931  10.597   1
  -1   2  10 150.781   8.580   7
   0  -2 -10 35.5955  5.9246   1
   0  -2 -10 29.3721  2.3038   4
   0  -2 -10 44.0430  7.0069   8
   0   2  10 41.3242  3.4781   7
  -1  -2 -10 109.486   6.311   4
  -1  -2 -10 99.1534  8.2598   1
  -1  -2 -10 112.331   9.152   8
   1   2  10 111.077   5.901   7
   1   2  10 96.6586  8.5367   6
  -2  -2 -10 171.520   9.300   4
  -2  -2 -10 167.544  11.180   8
  -2  -2 -10 148.588   9.959   1
   2   2  10 141.866  10.273   6
  -3  -2 -10 33.5417  4.5996   4
  -3  -2 -10 41.2889  5.1976   8
  -3  -2 -10 41.8574  5.4088   1
   3   2  10 45.8190  5.6406   6
  -4  -2 -10 207.374  11.968   1
  -4  -2 -10 242.917  13.527   8
   4   2  10 225.007  13.099   6
  -5  -2 -10 104.340   7.876   1
  -5  -2 -10 122.361   9.289   8
   5   2  10 108.847   8.175   6
  -6  -2 -10 12.0063  4.0785   1
  -6  -2 -10 12.9329  5.8181   8
   6   2  10 9.48670 3.80566   6
  -7  -2 -10 10.7478  5.6745   8
  -7  -2 -10 23.6300  3.5769   1
   7   2  10 22.3433  4.5129   6
  -8  -2 -10 184.454  14.668   8
   8   2  10 163.369  10.535   6
  -9  -2 -10 -4.7567  6.4467   8
  -5   3  10 25.9092  7.7542   7
  -5   3  10 26.0564  7.2717   5
   4  -3 -10 49.2028  7.8848   1
  -4   3  10 41.5742  6.6312   7
  -4   3  10 52.2197  7.9223   5
   3  -3 -10 15.5194  4.8844   1
  -3   3  10 7.26007 4.99156   7
  -3   3  10 14.5131  6.2027   5
   2  -3 -10 193.054  13.435   8
   2  -3 -10 207.078  13.394   1
  -2   3  10 183.967  13.789   5
  -2   3  10 211.038  12.102   7
   1  -3 -10 255.639  14.962   8
   1  -3 -10 223.589  17.303   1
  -1   3  10 249.481  16.473   7
  -1   3  10 236.932  14.413   5
   0  -3 -10 158.975  11.247   8
   0  -3 -10 115.163  10.944   1
   0   3  10 132.766   9.667   5
   0   3  10 167.238  10.141   7
  -1  -3 -10 602.192  34.670   8
  -1  -3 -10 533.695  29.231   1
  -1  -3 -10 519.054  25.231   4
   1   3  10 522.669  29.638   7
   1   3  10 524.094  34.607   5
  -2  -3 -10 85.4723  5.7905   4
  -2  -3 -10 86.0195  7.5644   1
  -2  -3 -10 86.1217  8.3345   8
   2   3  10 85.8948  7.7036   5
  -3  -3 -10 217.512  13.239   8
  -3  -3 -10 212.423  11.398   4
  -3  -3 -10 217.056  12.839   1
   3   3  10 236.833  13.036   6
  -4  -3 -10 270.046  14.758   1
  -4  -3 -10 306.828  15.915   8
   4   3  10 305.114  16.871   6
  -5  -3 -10 50.7890  6.1706   8
  -5  -3 -10 57.8729  6.0774   1
   5   3  10 71.4639  6.9157   6
  -6  -3 -10 15.1502  4.0170   1
  -6  -3 -10 18.3297  5.8549   8
   6   3  10 15.0800  4.6485   6
  -7  -3 -10 179.917  10.512   1
  -7  -3 -10 179.918  12.675   8
  -7  -3 -10 180.547  11.300   3
   7   3  10 177.642  13.159   6
  -8  -3 -10 20.8300  5.6913   3
  -8  -3 -10 30.7073  6.8425   8
   8   3  10 21.8320  3.8946   6
  -9  -3 -10 58.7927  8.3315   8
   4  -4 -10 11.1040  6.5481   1
  -4   4  10 8.48937 5.33339   7
  -4   4  10 0.88958 6.19011   5
   3  -4 -10 9.36440 4.77749   1
  -3   4  10 15.3887  4.9625   7
  -3   4  10 17.5650  6.6931   5
   2  -4 -10 122.685  10.771   1
   2  -4 -10 130.828  12.635   8
  -2   4  10 152.533  11.340   5
  -2   4  10 123.154   9.306   7
   1  -4 -10 0.41453 5.99043   8
  -1   4  10 9.94928 4.21131   5
  -1   4  10 11.1951  3.8440   7
   0  -4 -10 225.338  15.601   8
   0  -4 -10 197.500  14.965   1
   0   4  10 246.594  13.828   7
   0   4  10 228.079  17.221   5
  -1  -4 -10 207.681  13.402   8
  -1  -4 -10 208.401  12.902   1
   1   4  10 204.420  17.118   7
   1   4  10 233.637  14.341   5
  -2  -4 -10 59.0481  6.9080   1
  -2  -4 -10 72.2772  8.0872   8
   2   4  10 65.4145  3.3482   7
   2   4  10 68.4074  7.1545   5
  -3  -4 -10 202.003  12.846   8
  -3  -4 -10 228.801  12.536   4
  -3  -4 -10 197.294  14.401   1
   3   4  10 220.232  12.980   5
  -4  -4 -10 68.2994  5.4241   3
  -4  -4 -10 66.8174  6.4933   1
  -4  -4 -10 79.8232  7.8334   8
  -5  -4 -10 0.99938 3.26593   8
  -5  -4 -10 2.95579 2.89757   3
  -5  -4 -10 0.70701 3.39058   1
   5   4  10 1.59174 3.61579   6
  -6  -4 -10 191.731  11.066   1
  -6  -4 -10 192.927  13.514   8
  -6  -4 -10 192.694  12.477   3
   6   4  10 230.522  12.891   6
  -7  -4 -10 179.395  11.516   3
  -7  -4 -10 163.483   9.554   1
  -7  -4 -10 154.816  13.604   8
   7   4  10 169.395  14.297   6
  -8  -4 -10 5.54325 5.48685   8
  -8  -4 -10 -1.3068  4.6902   3
   8   4  10 3.14210 3.05546   6
  -9  -4 -10 28.6026  6.4411   3
  -9  -4 -10 20.2956  6.5434   8
 -10  -4 -10 10.1129  6.6424   3
 -10  -4 -10 13.8695  6.7770   8
   4  -5 -10 1.92821 6.61920   1
  -4   5  10 3.16454 6.58252   5
   3  -5 -10 17.0601  7.3579   1
  -3   5  10 31.2584  5.9291   7
  -3   5  10 36.3043  7.7091   5
   2  -5 -10 14.0780  6.5082   1
  -2   5  10 29.8594  7.3339   5
  -2   5  10 26.7420  5.6197   7
   1  -5 -10 85.5966  9.1226   8
   1  -5 -10 68.1836  8.5275   1
  -1   5  10 71.9271  8.6376   5
  -1   5  10 77.0568  7.2476   7
   0  -5 -10 246.881  14.129   1
   0  -5 -10 217.626  14.569   8
   0   5  10 190.779  13.577   5
   0   5  10 208.547  13.092   7
  -1  -5 -10 99.8752  9.0341   1
  -1  -5 -10 116.021   9.960   8
   1   5  10 92.2248  5.8889   7
   1   5  10 88.4810  8.9775   5
  -2  -5 -10 99.4610  8.5794   1
  -2  -5 -10 103.981   9.493   8
   2   5  10 95.0140  5.5337   7
   2   5  10 97.5293  8.6566   5
  -3  -5 -10 249.537  11.049   3
  -3  -5 -10 231.237  14.935   1
  -3  -5 -10 254.868  15.218   8
   3   5  10 241.485  17.442   5
  -4  -5 -10 22.0293  3.3255   3
  -4  -5 -10 33.1777  5.2269   1
  -4  -5 -10 25.4306  5.9470   8
   4   5  10 22.3878  4.8274   5
  -5  -5 -10 86.7962  7.5181   1
  -5  -5 -10 75.8072  6.1823   3
  -5  -5 -10 76.4010  7.9217   8
  -6  -5 -10 182.270  12.642   8
  -6  -5 -10 211.283  11.529   3
  -6  -5 -10 173.751  10.309   1
   6   5  10 163.149  11.081   6
  -7  -5 -10 4.29988 5.35153   8
  -7  -5 -10 1.06302 3.97437   3
  -7  -5 -10 4.54718 3.45318   1
   7   5  10 2.40664 3.67353   6
  -8  -5 -10 32.7884  7.5160   8
   8   5  10 20.7310  3.7274   6
  -9  -5 -10 0.75582 5.34451   3
  -9  -5 -10 6.97640 6.08655   8
 -10  -5 -10 4.17318 6.14037   3
   3  -6 -10 26.9441  6.3079   1
  -3   6  10 55.6254 15.3618   7
  -3   6  10 29.0045  6.2988   5
   2  -6 -10 1.07464 4.51275   1
  -2   6  10 7.68441 6.52741   7
  -2   6  10 -2.5832  6.3104   5
   1  -6 -10 71.1384  7.8993   1
  -1   6  10 69.0945  6.9025   7
  -1   6  10 74.3925  9.0315   5
   0  -6 -10 92.1859 10.2091   8
   0  -6 -10 108.581   9.836   1
   0   6  10 104.439   9.860   5
   0   6  10 117.858   8.536   7
  -1  -6 -10 59.6603  7.5622   1
  -1  -6 -10 47.1905  6.6040   8
   1   6  10 49.6847  4.7976   7
   1   6  10 32.5309  6.7755   5
  -2  -6 -10 26.1033  6.1064   1
  -2  -6 -10 27.5797  1.7607   3
  -3  -6 -10 85.1055 10.8462   8
  -3  -6 -10 93.3988  8.1059   1
   3   6  10 68.2057  9.1032   5
  -4  -6 -10 9.11696 5.62896   8
  -4  -6 -10 7.66686 2.72396   3
  -4  -6 -10 9.06576 4.46640   1
  -5  -6 -10 93.5557  6.9358   3
  -5  -6 -10 90.4868  8.8707   1
  -5  -6 -10 88.0286  8.5059   8
   5   6  10 78.1495  7.0447   5
  -6  -6 -10 128.644   8.934   3
  -6  -6 -10 124.935  10.243   8
  -6  -6 -10 139.127   8.650   1
   6   6  10 119.082   8.588   5
  -7  -6 -10 0.40359 3.89352   3
  -7  -6 -10 -0.7534  3.4161   1
  -7  -6 -10 -0.4962  3.4494   8
   7   6  10 -0.5713  3.0082   6
  -8  -6 -10 37.5477  7.3664   3
  -8  -6 -10 28.2273  6.8421   8
   8   6  10 32.2355  4.6141   6
  -9  -6 -10 19.6376  6.6555   8
  -9  -6 -10 25.7799  6.6495   3
   2  -7 -10 -5.9399  6.5401   1
  -2   7  10 -2.6924  5.6495   7
  -2   7  10 14.4954  7.2025   5
   1  -7 -10 43.3451  8.1437   1
  -1   7  10 45.4804  5.8533   7
  -1   7  10 28.8326  7.5221   5
  -1   7  10 53.2457  8.7070   1
   0  -7 -10 5.81936 6.30370   1
   0   7  10 16.6256  4.2333   7
   0   7  10 20.4940  6.9476   1
   0   7  10 14.0574  6.5018   5
  -1  -7 -10 38.7526  7.3914   8
  -1  -7 -10 29.7482  7.1122   1
   1   7  10 38.2385  7.4588   1
   1   7  10 41.6175  5.0951   7
   1   7  10 50.3078  7.9619   5
  -2  -7 -10 61.9429  8.6205   8
  -2  -7 -10 74.8273  7.4959   1
   2   7  10 73.1516  5.5382   7
   2   7  10 69.1804  8.3428   5
   2   7  10 62.5666  8.0422   1
   2   7  10 59.4229  5.5031   4
  -3  -7 -10 15.9307  2.4448   3
  -3  -7 -10 20.9647  6.7011   8
  -3  -7 -10 18.1512  5.5478   1
   3   7  10 20.1461  4.3537   4
   3   7  10 25.5337  5.7983   5
  -4  -7 -10 6.40094 5.73953   8
  -4  -7 -10 6.93302 4.58254   1
  -4  -7 -10 10.8053  2.9335   3
   4   7  10 6.55628 4.60525   5
   4   7  10 -0.1505  3.3149   4
  -5  -7 -10 69.8998  6.0558   3
  -5  -7 -10 63.6245  7.0676   1
   5   7  10 83.5185  7.2749   4
  -6  -7 -10 32.9924  5.6183   1
  -6  -7 -10 32.9026  6.4184   8
  -6  -7 -10 30.3449  4.7504   3
   6   7  10 33.5383  4.9910   5
  -7  -7 -10 8.83936 4.49263   3
  -7  -7 -10 -1.9877  6.4352   8
  -7  -7 -10 1.48448 4.16705   1
   7   7  10 6.77811 3.51579   5
  -8  -7 -10 22.7307  6.0856   8
  -8  -7 -10 29.4820  7.4644   3
  -9  -7 -10 8.66358 5.43537   8
  -9  -7 -10 9.42064 5.66215   3
  -1   8  10 31.1577  6.9024   7
   0   8  10 13.6399  7.0653   1
   0   8  10 4.06395 4.68473   7
   0   8  10 -3.9132  5.9472   5
  -1  -8 -10 72.6223  9.1184   8
   1   8  10 75.5030  7.3565   7
   1   8  10 64.0500  9.0216   1
   1   8  10 68.7448  7.7386   5
  -2  -8 -10 66.6444  8.4700   8
   2   8  10 49.5532  5.5157   7
   2   8  10 67.1383  8.5254   1
  -3  -8 -10 4.05701 5.77765   8
   3   8  10 1.03376 3.24513   4
   3   8  10 5.54404 5.20981   5
   3   8  10 -0.1854  5.2414   1
  -4  -8 -10 59.6692  8.8127   8
   4   8  10 42.2331  7.5337   5
   4   8  10 51.5983  6.0880   4
  -5  -8 -10 63.5148  8.0529   8
  -5  -8 -10 55.2770  6.7246   1
   5   8  10 59.9721  6.8669   5
   5   8  10 40.6128  6.2278   4
  -6  -8 -10 11.1886  6.0322   8
  -6  -8 -10 10.6305 11.9147   1
   6   8  10 5.92997 4.98845   4
   6   8  10 5.51585 4.42109   5
  -7  -8 -10 25.7722  5.3609   1
  -7  -8 -10 40.1671  5.8221   3
  -7  -8 -10 28.6196  7.5289   8
   7   8  10 29.9965  5.6332   4
   7   8  10 30.5624  5.0432   5
  -8  -8 -10 22.5131  7.4272   3
  -8  -8 -10 11.9227  5.8101   8
   8   8  10 17.3631  7.3551   4
  -9  -8 -10 4.60382 6.08875   3
   1   9  10 24.5484  7.7788   5
   1   9  10 19.7052  4.7616   7
  -2  -9 -10 22.0834  7.1141   8
   2   9  10 16.8839  7.4000   1
   2   9  10 25.8661  7.1000   5
  -3  -9 -10 4.75189 6.15364   8
   3   9  10 2.35741 5.86569   5
   3   9  10 16.6207  6.6215   1
  -4  -9 -10 42.7765  7.6733   8
   4   9  10 53.8632  7.3530   5
   4   9  10 47.2231  6.7904   4
  -5  -9 -10 -1.2709  7.1015   8
   5   9  10 -4.1517  5.6418   5
   5   9  10 -4.2896  6.3767   1
   5   9  10 7.11151 6.28298   4
  -6  -9 -10 20.2936  6.0903   8
  -6  -9 -10 17.1893  5.3959   1
   6   9  10 15.8435  5.4869   1
   6   9  10 15.6145  5.3835   5
   6   9  10 26.6655  6.1918   4
  -7  -9 -10 50.3330  7.6088   8
   7   9  10 38.7698  8.4964   4
   7   9  10 32.1639  6.0054   5
   8   9  10 -0.7254  6.7907   4
   3  10  10 26.0905  7.6586   1
   3  10  10 9.87512 6.30809   5
  -4 -10 -10 9.39035 7.02100   8
   4  10  10 12.8287  6.6602   1
   4  10  10 -1.0582  5.7294   5
  -5 -10 -10 4.79964 6.39667   8
   5  10  10 6.72280 5.67050   5
   5  10  10 6.93947 6.49692   4
   5  10  10 7.42291 6.37108   1
   6  10  10 1.82502 5.55098   1
   6  10  10 4.90308 5.21214   5
   6  10  10 -0.3375  5.1485   4
   2   6 -11 71.2629  9.5708   1
  -2  -6  11 51.2328  9.2979   6
   1   6 -11 15.1255  5.3828   1
   0   6 -11 14.0746  5.4982   8
   0   6 -11 10.9005  6.9699   1
   0  -6  11 4.03536 6.85076   6
  -1   6 -11 54.3207  8.5684   1
  -1   6 -11 52.2498  9.2054   5
  -1   6 -11 46.5496  6.4004   8
   1  -6  11 42.1710  8.4519   6
  -2   6 -11 -2.5017  6.8836   5
  -2   6 -11 0.54991 6.59211   1
  -2   6 -11 6.79489 6.53144   8
   3   5 -11 16.8087  6.9585   1
  -3  -5  11 16.0028  7.0483   6
   2   5 -11 54.3487  8.1109   1
  -2  -5  11 51.6281  8.6425   6
   1   5 -11 6.95572 4.96079   8
   1   5 -11 6.71115 6.11069   1
  -1  -5  11 5.08908 6.27062   6
   0   5 -11 39.6874  7.6633   1
   0   5 -11 38.9762  5.7473   8
   0  -5  11 35.9309  7.4697   6
  -1   5 -11 49.7520  8.0175   1
   1  -5  11 49.0648  8.3216   6
  -2   5 -11 -2.0457  5.7732   1
  -2   5 -11 4.81728 4.82054   8
   2  -5  11 5.68663 6.37214   6
  -3   5 -11 143.550  11.245   8
  -3   5 -11 152.764  12.238   5
  -3   5 -11 140.339  11.827   1
   3  -5  11 135.866  13.732   6
  -4   5 -11 15.9259  7.0098   8
  -4   5 -11 17.9121  6.9817   5
  -4   5 -11 24.4492  7.2101   1
   4   4 -11 7.02105 5.14937   1
  -4  -4  11 6.36994 6.08360   6
   3   4 -11 46.3315  7.7513   1
   3   4 -11 161.416  54.411   8
  -3  -4  11 52.2561  8.0605   6
   2   4 -11 58.2620  8.1410   1
   2   4 -11 58.2726  6.5442   8
  -2  -4  11 70.1555  8.6546   6
   1   4 -11 40.4928  6.8889   1
   1   4 -11 39.0458  5.7493   8
  -1  -4  11 30.7542  7.0925   6
   0   4 -11 132.456  11.868   1
   0   4 -11 134.490  11.125   8
   0  -4  11 144.315  11.484   6
  -1   4 -11 43.9435  7.4749   1
   1  -4  11 32.5679  7.2147   6
  -2   4 -11 24.9590  6.0441   8
  -2   4 -11 24.7596  6.6897   1
   2  -4  11 22.0997  6.5298   6
  -3   4 -11 44.8176  7.4741   8
  -3   4 -11 42.1075  7.3050   1
   3  -4  11 37.3959  7.5687   6
  -4   4 -11 19.8640  5.2993   8
  -4   4 -11 32.0208  6.7845   5
   4  -4  11 22.3233  6.6668   6
  -5   4 -11 22.0154  7.1628   8
  -5   4 -11 36.4057  7.2189   5
  -5   4 -11 26.9953  6.6540   1
   5   3 -11 2.67155 5.63650   1
   4   3 -11 28.8103  6.0015   8
  -4  -3  11 23.5218  6.5352   6
   3   3 -11 36.2355  6.9343   8
   3   3 -11 41.8769  7.3854   1
  -3  -3  11 38.0599  7.0979   6
   2   3 -11 -2.2813  5.1800   1
   2   3 -11 5.30318 4.71146   8
  -2  -3  11 -2.2512  5.2940   6
   1   3 -11 81.8086  9.0952   1
   1   3 -11 103.853   9.047   8
  -1  -3  11 125.652  10.315   6
   0   3 -11 160.293  12.803   1
   0   3 -11 176.124  11.383   8
   0  -3  11 182.203  15.009   6
  -1   3 -11 2.51423 4.57638   8
  -1   3 -11 3.33894 5.15987   1
   1  -3  11 -0.3666  5.1121   6
  -2   3 -11 187.074  14.427   8
  -2   3 -11 190.632  14.207   1
   2  -3  11 213.618  15.478   6
  -3   3 -11 113.707   9.661   1
  -3   3 -11 101.104   9.322   8
   3  -3  11 119.970  10.228   6
  -4   3 -11 14.2466  5.5501   1
  -4   3 -11 13.3044  6.1835   8
   4  -3  11 16.1820  6.0622   6
  -5   3 -11 60.3244  8.3191   1
  -5   3 -11 67.8797  8.5911   8
  -5   3 -11 63.3313  7.8770   5
   5  -3  11 66.2413  8.1786   6
  -6   3 -11 41.0179  7.6089   1
  -6   3 -11 36.1543  8.0109   8
  -6   3 -11 33.0664  6.4380   5
   5   2 -11 11.8080  6.0099   1
  -5  -2  11 3.96706 6.87909   6
   4   2 -11 36.8133  7.1705   1
   4   2 -11 54.1216  6.9410   8
  -4  -2  11 35.9234  7.4249   6
  -4  -2  11 41.0059  6.8776   7
   3   2 -11 14.5364  5.7651   1
   3   2 -11 13.6922  6.7124   8
  -3  -2  11 22.4671  5.4481   7
  -3  -2  11 28.5037  6.8908   6
   2   2 -11 77.2048  7.9680   8
   2   2 -11 74.4861  7.3473   1
  -2  -2  11 88.9437  9.2756   6
   1   2 -11 173.107  11.355   1
   1   2 -11 176.341  11.698   8
  -1  -2  11 163.662  12.382   6
   0   2 -11 56.8863  7.4906   1
   0   2 -11 57.2745  7.0314   8
   0  -2  11 75.7742  7.1450   6
  -1   2 -11 7.96920 5.33381   1
  -1   2 -11 1.94902 6.07099   8
   1  -2  11 9.26024 5.50772   6
  -2   2 -11 70.4596  7.9368   1
   2  -2  11 77.6319  8.2822   6
  -3   2 -11 12.3480  5.2071   1
  -3   2 -11 5.17394 5.05505   8
   3  -2  11 4.69912 5.52902   6
  -4   2 -11 87.5259  8.3888   1
  -4   2 -11 93.3872  8.1613   8
   4  -2  11 79.3956  8.5018   6
  -5   2 -11 152.129  10.808   1
  -5   2 -11 160.117  11.988   8
   5  -2  11 149.174  11.991   6
  -6   2 -11 8.48934 6.54133   8
  -6   2 -11 6.53061 4.53231   1
  -6   2 -11 7.96997 5.85327   5
   6  -2  11 9.21389 5.35458   6
  -7   2 -11 13.0912  5.3747   8
  -7   2 -11 12.7129  5.1699   5
   5   1 -11 15.7061  5.0960   1
  -5  -1  11 12.5228  6.1522   6
  -5  -1  11 21.6762  6.9391   7
  -4  -1  11 53.0627  7.9673   6
  -4  -1  11 68.0147  7.1844   7
   3   1 -11 2.21460 3.50532   1
   3   1 -11 0.71708 4.97906   8
  -3  -1  11 3.63075 3.76830   7
  -3  -1  11 -3.0283  5.1011   6
   2   1 -11 100.244   9.106   8
   2   1 -11 120.964   9.399   1
  -2  -1  11 98.1658  9.5676   6
  -2  -1  11 93.2428  7.2264   7
   1   1 -11 164.095  11.369   1
   1   1 -11 168.489  12.016   8
  -1  -1  11 166.919  12.192   6
  -1  -1  11 165.976  11.129   7
   0   1 -11 6.09556 3.57820   1
   0   1 -11 15.2507  5.6025   8
   0  -1  11 7.02801 2.43046   7
  -1   1 -11 310.993  17.770   8
  -1   1 -11 298.077  18.991   1
   1  -1  11 364.842  23.344   6
   1  -1  11 266.603  15.767   7
  -2   1 -11 94.9344  8.3372   1
   2  -1  11 96.8373  8.3543   6
  -3   1 -11 25.3794  5.8577   1
  -3   1 -11 17.7395  5.5603   8
   3  -1  11 34.4982  6.2611   6
  -4   1 -11 189.509  12.601   8
  -4   1 -11 186.025  12.624   1
   4  -1  11 178.869  15.990   6
  -5   1 -11 66.2626  8.5348   8
  -5   1 -11 84.9507  8.2321   1
   5  -1  11 73.9329  8.0462   6
  -6   1 -11 5.15311 6.12460   8
  -6   1 -11 3.22095 4.11020   1
   6  -1  11 11.8017  5.0771   6
  -7   1 -11 34.5089  6.5872   8
  -7   1 -11 36.3214  6.0626   5
  -7   1 -11 35.7057  5.9794   1
   7  -1  11 26.0927  6.3914   6
   5   0 -11 46.9267  7.7912   1
  -5   0  11 33.0425  8.6792   6
   4   0 -11 31.0083  6.8413   1
  -4   0  11 26.2273  6.6986   6
  -4   0  11 28.1393  6.0645   7
   3   0 -11 27.5466  7.3237   8
   3   0 -11 19.9666  6.0385   1
  -3   0  11 12.2029  6.0066   6
   2   0 -11 66.2303  7.7022   1
   2   0 -11 53.5597  8.5177   8
  -2   0  11 78.2639  6.5719   7
  -2   0  11 77.8103  8.3260   6
   1   0 -11 76.6253  8.5269   8
   1   0 -11 93.4213  8.5520   1
  -1   0  11 109.822   9.529   6
  -1   0  11 103.502   7.290   7
   0   0 -11 55.2863  7.1105   1
   0   0 -11 58.7609  7.3300   8
   0   0  11 55.8163  4.4992   7
   0   0  11 37.7838  6.5312   6
   0   0  11 48.5187  4.2103   7
  -1   0 -11 273.331  15.304   4
  -1   0 -11 272.489  17.955   8
  -1   0 -11 263.675  15.343   1
   1   0  11 327.624  14.238   7
   1   0  11 285.062  14.598   7
  -2   0 -11 64.2369  7.1842   1
  -2   0 -11 62.3310  5.8904   4
  -2   0 -11 72.9957  7.7181   8
   2   0  11 80.5673  7.8447   6
   2   0  11 79.2719  4.1519   7
   2   0  11 87.8744  4.2210   7
  -3   0 -11 2.25179 4.97798   8
  -3   0 -11 10.2021  4.7988   1
   3   0  11 10.6764  3.0225   3
   3   0  11 16.4838  5.4816   6
  -4   0 -11 207.606  13.402   8
  -4   0 -11 211.576  13.781   1
   4   0  11 218.155  14.706   6
  -5   0 -11 37.3874  7.0239   8
  -5   0 -11 44.9230  6.0155   1
   5   0  11 58.5245  6.7266   6
  -6   0 -11 32.9173  6.9319   8
  -6   0 -11 23.1898  4.8203   1
   6   0  11 31.7152  5.5842   6
  -7   0 -11 47.3238  6.6645   8
  -7   0 -11 40.1960  5.9091   1
   7   0  11 47.3455  6.9114   6
  -8   0 -11 18.3364  7.3717   8
   5  -1 -11 59.9278  9.0505   1
   4  -1 -11 15.6819  6.5004   1
  -4   1  11 7.73247 5.01362   7
  -4   1  11 10.3759  6.1274   6
   3  -1 -11 41.3353  6.2667   8
   3  -1 -11 39.8892  7.0875   1
  -3   1  11 34.0009  5.3096   7
  -3   1  11 38.6389  7.0421   6
   2  -1 -11 52.5061  7.5956   8
  -2   1  11 43.3629  7.1731   6
  -2   1  11 56.0984  5.3684   7
   1  -1 -11 -4.0931  5.6475   8
   1  -1 -11 1.18099 4.94958   1
  -1   1  11 0.50882 2.88056   7
  -1   1  11 -8.0227  4.8251   6
   0  -1 -11 442.583  25.883   8
   0  -1 -11 409.914  26.492   1
   0   1  11 449.320  23.574   6
   0   1  11 427.809  22.598   7
  -1  -1 -11 113.046   9.467   8
  -1  -1 -11 105.535   8.810   1
  -1  -1 -11 105.066   7.479   4
   1   1  11 96.7117  5.5031   7
   1   1  11 105.926   6.227   7
  -2  -1 -11 4.93609 4.47704   1
  -2  -1 -11 6.24550 3.22480   4
  -2  -1 -11 10.3749  5.5228   8
   2   1  11 4.55468 4.87873   6
  -3  -1 -11 146.859  10.030   1
  -3  -1 -11 156.919  10.232   8
   3   1  11 153.993  10.717   6
  -4  -1 -11 66.3402  6.8908   8
  -4  -1 -11 70.3726  7.0694   1
  -5  -1 -11 21.6450  5.3886   1
  -5  -1 -11 21.9424  6.2343   8
  -6  -1 -11 125.754   8.792   1
  -6  -1 -11 87.9659 10.0846   8
   6   1  11 114.362   8.787   6
  -7  -1 -11 44.7170  7.8059   8
  -7  -1 -11 41.4318  4.9418   1
   7   1  11 43.2009  6.3002   6
  -8  -1 -11 2.69180 6.60980   8
   8   1  11 1.68524 4.13447   6
   4  -2 -11 6.67770 6.49106   1
  -4   2  11 7.05114 6.26433   6
  -4   2  11 6.91219 5.21586   7
   3  -2 -11 39.9673  7.4388   8
   3  -2 -11 53.0521  7.8623   1
  -3   2  11 37.6970  7.4170   6
  -3   2  11 42.2785  5.7130   7
   2  -2 -11 54.5901  7.7567   1
   2  -2 -11 40.1406  7.3379   8
  -2   2  11 46.9066  7.4850   6
  -2   2  11 50.0484  5.2496   7
   1  -2 -11 21.1605  5.8616   1
   1  -2 -11 8.25785 6.17592   8
  -1   2  11 10.9959  4.4026   6
   0  -2 -11 287.026  15.667   1
   0  -2 -11 266.639  17.458   8
   0   2  11 269.732  17.253   6
   0   2  11 298.804  13.748   7
  -1  -2 -11 227.187  15.904   4
  -1  -2 -11 235.942  14.582   8
  -1  -2 -11 229.105  14.323   1
   1   2  11 185.376  15.057   6
   1   2  11 218.270  11.010   7
  -2  -2 -11 62.1822  7.9472   8
  -2  -2 -11 82.3882  7.6937   1
  -2  -2 -11 83.1283  5.8967   4
   2   2  11 89.0491  7.9177   6
  -3  -2 -11 409.644  23.806   4
  -3  -2 -11 421.097  28.801   8
  -3  -2 -11 435.711  25.575   1
   3   2  11 452.340  22.879   6
  -4  -2 -11 40.2800  7.0708   8
  -4  -2 -11 34.3522  5.4449   1
  -5  -2 -11 81.4625  7.7000   1
  -5  -2 -11 96.6519  8.2464   8
   5   2  11 103.227   8.040   6
  -6  -2 -11 170.442  10.977   1
  -6  -2 -11 149.793  11.990   8
   6   2  11 185.879  12.766   6
  -7  -2 -11 7.38537 3.41774   1
  -7  -2 -11 12.1049  6.5450   8
   7   2  11 9.26412 4.92689   6
  -8  -2 -11 -5.9499  6.1233   8
   8   2  11 5.83786 4.29672   6
  -9  -2 -11 42.3603  8.6659   8
   4  -3 -11 23.7312  7.6842   1
  -4   3  11 21.4973  6.1648   7
  -4   3  11 16.7376  7.5384   5
   3  -3 -11 14.9495  6.6354   1
  -3   3  11 27.0692  5.3862   7
  -3   3  11 15.8560  6.8427   5
   2  -3 -11 2.83290 6.05988   8
   2  -3 -11 1.64430 3.86132   1
  -2   3  11 2.05510 4.01498   7
  -2   3  11 -0.5013  5.6505   5
  -1   3  11 85.9497  9.0105   5
  -1   3  11 81.4527  6.2085   7
   0  -3 -11 115.366  11.844   8
   0  -3 -11 119.834  10.438   1
   0   3  11 151.901   8.007   7
   0   3  11 163.341  11.255   5
  -1  -3 -11 7.66966 5.40528   1
  -1  -3 -11 6.24344 6.40957   8
  -2  -3 -11 201.665  13.000   8
  -2  -3 -11 196.117  12.316   1
  -2  -3 -11 182.642  10.169   4
   2   3  11 184.149  12.865   6
  -3  -3 -11 39.8615  5.8741   1
  -3  -3 -11 39.9339  6.9289   8
  -3  -3 -11 36.0247  4.1055   4
   3   3  11 37.4843  6.0224   6
  -4  -3 -11 49.9532  6.0785   1
  -4  -3 -11 45.4589  7.1308   8
   4   3  11 62.7165  7.0310   6
  -5  -3 -11 175.013  12.035   8
  -5  -3 -11 171.397  11.055   1
   5   3  11 160.356  11.369   6
  -6  -3 -11 14.8507  4.6431   1
  -6  -3 -11 17.7759  6.3993   8
   6   3  11 24.8361  4.9034   6
  -7  -3 -11 -1.9146  5.6567   8
  -7  -3 -11 5.30226 3.78526   1
   7   3  11 -2.8077  4.2687   6
   8   3  11 33.0126  5.0951   6
  -9  -3 -11 24.4488  7.0534   8
   3  -4 -11 53.1523  8.8074   1
  -3   4  11 19.9147  7.5026   5
  -3   4  11 35.7910  6.8783   7
   2  -4 -11 13.5904  6.7463   8
   2  -4 -11 12.8346  4.8263   1
  -2   4  11 7.37130 6.30200   5
  -2   4  11 19.8258  4.3088   7
   1  -4 -11 70.5815  8.9419   8
   1  -4 -11 62.5065  8.3134   1
  -1   4  11 62.1679  7.1439   5
  -1   4  11 53.9116  5.4082   7
   0  -4 -11 37.4578  7.7303   8
   0  -4 -11 36.3293  5.7142   1
   0   4  11 33.6923  5.5916   5
   0   4  11 36.9257  4.0676   7
  -1  -4 -11 50.4260  7.2766   1
  -1  -4 -11 42.7056  7.7870   8
   1   4  11 59.0655  7.8457   5
   1   4  11 58.9692  3.9953   7
  -2  -4 -11 335.127  20.662   1
  -2  -4 -11 319.599  21.662   8
   2   4  11 264.973  16.240   5
  -3  -4 -11 66.2776  8.1033   8
  -3  -4 -11 58.5674  5.8331   4
  -3  -4 -11 59.5498  7.0391   1
  -4  -4 -11 79.9700  7.1809   1
  -4  -4 -11 78.9817  8.6152   8
   4   4  11 78.2194  7.7373   6
  -5  -4 -11 119.089   8.529   1
  -5  -4 -11 110.381   9.789   8
   5   4  11 110.485   9.072   6
  -6  -4 -11 13.9282  4.0050   1
  -6  -4 -11 12.3309  6.0313   8
   6   4  11 21.5129  4.8660   6
  -7  -4 -11 28.6121  5.4178   3
  -7  -4 -11 25.8603  6.8668   8
  -7  -4 -11 29.2940  4.1959   1
   7   4  11 27.3895  5.1167   6
  -8  -4 -11 76.4148  8.5592   3
  -8  -4 -11 64.7952  8.6930   8
   8   4  11 51.4690  5.8325   6
  -9  -4 -11 -6.3773  6.2590   3
  -9  -4 -11 4.97750 4.44185   8
   3  -5 -11 15.8602  7.3988   1
  -3   5  11 13.8405  7.3556   5
   2  -5 -11 21.3083  7.5355   1
  -2   5  11 21.8038  5.6424   7
  -2   5  11 25.1361  7.4603   5
   1  -5 -11 26.7439  6.9767   1
   1  -5 -11 24.4727  7.1192   8
  -1   5  11 38.3607  5.1427   7
  -1   5  11 27.7943  6.9761   5
   0  -5 -11 3.84898 5.94794   1
   0  -5 -11 6.52405 6.53691   8
   0   5  11 -2.8814  3.2939   7
   0   5  11 1.68625 5.30453   5
  -1  -5 -11 135.357  11.651   1
  -1  -5 -11 147.808  11.733   8
   1   5  11 127.487   7.384   7
   1   5  11 110.818  10.356   5
  -2  -5 -11 125.209  11.802   1
  -2  -5 -11 132.459  10.070   8
   2   5  11 149.910  11.559   5
  -3  -5 -11 24.6483  5.7039   1
  -3  -5 -11 23.5464  7.0457   8
   3   5  11 28.9883  6.0079   5
  -4  -5 -11 17.2799  5.0599   8
  -4  -5 -11 26.1669  5.2165   1
   4   5  11 17.8558  4.9095   5
  -5  -5 -11 66.3960  7.3527   1
  -5  -5 -11 69.1067  5.8254   3
   5   5  11 85.1202  8.1082   6
  -6  -5 -11 -0.2638  5.3820   8
  -6  -5 -11 3.87818 3.95574   3
  -6  -5 -11 1.81345 3.48680   1
   6   5  11 2.36444 3.81601   6
  -7  -5 -11 73.6706  6.9244   3
  -7  -5 -11 54.3399  6.1510   1
  -7  -5 -11 67.7380  8.5682   8
   7   5  11 63.1162  6.3281   6
  -8  -5 -11 44.3861  6.6193   3
   8   5  11 30.2904  4.3751   6
  -9  -5 -11 -3.1330  5.1553   3
  -9  -5 -11 3.39528 6.19087   8
   2  -6 -11 39.6900  8.7244   1
  -2   6  11 32.7099  8.3524   5
  -2   6  11 90.6738 31.5783   7
   1  -6 -11 26.3784  7.2455   1
  -1   6  11 17.0842  7.1414   5
  -1   6  11 104.945  42.315   7
   0  -6 -11 10.5530  6.5982   8
   0   6  11 12.6794  4.1504   7
   0   6  11 11.9205  4.9976   5
  -1  -6 -11 136.636  11.083   1
  -1  -6 -11 101.322   9.710   8
   1   6  11 109.959  10.620   5
   1   6  11 127.912   7.779   7
  -2  -6 -11 14.8575  6.1723   1
  -2  -6 -11 9.66078 6.65328   8
   2   6  11 6.85339 4.32014   5
  -3  -6 -11 62.3051  7.5634   1
  -3  -6 -11 73.5096  8.9292   8
   3   6  11 58.5745  7.2944   5
  -4  -6 -11 54.3308  8.2121   8
  -4  -6 -11 61.7184  4.6116   3
   4   6  11 56.8959  6.8461   5
  -5  -6 -11 0.49054 2.88557   3
  -5  -6 -11 12.7545  6.0400   8
  -5  -6 -11 0.75965 3.89665   1
   5   6  11 1.43556 4.29885   5
  -6  -6 -11 12.8552  4.2136   3
  -6  -6 -11 11.7497  5.8714   8
  -6  -6 -11 5.23947 3.98063   1
   6   6  11 9.58445 4.38707   6
  -7  -6 -11 32.8716  7.0176   8
  -7  -6 -11 37.9796  5.6621   3
  -7  -6 -11 35.8273  5.2093   1
   7   6  11 38.0011  5.1036   6
  -8  -6 -11 5.20896 5.74651   8
  -8  -6 -11 10.3989  6.0155   3
   8   6  11 10.2831  3.3442   6
  -9  -6 -11 9.41208 5.65684   3
  -9  -6 -11 7.85179 6.73056   8
   1  -7 -11 10.1078  7.0619   1
  -1   7  11 0.80829 6.35149   5
   0  -7 -11 23.9498  7.2327   1
   0  -7 -11 11.7157  7.0594   8
   0   7  11 20.1973  7.3540   5
  -1  -7 -11 63.3406  8.7970   1
  -1  -7 -11 62.1268  8.9889   8
   1   7  11 53.3858  8.5639   5
  -2  -7 -11 -2.3697  6.1594   8
  -2  -7 -11 4.64207 5.97862   1
   2   7  11 4.82865 5.66789   5
  -3  -7 -11 99.2316 10.2193   8
  -3  -7 -11 101.827   9.940   1
   3   7  11 103.186   9.605   5
  -4  -7 -11 24.3085  7.4346   8
   4   7  11 32.1971  6.3293   5
  -5  -7 -11 5.64283 6.09801   8
  -5  -7 -11 0.43069 4.36803   1
  -5  -7 -11 2.33972 3.05751   3
   5   7  11 3.53956 4.52999   5
  -6  -7 -11 62.1459 13.7409   1
  -6  -7 -11 47.4955  7.8167   8
   6   7  11 43.7645  5.8299   5
  -7  -7 -11 33.9056  7.2857   8
  -7  -7 -11 32.9905  5.3106   3
   7   7  11 33.7927  5.1941   6
  -8  -7 -11 0.32672 5.26893   8
  -8  -7 -11 2.86800 5.02514   3
  -1  -8 -11 6.25332 6.90250   8
  -1  -8 -11 4.38086 6.74414   1
   1   8  11 7.79105 5.08786   5
  -2  -8 -11 10.2473  5.2373   1
  -2  -8 -11 17.9670  7.2039   8
   2   8  11 10.6842  6.7283   5
  -3  -8 -11 42.9519  7.5625   1
  -3  -8 -11 23.7180  7.4877   8
   3   8  11 36.1543  7.2973   5
  -4  -8 -11 7.65172 6.19441   8
  -4  -8 -11 16.0260  6.3406   1
   4   8  11 20.5505  4.5842   4
   4   8  11 25.1587  6.5010   5
  -5  -8 -11 12.7162  6.4846   8
  -5  -8 -11 18.6993  5.9098   1
   5   8  11 14.2034  6.8552   5
   5   8  11 11.2748  5.0398   4
  -6  -8 -11 26.9356  5.7840   1
  -6  -8 -11 24.4979  4.9718   3
  -6  -8 -11 24.4111  6.7921   8
   6   8  11 22.2259  5.1688   5
  -7  -8 -11 3.38364 6.02552   8
  -7  -8 -11 5.09539 4.24238   3
   7   8  11 -0.9668  3.1695   5
  -8  -8 -11 12.8339  5.4367   3
  -2  -9 -11 28.8840  6.8681   1
   2   9  11 16.2502  7.1243   5
   2   9  11 26.1283  7.8215   1
  -3  -9 -11 22.0084  7.2412   8
  -3  -9 -11 14.6242  5.7385   1
   3   9  11 24.9576  7.6711   1
   3   9  11 24.6452  7.6227   5
  -4  -9 -11 3.37410 4.85247   8
  -4  -9 -11 6.46594 6.58882   1
   4   9  11 -0.8365  7.6611   1
   4   9  11 -1.6606  5.6562   5
  -5  -9 -11 13.4785  6.3465   1
  -5  -9 -11 15.0052  7.1599   8
   5   9  11 11.8747  6.0520   4
   5   9  11 19.7976  6.0397   5
  -6  -9 -11 8.93893 6.50088   8
  -6  -9 -11 6.02316 5.89037   1
   6   9  11 -2.1702  5.5939   4
   6   9  11 2.94643 6.46513   5
   1   5 -12 24.5609  8.0200   1
   0   5 -12 67.6549 28.2381   8
   0   5 -12 29.0734  6.5206   1
   0  -5  12 39.8457  8.0900   6
  -1   5 -12 7.56404 7.06470   1
  -1   5 -12 12.2651  5.5032   8
   1  -5  12 14.6862  7.5599   6
  -2   5 -12 36.1625  6.6691   1
   2   4 -12 17.1556  6.0786   8
   2   4 -12 22.4439  5.6718   1
  -2  -4  12 20.6584  5.7020   6
   1   4 -12 21.5790  7.0012   1
   1   4 -12 35.3888  6.8384   8
  -1  -4  12 24.0093  5.6779   6
   0   4 -12 5.30317 5.02907   8
   0   4 -12 19.3898  6.7858   1
   0  -4  12 5.48062 4.53624   6
  -1   4 -12 64.3804  7.6354   1
  -1   4 -12 65.5278  7.6326   8
   1  -4  12 55.6731  8.8284   6
  -2   4 -12 45.0183  7.0458   8
  -2   4 -12 46.2949  8.3243   1
   2  -4  12 53.4780  8.4144   6
  -3   4 -12 3.19752 6.95309   8
  -3   4 -12 6.27630 5.96840   1
   3  -4  12 13.8753  6.9000   6
  -4   4 -12 61.3402  8.7317   1
  -4   4 -12 68.8668  9.1316   5
  -4   4 -12 68.8243  9.4018   8
   4  -4  12 52.2583  8.7804   6
   3   3 -12 36.3736 23.7247   8
   3   3 -12 16.2583  6.5380   1
  -3  -3  12 5.11169 6.27319   6
   2   3 -12 38.1218  6.7885   8
   2   3 -12 40.5814  7.5081   1
  -2  -3  12 31.2191  7.6431   6
   1   3 -12 16.4831  6.3899   1
   1   3 -12 19.1550  5.7393   8
  -1  -3  12 15.4178  6.7878   6
   0   3 -12 67.1226  7.5505   8
   0   3 -12 55.1769  7.8449   1
   0  -3  12 42.9531  7.7514   6
  -1   3 -12 92.4125  9.5042   8
  -1   3 -12 98.3653 10.4285   1
   1  -3  12 105.954  10.191   6
  -2   3 -12 12.5755  5.8572   8
  -2   3 -12 20.9145  6.4355   1
   2  -3  12 26.7702  6.9812   6
  -3   3 -12 18.2405  6.3068   1
  -3   3 -12 15.0831  5.9614   8
   3  -3  12 8.44011 6.06300   6
  -4   3 -12 13.8255  6.6070   8
  -4   3 -12 16.0657  6.2950   1
   4  -3  12 29.0808  7.0668   6
  -5   3 -12 8.62102 5.92792   5
  -5   3 -12 17.0820  6.2317   1
  -5   3 -12 12.9143  7.1797   8
   5  -3  12 18.5904  6.6309   6
   3   2 -12 21.8538  6.8195   1
   3   2 -12 16.6885  5.6568   8
  -3  -2  12 13.7670  5.4206   7
  -3  -2  12 25.1810  7.3159   6
   2   2 -12 21.2281  6.6041   8
   2   2 -12 33.2954  7.0769   1
   1   2 -12 10.8720  5.5044   1
   1   2 -12 10.9874  5.6679   8
  -1  -2  12 9.84309 4.56360   6
   0   2 -12 69.3208  8.6596   1
   0   2 -12 75.6901  8.2176   8
   0  -2  12 75.3519  8.8631   6
  -1   2 -12 122.220  10.125   8
  -1   2 -12 137.906  10.872   1
   1  -2  12 113.109   9.850   6
  -2   2 -12 8.16968 5.70641   1
  -2   2 -12 16.3294  6.0180   8
   2  -2  12 20.4474  6.3550   6
  -3   2 -12 46.6294  6.0340   1
   3  -2  12 66.6416  8.3575   6
  -4   2 -12 32.1739  6.3493   1
  -4   2 -12 23.0019  6.6796   8
   4  -2  12 27.5281  6.5129   6
  -5   2 -12 17.6632  5.9076   1
  -5   2 -12 26.2531  7.3672   8
  -6   2 -12 35.1955  6.4062   1
  -6   2 -12 40.7061  8.0522   5
  -6   2 -12 48.9483  8.5915   8
   4   1 -12 30.6335  6.2679   1
   3   1 -12 31.2548  6.8526   8
   3   1 -12 27.0751  6.9819   1
  -3  -1  12 34.7715  5.9606   7
   2   1 -12 22.0538  6.5334   8
   2   1 -12 11.6617  4.4473   1
  -2  -1  12 19.6843  4.5895   7
  -2  -1  12 19.0316  6.4875   6
   1   1 -12 34.6457  6.8671   8
   1   1 -12 28.1172  6.3376   1
  -1  -1  12 31.8106  7.0321   6
  -1  -1  12 30.8780  4.3188   7
   0   1 -12 133.095  10.293   8
   0   1 -12 108.995  10.642   1
   0  -1  12 125.420  10.930   6
   0  -1  12 131.575   7.790   7
  -1   1 -12 39.0863  7.0337   8
  -1   1 -12 45.2474  7.0613   1
  -2   1 -12 36.9951  6.5787   1
  -2   1 -12 25.7740  6.3933   8
  -3   1 -12 89.6310  8.2625   1
  -3   1 -12 90.4483  9.1564   8
   3  -1  12 99.6223  8.5755   6
  -4   1 -12 10.7829  5.3396   1
  -4   1 -12 16.9955  4.8959   8
   4  -1  12 23.1727  6.0755   6
  -5   1 -12 7.27103 6.10596   8
  -5   1 -12 6.41270 4.97087   1
   5  -1  12 12.6467  5.5736   6
  -6   1 -12 62.8391  7.4955   1
  -6   1 -12 68.3182  9.1926   8
   6  -1  12 79.4775  8.5195   6
  -7   1 -12 10.3481  7.5751   8
   7  -1  12 18.4701  6.5267   6
   4   0 -12 61.6047  9.5583   1
   3   0 -12 46.9999  6.6871   1
   3   0 -12 40.3376  7.4584   8
  -3   0  12 47.7216  8.3711   6
  -3   0  12 58.9906  6.8892   7
   2   0 -12 3.49799 5.68868   1
   2   0 -12 12.2112  6.3621   8
  -2   0  12 8.97361 6.17809   6
  -2   0  12 11.4072  4.3414   7
   1   0 -12 64.1226  7.8699   1
   1   0 -12 52.9785  6.8111   8
  -1   0  12 68.4193  5.4742   7
  -1   0  12 59.2151  7.9448   6
   0   0 -12 61.0263  8.2581   8
   0   0 -12 65.7323  7.8798   1
   0   0  12 75.6692  5.2586   7
   0   0  12 66.2342  8.8685   6
  -1   0 -12 10.0404  3.9519   1
  -1   0 -12 3.38132 5.69454   8
   1   0  12 4.30928 5.40638   6
   1   0  12 1.73290 1.34327   7
  -2   0 -12 141.280  11.836   1
  -2   0 -12 164.883  11.522   8
   2   0  12 150.087  12.533   6
  -3   0 -12 125.378  10.579   8
  -3   0 -12 130.865  10.069   1
   3   0  12 127.897  10.394   6
  -4   0 -12 1.58774 5.80166   8
  -4   0 -12 5.33402 4.74597   1
   4   0  12 5.01257 3.71399   6
  -5   0 -12 84.7759  9.2486   8
  -5   0 -12 69.2580  7.6067   1
   5   0  12 80.1740  8.1954   6
  -6   0 -12 34.0615 11.1063   1
  -6   0 -12 15.7993  7.0092   8
   6   0  12 22.1606  6.7791   6
  -7   0 -12 17.7967  7.2569   8
   7   0  12 14.8601  5.6040   6
   3  -1 -12 22.3966  6.7736   1
   3  -1 -12 33.9893  6.0525   8
  -3   1  12 20.1537  4.8659   7
  -3   1  12 27.8015  7.7779   6
   2  -1 -12 -6.8049  6.0578   8
   2  -1 -12 1.35542 5.13310   1
  -2   1  12 10.2479  6.3229   6
   1  -1 -12 53.7056  6.5765   1
   1  -1 -12 59.5236  8.2557   8
  -1   1  12 52.7203  7.8227   6
  -1   1  12 59.0488  5.2259   7
   0  -1 -12 9.05987 6.32390   8
   0   1  12 23.3803  6.2387   6
   0   1  12 20.7379  3.0083   7
  -1  -1 -12 43.9813  7.5831   8
  -1  -1 -12 52.0395  7.0121   1
   1   1  12 48.6010  7.3096   6
  -2  -1 -12 141.321  11.441   8
  -2  -1 -12 155.183  13.070   1
   2   1  12 169.330  12.947   6
  -3  -1 -12 55.2547  7.9773   8
  -3  -1 -12 58.5401  7.6940   1
   3   1  12 49.9764  7.3263   6
  -4  -1 -12 55.7892  7.3131   1
  -4  -1 -12 60.5364  7.0518   8
   4   1  12 48.8750  6.1716   6
  -5  -1 -12 102.558   9.838   8
  -5  -1 -12 115.319  10.171   1
   5   1  12 110.571  10.401   6
  -6  -1 -12 -0.8203  6.1326   1
  -6  -1 -12 -4.4875  6.0838   8
   6   1  12 -0.8047  4.6526   6
  -7  -1 -12 32.6855  8.0620   8
   7   1  12 50.8619  7.2856   6
   8   1  12 33.6801  5.5237   6
   3  -2 -12 11.9857  6.8313   1
   3  -2 -12 11.0173  6.6557   8
  -3   2  12 7.86518 6.87924   6
  -3   2  12 9.28465 4.13268   7
   2  -2 -12 21.1597  7.0098   8
   2  -2 -12 19.8797  6.6143   1
  -2   2  12 25.7045  5.8937   6
  -2   2  12 32.6703  4.8296   7
   1  -2 -12 36.8398  5.7474   1
   1  -2 -12 34.4704  7.4958   8
  -1   2  12 22.7325  3.4690   7
  -1   2  12 30.5268  7.0042   6
   0  -2 -12 7.71656 4.03222   1
   0  -2 -12 4.93148 6.23072   8
   0   2  12 -0.4204  5.3803   6
   0   2  12 4.72474 1.76697   7
  -1  -2 -12 94.5922  8.9490   8
  -1  -2 -12 117.235   9.700   1
   1   2  12 111.227   9.604   6
  -2  -2 -12 167.221  11.435   1
  -2  -2 -12 185.012  16.132   8
   2   2  12 180.690  14.048   6
  -3  -2 -12 2.03222 4.59283   1
  -3  -2 -12 -0.3963  5.9801   8
   3   2  12 2.31668 5.17300   6
  -4  -2 -12 71.8598  8.4726   8
  -4  -2 -12 71.2861  7.9726   1
   4   2  12 94.6453  8.8462   6
  -5  -2 -12 15.0063  4.8583   1
  -5  -2 -12 20.6895  6.6499   8
   5   2  12 22.6908  6.3404   6
  -6  -2 -12 43.6916  5.7158   1
  -6  -2 -12 31.7948  5.8522   8
   6   2  12 37.9028  6.9693   6
  -7  -2 -12 38.6412  5.4425   1
  -7  -2 -12 45.1209  8.0935   8
   7   2  12 45.1951  7.0567   6
  -8  -2 -12 8.20798 7.07093   8
   8   2  12 11.7029  5.1926   6
   3  -3 -12 9.17584 5.31893   1
  -3   3  12 11.7192  4.5032   7
   2  -3 -12 63.5068  7.8111   1
   2  -3 -12 66.7487  8.9970   8
  -2   3  12 64.7075  6.3996   7
   1  -3 -12 22.1234  7.2920   8
   1  -3 -12 33.2505  5.8956   1
  -1   3  12 22.6745  4.0608   7
   0  -3 -12 18.9419  6.1667   1
   0  -3 -12 19.6861  7.2624   8
   0   3  12 25.6210  6.6412   6
  -1  -3 -12 75.6364  8.3371   8
  -1  -3 -12 75.3087  8.3718   1
   1   3  12 83.3287  8.9301   6
  -2  -3 -12 57.2868  8.2237   8
  -2  -3 -12 51.3526  7.0812   1
   2   3  12 49.0906  6.6523   6
  -3  -3 -12 28.1730  6.0065   1
  -3  -3 -12 30.0018 14.3621   8
   3   3  12 28.0375  6.0592   6
  -4  -3 -12 119.577  10.490   8
  -4  -3 -12 139.482   9.738   1
   4   3  12 107.199   9.605   6
  -5  -3 -12 2.86422 6.06587   8
  -5  -3 -12 18.7922  5.7675   1
   5   3  12 9.50758 4.89653   6
  -6  -3 -12 32.2082  5.4504   1
   6   3  12 43.5851  6.1027   6
  -7  -3 -12 38.2735  8.1294   8
  -7  -3 -12 50.7578  5.6820   1
   7   3  12 55.0431  6.5974   6
  -8  -3 -12 13.8642  7.1770   8
   8   3  12 12.1821  4.9042   6
   2  -4 -12 38.7915  8.4867   8
   2  -4 -12 34.8955  8.0147   1
  -2   4  12 29.4632  8.1047   5
   1  -4 -12 3.35735 6.64135   8
   1  -4 -12 1.73835 6.23846   1
  -1   4  12 3.03410 6.04834   5
   0  -4 -12 41.6113  7.5756   1
   0  -4 -12 47.5342  8.6614   8
   0   4  12 43.2480  7.4436   5
  -1  -4 -12 42.2999  7.3448   1
  -1  -4 -12 43.8791  7.8551   8
   1   4  12 31.8980  6.9083   5
  -2  -4 -12 5.62062 5.56180   1
  -2  -4 -12 28.9134  6.0377   8
  -3  -4 -12 118.655   9.582   1
  -3  -4 -12 106.874  10.768   8
   3   4  12 123.381  10.328   6
  -4  -4 -12 54.6763  6.9488   1
  -4  -4 -12 59.5098  8.5778   8
   4   4  12 71.5639  8.6450   6
  -5  -4 -12 3.23018 4.37204   1
  -5  -4 -12 0.90543 5.94881   8
   5   4  12 -0.2747  5.4145   6
  -6  -4 -12 17.1564  4.9958   8
   6   4  12 23.4771  5.2659   6
  -7  -4 -12 24.8289  7.3244   8
  -7  -4 -12 33.2226  4.9965   1
   7   4  12 29.0348  5.9765   6
  -8  -4 -12 5.64505 6.91232   8
   8   4  12 2.98453 3.36803   6
   1  -5 -12 13.4092  7.1114   1
   1  -5 -12 17.3743  7.4116   8
  -1   5  12 9.78455 6.53123   5
   0  -5 -12 32.0594  8.0871   8
   0  -5 -12 21.7812  7.1807   1
   0   5  12 28.5149  7.2058   5
  -1  -5 -12 16.4253  5.2033   1
  -1  -5 -12 14.0915  5.6119   8
   1   5  12 22.8652  6.4501   5
  -2  -5 -12 20.8303  7.1515   8
  -2  -5 -12 15.2000  6.1520   1
   2   5  12 8.58658 5.73778   5
  -3  -5 -12 115.227   9.981   1
  -3  -5 -12 111.699  10.910   8
   3   5  12 129.789  10.002   5
  -4  -5 -12 21.8171  5.7775   1
  -4  -5 -12 22.7431  7.1855   8
  -5  -5 -12 36.7555  5.9595   1
  -5  -5 -12 37.1078  7.7779   8
   5   5  12 39.7647  6.5978   6
  -6  -5 -12 49.5377  6.1164   1
   6   5  12 37.8515  6.2510   6
  -7  -5 -12 -2.5495  6.0199   8
  -7  -5 -12 -0.1088  4.4144   3
   7   5  12 0.71022 3.46067   6
  -8  -5 -12 2.61324 4.86632   8
  -8  -5 -12 2.84576 5.76644   3
   1  -6 -12 1.06491 7.12136   1
   0  -6 -12 21.5728  7.3710   1
   0  -6 -12 24.3444  6.1515   8
   0   6  12 8.33458 6.74824   5
  -1  -6 -12 3.12207 5.74639   1
  -1  -6 -12 -9.9642  6.8637   8
   1   6  12 -0.7700  6.0540   5
  -2  -6 -12 18.5398  7.4642   8
  -2  -6 -12 28.7946  6.9477   1
   2   6  12 28.1375  6.9589   5
  -3  -6 -12 45.7399  7.4095   1
  -3  -6 -12 60.0687  8.9055   8
   3   6  12 73.8319  8.2526   5
  -4  -6 -12 0.32172 6.64919   8
  -4  -6 -12 -2.8312  4.9237   1
   4   6  12 10.7006  5.1349   5
  -5  -6 -12 66.2595  7.3674   1
  -5  -6 -12 68.6408  9.0854   8
  -6  -6 -12 8.75653 3.31205   3
  -6  -6 -12 7.01744 5.36747   8
  -6  -6 -12 13.8966  7.0435   1
   6   6  12 7.10875 6.13776   6
  -7  -6 -12 8.32109 6.39635   8
  -7  -6 -12 -1.4231  4.1321   3
   7   6  12 7.65369 5.24014   6
  -8  -6 -12 25.2575  6.4514   3
  -8  -6 -12 10.8641  5.0065   8
   0  -7 -12 10.5223  5.5624   1
  -1  -7 -12 6.43016 6.92284   8
  -1  -7 -12 3.11362 4.76630   1
   1   7  12 6.63911 6.90553   5
  -2  -7 -12 27.2195  6.3773   8
  -2  -7 -12 22.5113  6.9543   1
   2   7  12 22.4441  7.5363   5
  -3  -7 -12 11.4598  6.2718   1
  -3  -7 -12 8.27174 6.96762   8
  -4  -7 -12 5.40347 6.85951   8
  -4  -7 -12 17.9659  6.6180   1
   4   7  12 14.8237  5.7587   5
  -5  -7 -12 38.2593  8.0987   8
  -5  -7 -12 39.4076  6.8989   1
   5   7  12 28.4104  6.2261   5
  -6  -7 -12 -1.1440  4.6591   8
  -6  -7 -12 5.45940 5.70209   1
   6   7  12 2.78664 4.24748   5
  -7  -7 -12 6.04059 6.58515   8
   7   7  12 8.22040 5.00008   6
  -2  -8 -12 17.5330  7.2865   1
   2   8  12 13.5272  7.3847   5
  -3  -8 -12 3.85879 6.67123   1
  -3  -8 -12 11.4922  7.5581   8
   3   8  12 12.6566  7.0621   5
  -4  -8 -12 37.3783  9.8841   8
  -4  -8 -12 49.7596  8.5200   1
   4   8  12 45.4669  7.7472   5
  -5  -8 -12 12.5819  6.3686   1
  -5  -8 -12 24.6365  7.3947   8
   5   8  12 17.4665  6.2196   5
  -6  -8 -12 8.30616 6.97086   8
  -6  -8 -12 -1.5508  5.1187   1
   6   8  12 2.61632 4.68745   5
   1   3 -13 27.4823  7.8471   1
   1   3 -13 16.4396  6.2780   8
  -1  -3  13 16.7274  5.5728   6
   0   3 -13 22.3452  7.5458   8
   0   3 -13 32.4437  7.8196   1
   0  -3  13 23.5692  7.4942   6
  -1   3 -13 4.59091 4.70149   1
  -1   3 -13 12.6316  6.1601   8
   1  -3  13 9.58911 6.87385   6
  -2   3 -13 56.5842  8.0874   8
  -2   3 -13 67.3178  8.8903   1
   2  -3  13 61.0813  9.1202   6
  -3   3 -13 35.9496  7.4464   1
  -3   3 -13 39.9781  7.8259   8
   3  -3  13 37.8433  8.0571   6
  -4   3 -13 3.35346 7.51182   1
   2   2 -13 13.7597  6.2849   1
  -2  -2  13 12.3433  7.1153   6
   1   2 -13 16.3011  5.0767   1
  -1  -2  13 16.2724  6.9554   6
   0   2 -13 4.10850 6.07790   8
   0   2 -13 -0.9407  6.1108   1
   0  -2  13 -3.0668  6.0373   6
  -1   2 -13 29.2368  7.2992   1
  -1   2 -13 47.3548  7.6572   8
   1  -2  13 38.8683  7.9754   6
  -2   2 -13 65.9998  8.4143   8
  -2   2 -13 77.7105  9.2632   1
  -3   2 -13 26.1335  6.7656   1
  -3   2 -13 33.2609  7.9974   8
   3  -2  13 35.9324  7.4119   6
  -4   2 -13 21.7718  6.5526   1
  -4   2 -13 10.6379  7.1365   8
   4  -2  13 10.7306  5.0969   6
  -5   2 -13 25.3276  6.7411   1
   5  -2  13 13.2296  5.0691   6
   2   1 -13 38.8141  7.8053   8
   2   1 -13 35.6799  7.8613   1
  -2  -1  13 37.8581  8.2883   6
   1   1 -13 39.9705  7.5304   1
   1   1 -13 38.7899  7.6123   8
  -1  -1  13 43.2826  7.9921   6
   0   1 -13 -1.8529  4.2374   1
   0   1 -13 -7.0761  7.6149   8
   0  -1  13 3.06689 5.89691   6
  -1   1 -13 61.7135  9.0629   8
  -1   1 -13 58.6112  7.9730   1
   1  -1  13 37.9195  7.5211   6
  -2   1 -13 26.8643  6.9137   1
  -2   1 -13 38.7394  6.1680   8
   2  -1  13 32.1933  7.1733   6
  -3   1 -13 0.17773 6.01888   8
  -3   1 -13 8.85485 5.91042   1
   3  -1  13 7.30180 6.23672   6
  -4   1 -13 77.6508  8.5259   1
  -4   1 -13 70.3695  9.2472   8
   4  -1  13 64.2694  8.6033   6
  -5   1 -13 4.29370 5.04100   8
  -5   1 -13 10.1289  5.5621   1
   5  -1  13 12.7973  6.3314   6
  -6   1 -13 -6.1992  4.9519   1
   6  -1  13 7.84960 7.25544   6
   2   0 -13 42.5854  7.9130   1
   2   0 -13 44.1147  9.2872   8
   1   0 -13 8.45759 6.04537   1
   1   0 -13 17.2066  6.8200   8
  -1   0  13 7.20884 6.50043   6
   0   0 -13 8.70954 5.88309   1
   0   0 -13 2.72542 6.22431   8
   0   0  13 0.88747 5.87987   6
  -1   0 -13 49.0713  7.8234   1
  -1   0 -13 58.0461  8.5316   8
   1   0  13 54.4669  8.1195   6
  -2   0 -13 14.8409  4.7276   1
  -2   0 -13 16.9451  6.5710   8
   2   0  13 28.2785  7.2770   6
  -3   0 -13 50.5534  6.8195   8
  -3   0 -13 38.9233  6.7746   1
   3   0  13 51.0014  7.7766   6
  -4   0 -13 43.7448  7.3002   1
   4   0  13 49.2214  7.7048   6
  -5   0 -13 16.0351  5.6877   1
  -5   0 -13 15.8941  6.8569   8
   5   0  13 15.9442  5.7670   6
  -6   0 -13 26.6487  6.7272   1
  -6   0 -13 13.7618  7.0295   8
   6   0  13 15.2300  6.2577   6
   2  -1 -13 23.7423  7.3824   8
   2  -1 -13 24.8780  5.8676   1
  -2   1  13 28.5046  6.3018   6
   1  -1 -13 -0.3888  4.3752   8
   1  -1 -13 7.31306 5.79829   1
  -1   1  13 6.27553 6.36976   6
   0  -1 -13 10.0542  6.3380   8
   0  -1 -13 15.5084  6.3513   1
   0   1  13 16.5246  6.7453   6
  -1  -1 -13 25.9995  5.9858   8
   1   1  13 28.5030  5.5541   6
  -2  -1 -13 1.62438 5.96657   8
  -2  -1 -13 9.91163 5.61636   1
   2   1  13 -0.0597  5.5279   6
  -3  -1 -13 71.7990  8.8591   8
  -3  -1 -13 66.5913  8.0872   1
   3   1  13 55.4209  7.8769   6
  -4  -1 -13 93.8804  8.6177   1
  -4  -1 -13 58.4726  8.7079   8
   4   1  13 78.1440  8.9240   6
  -5  -1 -13 4.37026 6.41086   8
  -5  -1 -13 9.48175 5.18773   1
   5   1  13 8.87900 5.38396   6
  -6  -1 -13 15.9796  7.0183   8
  -6  -1 -13 33.0207  5.9403   1
   6   1  13 30.9043  6.4461   6
   7   1  13 6.81111 7.34064   6
   2  -2 -13 7.02145 6.57257   1
   2  -2 -13 10.1772  5.2478   8
  -2   2  13 6.93381 6.85990   6
   1  -2 -13 34.0588  8.2174   8
  -1   2  13 27.2264  7.2650   6
   0  -2 -13 45.9438  7.9113   1
   0  -2 -13 39.7442  7.8419   8
   0   2  13 44.9451  7.7698   6
  -1  -2 -13 -0.4635  6.0491   8
  -1  -2 -13 6.13223 5.75286   1
   1   2  13 16.0559  4.8452   6
  -2  -2 -13 60.7134  8.0673   1
  -2  -2 -13 73.5287  9.2592   8
   2   2  13 72.5351  8.8555   6
  -3  -2 -13 73.7463  9.4550   8
  -3  -2 -13 62.3841  7.9496   1
   3   2  13 87.3703  8.9649   6
  -4  -2 -13 23.7816  5.6696   8
  -4  -2 -13 11.0237  5.3854   1
   4   2  13 20.8743  6.2197   6
  -5  -2 -13 24.9041  7.2149   8
  -5  -2 -13 18.1551  5.7659   1
   5   2  13 14.9283  5.7655   6
  -6  -2 -13 30.5558  7.4921   8
  -6  -2 -13 26.7838  5.6768   1
   6   2  13 20.9876  6.0810   6
  -7  -2 -13 -0.7610  6.5305   8
   7   2  13 1.24960 5.76489   6
   1  -3 -13 38.7181  8.5454   8
   1  -3 -13 37.0334  8.4846   1
  -1   3  13 40.7348  8.8519   6
   0  -3 -13 63.9859  9.6000   8
   0  -3 -13 55.3165  8.6393   1
   0   3  13 63.4182  8.9927   6
  -1  -3 -13 -1.1822  6.3546   8
  -1  -3 -13 2.93575 5.47062   1
   1   3  13 -3.7480  6.0055   6
  -2  -3 -13 52.0322  6.6705   1
  -2  -3 -13 46.2086  6.9557   8
   2   3  13 54.3497  7.9507   6
  -3  -3 -13 31.3253  6.5989   1
  -3  -3 -13 19.8143  7.2438   8
   3   3  13 21.3248  6.4493   6
  -4  -3 -13 7.68217 5.15894   1
  -4  -3 -13 6.22121 6.52075   8
   4   3  13 7.94990 5.56542   6
  -5  -3 -13 53.1979  7.4363   8
  -5  -3 -13 71.8103  7.6369   1
   5   3  13 67.8415  7.8947   6
  -6  -3 -13 37.4798  6.1650   1
  -6  -3 -13 35.3083  8.0183   8
   6   3  13 29.6242  6.9116   6
  -7  -3 -13 1.68732 7.05428   8
   7   3  13 -1.3492  4.7482   6
   1  -4 -13 18.2038  5.9330   1
   1  -4 -13 28.6547  8.8449   8
   0  -4 -13 0.86404 6.45581   1
   0  -4 -13 7.70347 7.47790   8
  -1  -4 -13 19.9637  7.7162   8
  -1  -4 -13 24.2555  7.1413   1
   1   4  13 15.5514  5.1903   6
  -2  -4 -13 14.3531  7.2360   8
  -2  -4 -13 23.6593  6.8888   1
   2   4  13 19.1109  6.8185   6
  -3  -4 -13 10.5156  6.0438   1
  -3  -4 -13 11.5725  7.0992   8
   3   4  13 11.8388  6.3021   6
  -4  -4 -13 25.9890  7.4727   8
  -4  -4 -13 14.6017  5.7502   1
   4   4  13 15.2956  6.1277   6
  -5  -4 -13 48.7696  6.9135   1
  -5  -4 -13 54.2242  8.9172   8
   5   4  13 56.0721  7.5707   6
  -6  -4 -13 1.83922 6.81223   8
  -6  -4 -13 1.79629 5.67445   1
   6   4  13 7.59850 5.92164   6
  -7  -4 -13 0.86262 7.44495   8
   7   4  13 14.9602  5.1140   6
   0  -5 -13 3.00926 7.66495   8
   0  -5 -13 -4.2863  7.0057   1
   0   5  13 10.7266  7.3409   5
  -1  -5 -13 16.7767  7.9818   8
  -1  -5 -13 9.37852 7.17261   1
   1   5  13 20.2335  5.5544   5
  -2  -5 -13 15.1109  5.1770   1
  -2  -5 -13 16.8298  7.3414   8
   2   5  13 24.3704  6.8167   5
  -3  -5 -13 -3.2113  5.6834   1
  -3  -5 -13 -7.9230  6.9221   8
   3   5  13 4.05843 4.43426   6
  -4  -5 -13 55.5174  9.5508   8
  -4  -5 -13 63.9585  8.0762   1
   4   5  13 49.1753  8.2372   6
  -5  -5 -13 15.3517  5.3946   1
  -5  -5 -13 29.2318  8.3452   8
   5   5  13 21.0204  6.3163   6
  -6  -5 -13 5.77462 7.09558   8
  -6  -5 -13 0.72822 4.47603   1
   6   5  13 3.23617 5.01642   6
  -7  -5 -13 29.7805  8.5756   8
   7   5  13 13.2096  5.0949   6
  -1  -6 -13 27.2459  7.8109   1
   1   6  13 14.5242  7.6610   5
  -2  -6 -13 8.85529 7.95308   8
  -2  -6 -13 5.08816 6.51069   1
   2   6  13 -2.9520  6.0879   5
  -3  -6 -13 11.9693  7.5448   8
  -3  -6 -13 1.51909 5.73210   1
   3   6  13 -0.2068  3.7794   5
  -4  -6 -13 43.4647  8.8829   8
  -4  -6 -13 26.9365  7.1246   1
   4   6  13 36.3097  7.1452   5
  -5  -6 -13 25.0727  8.5118   8
  -5  -6 -13 25.4247  6.3098   1
   5   6  13 12.3693  6.2572   6
  -6  -6 -13 2.50771 4.77849   1
  -6  -6 -13 0.11982 7.22889   8
   6   6  13 6.33954 5.16113   6
   7   6  13 25.1712  5.6476   6
  -2  -7 -13 0.28670 6.57764   1
  -3  -7 -13 19.3579  6.4437   8
  -3  -7 -13 16.2103  7.2857   1
   3   7  13 9.46837 4.79520   5
  -4  -7 -13 10.1568  7.5833   8
  -4  -7 -13 -3.3483  5.8217   1
   4   7  13 3.62702 5.78020   5
  -5  -7 -13 4.85383 6.11624   1
  -5  -7 -13 15.3156  7.6665   8
   5   7  13 9.74694 5.62220   5
  -6  -7 -13 24.7532  6.4535   1
  -2   2 -14 2.55271 4.67613   1
  -1   1 -14 -0.1678  6.6904   8
  -1   1 -14 9.76457 6.84718   1
   1  -1  14 4.78222 4.58015   6
  -2   1 -14 12.2480  7.0238   1
  -2   1 -14 19.4940  7.3630   8
   2  -1  14 10.4780  5.2927   6
  -3   1 -14 41.2550  7.8361   1
   3  -1  14 33.4165  7.9655   6
  -4   1 -14 16.0792  6.5463   1
   0   0 -14 16.0410  6.8084   1
   0   0 -14 8.82931 7.12991   8
  -1   0 -14 4.99385 5.05943   8
  -1   0 -14 0.99855 6.14781   1
   1   0  14 -2.9803  6.3295   6
  -2   0 -14 41.1852  7.9921   1
  -2   0 -14 36.3718  7.7225   8
   2   0  14 30.9721  6.4055   6
  -3   0 -14 18.2646  6.6332   1
  -3   0 -14 6.33405 6.80619   8
   3   0  14 29.0775  7.5231   6
  -4   0 -14 4.29892 6.13524   1
  -4   0 -14 7.33526 6.92806   8
   4   0  14 0.11765 5.98958   6
  -5   0 -14 19.8138  6.4171   1
   5   0  14 22.7786  8.1113   6
   0  -1 -14 17.2002  7.6623   8
   0  -1 -14 11.8938  7.0447   1
   0   1  14 11.0591  5.4802   6
  -1  -1 -14 16.0258  6.5272   1
  -1  -1 -14 8.02862 6.91599   8
   1   1  14 17.7438  6.9609   6
  -2  -1 -14 22.6024  7.5163   8
  -2  -1 -14 3.46614 6.02946   1
   2   1  14 9.97680 6.57624   6
  -3  -1 -14 2.66807 4.14678   1
  -3  -1 -14 -8.4952  6.8311   8
   3   1  14 0.11656 4.18143   6
  -4  -1 -14 47.1384  7.6125   1
  -4  -1 -14 33.5523  8.4529   8
   4   1  14 28.8902  7.3248   6
  -5  -1 -14 51.6165  7.7997   1
  -5  -1 -14 56.1394  9.4872   8
   5   1  14 49.2424  7.9958   6
   0  -2 -14 2.67649 6.85689   1
   0  -2 -14 8.34893 7.55903   8
  -1  -2 -14 16.8602  6.8783   1
  -1  -2 -14 21.2568  8.3372   8
   1   2  14 30.9769  8.0253   6
  -2  -2 -14 27.7008  7.3263   1
  -2  -2 -14 27.7400  8.1441   8
   2   2  14 38.9137  7.9676   6
  -3  -2 -14 -3.8000  4.9154   8
  -3  -2 -14 7.11429 5.63353   1
   3   2  14 -1.4826  5.8141   6
  -4  -2 -14 25.5508  6.8212   1
   4   2  14 32.8152  6.1575   6
  -5  -2 -14 15.2542  7.1953   8
  -5  -2 -14 7.96100 5.58078   1
   5   2  14 16.0353  6.5131   6
  -6  -2 -14 4.72427 5.10853   1
   6   2  14 -0.8287  5.5318   6
   0  -3 -14 8.23887 4.97826   1
  -1  -3 -14 17.1110  8.5657   8
   1   3  14 20.6215  7.2900   6
  -2  -3 -14 4.50200 7.39116   8
  -2  -3 -14 2.46749 6.17043   1
   2   3  14 -5.5638  6.1704   6
  -3  -3 -14 22.0937  7.9099   8
  -3  -3 -14 19.4481  6.6704   1
   3   3  14 13.1286  6.6144   6
  -4  -3 -14 24.2934  6.8371   1
  -4  -3 -14 16.6860  5.9333   8
   4   3  14 19.2422  6.4677   6
  -5  -3 -14 -11.291   6.634   8
  -5  -3 -14 3.08479 5.53143   1
   5   3  14 -0.6318  5.7751   6
  -6  -3 -14 21.4061  5.8547   1
   6   3  14 28.9748  8.0385   6
  -1  -4 -14 32.5113  8.5319   1
  -2  -4 -14 0.07996 4.32935   1
  -2  -4 -14 0.00000 7.38838   8
   2   4  14 5.63199 4.77139   6
  -3  -4 -14 19.8588  8.0179   8
  -3  -4 -14 15.8050  6.7794   1
   3   4  14 24.9614  7.1722   6
  -4  -4 -14 27.1583  6.7585   1
  -4  -4 -14 28.6712  8.6413   8
  -5  -4 -14 16.7556  8.3708   8
  -5  -4 -14 0.98386 5.01655   1
   5   4  14 4.77862 5.64169   6
  -6  -4 -14 14.3256  5.7413   1
   6   4  14 24.1160  6.4796   6
  -2  -5 -14 7.88406 7.63718   1
   2   5  14 24.3375  7.7642   6
  -3  -5 -14 19.5800  7.1757   1
   3   5  14 20.7663  7.3714   6
  -4  -5 -14 8.84330 6.19939   1
  -4  -5 -14 15.7737  8.5900   8
   4   5  14 4.75462 6.76313   6
  -5  -5 -14 13.4036  5.6255   1
   5   5  14 15.2270  6.3531   6
   0   0   0    0.00    0.00   0
;
_shelx_hkl_checksum              75967
loop_
_space_group_symop_operation_xyz
'x, y, z'
loop_
_atom_site_label
_atom_site_type_symbol
_atom_site_fract_x
_atom_site_fract_y
_atom_site_fract_z
_atom_site_U_iso_or_equiv
_atom_site_adp_type
_atom_site_occupancy
_atom_site_site_symmetry_order
_atom_site_calc_flag
_atom_site_refinement_flags_posn
_atom_site_refinement_flags_adp
C1A C 0.4677(6) 0.7993(5) 0.5715(4) 0.0503(11) Uani 1 1 d . .
N1A N 0.4475(6) 0.8724(5) 0.4665(4) 0.0600(11) Uani 1 1 d . .
H1A1 H 0.3605 0.9502 0.4621 0.072 Uiso 1 1 calc R U
H1A2 H 0.5209 0.8437 0.4004 0.072 Uiso 1 1 calc R U
N2A N 0.3521(6) 0.8488(6) 0.6674(4) 0.0785(15) Uani 1 1 d . .
H2A1 H 0.2673 0.9271 0.6585 0.094 Uiso 1 1 calc R U
H2A2 H 0.3604 0.8033 0.7398 0.094 Uiso 1 1 calc R U
S1A S 0.63344(19) 0.64879(19) 0.58991(13) 0.0699(4) Uani 1 1 d . .
C1C C 0.5415(5) 0.8486(5) 0.0878(4) 0.0458(10) Uani 1 1 d . .
C2C C 0.5534(6) 0.7975(6) -0.0216(5) 0.0570(12) Uani 1 1 d . .
H2C H 0.5031 0.7247 -0.0234 0.068 Uiso 1 1 calc R U
C3C C 0.6388(7) 0.8525(8) -0.1287(6) 0.0680(17) Uani 1 1 d . .
H3C H 0.6457 0.8179 -0.2034 0.082 Uiso 1 1 calc R U
C4C C 0.7117(7) 0.9545(7) -0.1268(5) 0.0675(16) Uani 1 1 d . .
H4C H 0.7702 0.9906 -0.2003 0.081 Uiso 1 1 calc R U
C5C C 0.7026(7) 1.0076(7) -0.0190(5) 0.0559(14) Uani 1 1 d . .
H5C H 0.7540 1.0801 -0.0189 0.067 Uiso 1 1 calc R U
C6C C 0.6174(6) 0.9540(6) 0.0898(4) 0.0444(11) Uani 1 1 d . .
C7C C 0.3831(8) 0.6947(7) 0.2008(6) 0.0595(16) Uani 1 1 d . .
H7C1 H 0.4637 0.6046 0.1640 0.071 Uiso 1 1 calc R U
H7C2 H 0.2970 0.7353 0.1537 0.071 Uiso 1 1 calc R U
C8C C 0.3104(7) 0.6535(6) 0.3291(5) 0.0634(14) Uani 1 1 d . .
H8C1 H 0.2710 0.5671 0.3327 0.076 Uiso 1 1 calc R U
H8C2 H 0.3946 0.6234 0.3777 0.076 Uiso 1 1 calc R U
C9C C 0.1012(7) 0.7350(7) 0.4960(5) 0.0682(14) Uani 1 1 d . .
H9C1 H 0.1798 0.6991 0.5495 0.082 Uiso 1 1 calc R U
H9C2 H 0.0579 0.6528 0.4939 0.082 Uiso 1 1 calc R U
C10C C -0.0330(8) 0.8659(8) 0.5439(7) 0.0875(19) Uani 1 1 d . .
H10A H -0.0974 0.9150 0.4816 0.105 Uiso 1 1 calc R U
H10B H -0.1057 0.8319 0.6154 0.105 Uiso 1 1 calc R U
C11C C -0.0453(9) 1.1185(9) 0.5385(8) 0.092(2) Uani 1 1 d . .
H11A H -0.1645 1.1461 0.5694 0.111 Uiso 1 1 calc R U
H11B H -0.0234 1.1304 0.4490 0.111 Uiso 1 1 calc R U
C12C C 0.0198(9) 1.2182(8) 0.5822(8) 0.090(2) Uani 1 1 d . .
H12A H -0.0284 1.3230 0.5508 0.108 Uiso 1 1 calc R U
H12B H -0.0106 1.2127 0.6716 0.108 Uiso 1 1 calc R U
C13C C 0.2559(8) 1.2950(6) 0.5365(5) 0.0718(16) Uani 1 1 d . .
H13A H 0.2249 1.3350 0.6165 0.086 Uiso 1 1 calc R U
H13B H 0.2108 1.3770 0.4777 0.086 Uiso 1 1 calc R U
C14C C 0.4360(8) 1.2394(7) 0.4976(5) 0.0740(17) Uani 1 1 d . .
H14A H 0.4830 1.3165 0.5062 0.089 Uiso 1 1 calc R U
H14B H 0.4800 1.1480 0.5492 0.089 Uiso 1 1 calc R U
C15C C 0.6458(7) 1.1325(7) 0.3362(6) 0.0632(14) Uani 1 1 d . .
H15A H 0.6778 1.0362 0.3860 0.076 Uiso 1 1 calc R U
H15B H 0.7103 1.1949 0.3451 0.076 Uiso 1 1 calc R U
C16C C 0.6781(7) 1.1044(6) 0.2060(5) 0.0547(13) Uani 1 1 d . .
H16A H 0.6328 1.1985 0.1575 0.066 Uiso 1 1 calc R U
H16B H 0.7966 1.0656 0.1728 0.066 Uiso 1 1 calc R U
O1C O 0.4601(4) 0.8042(4) 0.1980(3) 0.0530(8) Uani 1 1 d . .
O2C O 0.1802(4) 0.7752(4) 0.3782(3) 0.0629(9) Uani 1 1 d . .
O3C O 0.0263(5) 0.9719(5) 0.5775(4) 0.0782(11) Uani 1 1 d . .
O4C O 0.1919(5) 1.1764(4) 0.5437(3) 0.0714(10) Uani 1 1 d . .
O5C O 0.4785(5) 1.2068(4) 0.3755(3) 0.0611(9) Uani 1 1 d . .
O6C O 0.6013(5) 0.9964(4) 0.2022(3) 0.0504(9) Uani 1 1 d . .
C1S C 0.9035(6) 0.5700(5) 0.1311(5) 0.0502(11) Uani 1 1 d . .
C2S C 0.8729(6) 0.4693(5) 0.0741(5) 0.0592(13) Uani 1 1 d . .
C3S C 0.9184(7) 0.4635(6) -0.0492(6) 0.0664(15) Uani 1 1 d . .
C4S C 0.9955(7) 0.5603(7) -0.1183(5) 0.0727(16) Uani 1 1 d . .
C5S C 1.0263(6) 0.6622(6) -0.0650(5) 0.0652(15) Uani 1 1 d . .
C6S C 0.9816(7) 0.6646(7) 0.0577(6) 0.0536(16) Uani 1 1 d . .
F1S F 0.7985(5) 0.3718(4) 0.1392(4) 0.0906(11) Uani 1 1 d . .
F2S F 0.8897(7) 0.3618(6) -0.1016(5) 0.1073(17) Uani 1 1 d . .
F3S F 1.0378(6) 0.5569(6) -0.2376(4) 0.1109(14) Uani 1 1 d . .
F4S F 1.0991(6) 0.7610(6) -0.1333(5) 0.0992(18) Uani 1 1 d . .
F5S F 1.0113(4) 0.7689(4) 0.1075(4) 0.0797(10) Uani 1 1 d . .
I1S I 0.81583(3) 0.58779(3) 0.31802(3) 0.06540(14) Uani 1 1 d . .
C1T C 0.3556(6) 0.2961(5) 0.9370(5) 0.0508(11) Uani 1 1 d . .
C2T C 0.3154(8) 0.3206(7) 1.0574(6) 0.0539(16) Uani 1 1 d . .
C3T C 0.2292(6) 0.2403(6) 1.1427(5) 0.0608(13) Uani 1 1 d . .
C4T C 0.1813(6) 0.1350(6) 1.1085(5) 0.0616(13) Uani 1 1 d . .
C5T C 0.2206(7) 0.1094(6) 0.9898(5) 0.0627(14) Uani 1 1 d . .
C6T C 0.3063(7) 0.1880(6) 0.9053(5) 0.0562(12) Uani 1 1 d . .
F1T F 0.3565(5) 0.4272(4) 1.0920(4) 0.0837(11) Uani 1 1 d . .
F2T F 0.1882(6) 0.2705(7) 1.2588(4) 0.0918(17) Uani 1 1 d . .
F3T F 0.0952(5) 0.0579(5) 1.1907(4) 0.0946(14) Uani 1 1 d . .
F4T F 0.1715(7) 0.0054(5) 0.9562(5) 0.0996(16) Uani 1 1 d . .
F5T F 0.3411(5) 0.1592(4) 0.7890(3) 0.0849(10) Uani 1 1 d . .
I1T I 0.47746(3) 0.42483(3) 0.80392(3) 0.06723(14) Uani 1 1 d . .
loop_
_atom_site_aniso_label
_atom_site_aniso_U_11
_atom_site_aniso_U_22
_atom_site_aniso_U_33
_atom_site_aniso_U_23
_atom_site_aniso_U_13
_atom_site_aniso_U_12
C1A 0.059(3) 0.051(3) 0.045(3) 0.000(2) -0.009(2) -0.026(2)
N1A 0.072(3) 0.056(3) 0.044(2) 0.0016(19) -0.009(2) -0.016(2)
N2A 0.075(3) 0.085(4) 0.050(3) 0.007(2) -0.006(2) -0.002(3)
S1A 0.0677(8) 0.0712(10) 0.0543(8) 0.0043(7) -0.0056(6) -0.0110(7)
C1C 0.041(2) 0.049(3) 0.046(3) -0.005(2) -0.0097(19) -0.011(2)
C2C 0.059(3) 0.060(3) 0.053(3) -0.013(2) -0.015(2) -0.014(2)
C3C 0.064(3) 0.080(5) 0.050(3) -0.018(3) -0.012(3) -0.004(3)
C4C 0.070(4) 0.066(4) 0.044(3) -0.003(3) 0.007(3) -0.009(3)
C5C 0.054(3) 0.053(3) 0.052(3) 0.003(3) 0.000(3) -0.018(3)
C6C 0.044(2) 0.048(3) 0.038(2) -0.0023(19) -0.0077(19) -0.011(2)
C7C 0.066(4) 0.055(4) 0.068(4) -0.016(3) -0.010(3) -0.030(3)
C8C 0.073(3) 0.050(3) 0.071(4) -0.003(3) -0.006(3) -0.033(3)
C9C 0.071(3) 0.067(4) 0.070(4) -0.003(3) -0.004(3) -0.036(3)
C10C 0.062(4) 0.094(5) 0.106(5) -0.026(4) -0.010(3) -0.023(4)
C11C 0.074(4) 0.083(5) 0.097(6) 0.017(4) -0.011(4) -0.013(4)
C12C 0.084(5) 0.055(4) 0.107(5) -0.012(4) -0.007(4) -0.001(3)
C13C 0.107(5) 0.051(3) 0.055(3) -0.007(3) -0.015(3) -0.022(3)
C14C 0.111(5) 0.073(4) 0.056(3) -0.010(3) -0.025(3) -0.043(4)
C15C 0.074(4) 0.067(4) 0.069(4) -0.001(3) -0.030(3) -0.040(3)
C16C 0.059(3) 0.056(3) 0.060(3) -0.001(3) -0.013(3) -0.033(3)
O1C 0.066(2) 0.057(2) 0.0491(18) -0.0040(15) -0.0117(15) -0.0359(17)
O2C 0.070(2) 0.052(2) 0.065(2) 0.0037(17) -0.0089(18) -0.0253(18)
O3C 0.074(3) 0.063(3) 0.098(3) -0.011(2) -0.028(2) -0.012(2)
O4C 0.085(3) 0.045(2) 0.072(2) -0.0030(18) -0.006(2) -0.0136(19)
O5C 0.080(3) 0.064(2) 0.0475(19) -0.0049(16) -0.0195(17) -0.028(2)
O6C 0.060(2) 0.053(2) 0.046(2) 0.0013(17) -0.0092(17) -0.0320(18)
C1S 0.043(2) 0.041(3) 0.057(3) -0.004(2) -0.006(2) -0.006(2)
C2S 0.053(3) 0.038(3) 0.084(4) 0.001(3) -0.013(3) -0.016(2)
C3S 0.062(3) 0.057(4) 0.080(4) -0.022(3) -0.021(3) -0.008(3)
C4S 0.067(4) 0.071(4) 0.060(3) -0.012(3) -0.005(3) 0.001(3)
C5S 0.053(3) 0.052(3) 0.072(4) 0.002(3) 0.008(3) -0.013(2)
C6S 0.044(3) 0.041(3) 0.073(4) -0.004(3) -0.011(3) -0.012(3)
F1S 0.103(3) 0.069(2) 0.110(3) 0.001(2) -0.008(2) -0.056(2)
F2S 0.119(4) 0.094(3) 0.132(4) -0.047(3) -0.045(3) -0.032(3)
F3S 0.121(3) 0.125(4) 0.059(2) -0.017(2) -0.001(2) -0.012(3)
F4S 0.088(4) 0.079(3) 0.110(4) 0.008(3) 0.018(3) -0.035(3)
F5S 0.070(2) 0.064(2) 0.113(3) -0.019(2) -0.007(2) -0.0349(18)
I1S 0.0611(3) 0.0633(3) 0.0619(3) -0.0022(2) -0.0103(2) -0.0105(2)
C1T 0.055(3) 0.040(3) 0.059(3) -0.002(2) -0.020(2) -0.012(2)
C2T 0.054(4) 0.043(3) 0.064(4) -0.017(3) -0.019(3) -0.003(3)
C3T 0.053(3) 0.061(3) 0.057(3) -0.011(3) -0.015(2) 0.001(3)
C4T 0.052(3) 0.053(3) 0.074(4) 0.009(3) -0.018(3) -0.013(2)
C5T 0.075(3) 0.047(3) 0.073(4) 0.002(3) -0.032(3) -0.019(3)
C6T 0.072(3) 0.042(3) 0.058(3) -0.007(2) -0.028(3) -0.010(2)
F1T 0.099(3) 0.075(2) 0.097(3) -0.033(2) -0.033(2) -0.031(2)
F2T 0.090(4) 0.114(4) 0.052(2) -0.017(2) -0.009(2) -0.006(3)
F3T 0.077(2) 0.095(3) 0.097(3) 0.030(2) -0.009(2) -0.033(2)
F4T 0.130(4) 0.075(3) 0.128(4) 0.000(2) -0.058(3) -0.058(3)
F5T 0.133(3) 0.072(2) 0.060(2) -0.0095(16) -0.033(2) -0.034(2)
I1T 0.0684(3) 0.0561(3) 0.0729(3) 0.0018(2) -0.0127(2) -0.0193(2)
loop_
_atom_type_symbol
_atom_type_description
_atom_type_scat_dispersion_real
_atom_type_scat_dispersion_imag
_atom_type_scat_source
C C 0.0033 0.0016 'International Tables Vol C Tables 4.2.6.8 and 6.1.1.4'
H H 0.0000 0.0000 'International Tables Vol C Tables 4.2.6.8 and 6.1.1.4'
F F 0.0171 0.0103 'International Tables Vol C Tables 4.2.6.8 and 6.1.1.4'
I I -0.4742 1.8119 'International Tables Vol C Tables 4.2.6.8 and 6.1.1.4'
N N 0.0061 0.0033 'International Tables Vol C Tables 4.2.6.8 and 6.1.1.4'
O O 0.0106 0.0060 'International Tables Vol C Tables 4.2.6.8 and 6.1.1.4'
S S 0.1246 0.1234 'International Tables Vol C Tables 4.2.6.8 and 6.1.1.4'
loop_
_geom_angle_atom_site_label_1
_geom_angle_atom_site_label_2
_geom_angle_atom_site_label_3
_geom_angle
N1A C1A N2A 116.7(5)
N1A C1A S1A 123.6(4)
N2A C1A S1A 119.7(4)
C1A N1A H1A1 120.0
C1A N1A H1A2 120.0
H1A1 N1A H1A2 120.0
C1A N2A H2A1 120.0
C1A N2A H2A2 120.0
H2A1 N2A H2A2 120.0
O1C C1C C2C 125.5(4)
O1C C1C C6C 115.0(4)
C2C C1C C6C 119.5(4)
C1C C2C C3C 120.2(5)
C1C C2C H2C 119.9
C3C C2C H2C 119.9
C4C C3C C2C 120.3(6)
C4C C3C H3C 119.9
C2C C3C H3C 119.9
C3C C4C C5C 121.0(6)
C3C C4C H4C 119.5
C5C C4C H4C 119.5
C4C C5C C6C 119.7(6)
C4C C5C H5C 120.1
C6C C5C H5C 120.1
O6C C6C C1C 115.5(4)
O6C C6C C5C 125.2(5)
C1C C6C C5C 119.3(5)
O1C C7C C8C 109.2(5)
O1C C7C H7C1 109.8
C8C C7C H7C1 109.8
O1C C7C H7C2 109.8
C8C C7C H7C2 109.8
H7C1 C7C H7C2 108.3
O2C C8C C7C 110.8(5)
O2C C8C H8C1 109.5
C7C C8C H8C1 109.5
O2C C8C H8C2 109.5
C7C C8C H8C2 109.5
H8C1 C8C H8C2 108.1
O2C C9C C10C 109.7(5)
O2C C9C H9C1 109.7
C10C C9C H9C1 109.7
O2C C9C H9C2 109.7
C10C C9C H9C2 109.7
H9C1 C9C H9C2 108.2
O3C C10C C9C 111.5(5)
O3C C10C H10A 109.3
C9C C10C H10A 109.3
O3C C10C H10B 109.3
C9C C10C H10B 109.3
H10A C10C H10B 108.0
O3C C11C C12C 109.9(7)
O3C C11C H11A 109.7
C12C C11C H11A 109.7
O3C C11C H11B 109.7
C12C C11C H11B 109.7
H11A C11C H11B 108.2
O4C C12C C11C 110.8(6)
O4C C12C H12A 109.5
C11C C12C H12A 109.5
O4C C12C H12B 109.5
C11C C12C H12B 109.5
H12A C12C H12B 108.1
O4C C13C C14C 109.5(5)
O4C C13C H13A 109.8
C14C C13C H13A 109.8
O4C C13C H13B 109.8
C14C C13C H13B 109.8
H13A C13C H13B 108.2
O5C C14C C13C 109.1(5)
O5C C14C H14A 109.9
C13C C14C H14A 109.9
O5C C14C H14B 109.9
C13C C14C H14B 109.9
H14A C14C H14B 108.3
O5C C15C C16C 108.7(4)
O5C C15C H15A 109.9
C16C C15C H15A 109.9
O5C C15C H15B 109.9
C16C C15C H15B 109.9
H15A C15C H15B 108.3
O6C C16C C15C 106.9(4)
O6C C16C H16A 110.3
C15C C16C H16A 110.3
O6C C16C H16B 110.3
C15C C16C H16B 110.3
H16A C16C H16B 108.6
C1C O1C C7C 117.1(4)
C8C O2C C9C 111.7(4)
C11C O3C C10C 114.5(5)
C13C O4C C12C 113.7(5)
C15C O5C C14C 112.9(4)
C6C O6C C16C 116.3(4)
C6S C1S C2S 116.2(5)
C6S C1S I1S 122.5(4)
C2S C1S I1S 121.1(4)
F1S C2S C3S 117.9(5)
F1S C2S C1S 120.0(5)
C3S C2S C1S 122.1(5)
F2S C3S C4S 120.0(6)
F2S C3S C2S 120.5(6)
C4S C3S C2S 119.5(5)
F3S C4S C5S 120.1(6)
F3S C4S C3S 119.9(6)
C5S C4S C3S 120.0(5)
F4S C5S C4S 120.3(6)
F4S C5S C6S 120.3(6)
C4S C5S C6S 119.5(5)
F5S C6S C5S 117.9(6)
F5S C6S C1S 119.2(6)
C5S C6S C1S 122.8(6)
C2T C1T C6T 117.4(5)
C2T C1T I1T 121.8(4)
C6T C1T I1T 120.8(4)
F1T C2T C1T 119.5(6)
F1T C2T C3T 119.3(6)
C1T C2T C3T 121.2(5)
F2T C3T C4T 120.5(6)
F2T C3T C2T 119.4(6)
C4T C3T C2T 120.1(5)
F3T C4T C5T 120.2(5)
F3T C4T C3T 120.4(6)
C5T C4T C3T 119.3(5)
F4T C5T C4T 119.0(5)
F4T C5T C6T 120.2(5)
C4T C5T C6T 120.8(5)
F5T C6T C5T 118.5(5)
F5T C6T C1T 120.3(5)
C5T C6T C1T 121.3(5)
loop_
_geom_bond_atom_site_label_1
_geom_bond_atom_site_label_2
_geom_bond_distance
C1A N1A 1.311(6)
C1A N2A 1.327(7)
C1A S1A 1.710(5)
N1A H1A1 0.8800
N1A H1A2 0.8800
N2A H2A1 0.8800
N2A H2A2 0.8800
C1C O1C 1.366(5)
C1C C2C 1.389(7)
C1C C6C 1.394(7)
C2C C3C 1.395(8)
C2C H2C 0.9500
C3C C4C 1.346(9)
C3C H3C 0.9500
C4C C5C 1.388(9)
C4C H4C 0.9500
C5C C6C 1.401(7)
C5C H5C 0.9500
C6C O6C 1.374(6)
C7C O1C 1.424(6)
C7C C8C 1.494(8)
C7C H7C1 0.9900
C7C H7C2 0.9900
C8C O2C 1.409(7)
C8C H8C1 0.9900
C8C H8C2 0.9900
C9C O2C 1.412(6)
C9C C10C 1.474(8)
C9C H9C1 0.9900
C9C H9C2 0.9900
C10C O3C 1.432(7)
C10C H10A 0.9900
C10C H10B 0.9900
C11C O3C 1.376(8)
C11C C12C 1.476(11)
C11C H11A 0.9900
C11C H11B 0.9900
C12C O4C 1.421(8)
C12C H12A 0.9900
C12C H12B 0.9900
C13C O4C 1.412(7)
C13C C14C 1.486(9)
C13C H13A 0.9900
C13C H13B 0.9900
C14C O5C 1.414(6)
C14C H14A 0.9900
C14C H14B 0.9900
C15C O5C 1.410(7)
C15C C16C 1.500(8)
C15C H15A 0.9900
C15C H15B 0.9900
C16C O6C 1.429(6)
C16C H16A 0.9900
C16C H16B 0.9900
C1S C6S 1.371(8)
C1S C2S 1.380(7)
C1S I1S 2.102(5)
C2S F1S 1.339(6)
C2S C3S 1.374(8)
C3S F2S 1.345(7)
C3S C4S 1.363(9)
C4S F3S 1.327(7)
C4S C5S 1.363(9)
C5S F4S 1.352(7)
C5S C6S 1.364(9)
C6S F5S 1.353(7)
C1T C2T 1.375(8)
C1T C6T 1.379(7)
C1T I1T 2.109(5)
C2T F1T 1.337(6)
C2T C3T 1.378(9)
C3T F2T 1.341(7)
C3T C4T 1.361(8)
C4T F3T 1.342(6)
C4T C5T 1.359(8)
C5T F4T 1.354(6)
C5T C6T 1.360(8)
C6T F5T 1.345(6)
loop_
_geom_torsion_atom_site_label_1
_geom_torsion_atom_site_label_2
_geom_torsion_atom_site_label_3
_geom_torsion_atom_site_label_4
_geom_torsion
O1C C1C C2C C3C 179.3(5)
C6C C1C C2C C3C -0.8(7)
C1C C2C C3C C4C 0.6(9)
C2C C3C C4C C5C -0.4(9)
C3C C4C C5C C6C 0.4(9)
O1C C1C C6C O6C 0.9(6)
C2C C1C C6C O6C -179.0(4)
O1C C1C C6C C5C -179.3(4)
C2C C1C C6C C5C 0.7(7)
C4C C5C C6C O6C 179.2(5)
C4C C5C C6C C1C -0.6(7)
O1C C7C C8C O2C 67.4(6)
O2C C9C C10C O3C -74.2(7)
O3C C11C C12C O4C 56.6(8)
O4C C13C C14C O5C 69.4(6)
O5C C15C C16C O6C -68.1(5)
C2C C1C O1C C7C 1.0(7)
C6C C1C O1C C7C -178.9(5)
C8C C7C O1C C1C 176.3(4)
C7C C8C O2C C9C 175.1(4)
C10C C9C O2C C8C 179.5(5)
C12C C11C O3C C10C 177.7(6)
C9C C10C O3C C11C 134.3(6)
C14C C13C O4C C12C 179.1(5)
C11C C12C O4C C13C 155.1(6)
C16C C15C O5C C14C -179.5(4)
C13C C14C O5C C15C -171.1(5)
C1C C6C O6C C16C -180.0(4)
C5C C6C O6C C16C 0.3(7)
C15C C16C O6C C6C -179.6(4)
C6S C1S C2S F1S 179.3(5)
I1S C1S C2S F1S -5.9(7)
C6S C1S C2S C3S 0.3(7)
I1S C1S C2S C3S 175.0(4)
F1S C2S C3S F2S -0.5(8)
C1S C2S C3S F2S 178.6(5)
F1S C2S C3S C4S -179.5(5)
C1S C2S C3S C4S -0.4(8)
F2S C3S C4S F3S 2.0(9)
C2S C3S C4S F3S -179.0(5)
F2S C3S C4S C5S -179.2(5)
C2S C3S C4S C5S -0.2(9)
F3S C4S C5S F4S 0.5(9)
C3S C4S C5S F4S -178.3(6)
F3S C4S C5S C6S 179.8(5)
C3S C4S C5S C6S 1.0(9)
F4S C5S C6S F5S 0.5(8)
C4S C5S C6S F5S -178.8(5)
F4S C5S C6S C1S 178.2(5)
C4S C5S C6S C1S -1.2(9)
C2S C1S C6S F5S 178.2(5)
I1S C1S C6S F5S 3.5(7)
C2S C1S C6S C5S 0.5(8)
I1S C1S C6S C5S -174.2(4)
C6T C1T C2T F1T -178.1(5)
I1T C1T C2T F1T -1.1(7)
C6T C1T C2T C3T 0.0(8)
I1T C1T C2T C3T 177.0(4)
F1T C2T C3T F2T 0.0(8)
C1T C2T C3T F2T -178.1(5)
F1T C2T C3T C4T 177.7(5)
C1T C2T C3T C4T -0.4(8)
F2T C3T C4T F3T -1.3(8)
C2T C3T C4T F3T -179.0(5)
F2T C3T C4T C5T 178.2(5)
C2T C3T C4T C5T 0.5(8)
F3T C4T C5T F4T 0.0(8)
C3T C4T C5T F4T -179.5(5)
F3T C4T C5T C6T 179.3(5)
C3T C4T C5T C6T -0.2(8)
F4T C5T C6T F5T -0.3(8)
C4T C5T C6T F5T -179.6(5)
F4T C5T C6T C1T 179.0(5)
C4T C5T C6T C1T -0.2(8)
C2T C1T C6T F5T 179.7(5)
I1T C1T C6T F5T 2.6(7)
C2T C1T C6T C5T 0.3(8)
I1T C1T C6T C5T -176.7(4)
