#------------------------------------------------------------------------------
#$Date: 2019-11-25 13:47:48 +0200 (Mon, 25 Nov 2019) $
#$Revision: 241013 $
#$URL: file:///home/coder/svn-repositories/cod/cif/4/13/06/4130617.cif $
#------------------------------------------------------------------------------
#
# This file is available in the Crystallography Open Database (COD),
# http://www.crystallography.net/
#
# All data on this site have been placed in the public domain by the
# contributors.
#
data_4130617
loop_
_publ_author_name
'Zhao, Chenfei'
'Chen, Shawn B.'
'Seidel, Daniel'
_publ_section_title
;
 Direct Formation of Oxocarbenium Ions under Weakly Acidic Conditions:
 Catalytic Enantioselective Oxa-Pictet-Spengler Reactions.
;
_journal_issue                   29
_journal_name_full               'Journal of the American Chemical Society'
_journal_page_first              9053
_journal_page_last               9056
_journal_paper_doi               10.1021/jacs.6b05225
_journal_volume                  138
_journal_year                    2016
_chemical_absolute_configuration ad
_chemical_formula_sum            'C17 H14 Br N O'
_chemical_formula_weight         328.20
_space_group_crystal_system      monoclinic
_space_group_IT_number           4
_space_group_name_Hall           'P 2yb'
_space_group_name_H-M_alt        'P 1 21 1'
_atom_sites_solution_hydrogens   geom
_audit_creation_method           SHELXL-2014/7
_cell_angle_alpha                90
_cell_angle_beta                 91.2816(17)
_cell_angle_gamma                90
_cell_formula_units_Z            2
_cell_length_a                   7.8217(7)
_cell_length_b                   6.0909(5)
_cell_length_c                   14.5030(12)
_cell_measurement_reflns_used    3749
_cell_measurement_temperature    150(2)
_cell_measurement_theta_max      29.62
_cell_measurement_theta_min      2.60
_cell_volume                     690.77(10)
_computing_cell_refinement       'Bruker SAINT'
_computing_data_collection       'Bruker SMART'
_computing_data_reduction        'Bruker SAINT'
_computing_molecular_graphics    'Bruker SHELXTL'
_computing_publication_material  'Bruker SHELXTL'
_computing_structure_refinement  'SHELXL-2014/7 (Sheldrick, 2014)'
_computing_structure_solution    'SHELXS-97 (Sheldrick 2008)'
_diffrn_ambient_temperature      150(2)
_diffrn_measured_fraction_theta_full 1.000
_diffrn_measured_fraction_theta_max 1.000
_diffrn_measurement_device_type  'Bruker SMART APEX CCD'
_diffrn_measurement_method       '\f and \w scans'
_diffrn_radiation_type           MoK\a
_diffrn_radiation_wavelength     0.71073
_diffrn_reflns_av_R_equivalents  0.0227
_diffrn_reflns_av_unetI/netI     0.0367
_diffrn_reflns_Laue_measured_fraction_full 1.000
_diffrn_reflns_Laue_measured_fraction_max 1.000
_diffrn_reflns_limit_h_max       10
_diffrn_reflns_limit_h_min       -10
_diffrn_reflns_limit_k_max       8
_diffrn_reflns_limit_k_min       -8
_diffrn_reflns_limit_l_max       19
_diffrn_reflns_limit_l_min       -19
_diffrn_reflns_number            7929
_diffrn_reflns_point_group_measured_fraction_full 0.998
_diffrn_reflns_point_group_measured_fraction_max 0.992
_diffrn_reflns_theta_full        25.242
_diffrn_reflns_theta_max         29.129
_diffrn_reflns_theta_min         1.404
_exptl_absorpt_coefficient_mu    2.970
_exptl_absorpt_correction_T_max  1.0000
_exptl_absorpt_correction_T_min  0.5355
_exptl_absorpt_correction_type   numerical
_exptl_absorpt_process_details   'Bruker SAINT (SADABS)'
_exptl_crystal_colour            colourless
_exptl_crystal_density_diffrn    1.578
_exptl_crystal_description       plate
_exptl_crystal_F_000             332
_exptl_crystal_size_max          0.480
_exptl_crystal_size_mid          0.240
_exptl_crystal_size_min          0.010
_refine_diff_density_max         0.530
_refine_diff_density_min         -0.270
_refine_diff_density_rms         0.062
_refine_ls_abs_structure_details
; 
 Flack x determined using 1189 quotients [(I+)-(I-)]/[(I+)+(I-)] 
 (Parsons, Flack and Wagner, Acta Cryst. B69 (2013) 249-259). 
;
_refine_ls_abs_structure_Flack   -0.001(8)
_refine_ls_extinction_method     none
_refine_ls_goodness_of_fit_ref   1.199
_refine_ls_hydrogen_treatment    constr
_refine_ls_matrix_type           full
_refine_ls_number_parameters     181
_refine_ls_number_reflns         3693
_refine_ls_number_restraints     1
_refine_ls_restrained_S_all      1.199
_refine_ls_R_factor_all          0.0480
_refine_ls_R_factor_gt           0.0377
_refine_ls_shift/su_max          0.001
_refine_ls_shift/su_mean         0.000
_refine_ls_structure_factor_coef Fsqd
_refine_ls_weighting_details
'w=1/[\s^2^(Fo^2^)+(0.0300P)^2^] where P=(Fo^2^+2Fc^2^)/3'
_refine_ls_weighting_scheme      calc
_refine_ls_wR_factor_gt          0.0715
_refine_ls_wR_factor_ref         0.0741
_reflns_Friedel_coverage         0.823
_reflns_Friedel_fraction_full    0.995
_reflns_Friedel_fraction_max     0.983
_reflns_number_gt                3154
_reflns_number_total             3693
_reflns_threshold_expression     'I > 2\s(I)'
_cod_data_source_file            ja6b05225_si_002.cif
_cod_data_source_block           cz-2030_P21
_cod_original_sg_symbol_H-M      'P 21'
_cod_database_code               4130617
_shelx_shelxl_version_number     2014/7
_shelx_space_group_comment
; 
The symmetry employed for this shelxl refinement is uniquely defined 
by the following loop, which should always be used as a source of 
symmetry information in preference to the above space-group names. 
They are only intended as comments. 
;
_shelx_estimated_absorpt_t_min   0.330
_shelx_estimated_absorpt_t_max   0.971
_exptl_absorpt_special_details
; 
 The faces used for the numerical absorption correction were 
FACE    1.00  0.00  0.00     0.120 
FACE   -1.00  0.00  0.00     0.120 
FACE    0.00  1.00  0.00     0.240 
FACE    0.00 -1.00  0.00     0.240 
FACE   -1.00  1.00  0.00     0.160 
FACE   -1.00 -1.00  0.00     0.140 
FACE    0.00  0.00  1.00     0.005 
FACE    0.00  0.00 -1.00     0.005 
;
_shelx_res_file
; 
  
    cz-2030_P21.res created by SHELXL-2014/7 
  
TITL cz-2030_P21 in P2(1) 
CELL 0.71073   7.82170   6.09090  14.50300  90.0000  91.2816  90.0000 
ZERR    2.00   0.00070   0.00050   0.00120   0.0000   0.0017   0.0000 
LATT -1 
SYMM -X, 0.5+Y, -Z 
SFAC C  H  N  O  Br 
UNIT 34 28 2 2 2 
L.S. 12 
BOND $H 
FMAP 2 
PLAN 20 
acta 
conf 
SIZE 0.01 0.24 0.48 
rem FACE    1.00  0.00  0.00     0.120 
rem FACE   -1.00  0.00  0.00     0.120 
rem FACE    0.00  1.00  0.00     0.240 
rem FACE    0.00 -1.00  0.00     0.240 
rem FACE   -1.00  1.00  0.00     0.160 
rem FACE   -1.00 -1.00  0.00     0.140 
rem FACE    0.00  0.00  1.00     0.005 
rem FACE    0.00  0.00 -1.00     0.005 
rem  and refined mu to 2.484 mm^-1 
rem  approx TRANSmission factors 0.5355  1.0000 
TEMP -123.0 
WGHT    0.030000 
FVAR       0.26223 
MOLE 1 
BR1   5    0.820133    0.413305    0.533213    11.00000    0.04622    0.07327 = 
         0.03403    0.00450    0.01149   -0.01583 
N1    3    0.301158    0.237849    0.903368    11.00000    0.02991    0.01730 = 
         0.02112    0.00177    0.00305   -0.00492 
AFIX  43 
H1    2    0.345102    0.366142    0.889158    11.00000   -1.20000 
AFIX   0 
O1    4    0.109109   -0.052333    0.701390    11.00000    0.03752    0.03027 = 
         0.02126   -0.00363   -0.00028   -0.00643 
C1    1    0.214042    0.099179    0.843044    11.00000    0.02461    0.01912 = 
         0.02090   -0.00197    0.00186    0.00021 
C2    1    0.162378   -0.082326    0.889175    11.00000    0.01962    0.01759 = 
         0.02152   -0.00489    0.00337    0.00250 
C3    1    0.220434   -0.061881    0.983325    11.00000    0.01551    0.01787 = 
         0.02159    0.00102    0.00227    0.00321 
C4    1    0.208557   -0.193076    1.061436    11.00000    0.02122    0.02136 = 
         0.02853    0.00382    0.00155    0.00116 
AFIX  43 
H4    2    0.149420   -0.329250    1.058885    11.00000   -1.20000 
AFIX   0 
C5    1    0.285052   -0.120571    1.143198    11.00000    0.02795    0.03044 = 
         0.02163    0.00760    0.00120    0.00618 
AFIX  43 
H5    2    0.278033   -0.208465    1.197093    11.00000   -1.20000 
AFIX   0 
C6    1    0.371592    0.078165    1.147492    11.00000    0.02265    0.03607 = 
         0.01997   -0.00318   -0.00393    0.00644 
AFIX  43 
H6    2    0.423174    0.122740    1.204388    11.00000   -1.20000 
AFIX   0 
C7    1    0.384906    0.213067    1.071424    11.00000    0.01800    0.02705 = 
         0.02688   -0.00413    0.00015   -0.00056 
AFIX  43 
H7    2    0.444273    0.348996    1.074827    11.00000   -1.20000 
AFIX   0 
C8    1    0.307661    0.141122    0.989798    11.00000    0.01822    0.02081 = 
         0.02128    0.00106    0.00344    0.00264 
C9    1    0.174851    0.145391    0.743131    11.00000    0.03068    0.02060 = 
         0.02147   -0.00082   -0.00072    0.00023 
AFIX  13 
H9    2    0.086159    0.263305    0.738181    11.00000   -1.20000 
AFIX   0 
C10   1   -0.018777   -0.159423    0.754626    11.00000    0.02848    0.03041 = 
         0.02720   -0.00540   -0.00327   -0.00616 
AFIX  23 
H10A  2   -0.072957   -0.277602    0.717327    11.00000   -1.20000 
H10B  2   -0.108600   -0.052175    0.770435    11.00000   -1.20000 
AFIX   0 
C11   1    0.057776   -0.256586    0.842525    11.00000    0.02747    0.02296 = 
         0.02404   -0.00079    0.00223   -0.00227 
AFIX  23 
H11A  2   -0.034198   -0.306353    0.883411    11.00000   -1.20000 
H11B  2    0.130518   -0.384377    0.827877    11.00000   -1.20000 
AFIX   0 
C12   1    0.328303    0.212312    0.690005    11.00000    0.03407    0.02181 = 
         0.01093   -0.00197   -0.00404   -0.00057 
C13   1    0.342666    0.418378    0.650567    11.00000    0.04098    0.02652 = 
         0.01898   -0.00104   -0.00002    0.00221 
AFIX  43 
H13   2    0.251463    0.520357    0.655651    11.00000   -1.20000 
AFIX   0 
C14   1    0.489250    0.478520    0.603424    11.00000    0.05529    0.02774 = 
         0.01726    0.00112    0.00105   -0.00659 
AFIX  43 
H14   2    0.498184    0.620387    0.576742    11.00000   -1.20000 
AFIX   0 
C15   1    0.619872    0.330338    0.596177    11.00000    0.03432    0.04490 = 
         0.01571    0.00231    0.00203   -0.00865 
C16   1    0.607715    0.121573    0.631972    11.00000    0.03341    0.04090 = 
         0.02210   -0.00135   -0.00205    0.00575 
AFIX  43 
H16   2    0.697186    0.018277    0.624022    11.00000   -1.20000 
AFIX   0 
C17   1    0.462737    0.064734    0.679791    11.00000    0.03842    0.02489 = 
         0.02157    0.00246   -0.00267    0.00087 
AFIX  43 
H17   2    0.454865   -0.077625    0.706120    11.00000   -1.20000 
AFIX   0 
HKLF 4 
  
REM  cz-2030_P21 in P2(1) 
REM R1 =  0.0377 for    3154 Fo > 4sig(Fo)  and  0.0480 for all    3693 data 
REM    181 parameters refined using      1 restraints 
  
END 
  
WGHT      0.0444      0.0942 
  
REM Highest difference peak  0.530,  deepest hole -0.270,  1-sigma level  0.062 
Q1    1   0.7221  0.4122  0.5637  11.00000  0.05    0.43 
Q2    1   0.9051  0.4232  0.4978  11.00000  0.05    0.38 
Q3    1   0.7947  0.3225  0.5798  11.00000  0.05    0.38 
Q4    1   0.9096  0.3907  0.5793  11.00000  0.05    0.35 
Q5    1   0.8788  0.5002  0.5799  11.00000  0.05    0.32 
Q6    1   0.1315  0.0422  0.8727  11.00000  0.05    0.30 
Q7    1   0.7440  0.4269  0.4824  11.00000  0.05    0.29 
Q8    1   0.2100 -0.0922  1.1027  11.00000  0.05    0.29 
Q9    1   0.4361  0.1187  1.0991  11.00000  0.05    0.27 
Q10   1   0.8454  0.4291  0.4612  11.00000  0.05    0.27 
Q11   1   0.2255 -0.0131  0.8572  11.00000  0.05    0.26 
Q12   1   0.2582  0.1719  0.7192  11.00000  0.05    0.26 
Q13   1   0.4219  0.3808  0.6139  11.00000  0.05    0.25 
Q14   1   0.5587  0.4103  0.6171  11.00000  0.05    0.24 
Q15   1   0.2307  0.0635  1.0003  11.00000  0.05    0.24 
Q16   1   0.4470  0.4243  0.6402  11.00000  0.05    0.23 
Q17   1   0.0346 -0.2038  0.7974  11.00000  0.05    0.23 
Q18   1   0.3738  0.1184  0.6620  11.00000  0.05    0.22 
Q19   1   0.1175 -0.1598  0.8739  11.00000  0.05    0.22 
Q20   1   0.1609 -0.0543  0.6613  11.00000  0.05    0.22 
;
_shelx_res_checksum              49446
_shelx_hkl_file
; 
  -1   0   0    1.04    0.08 
   1   0   0    1.32    0.13 
   1   0   0    1.15    0.07 
  -2   0   0  276.69    3.93 
   2   0   0  285.21    4.07 
   2   0   0  283.57    3.91 
   3   0   0   85.62    1.59 
   3   0   0   85.47    1.34 
  -3   0   0   85.05    1.43 
   4   0   0   19.69    0.50 
  -4   0   0   19.81    0.59 
   4   0   0   19.60    0.75 
  -5   0   0   57.72    1.23 
   5   0   0   55.11    1.06 
   5   0   0   56.71    1.41 
   6   0   0   58.94    1.60 
  -6   0   0   59.43    1.37 
   7   0   0    4.13    0.63 
  -7   0   0    4.06    0.44 
  -8   0   0   12.82    0.74 
   8   0   0   12.56    0.96 
  -9   0   0    4.46    0.60 
   9   0   0    6.25    0.80 
 -10   0   0    2.99    0.58 
  10   0   0    5.87    0.94 
   0  -1   0    0.21    0.09 
   0  -1   0    0.11    0.08 
   0  -1   0    0.20    0.08 
   1  -1   0  709.03    9.64 
  -1  -1   0  730.46    9.74 
  -1  -1   0  692.39    9.60 
   1  -1   0  707.02    9.70 
  -1   1   0  764.21   10.47 
   1   1   0  774.26   10.45 
  -2  -1   0  361.11    5.07 
   2  -1   0  359.13    5.08 
   2  -1   0  365.53    5.07 
   2   1   0  368.63    5.27 
  -2   1   0  367.22    5.13 
   3  -1   0   15.55    0.48 
  -3  -1   0   16.23    0.50 
   3  -1   0   15.11    0.52 
   3   1   0   17.40    0.63 
  -3   1   0   16.93    0.47 
   4  -1   0  184.68    2.91 
  -4  -1   0  186.45    2.96 
   4  -1   0  186.55    3.01 
   4   1   0  192.09    3.22 
  -4   1   0  186.14    2.91 
   5  -1   0   15.16    0.68 
  -5  -1   0   16.00    0.37 
  -5  -1   0   16.09    0.63 
   5  -1   0   15.08    0.57 
  -5   1   0   19.72    0.64 
   5   1   0   20.18    0.87 
  -6  -1   0   11.47    0.61 
   6  -1   0   12.23    0.56 
   6  -1   0   11.44    0.70 
  -6   1   0   10.73    0.54 
   6   1   0   10.65    0.82 
   7  -1   0   14.79    0.88 
   7  -1   0   14.63    0.62 
  -7  -1   0   14.40    0.73 
   7   1   0   19.92    1.05 
  -7   1   0   18.16    0.77 
   8  -1   0    1.03    0.54 
  -8  -1   0    1.34    0.40 
   8   1   0    0.87    0.58 
  -8   1   0    0.91    0.37 
   9  -1   0    4.88    0.77 
  -9  -1   0    5.97    0.64 
   9   1   0    6.53    0.88 
  -9   1   0    4.86    0.62 
  10  -1   0    4.22    0.84 
 -10  -1   0    4.85    0.69 
 -10   1   0    3.48    0.61 
  10   1   0    4.40    0.88 
   0  -2   0  169.09    2.58 
   0  -2   0  172.10    2.59 
   0  -2   0  171.79    2.51 
  -1  -2   0  115.81    1.88 
   1  -2   0  117.22    1.77 
   1  -2   0  114.82    1.92 
  -1  -2   0  116.42    1.79 
  -1   2   0  111.79    1.83 
   1   2   0  110.18    1.80 
  -2  -2   0   45.25    0.79 
   2  -2   0   46.14    0.91 
   2  -2   0   46.04    1.01 
  -2  -2   0   46.06    0.97 
   2   2   0   41.83    0.98 
  -2   2   0   44.28    1.06 
   3  -2   0  204.01    3.13 
   3  -2   0  214.06    3.29 
  -3  -2   0  206.61    3.24 
   3   2   0  240.45    3.88 
  -3   2   0  245.70    3.68 
   4  -2   0    0.45    0.22 
   4  -2   0    0.31    0.22 
  -4  -2   0    0.68    0.21 
  -4   2   0    0.28    0.18 
   4   2   0    0.21    0.29 
   5  -2   0   19.08    0.72 
   5  -2   0   20.93    0.76 
  -5  -2   0   19.34    0.74 
  -5   2   0   18.43    0.64 
   5   2   0   17.23    0.87 
   6  -2   0   20.90    0.79 
   6  -2   0   19.17    0.81 
  -6  -2   0   20.87    0.83 
  -6   2   0   20.26    0.75 
   6   2   0   22.65    1.08 
  -7  -2   0    1.20    0.36 
   7  -2   0    1.45    0.40 
   7  -2   0    2.59    0.49 
   7   2   0    1.32    0.55 
  -7   2   0    1.92    0.38 
   8  -2   0    3.85    0.61 
  -8  -2   0    3.85    0.55 
   8  -2   0    3.18    0.49 
  -8   2   0    2.23    0.46 
   8   2   0    2.93    0.69 
   9  -2   0    3.24    0.70 
  -9  -2   0    2.04    0.52 
   9   2   0    1.47    0.71 
  -9   2   0    2.24    0.51 
 -10  -2   0    0.06    0.44 
 -10   2   0   -0.11    0.40 
  10   2   0    1.08    0.78 
   0  -3   0    0.10    0.16 
   0  -3   0    0.12    0.19 
   0  -3   0   -0.11    0.16 
   1  -3   0  162.55    2.50 
  -1  -3   0  167.30    2.70 
   1  -3   0  168.35    2.75 
  -1  -3   0  164.99    2.61 
  -1   3   0  153.58    2.56 
   1   3   0  155.60    2.50 
  -2  -3   0   56.42    1.08 
   2  -3   0   57.23    1.28 
  -2  -3   0   55.13    1.25 
   2  -3   0   57.56    1.08 
  -2   3   0   67.22    1.47 
   2   3   0   67.38    1.43 
  -3  -3   0   10.47    0.52 
   3  -3   0   10.43    0.55 
   3  -3   0   11.42    0.62 
  -3  -3   0   11.09    0.37 
  -3   3   0    9.82    0.56 
   3   3   0   10.52    0.61 
   4  -3   0   29.29    0.94 
   4  -3   0   28.09    0.84 
  -4  -3   0   29.30    0.91 
   4   3   0   31.75    1.10 
  -4   3   0   31.50    0.92 
   5  -3   0   23.56    0.80 
  -5  -3   0   23.63    0.88 
   5  -3   0   23.10    0.91 
   5   3   0   21.66    1.03 
  -5   3   0   23.65    0.80 
   6  -3   0    0.45    0.33 
  -6  -3   0    0.36    0.31 
   6  -3   0    0.07    0.32 
  -6   3   0    1.30    0.33 
   6   3   0    0.40    0.49 
   7  -3   0    7.06    0.66 
  -7  -3   0    5.30    0.58 
   7  -3   0    4.81    0.56 
  -7   3   0    5.50    0.53 
   7   3   0    6.43    0.79 
   8  -3   0    5.61    0.66 
  -8  -3   0    5.30    0.65 
   8   3   0    5.21    0.88 
  -8   3   0    6.39    0.59 
  -9  -3   0    4.21    0.65 
   9   3   0    3.34    0.86 
  -9   3   0    3.26    0.56 
   0  -4   0  104.60    2.03 
   0  -4   0  106.42    2.00 
  -1  -4   0   10.92    0.53 
   1  -4   0   11.56    0.62 
   1  -4   0   10.92    0.45 
  -1  -4   0   10.58    0.56 
   1   4   0   13.41    0.60 
  -1   4   0   13.15    0.64 
  -2  -4   0   39.50    0.95 
   2  -4   0   40.96    1.15 
   2  -4   0   40.07    0.88 
  -2  -4   0   39.83    1.10 
   2   4   0   42.47    1.16 
  -2   4   0   41.76    1.20 
   3  -4   0   31.69    0.80 
  -3  -4   0   29.73    0.77 
  -3  -4   0   30.29    0.99 
   3  -4   0   30.87    1.06 
   3   4   0   31.79    1.11 
  -3   4   0   31.02    1.18 
  -4  -4   0    7.14    0.55 
   4  -4   0    8.27    0.63 
   4  -4   0    7.75    0.50 
  -4   4   0    9.36    0.64 
   4   4   0    9.51    0.78 
   5  -4   0   15.73    0.85 
  -5  -4   0   16.34    0.81 
  -5   4   0   10.42    0.64 
   5   4   0   12.97    0.93 
   6  -4   0   15.55    0.86 
  -6  -4   0   14.73    0.82 
   6   4   0   14.19    1.06 
  -6   4   0   16.79    0.78 
   7  -4   0    1.57    0.52 
  -7  -4   0    1.83    0.51 
  -7   4   0    3.34    0.50 
   7   4   0    2.16    0.66 
  -8  -4   0    4.49    0.69 
   8  -4   0    6.41    0.77 
  -8   4   0    5.53    0.62 
   8   4   0    5.16    0.94 
   9  -4   0    1.68    0.57 
  -9  -4   0    1.46    0.55 
   9   4   0    2.64    0.80 
  -9   4   0    2.45    0.53 
   0  -5   0    0.06    0.29 
   0   5   0   -0.19    0.31 
   0   5   0   -0.15    0.26 
  -1  -5   0   13.47    0.74 
  -1  -5   0   11.94    0.65 
   1  -5   0   13.10    0.76 
   1   5   0   13.11    0.67 
  -1   5   0   14.18    0.76 
  -1   5   0   14.66    0.58 
  -2  -5   0   52.39    1.29 
  -2  -5   0   53.51    1.47 
   2  -5   0   55.22    1.53 
   2   5   0   60.22    1.53 
  -2   5   0   59.65    1.63 
  -3  -5   0    2.69    0.46 
  -3  -5   0    2.65    0.36 
   3  -5   0    3.51    0.56 
  -3   5   0    2.42    0.59 
   3   5   0    2.62    0.53 
  -4  -5   0   17.77    0.89 
   4  -5   0   16.64    0.92 
  -4   5   0   17.63    0.93 
   4   5   0   14.76    0.96 
   5  -5   0    1.36    0.49 
  -5  -5   0    0.84    0.39 
  -5   5   0    0.80    0.39 
   5   5   0    0.49    0.53 
  -6  -5   0    1.28    0.45 
   6  -5   0    2.14    0.58 
   6   5   0    2.60    0.70 
  -6   5   0    2.61    0.50 
   7  -5   0    6.94    0.77 
  -7  -5   0    5.31    0.70 
  -7   5   0    8.02    0.71 
   7   5   0    5.85    0.92 
  -8  -5   0    0.96    0.53 
   8  -5   0    0.56    0.57 
  -8   5   0    1.49    0.50 
   8   5   0    1.15    0.72 
   0  -6   0   22.98    0.99 
   0   6   0   23.94    1.07 
   1  -6   0    1.38    0.50 
  -1  -6   0    1.99    0.52 
  -1  -6   0    1.64    0.45 
   1   6   0    2.31    0.45 
  -1   6   0    1.78    0.50 
  -2  -6   0    6.17    0.63 
   2  -6   0    8.14    0.78 
  -2  -6   0    6.69    0.61 
   2   6   0    9.22    0.78 
  -2   6   0    8.63    0.78 
  -3  -6   0    5.94    0.70 
   3  -6   0    6.72    0.74 
  -3   6   0    7.99    0.93 
   3   6   0    8.33    0.82 
  -4  -6   0    2.47    0.55 
   4  -6   0    1.99    0.60 
   4   6   0    1.85    0.64 
  -4   6   0    3.04    0.67 
  -5  -6   0    2.16    0.57 
   5  -6   0    1.64    0.58 
  -5   6   0    2.43    0.59 
   5   6   0    2.96    0.74 
   6  -6   0    0.73    0.55 
  -6  -6   0    0.84    0.50 
  -6   6   0    1.31    0.48 
   6   6   0    0.80    0.69 
   7  -6   0    2.64    0.67 
  -7  -6   0    1.14    0.57 
  -7   6   0    1.58    0.53 
   7   6   0    2.85    0.80 
   0  -7   0   -0.37    0.46 
   0   7   0    0.49    0.48 
  -1  -7   0    5.20    0.69 
   1  -7   0    4.96    0.76 
   1   7   0    5.26    0.73 
  -1   7   0    5.13    0.75 
  -2  -7   0    1.45    0.56 
   2  -7   0    1.33    0.64 
  -2   7   0    1.12    0.60 
   3  -7   0    1.26    0.61 
  -3  -7   0    0.39    0.50 
  -3   7   0    1.80    0.73 
   4  -7   0    3.78    0.75 
  -4  -7   0    3.15    0.67 
  -4   7   0    4.95    0.86 
   5  -7   0    0.25    0.57 
  -5  -7   0   -0.58    0.46 
   5   7   0    0.46    0.66 
  -5   7   0   -0.35    0.51 
   0  -8   0    1.52    0.67 
   0   8   0    0.28    0.58 
   1  -8   0    1.28    0.68 
  -1   8   0   -0.04    0.59 
   1   8   0   -0.27    0.57 
   2  -8   0    0.69    0.66 
  -2   8   0    0.75    0.69 
   2   8   0    1.49    0.65 
   3  -8   0    3.79    0.78 
  -3  -8   0    2.84    0.73 
  -3   8   0    4.45    1.00 
 -10   0   1    0.71    0.46 
  10   0  -1    0.94    0.66 
  -9   0   1    3.81    0.58 
   9   0  -1    4.37    0.76 
  -8   0   1   18.04    0.87 
   8   0  -1   16.36    1.09 
  -7   0   1    1.60    0.35 
   7   0  -1    2.65    0.56 
   6   0  -1    5.57    0.63 
   6   0  -1    5.83    0.33 
  -6   0   1    5.51    0.46 
   5   0  -1   26.69    0.65 
   5   0  -1   26.21    0.95 
  -5   0   1   27.16    0.79 
  -4   0   1    3.66    0.27 
   4   0  -1    4.14    0.40 
   4   0  -1    3.32    0.23 
   3   0  -1  163.30    2.38 
  -3   0   1  163.99    2.48 
   3   0  -1  162.88    2.62 
  -2   0   1   80.80    1.27 
   2   0  -1   78.91    1.21 
   2   0  -1   79.61    1.36 
  -1   0   1   31.98    0.55 
   1   0  -1   32.87    0.53 
   1   0  -1   33.19    0.58 
   0   0   1   28.48    0.48 
   0   0  -1   27.52    0.49 
   0   0   1   27.41    0.51 
   0   0  -1   28.55    0.47 
  -1   0  -1   18.38    0.33 
  -1   0  -1   18.22    0.33 
   1   0   1   18.36    0.42 
  -2   0  -1   14.68    0.37 
   2   0   1   14.84    0.47 
   3   0   1  188.58    2.76 
  -3   0  -1  193.64    2.84 
   3   0   1  188.67    3.02 
  -4   0  -1   37.09    0.85 
   4   0   1   36.85    1.02 
  -5   0  -1   20.19    0.66 
   5   0   1   20.48    0.85 
  -5   0  -1   20.93    0.55 
  -6   0  -1   78.23    1.39 
  -6   0  -1   78.69    1.62 
   6   0   1   76.75    1.89 
  -7   0  -1    4.19    0.45 
   7   0   1    4.75    0.63 
  -8   0  -1    0.21    0.31 
   8   0   1    0.69    0.51 
  -9   0  -1    2.26    0.49 
   9   0   1    2.92    0.76 
  10   0   1    0.96    0.77 
 -10   0  -1    1.48    0.48 
 -10  -1   1    2.44    0.56 
  10  -1  -1    4.23    0.84 
  10   1  -1    3.21    0.85 
 -10   1   1    4.27    0.64 
   9  -1  -1    7.21    0.88 
  -9  -1   1    4.86    0.62 
   9   1  -1    6.78    0.92 
  -9   1   1    6.75    0.68 
   8  -1  -1    1.52    0.51 
  -8  -1   1    0.84    0.39 
   8   1  -1    0.57    0.57 
  -8   1   1    1.71    0.45 
   7  -1  -1    7.71    0.49 
   7  -1  -1    8.90    0.68 
  -7  -1   1    8.29    0.60 
  -7   1   1    8.35    0.58 
   7   1  -1    8.83    0.81 
   6  -1  -1   14.39    0.76 
   6  -1  -1   13.95    0.59 
  -6  -1   1   13.06    0.65 
  -6   1   1    9.01    0.52 
   6   1  -1   10.49    0.78 
  -5  -1   1   28.27    0.83 
   5  -1  -1   28.68    0.79 
   5  -1  -1   28.31    0.92 
  -5   1   1   24.92    0.74 
   5   1  -1   25.25    0.95 
   4  -1  -1   62.30    1.32 
  -4  -1   1   62.89    1.27 
   4  -1  -1   60.40    1.21 
   4   1  -1   66.08    1.52 
  -4   1   1   69.85    1.32 
   3  -1  -1   16.79    0.54 
  -3  -1   1   17.73    0.53 
   3  -1  -1   16.70    0.51 
   3   1  -1   14.81    0.59 
  -3   1   1   15.52    0.47 
   2  -1  -1  224.92    3.20 
   2  -1  -1  220.96    3.26 
  -2  -1   1  224.07    3.25 
   2   1  -1  276.19    4.05 
  -2   1   1  276.45    3.96 
  -1  -1   1   28.86    0.49 
   1  -1  -1   29.29    0.48 
   1  -1  -1   28.81    0.60 
  -1  -1   1   29.39    0.58 
  -1   1   1   12.47    0.39 
   0  -1   1   73.08    1.14 
   0  -1   1   74.09    1.11 
   0  -1  -1   72.40    1.15 
   0  -1   1   71.91    1.16 
   0   1   1   70.47    1.07 
   1  -1   1  365.67    5.14 
   1  -1   1  369.85    5.18 
  -1  -1  -1  373.90    5.08 
  -1   1  -1  335.58    4.65 
   1   1   1  328.19    4.67 
   2  -1   1  242.53    3.54 
  -2  -1  -1  247.55    3.53 
  -2  -1  -1  245.87    3.39 
   2  -1   1  239.78    3.54 
   2   1   1  249.75    3.72 
  -2   1  -1  248.64    3.51 
  -3  -1  -1   11.16    0.31 
  -3  -1  -1   11.54    0.41 
   3  -1   1   11.48    0.46 
   3  -1   1   10.68    0.41 
  -3   1  -1   11.48    0.36 
   3   1   1   11.20    0.52 
  -4  -1  -1   62.99    1.26 
   4  -1   1   63.38    1.36 
   4  -1   1   60.86    1.23 
  -4  -1  -1   60.47    1.06 
   4   1   1   63.60    1.50 
  -4   1  -1   65.95    1.22 
  -5  -1  -1   28.95    0.85 
   5  -1   1   30.53    0.98 
   5  -1   1   30.10    0.81 
  -5  -1  -1   29.73    0.64 
  -5   1  -1   27.54    0.76 
   5   1   1   28.61    1.07 
   6  -1   1    0.26    0.32 
  -6  -1  -1    0.57    0.26 
   6  -1   1    0.03    0.22 
  -6   1  -1    1.67    0.30 
   6   1   1    1.54    0.50 
   7  -1   1   18.32    0.71 
  -7  -1  -1   17.33    0.78 
   7  -1   1   20.26    1.00 
  -7   1  -1   21.47    0.85 
   7   1   1   21.50    1.14 
  -8  -1  -1   12.63    0.75 
   8  -1   1   12.32    0.93 
   8   1   1   10.91    0.95 
  -8   1  -1   10.65    0.70 
  -9  -1  -1    1.78    0.51 
   9  -1   1    1.24    0.66 
   9   1   1    0.80    0.59 
  -9   1  -1    0.88    0.42 
 -10  -1  -1    5.23    0.71 
  10  -1   1    7.83    0.95 
  10   1   1    4.94    0.94 
 -10   1  -1    4.12    0.63 
 -10  -2   1    1.25    0.53 
  10   2  -1    1.66    0.76 
 -10   2   1    2.21    0.60 
  -9  -2   1    0.02    0.38 
   9  -2  -1    0.79    0.55 
  -9   2   1    1.41    0.45 
   9   2  -1    1.97    0.77 
   8  -2  -1   12.60    0.74 
   8  -2  -1   13.15    0.92 
  -8  -2   1   11.99    0.79 
   8   2  -1   14.35    1.10 
  -8   2   1   13.12    0.77 
   7  -2  -1   11.16    0.66 
  -7  -2   1   11.40    0.67 
   7  -2  -1   11.12    0.77 
   7   2  -1   10.93    0.92 
  -7   2   1   10.78    0.64 
   6  -2  -1   21.76    0.84 
  -6  -2   1   22.58    0.86 
   6  -2  -1   21.17    0.83 
   6   2  -1   21.52    1.08 
  -6   2   1   20.23    0.77 
   5  -2  -1    6.47    0.46 
   5  -2  -1    6.20    0.46 
  -5  -2   1    6.41    0.44 
   5   2  -1    6.24    0.63 
  -5   2   1    7.60    0.45 
   4  -2  -1    4.33    0.34 
   4  -2  -1    6.01    0.40 
  -4  -2   1    4.83    0.37 
   4   2  -1    5.85    0.53 
  -4   2   1    6.15    0.39 
   3  -2  -1    0.92    0.18 
   3  -2  -1    0.83    0.23 
  -3  -2   1    0.64    0.21 
  -3   2   1    4.71    0.35 
   3   2  -1    3.96    0.40 
  -2  -2   1   81.60    1.24 
  -2  -2   1   81.45    1.46 
   2  -2  -1   79.30    1.48 
   2  -2  -1   80.42    1.31 
   2   2  -1   73.64    1.43 
  -2   2   1   73.53    1.51 
  -1  -2   1    0.90    0.14 
  -1  -2   1    0.95    0.17 
   1  -2  -1    0.79    0.19 
   1  -2  -1    0.98    0.12 
  -1   2   1    1.83    0.23 
   0  -2  -1  288.39    4.15 
   0  -2   1  286.79    4.11 
   0  -2   1  286.52    4.13 
   0  -2  -1  290.07    4.15 
   0  -2   1  286.40    4.12 
   0   2   1  330.40    4.59 
  -1  -2  -1   54.86    0.98 
   1  -2   1   54.35    1.07 
   1  -2   1   55.59    1.03 
  -1  -2  -1   52.64    1.04 
   1   2   1   45.85    0.93 
  -1   2  -1   47.78    0.93 
   2  -2   1   11.16    0.45 
  -2  -2  -1   10.91    0.42 
  -2  -2  -1   11.45    0.34 
   2  -2   1   10.32    0.45 
  -2   2  -1   15.92    0.55 
   2   2   1   14.64    0.55 
  -3  -2  -1  108.12    1.90 
   3  -2   1  107.11    1.93 
   3  -2   1  104.42    1.85 
  -3  -2  -1  107.83    1.60 
  -3   2  -1  113.60    1.89 
   3   2   1  110.62    2.10 
   4  -2   1   47.18    1.11 
   4  -2   1   48.07    1.14 
  -4  -2  -1   48.93    1.16 
   4   2   1   43.34    1.24 
  -4   2  -1   43.45    0.96 
  -5  -2  -1   23.94    0.84 
   5  -2   1   25.64    0.87 
   5  -2   1   24.83    0.83 
   5   2   1   20.09    0.91 
  -5   2  -1   20.48    0.65 
   6  -2   1   28.88    1.00 
  -6  -2  -1   27.48    0.97 
   6  -2   1   29.08    0.95 
   6   2   1   27.24    1.16 
  -6   2  -1   29.35    0.87 
  -7  -2  -1    5.94    0.56 
   7  -2   1    4.60    0.51 
   7  -2   1    6.33    0.66 
  -7   2  -1    5.90    0.49 
   7   2   1    5.40    0.75 
   8  -2   1    5.07    0.60 
   8  -2   1    4.70    0.66 
  -8  -2  -1    4.04    0.57 
   8   2   1    3.69    0.78 
  -8   2  -1    4.26    0.52 
   9  -2   1    9.84    0.96 
  -9  -2  -1    5.91    0.72 
  -9   2  -1    8.57    0.75 
   9   2   1    9.01    1.05 
  10  -2   1    1.10    0.68 
 -10  -2  -1    0.07    0.47 
  10   2   1    1.03    0.71 
 -10   2  -1    0.89    0.46 
  -9  -3   1    7.12    0.76 
   9   3  -1    6.41    1.03 
  -9   3   1    6.21    0.67 
   8  -3  -1    0.16    0.42 
  -8  -3   1    1.34    0.46 
  -8   3   1    0.90    0.40 
   8   3  -1    0.47    0.64 
   7  -3  -1    2.98    0.52 
  -7  -3   1    3.28    0.52 
  -7   3   1    4.67    0.51 
   7   3  -1    5.33    0.79 
  -6  -3   1   12.77    0.73 
   6  -3  -1   13.25    0.75 
   6  -3  -1   13.24    0.67 
   6   3  -1   17.08    1.03 
  -6   3   1   16.22    0.73 
   5  -3  -1    6.72    0.57 
  -5  -3   1    6.76    0.53 
   5  -3  -1    5.73    0.45 
   5   3  -1    5.86    0.66 
  -5   3   1    4.13    0.43 
  -4  -3   1   22.73    0.80 
   4  -3  -1   22.74    0.70 
   4  -3  -1   23.51    0.84 
  -4   3   1   17.66    0.71 
   4   3  -1   16.29    0.83 
   3  -3  -1    4.96    0.38 
   3  -3  -1    4.01    0.41 
  -3  -3   1    5.00    0.38 
  -3  -3   1    4.39    0.24 
  -3   3   1    7.17    0.56 
   3   3  -1    6.23    0.51 
  -2  -3   1   56.43    1.22 
   2  -3  -1   55.98    0.97 
   2  -3  -1   56.01    1.29 
  -2  -3   1   55.63    1.05 
   2   3  -1   60.70    1.34 
  -2   3   1   58.45    1.37 
  -1  -3   1   28.31    0.72 
   1  -3  -1   29.03    0.59 
   1  -3  -1   28.76    0.81 
  -1  -3   1   28.57    0.78 
  -1   3   1   38.72    0.96 
   1   3  -1   37.89    0.91 
   0  -3  -1    6.51    0.39 
   0  -3   1    5.68    0.34 
   0  -3  -1    5.18    0.35 
   0  -3   1    5.51    0.34 
   0  -3   1    5.36    0.36 
   0   3   1    6.61    0.32 
  -1  -3  -1   54.49    1.12 
   1  -3   1   57.52    1.23 
  -1  -3  -1   56.31    1.19 
   1  -3   1   53.34    1.08 
   1   3   1   63.48    1.23 
  -1   3  -1   61.84    1.28 
   2  -3   1   49.37    1.18 
   2  -3   1   51.29    1.08 
  -2  -3  -1   50.67    1.16 
  -2  -3  -1   51.64    1.02 
  -2   3  -1   54.34    1.30 
   2   3   1   50.77    1.20 
   3  -3   1    4.51    0.51 
   3  -3   1    4.60    0.41 
  -3  -3  -1    4.99    0.29 
  -3  -3  -1    4.23    0.38 
   3   3   1    5.51    0.53 
  -3   3  -1    6.60    0.44 
  -4  -3  -1   54.75    0.94 
   4  -3   1   54.88    1.31 
  -4  -3  -1   53.91    1.31 
   4  -3   1   54.18    1.37 
  -4   3  -1   58.14    1.27 
   4   3   1   56.17    1.52 
  -5  -3  -1   18.06    0.80 
   5  -3   1   18.50    0.76 
   5  -3   1   19.74    0.83 
  -5   3  -1   20.48    0.72 
   5   3   1   20.99    1.03 
   6  -3   1   10.50    0.67 
  -6  -3  -1    9.82    0.67 
   6  -3   1   10.30    0.69 
  -6   3  -1    8.25    0.51 
   6   3   1    7.90    0.77 
   7  -3   1   12.47    0.75 
   7  -3   1   13.52    0.82 
  -7  -3  -1   11.21    0.75 
   7   3   1   13.41    1.03 
  -7   3  -1   13.12    0.68 
  -8  -3  -1    2.06    0.52 
   8  -3   1    1.51    0.49 
  -8   3  -1    1.97    0.42 
   8   3   1    2.63    0.71 
  -9  -3  -1    1.69    0.53 
   9   3   1    1.88    0.75 
  -9   3  -1    2.62    0.52 
  -9  -4   1    2.26    0.59 
   9  -4  -1    2.38    0.58 
   9   4  -1    2.92    0.90 
  -9   4   1    2.52    0.54 
  -8  -4   1    3.10    0.59 
   8  -4  -1    3.29    0.62 
   8   4  -1    3.74    0.85 
  -8   4   1    4.09    0.56 
  -7  -4   1    1.29    0.48 
   7  -4  -1    1.77    0.50 
  -7   4   1    1.87    0.46 
   7   4  -1    2.02    0.69 
  -6  -4   1    6.48    0.61 
   6  -4  -1    6.67    0.67 
  -6   4   1    8.31    0.64 
   6   4  -1   10.02    0.92 
   5  -4  -1    4.04    0.54 
  -5  -4   1    3.93    0.50 
   5   4  -1    2.01    0.58 
  -5   4   1    2.00    0.42 
   4  -4  -1   24.37    0.98 
  -4  -4   1   24.00    0.93 
  -4   4   1   26.83    1.03 
   4   4  -1   26.64    1.15 
  -3  -4   1   19.69    0.80 
  -3  -4   1   18.10    0.57 
   3  -4  -1   18.24    0.81 
   3  -4  -1   18.45    0.52 
  -3   4   1   19.48    0.95 
   3   4  -1   20.35    0.90 
   2  -4  -1    9.16    0.36 
  -2  -4   1    9.07    0.54 
   2  -4  -1    8.43    0.58 
  -2  -4   1    9.66    0.48 
   2   4  -1   13.60    0.69 
  -2   4   1   14.32    0.68 
  -1  -4   1   22.12    0.77 
  -1  -4   1   23.27    0.74 
   1  -4  -1   23.41    0.83 
  -1   4   1   26.31    0.87 
   1   4  -1   26.14    0.82 
   0  -4   1   27.81    0.85 
   0  -4   1   27.02    0.84 
   0  -4   1   26.98    0.79 
   0  -4  -1   26.30    0.87 
   0   4   1   25.70    0.70 
  -1  -4  -1   10.25    0.52 
   1  -4   1   10.75    0.49 
   1  -4   1   10.96    0.58 
  -1  -4  -1    9.82    0.53 
  -1   4  -1    6.87    0.51 
   1   4   1    7.50    0.46 
   2  -4   1   10.82    0.62 
   2  -4   1   10.65    0.49 
  -2  -4  -1   11.68    0.59 
  -2  -4  -1   10.81    0.53 
  -2   4  -1   10.27    0.62 
   2   4   1   10.38    0.60 
   3  -4   1   25.61    0.80 
   3  -4   1   26.23    0.95 
  -3  -4  -1   26.08    0.72 
  -3  -4  -1   24.53    0.91 
   3   4   1   35.84    1.15 
  -3   4  -1   34.51    1.16 
   4  -4   1    2.74    0.43 
   4  -4   1    2.78    0.48 
  -4  -4  -1    3.04    0.44 
  -4   4  -1    4.69    0.46 
   4   4   1    4.86    0.62 
   5  -4   1   24.42    1.02 
   5  -4   1   26.67    1.15 
  -5  -4  -1   25.74    1.03 
  -5   4  -1   24.47    0.90 
   5   4   1   23.76    1.14 
  -6  -4  -1    2.70    0.47 
   6  -4   1    3.05    0.54 
   6   4   1    4.18    0.73 
  -6   4  -1    4.35    0.47 
  -7  -4  -1    1.43    0.46 
   7  -4   1    0.77    0.46 
   7   4   1    0.43    0.56 
  -7   4  -1    1.25    0.37 
   8  -4   1    2.34    0.56 
  -8  -4  -1    1.89    0.54 
  -8   4  -1    2.83    0.50 
   8   4   1    2.95    0.77 
   9  -4   1    1.74    0.59 
  -9  -4  -1    1.61    0.56 
   9   4   1    2.32    0.83 
  -9   4  -1    1.80    0.49 
  -8  -5   1   -0.22    0.45 
   8  -5  -1    0.22    0.54 
  -8   5   1   -0.17    0.38 
   8   5  -1    0.81    0.72 
   7  -5  -1    3.77    0.67 
  -7  -5   1    3.99    0.66 
  -7   5   1    4.21    0.59 
   7   5  -1    4.54    0.89 
   6  -5  -1    4.13    0.69 
  -6  -5   1    4.09    0.64 
   6   5  -1    5.57    0.87 
  -6   5   1    3.74    0.56 
   5  -5  -1    3.13    0.58 
  -5  -5   1    3.28    0.56 
  -5   5   1    5.05    0.63 
   5   5  -1    5.33    0.75 
  -4  -5   1   15.42    0.85 
   4  -5  -1   14.64    0.87 
   4   5  -1   12.52    0.93 
  -4   5   1   13.21    0.91 
  -3  -5   1    2.20    0.32 
   3  -5  -1    3.02    0.52 
  -3  -5   1    3.15    0.51 
   3   5  -1    3.59    0.57 
  -3   5   1    5.17    0.68 
  -2  -5   1    6.18    0.51 
  -2  -5   1    7.57    0.60 
   2  -5  -1    6.75    0.64 
  -2   5   1    8.66    0.70 
   2   5  -1    9.76    0.68 
  -1  -5   1    6.72    0.59 
  -1  -5   1    6.16    0.52 
   1  -5  -1    6.35    0.61 
  -1   5   1    3.47    0.51 
   1   5  -1    4.26    0.50 
   0  -5   1    1.56    0.38 
   0  -5  -1    1.56    0.40 
   0   5   1    1.32    0.31 
   0   5  -1    0.86    0.34 
   0   5   1    1.12    0.38 
   1  -5   1    6.49    0.50 
   1  -5   1    7.84    0.62 
  -1  -5  -1    6.85    0.55 
  -1  -5  -1    7.57    0.61 
  -1   5  -1    9.43    0.66 
   1   5   1    9.29    0.60 
   2  -5   1   14.53    0.82 
   2  -5   1   13.93    0.62 
  -2  -5  -1   14.16    0.78 
  -2  -5  -1   13.76    0.66 
  -2   5  -1   13.68    0.85 
   2   5   1   13.38    0.76 
  -3  -5  -1   10.87    0.57 
   3  -5   1   10.93    0.78 
  -3  -5  -1   10.24    0.71 
   3   5   1    7.15    0.69 
  -3   5  -1    9.56    0.77 
  -4  -5  -1   13.46    0.81 
   4  -5   1   13.06    0.82 
  -4   5  -1   14.30    0.83 
   4   5   1   15.08    0.95 
   5  -5   1   -0.09    0.39 
  -5  -5  -1    0.49    0.38 
   5   5   1   -0.02    0.50 
  -5   5  -1    0.29    0.38 
  -6  -5  -1    0.63    0.42 
   6  -5   1    0.38    0.46 
  -6   5  -1    0.59    0.39 
   6   5   1    1.36    0.63 
   7  -5   1    1.43    0.55 
  -7  -5  -1    0.31    0.46 
   7   5   1    0.61    0.68 
  -7   5  -1    0.97    0.42 
  -8  -5  -1    0.88    0.50 
   8  -5   1    1.20    0.57 
  -8   5  -1    0.80    0.45 
   8   5   1    1.48    0.74 
   7  -6  -1    1.04    0.59 
  -7  -6   1    0.92    0.54 
  -7   6   1    1.42    0.55 
   7   6  -1    1.23    0.74 
   6  -6  -1    1.84    0.62 
  -6  -6   1    2.28    0.59 
  -6   6   1    1.65    0.54 
   6   6  -1    2.71    0.75 
   5  -6  -1    2.20    0.63 
  -5  -6   1    3.07    0.58 
   5   6  -1    1.98    0.69 
  -5   6   1    1.18    0.55 
  -4  -6   1    1.25    0.48 
   4  -6  -1    1.14    0.54 
  -4   6   1    0.94    0.59 
   4   6  -1    1.11    0.60 
  -3  -6   1    3.08    0.57 
   3  -6  -1    3.12    0.61 
   3   6  -1    2.58    0.64 
  -3   6   1    2.23    0.62 
  -2  -6   1    9.48    0.69 
  -2  -6   1    9.01    0.74 
   2  -6  -1    9.78    0.81 
  -2   6   1    5.04    0.68 
   2   6  -1    8.17    0.73 
  -1  -6   1    4.81    0.56 
  -1  -6   1    4.53    0.61 
   1  -6  -1    4.75    0.61 
   1   6  -1    4.44    0.53 
  -1   6   1    3.36    0.58 
   0  -6  -1    0.82    0.44 
   0  -6   1    0.93    0.45 
   0   6   1    0.57    0.42 
   0   6  -1    1.25    0.46 
   1  -6   1    3.37    0.59 
  -1  -6  -1    2.98    0.52 
  -1  -6  -1    3.29    0.54 
  -1   6  -1    1.93    0.51 
   2  -6   1    2.85    0.59 
  -2  -6  -1    1.37    0.48 
  -2  -6  -1    2.60    0.53 
   2   6   1    2.46    0.49 
  -2   6  -1    2.42    0.59 
   3  -6   1    4.96    0.69 
  -3  -6  -1    5.68    0.67 
  -3   6  -1    4.37    0.72 
   3   6   1    5.11    0.69 
  -4  -6  -1    1.32    0.49 
   4  -6   1    0.99    0.52 
   4   6   1    1.98    0.60 
  -4   6  -1    2.33    0.60 
   5  -6   1   -0.42    0.42 
  -5  -6  -1    0.03    0.44 
   5   6   1    0.23    0.56 
  -5   6  -1    0.14    0.45 
   6  -6   1    1.88    0.58 
  -6  -6  -1    2.08    0.61 
   6   6   1    2.56    0.75 
  -6   6  -1    1.61    0.49 
   7  -6   1    0.23    0.53 
  -7  -6  -1   -0.02    0.43 
   7   6   1    0.82    0.68 
  -7   6  -1   -0.23    0.41 
   5  -7  -1    2.85    0.71 
  -5  -7   1    3.17    0.69 
   5   7  -1    2.92    0.81 
  -5   7   1    2.78    0.75 
   4  -7  -1    2.34    0.71 
  -4  -7   1    1.96    0.62 
   4   7  -1    0.75    0.68 
  -4   7   1    0.86    0.74 
  -3  -7   1    1.32    0.59 
   3  -7  -1    0.23    0.56 
  -3   7   1    0.22    0.59 
  -2  -7   1    0.51    0.51 
   2  -7  -1    1.59    0.59 
  -2   7   1   -0.28    0.50 
  -1  -7   1    5.25    0.66 
   1  -7  -1    3.96    0.67 
  -1   7   1    3.24    0.68 
   1   7  -1    2.73    0.60 
   0  -7   1    1.06    0.54 
   0  -7  -1    0.69    0.54 
   0   7  -1    0.58    0.51 
   0   7   1    0.79    0.51 
  -1  -7  -1    1.95    0.57 
   1  -7   1    1.11    0.56 
  -1   7  -1    0.69    0.54 
   1   7   1    0.90    0.52 
   2  -7   1    1.86    0.64 
  -2  -7  -1    1.90    0.59 
  -2   7  -1    1.83    0.67 
  -3  -7  -1    1.38    0.57 
   3  -7   1    1.96    0.66 
  -3   7  -1    2.18    0.70 
  -4  -7  -1    3.33    0.69 
   4  -7   1    3.59    0.75 
  -4   7  -1    1.46    0.63 
  -5  -7  -1    0.40    0.54 
   5  -7   1    0.57    0.60 
  -5   7  -1    1.89    0.61 
  -3  -8   1    1.34    0.65 
   3  -8  -1    1.75    0.68 
  -3   8   1    1.98    0.83 
   2  -8  -1    0.71    0.63 
  -2   8   1    0.24    0.61 
   2   8  -1    0.18    0.61 
   1  -8  -1    0.41    0.65 
  -1   8   1   -0.74    0.53 
   1   8  -1   -0.48    0.51 
   0  -8   1    0.85    0.63 
   0  -8  -1    1.90    0.69 
   0   8   1    0.11    0.57 
   0   8  -1    0.65    0.60 
   1  -8   1    0.28    0.61 
   1   8   1    0.41    0.57 
  -1   8  -1    1.11    0.68 
   2  -8   1   -0.03    0.57 
  -2   8  -1    0.70    0.79 
   2   8   1    0.06    0.54 
 -10   0   2    3.52    0.62 
  10   0  -2    2.68    0.78 
  -9   0   2    0.38    0.40 
   9   0  -2    0.72    0.60 
  -8   0   2   32.93    1.17 
   8   0  -2   32.97    1.40 
   7   0  -2   11.40    0.82 
  -7   0   2   10.13    0.63 
   6   0  -2    3.61    0.52 
  -6   0   2    4.06    0.44 
   6   0  -2    4.25    0.31 
   5   0  -2   79.76    1.77 
   5   0  -2   79.29    1.39 
  -5   0   2   82.38    1.59 
   4   0  -2   22.56    0.76 
   4   0  -2   22.61    0.55 
  -4   0   2   23.61    0.66 
  -3   0   2   68.84    1.23 
   3   0  -2   67.89    1.13 
   3   0  -2   69.19    1.33 
   2   0  -2  624.65    8.51 
  -2   0   2  621.08    8.52 
   2   0  -2  634.67    8.60 
   1   0  -2   31.10    0.54 
  -1   0   2   30.70    0.58 
  -1   0   2   30.52    0.55 
   0   0  -2   85.27    1.33 
   0   0   2   84.81    1.38 
   0   0   2   85.16    1.26 
   1   0   2   17.71    0.44 
  -1   0  -2   17.86    0.32 
  -1   0  -2   17.81    0.38 
  -2   0  -2   30.52    0.58 
   2   0   2   30.95    0.73 
  -2   0  -2   30.04    0.58 
  -3   0  -2  178.75    2.62 
  -3   0  -2  180.69    2.67 
   3   0   2  180.11    2.91 
   4   0   2   19.08    0.72 
  -4   0  -2   19.14    0.56 
  -4   0  -2   19.55    0.50 
   5   0   2   28.91    0.99 
  -5   0  -2   28.16    0.68 
  -5   0  -2   28.90    0.80 
  -6   0  -2   46.14    0.97 
  -6   0  -2   45.20    1.14 
   6   0   2   47.06    1.42 
  -7   0  -2    0.75    0.31 
   7   0   2    0.83    0.47 
   8   0   2    1.41    0.57 
  -8   0  -2    0.67    0.35 
   9   0   2   11.15    1.09 
  -9   0  -2   10.30    0.78 
  10   0   2    0.58    0.67 
 -10   0  -2    0.68    0.44 
 -10  -1   2    2.83    0.58 
  10  -1  -2    2.47    0.78 
  10   1  -2    1.98    0.75 
 -10   1   2    1.58    0.54 
  -9  -1   2    7.89    0.73 
   9  -1  -2    8.86    0.93 
  -9   1   2    6.88    0.70 
   9   1  -2   10.08    1.03 
  -8  -1   2    0.07    0.33 
   8  -1  -2    0.54    0.48 
  -8   1   2    0.69    0.39 
   8   1  -2    0.10    0.55 
   7  -1  -2   13.16    0.60 
  -7  -1   2   12.43    0.71 
   7  -1  -2   12.77    0.84 
  -7   1   2   14.27    0.73 
   7   1  -2   14.99    0.95 
   6  -1  -2   81.22    1.65 
  -6  -1   2   86.50    1.81 
   6  -1  -2   84.02    1.88 
   6   1  -2   82.07    2.02 
  -6   1   2   81.92    1.71 
   5  -1  -2    0.68    0.29 
   5  -1  -2    1.27    0.24 
  -5  -1   2    0.65    0.23 
  -5   1   2    1.65    0.27 
   5   1  -2    1.23    0.40 
   4  -1  -2  224.02    3.44 
   4  -1  -2  227.90    3.52 
  -4  -1   2  224.56    3.49 
   4   1  -2  194.01    3.26 
  -4   1   2  193.16    3.02 
   3  -1  -2  160.91    2.49 
   3  -1  -2  159.42    2.50 
  -3  -1   2  161.60    2.53 
  -3   1   2  183.19    2.83 
   3   1  -2  185.66    2.99 
   2  -1  -2  199.98    2.99 
   2  -1  -2  202.26    2.90 
  -2  -1   2  202.04    2.98 
   2   1  -2  185.06    2.58 
  -2   1   2  181.26    2.79 
   2   1  -2  183.11    2.82 
   1  -1  -2  271.94    3.82 
  -1  -1   2  266.76    3.87 
  -1  -1   2  267.34    3.77 
  -1   1   2  282.01    4.10 
   1   1  -2  286.04    3.91 
   0  -1  -2  126.63    1.90 
   0  -1   2  126.81    1.88 
   0  -1   2  127.12    1.81 
   0  -1   2  124.96    1.95 
   0   1   2  116.76    1.75 
   0   1   2  114.87    1.69 
   1  -1   2  219.24    3.26 
  -1  -1  -2  218.88    3.08 
   1  -1   2  215.13    3.14 
  -1  -1  -2  217.88    3.11 
   1   1   2  204.54    2.99 
  -1   1  -2  202.91    2.89 
   2  -1   2  113.63    1.88 
  -2  -1  -2  116.20    1.71 
   2  -1   2  110.79    1.83 
  -2  -1  -2  116.03    1.80 
  -2   1  -2  127.89    1.88 
   2   1   2  129.01    2.12 
  -3  -1  -2    4.95    0.34 
   3  -1   2    5.44    0.37 
  -3  -1  -2    5.76    0.30 
   3  -1   2    6.53    0.33 
  -3   1  -2    8.47    0.30 
   3   1   2    8.26    0.46 
   4  -1   2   56.42    1.29 
   4  -1   2   56.68    1.17 
  -4  -1  -2   57.23    1.11 
  -4  -1  -2   56.49    1.18 
  -4   1  -2   67.84    1.22 
   4   1   2   65.23    1.53 
   5  -1   2   74.52    1.50 
  -5  -1  -2   74.91    1.53 
   5  -1   2   75.30    1.68 
  -5  -1  -2   73.52    1.35 
  -5   1  -2   69.41    1.37 
   5   1   2   69.50    1.72 
  -6  -1  -2    3.39    0.38 
  -6  -1  -2    3.38    0.39 
   6  -1   2    3.64    0.49 
  -6   1  -2    3.00    0.34 
   6   1   2    2.87    0.55 
   7  -1   2   41.32    1.40 
  -7  -1  -2   41.42    1.24 
  -7   1  -2   37.38    1.11 
   7   1   2   37.79    1.47 
  -7   1  -2   37.82    1.00 
  -8  -1  -2    5.49    0.57 
   8  -1   2    7.23    0.78 
  -8   1  -2    6.49    0.58 
   8   1   2    7.27    0.82 
   9  -1   2    3.43    0.74 
  -9  -1  -2    4.06    0.60 
  -9   1  -2    4.11    0.57 
   9   1   2    4.07    0.79 
  10  -1   2   -0.03    0.66 
 -10  -1  -2   -0.02    0.43 
 -10   1  -2    0.59    0.43 
  10   1   2    0.87    0.73 
 -10  -2   2    2.30    0.58 
  10   2  -2    1.66    0.89 
 -10   2   2    1.79    0.58 
  -9  -2   2    4.87    0.66 
   9   2  -2    5.56    0.98 
  -9   2   2    4.56    0.64 
   8  -2  -2   17.49    0.84 
   8  -2  -2   18.03    0.99 
  -8  -2   2   16.46    0.89 
  -8   2   2   17.52    0.88 
   8   2  -2   20.40    1.23 
  -7  -2   2   13.91    0.74 
   7  -2  -2   14.27    0.74 
   7  -2  -2   13.27    0.80 
  -7   2   2   12.37    0.69 
   7   2  -2   12.53    0.99 
   6  -2  -2    7.37    0.51 
  -6  -2   2    6.60    0.54 
   6  -2  -2    7.35    0.56 
   6   2  -2    6.34    0.75 
  -6   2   2    6.20    0.50 
   5  -2  -2  129.10    2.28 
   5  -2  -2  125.30    2.33 
  -5  -2   2  129.03    2.39 
   5   2  -2  130.60    2.66 
  -5   2   2  131.05    2.35 
   4  -2  -2   54.98    1.24 
   4  -2  -2   53.07    1.11 
  -4  -2   2   54.14    1.22 
   4   2  -2   56.11    1.40 
  -4   2   2   56.99    1.25 
   3  -2  -2  223.71    3.46 
   3  -2  -2  221.07    3.21 
  -3  -2   2  219.96    3.43 
   3   2  -2  219.28    3.58 
  -3   2   2  223.94    3.55 
  -2  -2   2  149.50    2.37 
   2  -2  -2  151.15    2.16 
   2  -2  -2  146.58    2.44 
  -2   2   2  155.59    2.62 
   2   2  -2  155.03    2.55 
   1  -2  -2   12.33    0.46 
  -1  -2   2   11.79    0.39 
  -1  -2   2   11.06    0.36 
  -1  -2   2   11.64    0.44 
  -1   2   2   13.52    0.49 
   0  -2  -2  150.90    2.34 
   0  -2   2  149.45    2.31 
   0  -2   2  149.76    2.36 
   0  -2   2  147.55    2.25 
   0  -2  -2  149.21    2.33 
   0   2   2  146.53    2.15 
  -1  -2  -2   31.10    0.74 
   1  -2   2   32.61    0.78 
   1  -2   2   32.63    0.77 
  -1  -2  -2   32.15    0.70 
   1   2   2   42.09    0.89 
  -1   2  -2   44.43    0.87 
  -2  -2  -2   34.73    0.82 
   2  -2   2   35.27    0.94 
   2  -2   2   35.64    0.86 
  -2  -2  -2   36.00    0.72 
  -2   2  -2   33.52    0.78 
   2   2   2   32.78    0.86 
  -3  -2  -2  151.25    2.50 
   3  -2   2  150.09    2.53 
   3  -2   2  151.22    2.54 
  -3  -2  -2  152.73    2.26 
   3   2   2  163.32    2.81 
  -3   2  -2  160.57    2.50 
  -4  -2  -2   35.55    0.95 
   4  -2   2   35.99    0.97 
   4  -2   2   35.44    0.98 
  -4  -2  -2   35.59    0.68 
  -4   2  -2   34.70    0.81 
   4   2   2   35.62    1.12 
   5  -2   2   17.92    0.70 
  -5  -2  -2   18.10    0.44 
   5  -2   2   17.94    0.75 
  -5  -2  -2   17.74    0.72 
   5   2   2   16.66    0.87 
  -5   2  -2   17.07    0.59 
  -6  -2  -2   37.72    1.16 
   6  -2   2   37.59    1.20 
   6  -2   2   38.47    1.10 
  -6   2  -2   42.04    1.07 
   6   2   2   42.54    1.44 
   7  -2   2    0.78    0.45 
  -7  -2  -2    0.79    0.37 
   7  -2   2    0.54    0.37 
  -7   2  -2    0.12    0.29 
   7   2   2   -0.37    0.45 
  -8  -2  -2    3.95    0.58 
   8  -2   2    5.11    0.70 
  -8   2  -2    4.77    0.53 
   8   2   2    4.80    0.80 
  -9  -2  -2    0.94    0.48 
   9  -2   2    1.50    0.66 
   9   2   2    2.04    0.70 
  -9   2  -2    3.16    0.54 
 -10  -2  -2    3.09    0.63 
  10  -2   2    1.92    0.75 
 -10   2  -2    2.40    0.54 
  10   2   2    2.70    0.77 
  -9  -3   2    2.84    0.60 
   9   3  -2    3.44    0.85 
  -9   3   2    4.16    0.61 
  -8  -3   2    0.63    0.44 
   8  -3  -2    0.40    0.44 
   8   3  -2    0.12    0.67 
  -8   3   2    0.51    0.39 
   7  -3  -2   17.20    0.91 
  -7  -3   2   14.16    0.85 
   7   3  -2   14.93    1.07 
  -7   3   2   15.97    0.80 
  -6  -3   2   44.00    1.34 
   6  -3  -2   43.96    1.32 
   6   3  -2   46.67    1.63 
  -6   3   2   44.34    1.26 
   5  -3  -2    2.14    0.42 
  -5  -3   2    2.00    0.40 
   5  -3  -2    1.17    0.27 
   5   3  -2    0.85    0.49 
  -5   3   2    1.12    0.35 
  -4  -3   2   80.52    1.72 
   4  -3  -2   80.65    1.76 
   4  -3  -2   82.10    1.47 
  -4   3   2   85.84    1.87 
   4   3  -2   90.48    2.01 
   3  -3  -2   34.88    0.73 
  -3  -3   2   35.13    0.96 
   3  -3  -2   34.77    1.01 
  -3   3   2   39.15    1.15 
   3   3  -2   40.75    1.15 
  -2  -3   2    6.07    0.40 
  -2  -3   2    6.75    0.33 
   2  -3  -2    6.11    0.44 
  -2   3   2    6.73    0.46 
   2   3  -2    6.40    0.45 
  -1  -3   2   50.99    1.05 
  -1  -3   2   52.44    1.17 
   1  -3  -2   52.53    1.19 
  -1  -3   2   50.78    1.09 
  -1   3   2   44.45    1.07 
  -1   3   2   44.55    0.74 
   0  -3   2   44.74    1.01 
   0  -3  -2   43.31    1.03 
   0  -3   2   45.98    1.00 
   0  -3   2   46.16    1.02 
   0   3   2   51.39    0.97 
   1  -3   2  131.66    2.29 
   1  -3   2  128.93    2.22 
  -1  -3  -2  135.80    2.22 
  -1  -3  -2  133.79    2.28 
  -1   3  -2  136.57    2.29 
   1   3   2  136.65    2.26 
   2  -3   2   50.97    1.22 
  -2  -3  -2   54.59    1.21 
   2  -3   2   52.05    1.19 
  -2  -3  -2   53.84    1.08 
   2   3   2   62.85    1.37 
  -2   3  -2   60.26    1.34 
   3  -3   2    6.23    0.46 
   3  -3   2    6.21    0.54 
  -3  -3  -2    6.31    0.43 
  -3  -3  -2    6.28    0.35 
   3   3   2    5.84    0.51 
  -3   3  -2    5.77    0.40 
  -4  -3  -2   38.43    0.78 
   4  -3   2   37.17    1.09 
  -4  -3  -2   37.15    1.04 
   4  -3   2   37.93    1.11 
  -4   3  -2   46.96    1.08 
   4   3   2   42.82    1.31 
   5  -3   2   15.27    0.75 
  -5  -3  -2   15.66    0.72 
   5  -3   2   15.74    0.77 
   5   3   2   16.57    0.97 
  -5   3  -2   16.98    0.64 
   6  -3   2    1.15    0.40 
  -6  -3  -2    0.47    0.34 
   6  -3   2    0.46    0.35 
   6   3   2    0.13    0.46 
  -6   3  -2    0.84    0.30 
   7  -3   2    6.48    0.63 
  -7  -3  -2    7.62    0.67 
   7  -3   2    8.76    0.72 
   7   3   2    7.79    0.85 
  -7   3  -2    7.63    0.54 
   8  -3   2    3.26    0.65 
   8  -3   2    2.51    0.55 
  -8  -3  -2    2.49    0.54 
  -8   3  -2    2.84    0.45 
   8   3   2    1.09    0.61 
  -9  -3  -2   -0.32    0.42 
   9   3   2   -0.05    0.59 
  -9   3  -2    0.10    0.38 
  -9  -4   2    0.98    0.51 
   9  -4  -2    1.16    0.56 
   9   4  -2    1.60    0.82 
  -9   4   2   -0.04    0.42 
   8  -4  -2    4.46    0.69 
  -8  -4   2    3.76    0.65 
   8   4  -2    3.60    0.82 
  -8   4   2    3.89    0.59 
  -7  -4   2    6.68    0.70 
   7  -4  -2    5.35    0.69 
  -7   4   2    5.89    0.61 
   7   4  -2    5.27    0.83 
  -6  -4   2    1.88    0.46 
   6  -4  -2    2.15    0.50 
   6   4  -2    2.37    0.68 
  -6   4   2    3.05    0.50 
  -5  -4   2   10.87    0.72 
   5  -4  -2   13.64    0.79 
   5   4  -2   13.63    0.97 
  -5   4   2   14.81    0.79 
   4  -4  -2   24.01    0.99 
  -4  -4   2   24.68    0.92 
   4   4  -2   24.76    1.08 
  -4   4   2   26.44    1.09 
  -3  -4   2   12.06    0.64 
   3  -4  -2   12.11    0.69 
  -3  -4   2   11.62    0.45 
   3   4  -2    9.51    0.66 
  -3   4   2    8.64    0.69 
  -2  -4   2   31.60    0.82 
   2  -4  -2   32.02    1.04 
  -2  -4   2   31.16    0.95 
  -2   4   2   36.16    1.11 
   2   4  -2   35.08    1.08 
   1  -4  -2    0.51    0.30 
  -1  -4   2    0.45    0.25 
  -1  -4   2    0.42    0.24 
  -1   4   2   -0.09    0.23 
  -1   4   2    0.52    0.16 
   0  -4   2   27.83    0.86 
   0  -4  -2   28.14    0.89 
   0  -4   2   29.48    0.89 
   0  -4   2   28.98    0.85 
   0   4   2   34.13    1.02 
   0   4   2   34.37    0.82 
   1  -4   2   13.78    0.66 
  -1  -4  -2   12.68    0.61 
   1  -4   2   13.38    0.58 
  -1  -4  -2   13.37    0.60 
  -1   4  -2   11.16    0.58 
   1   4   2   12.07    0.54 
  -2  -4  -2    0.55    0.27 
   2  -4   2    0.65    0.31 
   2  -4   2    0.11    0.23 
  -2  -4  -2    0.46    0.25 
  -2   4  -2    0.25    0.32 
   2   4   2    0.69    0.31 
  -3  -4  -2   18.98    0.78 
   3  -4   2   19.57    0.85 
  -3  -4  -2   19.63    0.64 
   3  -4   2   20.14    0.77 
  -3   4  -2   22.96    0.91 
   3   4   2   24.55    0.94 
   4  -4   2   29.97    1.06 
  -4  -4  -2   29.27    1.01 
   4  -4   2   28.38    1.11 
  -4   4  -2   27.20    0.91 
   4   4   2   26.68    1.10 
   5  -4   2   16.29    0.85 
   5  -4   2   17.93    0.97 
  -5  -4  -2   17.64    0.84 
   5   4   2   20.00    1.07 
  -5   4  -2   22.32    0.80 
  -6  -4  -2   10.90    0.77 
   6  -4   2   10.20    0.75 
  -6   4  -2   10.41    0.62 
   6   4   2   11.57    0.92 
  -7  -4  -2    1.08    0.45 
   7  -4   2    1.66    0.52 
  -7   4  -2    2.24    0.44 
   7   4   2    2.19    0.67 
   8  -4   2    3.41    0.63 
  -8  -4  -2    2.66    0.59 
   8   4   2    1.96    0.75 
  -8   4  -2    2.28    0.48 
  -9  -4  -2    1.12    0.52 
   9  -4   2    0.44    0.55 
   9   4   2    0.76    0.70 
  -8  -5   2    3.90    0.67 
   8  -5  -2    3.71    0.74 
  -8   5   2    2.87    0.59 
   8   5  -2    4.53    0.97 
  -7  -5   2    2.17    0.59 
   7  -5  -2    1.94    0.62 
  -7   5   2    2.16    0.53 
   7   5  -2    2.55    0.77 
  -6  -5   2    2.65    0.56 
   6  -5  -2    3.29    0.64 
   6   5  -2    3.39    0.81 
  -6   5   2    2.73    0.53 
  -5  -5   2    1.61    0.47 
   5  -5  -2    0.93    0.48 
  -5   5   2    0.55    0.44 
   5   5  -2    0.42    0.57 
  -4  -5   2    5.22    0.61 
   4  -5  -2    5.47    0.62 
  -4   5   2    6.35    0.74 
   4   5  -2    3.74    0.63 
   3  -5  -2   14.03    0.85 
  -3  -5   2   15.34    0.80 
  -3   5   2   17.37    0.99 
   3   5  -2   16.91    0.96 
  -2  -5   2    1.61    0.41 
  -2  -5   2    1.83    0.35 
   2  -5  -2    2.08    0.48 
  -2   5   2    0.21    0.38 
   2   5  -2    0.03    0.37 
  -1  -5   2   26.08    0.97 
   1  -5  -2   24.26    0.97 
  -1  -5   2   24.57    0.88 
   1   5  -2   24.24    0.91 
  -1   5   2   23.23    0.98 
   0  -5   2    7.30    0.58 
   0  -5  -2    8.47    0.67 
   0  -5   2    9.46    0.60 
   0   5   2   10.73    0.71 
   0   5   2   11.21    0.53 
   1  -5   2    2.04    0.34 
  -1  -5  -2    2.40    0.45 
   1  -5   2    2.44    0.46 
  -1  -5  -2    1.86    0.39 
  -1   5  -2    4.49    0.53 
   1   5   2    3.41    0.42 
  -2  -5  -2   25.74    1.01 
  -2  -5  -2   25.16    0.91 
   2  -5   2   25.54    0.87 
   2  -5   2   26.75    1.04 
   2   5   2   22.66    0.89 
  -2   5  -2   21.32    0.99 
   3  -5   2    3.46    0.55 
  -3  -5  -2    3.93    0.52 
  -3  -5  -2    2.51    0.39 
   3   5   2    3.32    0.51 
  -3   5  -2    2.47    0.51 
   4  -5   2    4.35    0.59 
  -4  -5  -2    4.49    0.59 
   4   5   2    6.12    0.72 
  -4   5  -2    6.85    0.62 
   5  -5   2   12.94    0.85 
  -5  -5  -2   11.45    0.78 
   5   5   2   13.00    0.94 
  -5   5  -2   11.93    0.72 
  -6  -5  -2    1.51    0.49 
   6  -5   2    1.64    0.56 
  -6   5  -2    2.00    0.43 
   6   5   2    3.04    0.70 
  -7  -5  -2    7.41    0.80 
   7  -5   2    8.06    0.83 
   7   5   2    7.84    0.97 
  -7   5  -2    9.56    0.70 
  -8  -5  -2    3.72    0.69 
   8  -5   2    3.81    0.70 
   8   5   2    3.47    0.89 
  -7  -6   2    0.92    0.58 
   7  -6  -2    0.47    0.61 
   7   6  -2    1.79    0.80 
  -7   6   2    1.40    0.55 
  -6  -6   2    1.42    0.55 
   6  -6  -2    1.10    0.58 
   6   6  -2    1.73    0.77 
  -6   6   2    1.45    0.56 
   5  -6  -2    2.57    0.63 
  -5  -6   2    2.24    0.56 
  -5   6   2    1.53    0.64 
   5   6  -2    2.39    0.75 
   4  -6  -2    5.91    0.77 
  -4  -6   2    7.18    0.74 
  -4   6   2    5.71    0.83 
   4   6  -2    7.97    0.94 
  -3  -6   2    2.08    0.52 
   3  -6  -2    3.06    0.61 
  -3   6   2    2.24    0.60 
   3   6  -2    1.81    0.59 
   2  -6  -2   20.61    1.05 
  -2  -6   2   20.90    1.00 
  -2   6   2   18.67    1.04 
   1  -6  -2    4.20    0.63 
  -1  -6   2    4.43    0.62 
  -1  -6   2    4.13    0.54 
  -1   6   2    4.12    0.62 
   1   6  -2    4.14    0.56 
   0  -6   2    3.22    0.53 
   0  -6  -2    2.74    0.55 
   0   6  -2    2.47    0.53 
   0   6  -2    3.28    0.50 
   0   6   2    3.20    0.57 
  -1  -6  -2   11.44    0.78 
   1  -6   2   11.13    0.80 
  -1   6  -2   11.97    0.84 
   1   6   2   12.57    0.85 
   2  -6   2    6.89    0.71 
  -2  -6  -2    8.05    0.65 
  -2  -6  -2    6.68    0.65 
  -2   6  -2    8.68    0.81 
  -3  -6  -2   11.30    0.83 
   3  -6   2   10.33    0.84 
  -3   6  -2   11.47    0.90 
   3   6   2   10.94    0.88 
  -4  -6  -2    4.02    0.64 
   4  -6   2    4.15    0.69 
   4   6   2    3.61    0.68 
  -4   6  -2    4.00    0.63 
   5  -6   2    7.66    0.80 
  -5  -6  -2    6.97    0.74 
  -5   6  -2    6.98    0.70 
   5   6   2    9.02    0.97 
  -6  -6  -2    1.47    0.55 
   6  -6   2    1.66    0.60 
   6   6   2    2.73    0.81 
  -6   6  -2    2.48    0.51 
   7  -6   2    3.01    0.68 
  -7  -6  -2    2.61    0.64 
   7   6   2    2.78    0.79 
  -5  -7   2   -0.23    0.53 
   5  -7  -2   -0.38    0.52 
   5   7  -2   -0.33    0.66 
  -5   7   2    0.10    0.62 
   4  -7  -2    7.52    0.88 
  -4  -7   2    6.01    0.84 
  -4   7   2    6.75    0.98 
   4   7  -2   11.40    1.14 
   3  -7  -2    1.90    0.67 
  -3  -7   2    1.93    0.61 
  -3   7   2    1.81    0.68 
   3   7  -2    1.99    0.73 
   2  -7  -2    1.90    0.65 
  -2  -7   2    2.71    0.66 
  -2   7   2    2.90    0.72 
   1  -7  -2    5.18    0.78 
  -1  -7   2    8.28    0.77 
  -1   7   2    7.51    0.84 
   1   7  -2    6.02    0.79 
   0  -7   2   -0.12    0.48 
   0  -7  -2   -0.45    0.48 
   0   7   2   -0.09    0.44 
   0   7  -2   -0.18    0.46 
  -1  -7  -2    1.27    0.57 
   1  -7   2    0.96    0.57 
  -1   7  -2    2.29    0.66 
   1   7   2    1.23    0.52 
   2  -7   2    6.01    0.78 
  -2   7  -2   11.05    0.98 
   3  -7   2    0.88    0.59 
  -3  -7  -2    1.75    0.57 
  -3   7  -2    1.25    0.61 
   4  -7   2    4.56    0.80 
  -4  -7  -2    5.10    0.77 
  -4   7  -2    6.18    0.81 
  -5  -7  -2    2.49    0.64 
   5  -7   2    1.62    0.71 
   2  -8  -2    2.42    0.73 
   2   8  -2    1.84    0.73 
  -2   8   2    1.88    0.74 
   1  -8  -2    2.89    0.73 
  -1   8   2    3.45    0.76 
   1   8  -2    2.24    0.67 
   0  -8   2    2.07    0.73 
   0  -8  -2    2.60    0.73 
   0   8  -2    1.44    0.65 
   0   8   2    2.22    0.68 
   1  -8   2    1.42    0.70 
  -1   8  -2    0.68    0.66 
   1   8   2    0.55    0.57 
   2  -8   2    1.36    0.65 
  -2   8  -2    1.01    0.72 
   2   8   2   -0.35    0.53 
  10   0  -3    3.55    0.84 
 -10   0   3    3.96    0.63 
  -9   0   3    6.10    0.68 
   9   0  -3    5.50    0.84 
   8   0  -3   10.18    0.87 
  -8   0   3   11.59    0.74 
  -7   0   3    0.10    0.31 
   7   0  -3    0.24    0.48 
   6   0  -3    0.13    0.19 
  -6   0   3    0.18    0.22 
   6   0  -3   -0.02    0.38 
   5   0  -3  136.66    2.18 
  -5   0   3  139.01    2.41 
   5   0  -3  135.97    2.55 
  -4   0   3   81.76    1.52 
   4   0  -3   81.82    1.63 
   4   0  -3   79.18    1.37 
   3   0  -3  146.69    2.22 
   3   0  -3  146.78    2.40 
  -3   0   3  149.10    2.32 
   2   0  -3  128.19    1.93 
  -2   0   3  129.21    1.97 
   2   0  -3  128.76    2.02 
   1   0  -3    0.83    0.14 
  -1   0   3    1.12    0.12 
  -1   0   3    0.99    0.14 
   0   0  -3   20.00    0.51 
   0   0   3   20.02    0.54 
   0   0   3   20.62    0.39 
   1   0   3  709.86    9.69 
  -1   0  -3  712.00    9.63 
  -1   0  -3  698.21    9.58 
   2   0   3   12.83    0.47 
  -2   0  -3   14.00    0.38 
  -2   0  -3   13.54    0.33 
  -3   0  -3   36.44    0.74 
   3   0   3   35.60    0.93 
  -3   0  -3   35.50    0.74 
   4   0   3   65.49    1.51 
  -4   0  -3   66.73    1.20 
  -4   0  -3   67.23    1.26 
  -5   0  -3    4.18    0.32 
  -5   0  -3    4.08    0.32 
   5   0   3    4.31    0.50 
  -6   0  -3   45.16    1.01 
  -6   0  -3   44.87    1.14 
   6   0   3   46.45    1.44 
   7   0   3    0.76    0.48 
  -7   0  -3    0.21    0.28 
  -7   0  -3    0.77    0.29 
   8   0   3    5.56    0.75 
  -8   0  -3    5.21    0.54 
   9   0   3   18.86    1.26 
  -9   0  -3   19.30    0.94 
  10   0   3    5.91    0.92 
 -10   0  -3    4.11    0.67 
  10  -1  -3    0.69    0.69 
 -10  -1   3    0.60    0.46 
 -10   1   3    2.24    0.57 
  10   1  -3    1.62    0.84 
  -9  -1   3    2.98    0.56 
   9  -1  -3    3.94    0.69 
   9   1  -3    5.20    0.86 
  -9   1   3    4.27    0.63 
  -8  -1   3    0.41    0.37 
   8  -1  -3    0.54    0.50 
  -8   1   3    0.51    0.38 
   8   1  -3    1.32    0.64 
   7  -1  -3   28.74    0.91 
   7  -1  -3   30.75    1.17 
  -7  -1   3   28.38    1.02 
   7   1  -3   26.23    1.24 
  -7   1   3   27.09    0.99 
   6  -1  -3   42.74    1.26 
   6  -1  -3   43.24    1.08 
  -6  -1   3   45.79    1.22 
   6   1  -3   57.94    1.65 
  -6   1   3   55.96    1.38 
   5  -1  -3    5.10    0.48 
   5  -1  -3    5.46    0.37 
  -5  -1   3    5.33    0.43 
  -5   1   3    6.90    0.43 
   5   1  -3    6.27    0.60 
   4  -1  -3   43.28    1.02 
   4  -1  -3   44.81    0.99 
  -4  -1   3   42.37    1.01 
   4   1  -3   63.34    0.97 
   4   1  -3   60.11    1.42 
  -4   1   3   63.49    1.27 
   3  -1  -3   76.85    1.36 
   3  -1  -3   74.55    1.40 
  -3  -1   3   78.10    1.41 
   3   1  -3   92.75    1.38 
   3   1  -3   91.40    1.73 
  -3   1   3   92.50    1.65 
   2  -1  -3    2.21    0.20 
   2  -1  -3    2.09    0.22 
  -2  -1   3    1.97    0.20 
  -2  -1   3    2.63    0.27 
   2   1  -3    4.13    0.22 
  -2   1   3    4.01    0.30 
  -1  -1   3  255.13    3.58 
   1  -1  -3  253.49    3.67 
  -1  -1   3  255.20    3.74 
  -1   1   3  255.26    3.74 
   1   1  -3  252.67    3.55 
  -1   1   3  255.23    3.56 
   0  -1   3  337.90    4.92 
   0  -1   3  346.30    4.70 
   0  -1  -3  343.40    4.80 
   0   1   3  344.39    4.83 
   0   1  -3  349.08    4.83 
   0   1   3  351.45    4.87 
   1  -1   3  109.62    1.94 
  -1  -1  -3  113.19    1.73 
  -1  -1  -3  110.86    1.72 
  -1   1  -3  113.30    1.77 
  -1   1  -3  113.22    1.65 
   1   1   3  114.14    1.83 
   2  -1   3   58.37    1.18 
  -2  -1  -3   58.43    1.05 
  -2  -1  -3   59.40    1.06 
  -2   1  -3   39.78    0.66 
   2   1   3   39.17    0.90 
   3  -1   3    3.51    0.36 
  -3  -1  -3    3.40    0.32 
  -3  -1  -3    4.16    0.28 
   3   1   3    6.20    0.42 
  -3   1  -3    5.56    0.24 
   4  -1   3   24.61    0.83 
  -4  -1  -3   26.19    0.72 
  -4  -1  -3   27.34    0.74 
   4   1   3   29.89    0.98 
  -4   1  -3   32.39    0.72 
  -5  -1  -3   46.97    1.08 
   5  -1   3   45.71    1.27 
  -5  -1  -3   46.89    1.12 
   5   1   3   46.79    1.38 
  -5   1  -3   49.12    1.08 
  -5   1  -3   49.82    1.07 
  -6  -1  -3    6.45    0.47 
   6  -1   3    6.04    0.65 
  -6  -1  -3    7.25    0.52 
  -6   1  -3    5.97    0.47 
  -6   1  -3    6.66    0.44 
   6   1   3    5.97    0.67 
   7  -1   3   24.19    1.12 
  -7  -1  -3   23.66    0.92 
  -7   1  -3   20.47    0.74 
   7   1   3   22.24    1.13 
  -7   1  -3   20.82    0.80 
  -8  -1  -3    9.05    0.68 
   8  -1   3   11.20    0.92 
  -8   1  -3   11.28    0.70 
   8   1   3   10.66    0.97 
  -9  -1  -3    0.31    0.41 
   9  -1   3    0.97    0.59 
  -9   1  -3    1.03    0.42 
   9   1   3    0.29    0.58 
 -10  -1  -3    9.05    0.80 
  10  -1   3   11.19    1.05 
  10   1   3   11.00    1.15 
 -10   1  -3    8.38    0.77 
 -10  -2   3    1.57    0.56 
  10   2  -3    0.89    0.78 
 -10   2   3    1.20    0.56 
  -9  -2   3    1.35    0.49 
   9   2  -3    2.70    0.84 
  -9   2   3    2.08    0.52 
  -8  -2   3    9.94    0.76 
   8  -2  -3   10.18    0.84 
   8   2  -3   10.70    1.01 
  -8   2   3   10.05    0.71 
  -7  -2   3    2.64    0.45 
   7  -2  -3    4.04    0.49 
   7  -2  -3    4.58    0.57 
  -7   2   3    6.98    0.59 
   7   2  -3    9.39    0.92 
  -6  -2   3   31.06    1.01 
   6  -2  -3   29.09    0.94 
   6  -2  -3   28.52    0.95 
   6   2  -3   36.49    1.36 
  -6   2   3   32.96    1.04 
  -5  -2   3   12.04    0.62 
   5  -2  -3   15.40    0.59 
   5  -2  -3   14.89    0.66 
   5   2  -3   19.21    0.98 
  -5   2   3   22.24    0.79 
  -4  -2   3   12.00    0.57 
   4  -2  -3   12.34    0.48 
   4  -2  -3   13.55    0.58 
  -4   2   3    8.77    0.51 
   4   2  -3    8.85    0.63 
   3  -2  -3    7.83    0.44 
  -3  -2   3    6.77    0.38 
   3  -2  -3    7.36    0.29 
   3   2  -3    7.06    0.25 
  -3   2   3    7.48    0.47 
   3   2  -3    5.97    0.46 
  -2  -2   3  135.67    2.21 
  -2  -2   3  134.45    2.33 
   2  -2  -3  135.11    2.27 
  -2   2   3  154.40    2.59 
   2   2  -3  150.71    2.21 
  -1  -2   3    9.27    0.36 
  -1  -2   3    9.72    0.45 
   1  -2  -3    9.46    0.43 
  -1   2   3    8.52    0.42 
   0  -2   3   73.32    1.23 
   0  -2   3   73.47    1.39 
   0  -2  -3   74.98    1.35 
   0  -2   3   72.05    1.30 
   0   2   3   63.59    1.21 
  -1  -2  -3   26.77    0.65 
   1  -2   3   27.43    0.71 
  -1  -2  -3   27.54    0.69 
   1  -2   3   26.42    0.79 
  -1   2  -3   23.57    0.57 
   1   2   3   23.87    0.63 
   2  -2   3    8.60    0.53 
  -2  -2  -3    9.26    0.37 
  -2  -2  -3    9.30    0.40 
   2  -2   3    9.93    0.44 
   2   2   3   10.17    0.47 
  -2   2  -3    9.80    0.37 
   3  -2   3   55.21    1.22 
  -3  -2  -3   55.92    1.17 
  -3  -2  -3   55.39    1.03 
   3  -2   3   55.59    1.26 
   3   2   3   52.19    1.28 
  -3   2  -3   55.42    1.01 
   4  -2   3    9.16    0.49 
  -4  -2  -3    9.70    0.49 
   4  -2   3   10.05    0.57 
  -4  -2  -3    9.27    0.37 
  -4   2  -3    7.98    0.36 
   4   2   3    9.04    0.61 
   5  -2   3   16.02    0.75 
   5  -2   3   15.35    0.67 
  -5  -2  -3   15.84    0.67 
  -5  -2  -3   16.11    0.48 
  -5   2  -3   18.30    0.59 
   5   2   3   15.46    0.87 
   6  -2   3   14.71    0.72 
   6  -2   3   15.69    0.84 
  -6  -2  -3   16.52    0.75 
  -6   2  -3   15.61    0.62 
   6   2   3   15.98    0.93 
  -7  -2  -3   13.07    0.75 
   7  -2   3   14.01    0.89 
   7   2   3   14.49    0.98 
  -7   2  -3   13.80    0.68 
   8  -2   3   10.72    0.86 
  -8  -2  -3   10.27    0.73 
   8   2   3    8.27    0.89 
  -8   2  -3    9.86    0.64 
  -8   2  -3   10.11    0.77 
  -9  -2  -3   13.87    0.92 
   9  -2   3   18.09    1.16 
  -9   2  -3   14.93    0.85 
   9   2   3   15.23    1.18 
 -10  -2  -3    0.57    0.51 
  10  -2   3    0.68    0.74 
  10   2   3    0.78    0.73 
  -9  -3   3    2.77    0.63 
   9   3  -3    3.78    0.93 
  -9   3   3    3.94    0.60 
   8  -3  -3    1.19    0.50 
  -8  -3   3    1.68    0.49 
  -8   3   3    2.42    0.51 
   8   3  -3    1.94    0.76 
   7  -3  -3   12.49    0.78 
  -7  -3   3   13.06    0.84 
  -7   3   3   15.27    0.81 
   7   3  -3   15.76    1.18 
   6  -3  -3    0.95    0.39 
  -6  -3   3    0.64    0.37 
  -6   3   3   -0.13    0.31 
   6   3  -3    0.20    0.47 
   5  -3  -3   10.33    0.65 
  -5  -3   3   10.86    0.67 
   5   3  -3   11.21    0.79 
  -5   3   3   10.09    0.66 
  -4  -3   3   47.66    1.23 
   4  -3  -3   46.96    0.93 
   4  -3  -3   49.74    1.29 
   4   3  -3   52.27    1.49 
  -4   3   3   52.73    1.42 
   3  -3  -3   36.06    1.04 
  -3  -3   3   36.78    0.99 
  -3   3   3   42.39    1.20 
   3   3  -3   42.75    0.78 
   3   3  -3   42.53    1.21 
  -2  -3   3    7.66    0.35 
   2  -3  -3    8.35    0.49 
  -2  -3   3    8.23    0.43 
  -2   3   3    8.82    0.53 
   1  -3  -3   37.34    0.98 
  -1  -3   3   37.83    0.90 
  -1  -3   3   38.12    0.98 
  -1  -3   3   36.86    0.86 
  -1   3   3   34.06    0.94 
   0  -3   3   43.89    1.01 
   0  -3   3   45.47    0.98 
   0  -3  -3   44.02    1.04 
   0  -3   3   44.86    1.06 
   0   3   3   39.14    0.99 
   0   3   3   38.71    0.78 
  -1  -3  -3    7.29    0.42 
   1  -3   3    8.33    0.46 
   1  -3   3    7.78    0.46 
  -1  -3  -3    8.37    0.44 
  -1   3  -3   11.69    0.49 
   1   3   3   11.09    0.47 
   2  -3   3   30.24    0.91 
   2  -3   3   30.74    0.96 
  -2  -3  -3   31.65    0.89 
  -2  -3  -3   31.67    0.80 
  -2   3  -3   19.58    0.65 
   2   3   3   19.66    0.72 
  -3  -3  -3    0.37    0.20 
   3  -3   3    0.35    0.33 
   3  -3   3    0.70    0.27 
  -3  -3  -3    0.66    0.24 
   3   3   3    0.56    0.31 
  -3   3  -3    0.61    0.22 
  -4  -3  -3    7.25    0.48 
   4  -3   3    6.95    0.58 
   4  -3   3    8.31    0.55 
  -4  -3  -3    7.34    0.39 
   4   3   3    6.04    0.62 
  -4   3  -3    6.57    0.38 
   5  -3   3   27.69    1.03 
   5  -3   3   29.36    1.01 
  -5  -3  -3   29.39    0.97 
   5   3   3   26.03    1.09 
  -5   3  -3   23.61    0.73 
   6  -3   3    6.54    0.58 
  -6  -3  -3    6.92    0.56 
   6  -3   3    6.63    0.67 
  -6   3  -3    7.89    0.48 
   6   3   3    8.19    0.81 
   7  -3   3   22.06    0.98 
   7  -3   3   22.41    1.08 
  -7  -3  -3   22.11    1.00 
  -7   3  -3   23.58    0.87 
   7   3   3   24.93    1.31 
  -8  -3  -3    2.08    0.52 
   8  -3   3    3.81    0.66 
  -8   3  -3    2.85    0.49 
   8   3   3    3.83    0.80 
  -9  -3  -3    0.97    0.50 
  -9   3  -3    1.78    0.60 
   9   3   3    0.56    0.58 
   9  -4  -3    1.02    0.57 
  -9  -4   3   -0.08    0.45 
  -9   4   3    0.27    0.47 
   9   4  -3    0.93    0.71 
  -8  -4   3    7.63    0.79 
   8  -4  -3    4.90    0.74 
  -8   4   3    8.14    0.76 
   8   4  -3    9.05    1.04 
   7  -4  -3    1.19    0.47 
  -7  -4   3   -0.20    0.40 
  -7   4   3    0.74    0.41 
   7   4  -3    0.34    0.59 
   6  -4  -3    5.94    0.65 
  -6  -4   3    7.84    0.70 
  -6   4   3    6.72    0.65 
   6   4  -3    8.17    0.94 
   5  -4  -3   14.58    0.84 
  -5  -4   3   14.56    0.77 
  -5   4   3   15.72    0.88 
   5   4  -3   17.14    1.02 
   4  -4  -3    6.34    0.59 
  -4  -4   3    5.49    0.53 
  -4   4   3    7.43    0.66 
   4   4  -3    6.67    0.77 
   3  -4  -3   33.26    1.10 
  -3  -4   3   34.18    1.04 
  -3   4   3   37.39    1.28 
   3   4  -3   37.34    1.22 
  -2  -4   3   20.08    0.76 
   2  -4  -3   20.53    0.85 
  -2  -4   3   23.01    0.67 
  -2   4   3   21.44    0.90 
   2   4  -3   21.51    0.86 
  -1  -4   3    2.54    0.33 
   1  -4  -3    3.08    0.42 
  -1  -4   3    3.00    0.35 
  -1  -4   3    2.97    0.39 
  -1   4   3    2.25    0.38 
   0  -4   3   13.71    0.62 
   0  -4   3   13.82    0.60 
   0  -4   3   13.41    0.63 
   0  -4  -3   14.49    0.67 
   0   4   3    9.40    0.58 
   0   4   3    9.57    0.41 
   1  -4   3   28.39    0.92 
  -1  -4  -3   27.19    0.86 
  -1  -4  -3   28.64    0.91 
   1  -4   3   27.84    0.89 
  -1   4  -3   24.09    0.83 
   1   4   3   25.02    0.76 
  -2  -4  -3    7.31    0.47 
   2  -4   3    7.11    0.55 
   2  -4   3    8.63    0.54 
  -2  -4  -3    7.67    0.53 
  -2   4  -3    7.41    0.52 
   2   4   3    7.84    0.53 
   3  -4   3   38.69    1.18 
  -3  -4  -3   36.34    1.10 
  -3  -4  -3   37.68    0.96 
   3  -4   3   35.53    1.12 
  -3   4  -3   37.15    1.09 
   3   4   3   37.04    1.16 
   4  -4   3    4.30    0.53 
   4  -4   3    4.60    0.64 
  -4  -4  -3    3.88    0.39 
  -4  -4  -3    3.84    0.48 
  -4   4  -3    2.63    0.36 
   4   4   3    3.12    0.55 
   5  -4   3    2.31    0.57 
  -5  -4  -3    2.72    0.49 
   5  -4   3    2.73    0.50 
  -5   4  -3    1.99    0.33 
   5   4   3    1.56    0.54 
  -6  -4  -3    2.36    0.51 
   6  -4   3    3.85    0.59 
   6  -4   3    3.58    0.67 
   6   4   3    4.04    0.74 
  -6   4  -3    4.23    0.45 
   7  -4   3    3.63    0.59 
  -7  -4  -3    2.80    0.58 
  -7   4  -3    3.80    0.48 
   7   4   3    3.07    0.74 
   8  -4   3    1.87    0.60 
  -8  -4  -3    1.16    0.51 
   8   4   3    2.54    0.77 
  -9  -4  -3    4.11    0.71 
  -9   4  -3    5.73    0.73 
   9   4   3    3.96    0.87 
  -8  -5   3    2.15    0.61 
   8  -5  -3    2.06    0.66 
   8   5  -3    1.65    0.77 
  -8   5   3    1.16    0.53 
   7  -5  -3    6.58    0.81 
  -7  -5   3    3.75    0.66 
   7   5  -3    6.88    0.98 
  -7   5   3    6.56    0.73 
   6  -5  -3   10.50    0.86 
  -6  -5   3   10.97    0.85 
  -6   5   3   11.11    0.83 
   6   5  -3   10.09    1.01 
  -5  -5   3    8.63    0.74 
   5  -5  -3    6.28    0.70 
  -5   5   3    9.72    0.85 
   5   5  -3   10.74    1.02 
   4  -5  -3    6.67    0.68 
  -4  -5   3    4.64    0.60 
   4   5  -3    6.01    0.74 
  -4   5   3    7.94    0.76 
   3  -5  -3    2.67    0.55 
  -3  -5   3    3.18    0.48 
  -3   5   3    3.70    0.63 
   3   5  -3    3.13    0.58 
  -2  -5   3    2.17    0.36 
   2  -5  -3    2.59    0.53 
  -2  -5   3    2.48    0.45 
  -2   5   3    1.32    0.42 
   2   5  -3    1.77    0.45 
  -1  -5   3   42.32    1.25 
   1  -5  -3   43.47    1.31 
  -1  -5   3   41.83    1.17 
  -1   5   3   38.96    1.27 
   0  -5   3    0.36    0.33 
   0  -5   3   -0.12    0.32 
   0  -5  -3    0.16    0.35 
   0  -5   3    0.45    0.31 
   0   5   3    0.83    0.35 
   1  -5   3   16.52    0.83 
  -1  -5  -3   16.30    0.84 
  -1  -5  -3   15.93    0.76 
   1  -5   3   15.96    0.74 
   1   5   3   14.89    0.65 
  -1   5  -3   14.43    0.77 
   2  -5   3    5.05    0.52 
   2  -5   3    6.21    0.62 
  -2  -5  -3    5.20    0.51 
  -2  -5  -3    5.02    0.56 
   2   5   3    7.47    0.57 
  -2   5  -3    7.87    0.63 
   3  -5   3    7.84    0.61 
  -3  -5  -3    7.82    0.54 
   3  -5   3    7.91    0.68 
  -3  -5  -3    7.72    0.64 
   3   5   3   10.61    0.71 
  -3   5  -3    8.86    0.68 
  -4  -5  -3    3.99    0.57 
   4  -5   3    4.31    0.60 
   4   5   3    4.67    0.65 
  -4   5  -3    5.34    0.53 
   5  -5   3    5.39    0.67 
  -5  -5  -3    4.14    0.59 
   5   5   3    2.81    0.65 
  -5   5  -3    3.85    0.48 
  -6  -5  -3    1.71    0.51 
   6  -5   3    2.77    0.59 
   6   5   3    2.05    0.65 
  -6   5  -3    0.99    0.38 
  -7  -5  -3    1.47    0.52 
   7  -5   3    1.60    0.54 
   7   5   3    3.28    0.76 
  -8  -5  -3    2.52    0.62 
   8  -5   3    1.77    0.62 
   8   5   3    2.26    0.76 
  -7  -6   3    1.34    0.62 
   7  -6  -3    1.02    0.66 
  -7   6   3    0.86    0.55 
   7   6  -3    2.23    0.87 
   6  -6  -3    0.77    0.56 
  -6  -6   3    1.80    0.59 
  -6   6   3    0.47    0.56 
   6   6  -3    0.92    0.69 
  -5  -6   3    1.13    0.53 
   5  -6  -3    1.15    0.60 
   5   6  -3    0.65    0.69 
  -5   6   3    1.46    0.61 
  -4  -6   3    0.50    0.46 
   4  -6  -3    1.66    0.56 
  -4   6   3    1.30    0.59 
   4   6  -3    0.26    0.55 
  -3  -6   3    4.87    0.65 
   3  -6  -3    3.85    0.65 
  -3   6   3    3.35    0.69 
   3   6  -3    5.71    0.76 
   2  -6  -3    4.85    0.67 
  -2  -6   3    4.05    0.50 
  -2  -6   3    4.25    0.62 
   2   6  -3    4.61    0.66 
  -2   6   3    4.62    0.68 
   1  -6  -3    5.61    0.67 
  -1  -6   3    5.81    0.65 
  -1  -6   3    5.80    0.61 
   1   6  -3    6.22    0.70 
  -1   6   3    6.57    0.71 
   0  -6   3   10.71    0.78 
   0  -6  -3   11.29    0.77 
   0   6   3    9.56    0.78 
   0   6  -3   11.23    0.81 
   1  -6   3    0.48    0.40 
  -1  -6  -3    1.30    0.48 
   1  -6   3    1.51    0.49 
   1   6   3    0.95    0.42 
  -1   6  -3    0.79    0.48 
  -2  -6  -3    5.54    0.62 
  -2  -6  -3    3.69    0.59 
   2  -6   3    4.56    0.63 
  -2   6  -3    3.89    0.63 
  -3  -6  -3    0.15    0.42 
   3  -6   3    0.43    0.48 
   3   6   3    0.79    0.51 
  -3   6  -3   -0.19    0.42 
  -4  -6  -3    0.55    0.44 
   4  -6   3   -0.03    0.48 
   4   6   3    0.63    0.51 
  -4   6  -3    0.68    0.44 
  -5  -6  -3    3.04    0.62 
   5  -6   3    1.90    0.60 
   5   6   3    3.27    0.73 
  -5   6  -3    2.74    0.52 
   6  -6   3    0.75    0.55 
  -6  -6  -3    0.40    0.50 
   6   6   3    2.09    0.71 
   7  -6   3   -0.08    0.52 
  -7  -6  -3    0.67    0.50 
   7   6   3    0.58    0.68 
   5  -7  -3    1.99    0.67 
  -5  -7   3    0.29    0.55 
   5   7  -3    2.27    0.83 
  -5   7   3    0.27    0.63 
   4  -7  -3    0.34    0.60 
  -4  -7   3    0.11    0.55 
  -4   7   3    1.53    0.68 
   4   7  -3    1.66    0.76 
  -3  -7   3    0.48    0.53 
   3  -7  -3    0.31    0.60 
  -3   7   3    0.48    0.60 
   3   7  -3    1.92    0.67 
   2  -7  -3   -0.35    0.50 
  -2  -7   3    0.07    0.52 
  -2   7   3    0.34    0.57 
  -1  -7   3    0.61    0.51 
   1  -7  -3    1.61    0.59 
  -1   7   3    0.30    0.50 
   1   7  -3    0.10    0.54 
   0  -7   3   -0.15    0.45 
   0  -7  -3    0.10    0.49 
   0   7  -3    0.58    0.56 
   0   7   3    0.21    0.49 
   1  -7   3    2.28    0.62 
  -1  -7  -3    3.31    0.63 
   1   7   3    2.22    0.60 
  -1   7  -3    3.00    0.74 
   2  -7   3    5.33    0.77 
   2   7   3    4.77    0.75 
  -2   7  -3    5.31    0.77 
  -3  -7  -3    0.14    0.50 
   3  -7   3    1.62    0.63 
  -3   7  -3    1.03    0.54 
   4  -7   3    0.73    0.61 
  -4  -7  -3    1.05    0.58 
  -5  -7  -3    1.46    0.59 
   5  -7   3    0.94    0.61 
   2  -8  -3    0.41    0.65 
  -2   8   3    0.70    0.66 
   2   8  -3    0.20    0.61 
   1  -8  -3   -0.90    0.52 
  -1   8   3    1.40    0.67 
   1   8  -3    1.01    0.66 
   0  -8  -3    2.36    0.70 
   0  -8   3    3.08    0.74 
   0   8  -3    2.40    0.79 
   0   8   3    1.32    0.65 
   1  -8   3   -0.89    0.59 
  -1   8  -3   -0.32    0.58 
   1   8   3    0.74    0.56 
   2  -8   3    0.77    0.61 
   2   8   3    0.33    0.50 
 -10   0   4    4.34    0.68 
  10   0  -4    5.53    0.95 
  -9   0   4    2.62    0.55 
   9   0  -4    3.56    0.77 
  -8   0   4   14.95    0.83 
   8   0  -4   15.00    1.04 
   7   0  -4   15.36    0.95 
  -7   0   4   15.67    0.81 
   6   0  -4   28.02    0.74 
  -6   0   4   27.09    0.93 
   6   0  -4   27.49    1.07 
   5   0  -4  108.19    2.16 
   5   0  -4  107.39    1.82 
  -4   0   4   24.53    0.70 
   4   0  -4   24.81    0.79 
   4   0  -4   24.35    0.61 
  -3   0   4   95.15    1.63 
   3   0  -4   93.61    1.68 
   3   0  -4   93.75    1.56 
  -2   0   4   76.75    1.37 
  -2   0   4   74.94    1.30 
   2   0  -4   79.17    1.30 
  -1   0   4    6.24    0.30 
   1   0  -4    5.82    0.30 
  -1   0   4    5.58    0.24 
   0   0  -4    1.02    0.22 
   0   0   4    0.83    0.11 
   0   0   4    1.25    0.21 
   1   0   4  991.83   13.56 
  -1   0  -4 1000.00   13.47 
  -1   0  -4  990.72   13.46 
  -2   0  -4    4.33    0.19 
  -2   0  -4    4.52    0.27 
   2   0   4    3.74    0.31 
  -3   0  -4  113.24    1.79 
  -3   0  -4  112.84    1.85 
   3   0   4  115.91    2.09 
  -4   0  -4    2.85    0.29 
  -4   0  -4    2.26    0.24 
   4   0   4    2.06    0.36 
   5   0   4    1.81    0.39 
  -5   0  -4    2.06    0.29 
  -5   0  -4    1.17    0.23 
   6   0   4    2.90    0.53 
  -6   0  -4    3.27    0.36 
  -6   0  -4    3.35    0.35 
  -7   0  -4   19.45    0.70 
  -7   0  -4   21.01    0.82 
   7   0   4   19.93    1.07 
   8   0   4    5.88    0.78 
  -8   0  -4    4.10    0.50 
   9   0   4   -0.62    0.53 
  -9   0  -4    0.18    0.40 
 -10   0  -4   -0.55    0.41 
  10   0   4    0.70    0.65 
 -10  -1   4    0.15    0.46 
 -10   1   4    0.05    0.46 
  10   1  -4    0.30    0.71 
   9  -1  -4   17.03    1.11 
  -9  -1   4   13.75    0.92 
   9   1  -4   16.17    1.23 
  -9   1   4   15.36    0.98 
  -8  -1   4    4.65    0.59 
   8  -1  -4    5.09    0.68 
   8   1  -4    5.99    0.85 
  -8   1   4    5.35    0.62 
   7  -1  -4   10.84    0.58 
  -7  -1   4   10.67    0.68 
   7  -1  -4   10.55    0.78 
  -7   1   4   13.30    0.73 
   7   1  -4   10.74    0.90 
  -6  -1   4   21.50    0.84 
   6  -1  -4   22.47    0.92 
   6  -1  -4   23.17    0.76 
   6   1  -4   27.09    1.14 
  -6   1   4   27.93    0.93 
   5  -1  -4    4.45    0.48 
   5  -1  -4    4.79    0.38 
  -5  -1   4    4.59    0.42 
   5   1  -4    3.36    0.20 
  -5   1   4    3.56    0.38 
   5   1  -4    2.90    0.47 
   4  -1  -4   91.28    1.71 
  -4  -1   4   92.83    1.73 
   4  -1  -4   93.00    1.71 
   4   1  -4   91.14    1.42 
  -4   1   4   88.93    1.73 
   4   1  -4   91.05    1.86 
   3  -1  -4  210.81    3.21 
  -3  -1   4  208.49    3.19 
   3  -1  -4  204.88    3.11 
   3   1  -4  209.40    3.02 
   3   1  -4  211.93    3.36 
  -3   1   4  212.36    3.32 
   2  -1  -4    6.00    0.32 
  -2  -1   4    5.51    0.36 
   2  -1  -4    5.64    0.27 
  -2  -1   4    5.66    0.28 
  -2   1   4    7.23    0.36 
   2   1  -4    6.73    0.34 
   1  -1  -4  116.36    1.89 
  -1  -1   4  117.36    1.98 
  -1  -1   4  117.18    1.78 
  -1   1   4  127.94    2.11 
  -1   1   4  131.85    1.97 
   1   1  -4  132.84    2.00 
   0  -1   4  289.87    4.43 
   0  -1  -4  297.86    4.26 
   0  -1   4  305.51    4.11 
   0   1   4  336.16    4.73 
   0   1   4  333.89    4.74 
   0   1  -4  337.38    4.72 
   1  -1   4   49.33    1.18 
  -1  -1  -4   48.28    0.89 
  -1  -1  -4   49.60    0.96 
  -1   1  -4   55.93    1.04 
   1   1   4   56.47    1.08 
  -2  -1  -4   48.87    0.91 
   2  -1   4   46.63    1.09 
  -2  -1  -4   44.97    1.00 
  -2   1  -4   49.40    0.97 
   2   1   4   48.51    1.07 
  -2   1  -4   48.45    0.76 
  -3  -1  -4   48.96    1.04 
   3  -1   4   48.82    1.17 
  -3  -1  -4   47.32    0.99 
   3   1   4   53.90    1.28 
  -3   1  -4   53.87    0.93 
  -3   1  -4   53.83    1.10 
  -4  -1  -4    7.82    0.41 
  -4  -1  -4    7.57    0.45 
   4  -1   4    6.70    0.50 
  -4   1  -4    8.34    0.35 
  -4   1  -4    8.00    0.43 
   4   1   4    8.24    0.56 
  -5  -1  -4   40.72    1.06 
  -5  -1  -4   41.74    1.04 
   5  -1   4   42.01    1.25 
  -5   1  -4   32.47    0.82 
   5   1   4   31.77    1.13 
  -5   1  -4   33.48    0.87 
  -6  -1  -4    3.12    0.42 
  -6  -1  -4    2.65    0.37 
   6  -1   4    2.74    0.51 
  -6   1  -4    3.09    0.35 
   6   1   4    4.32    0.63 
  -6   1  -4    3.00    0.40 
  -7  -1  -4    4.27    0.48 
   7  -1   4    2.23    0.56 
  -7   1  -4    4.59    0.46 
   7   1   4    5.60    0.74 
  -7   1  -4    3.97    0.45 
   8  -1   4    4.21    0.68 
  -8  -1  -4    2.99    0.49 
   8   1   4    7.70    0.89 
  -8   1  -4    6.28    0.56 
  -9  -1  -4    1.95    0.50 
   9  -1   4    1.93    0.70 
   9   1   4    1.42    0.71 
  -9   1  -4    1.22    0.44 
  10  -1   4    0.74    0.70 
 -10  -1  -4    0.07    0.46 
  10   1   4    0.47    0.70 
 -10  -2   4    4.10    0.67 
 -10   2   4    5.45    0.75 
  10   2  -4    5.40    1.05 
  -9  -2   4    1.04    0.50 
  -9   2   4    0.40    0.46 
   9   2  -4    0.90    0.72 
  -8  -2   4    3.02    0.54 
  -8   2   4    3.98    0.56 
   8   2  -4    4.30    0.83 
   7  -2  -4   10.49    0.67 
  -7  -2   4   11.96    0.75 
   7  -2  -4    9.88    0.67 
   7   2  -4   10.86    1.03 
  -7   2   4   11.42    0.72 
   6  -2  -4   14.33    0.69 
  -6  -2   4   13.35    0.70 
   6  -2  -4   13.23    0.67 
   6   2  -4   12.65    0.92 
  -6   2   4   10.97    0.66 
   5  -2  -4   89.33    1.72 
  -5  -2   4   88.01    1.85 
   5  -2  -4   90.40    1.84 
   5   2  -4   84.39    2.00 
  -5   2   4   85.22    1.82 
  -4  -2   4   34.88    0.96 
   4  -2  -4   35.78    0.83 
   4  -2  -4   36.55    1.01 
  -4   2   4   39.39    1.14 
   4   2  -4   38.22    1.17 
   3  -2  -4   32.04    0.67 
   3  -2  -4   32.83    0.90 
  -3  -2   4   33.47    0.87 
   3   2  -4   37.00    0.72 
  -3   2   4   35.44    0.97 
   3   2  -4   35.66    1.02 
  -2  -2   4  134.76    2.22 
  -2  -2   4  138.77    2.41 
   2  -2  -4  137.46    2.33 
  -2   2   4  159.13    2.72 
   2   2  -4  161.19    2.37 
  -1  -2   4   30.89    0.69 
  -1  -2   4   30.73    0.84 
   1  -2  -4   30.77    0.80 
  -1   2   4   33.11    0.84 
   1   2  -4   32.93    0.70 
   0  -2  -4   44.75    0.97 
   0  -2   4   44.73    0.83 
   0  -2   4   44.41    1.05 
   0   2   4   45.08    0.97 
   0   2  -4   45.52    0.91 
   0   2   4   45.52    0.82 
  -1  -2  -4  264.94    3.92 
   1  -2   4  271.38    3.96 
  -1  -2  -4  260.86    3.88 
   1  -2   4  255.35    4.21 
  -1   2  -4  280.76    3.97 
   1   2   4  273.96    4.07 
  -2  -2  -4   50.56    1.03 
   2  -2   4   49.98    1.35 
  -2  -2  -4   52.33    1.09 
   2  -2   4   53.01    1.16 
  -2   2  -4   51.12    0.93 
   2   2   4   52.19    1.16 
   3  -2   4   30.90    0.96 
  -3  -2  -4   30.20    0.73 
   3  -2   4   29.41    0.87 
  -3  -2  -4   29.75    0.81 
  -3   2  -4   19.78    0.49 
   3   2   4   19.97    0.76 
  -4  -2  -4   34.78    0.81 
   4  -2   4   34.44    1.06 
  -4  -2  -4   35.13    0.94 
   4  -2   4   35.29    1.00 
   4   2   4   40.65    1.22 
  -4   2  -4   39.85    0.84 
  -5  -2  -4    6.66    0.38 
  -5  -2  -4    7.12    0.48 
   5  -2   4    7.09    0.56 
   5   2   4    6.55    0.67 
  -5   2  -4    5.94    0.37 
  -6  -2  -4    7.76    0.57 
   6  -2   4    8.09    0.72 
  -6   2  -4    8.47    0.47 
   6   2   4    7.19    0.72 
  -6   2  -4    8.46    0.60 
  -7  -2  -4    0.53    0.36 
   7  -2   4    0.96    0.49 
  -7   2  -4    0.32    0.42 
   7   2   4   -0.16    0.42 
  -7   2  -4    0.09    0.29 
  -8  -2  -4    5.09    0.62 
   8  -2   4    4.09    0.70 
   8   2   4    4.29    0.78 
  -8   2  -4    4.54    0.53 
  -8   2  -4    5.97    0.62 
  -9  -2  -4    0.86    0.46 
   9  -2   4   -0.29    0.63 
   9   2   4    0.43    0.70 
 -10  -2  -4    0.48    0.49 
  10  -2   4   -1.21    0.66 
  10   2   4    0.86    0.72 
  -9  -3   4    2.50    0.58 
   9   3  -4    2.00    0.87 
  -9   3   4    2.18    0.56 
   8  -3  -4   22.84    1.07 
  -8  -3   4   20.64    1.05 
   8   3  -4   22.72    1.41 
  -8   3   4   21.58    1.03 
   7  -3  -4    8.51    0.71 
  -7  -3   4    7.51    0.67 
  -7   3   4    6.62    0.63 
   7   3  -4    7.21    0.89 
  -6  -3   4   36.41    1.23 
   6  -3  -4   35.37    1.20 
  -6   3   4   39.75    1.27 
   6   3  -4   40.55    1.54 
  -5  -3   4    9.90    0.67 
   5  -3  -4   10.59    0.68 
  -5   3   4   12.98    0.78 
   5   3  -4   12.83    0.87 
   4  -3  -4   23.35    0.87 
  -4  -3   4   21.85    0.81 
  -4   3   4   20.72    0.86 
   4   3  -4   19.96    0.93 
   3  -3  -4   40.79    1.13 
  -3  -3   4   40.83    1.06 
   3   3  -4   48.96    0.91 
   3   3  -4   50.21    1.33 
  -3   3   4   51.38    1.33 
  -2  -3   4    3.54    0.42 
  -2  -3   4    4.09    0.34 
   2  -3  -4    3.75    0.39 
   2   3  -4    3.92    0.28 
  -2   3   4    3.73    0.43 
  -1  -3   4  125.20    2.12 
   1  -3  -4  124.60    2.25 
  -1  -3   4  126.64    2.31 
  -1  -3   4  123.97    2.09 
  -1   3   4  138.89    2.47 
   0  -3   4   90.62    1.63 
   0  -3  -4   90.78    1.75 
   0  -3   4   89.95    1.81 
   0  -3   4   94.77    1.71 
   0   3   4   96.26    1.82 
   0   3   4   93.58    1.52 
  -1  -3  -4    5.70    0.39 
   1  -3   4    5.98    0.47 
  -1  -3  -4    5.42    0.38 
   1  -3   4    5.64    0.41 
  -1   3  -4    6.08    0.40 
   1   3   4    5.70    0.36 
   2  -3   4  114.83    2.38 
  -2  -3  -4  111.36    2.06 
  -2  -3  -4  115.11    2.00 
   2  -3   4  114.47    2.12 
   2   3   4  119.05    2.19 
  -2   3  -4  119.73    2.05 
   3  -3   4   29.52    0.91 
  -3  -3  -4   30.37    0.81 
   3  -3   4   29.96    1.08 
  -3  -3  -4   30.88    0.91 
  -3   3  -4   37.27    0.86 
   3   3   4   35.90    1.10 
   4  -3   4   18.99    0.90 
   4  -3   4   17.95    0.76 
  -4  -3  -4   17.52    0.60 
  -4  -3  -4   18.08    0.74 
  -4   3  -4   17.52    0.56 
   4   3   4   19.62    0.89 
   5  -3   4    7.76    0.64 
   5  -3   4    7.39    0.59 
  -5  -3  -4    6.81    0.56 
   5   3   4    5.89    0.70 
  -5   3  -4    7.19    0.40 
  -6  -3  -4    4.94    0.49 
   6  -3   4    5.14    0.61 
   6  -3   4    5.62    0.59 
   6   3   4    4.67    0.69 
  -6   3  -4    3.97    0.37 
  -7  -3  -4    1.82    0.46 
   7  -3   4    2.35    0.58 
  -7   3  -4    2.07    0.38 
   7   3   4    2.69    0.65 
  -8  -3  -4    2.26    0.53 
   8  -3   4    2.30    0.65 
  -8   3  -4    0.54    0.48 
   8   3   4    0.81    0.59 
   9  -3   4   -0.20    0.69 
  -9  -3  -4    0.29    0.47 
   9   3   4    0.06    0.58 
  -9   3  -4   -0.59    0.53 
  -9  -4   4    3.60    0.68 
  -9   4   4    4.15    0.68 
   9   4  -4    3.61    1.02 
  -8  -4   4   10.90    0.87 
   8  -4  -4   10.58    0.87 
   8   4  -4    9.60    1.08 
  -8   4   4    8.65    0.78 
   7  -4  -4   11.74    0.87 
  -7  -4   4   12.59    0.87 
  -7   4   4   13.50    0.86 
   7   4  -4   11.22    1.04 
   6  -4  -4    5.21    0.64 
  -6  -4   4    5.26    0.65 
   6   4  -4    2.64    0.74 
  -6   4   4    2.90    0.58 
   5  -4  -4   14.77    0.85 
  -5  -4   4   15.51    0.83 
   5   4  -4   20.07    1.10 
  -5   4   4   21.79    1.00 
  -4  -4   4   10.33    0.66 
   4  -4  -4   11.60    0.72 
   4   4  -4    8.79    0.79 
  -4   4   4    8.33    0.63 
   3  -4  -4   11.97    0.71 
  -3  -4   4   11.18    0.65 
   3   4  -4   10.15    0.42 
   3   4  -4   10.35    0.72 
  -3   4   4    8.19    0.66 
  -2  -4   4   71.20    1.57 
   2  -4  -4   71.24    1.69 
  -2   4   4   86.09    1.96 
  -1  -4   4   26.75    0.93 
   1  -4  -4   27.62    0.94 
  -1  -4   4   26.53    0.86 
  -1  -4   4   26.18    0.81 
  -1   4   4   30.47    1.02 
   0  -4  -4   25.89    0.90 
   0  -4   4   26.96    0.84 
   0  -4   4   27.18    0.87 
   0  -4   4   27.12    0.91 
   0   4   4   27.78    0.66 
   0   4   4   26.43    0.91 
   1  -4   4   55.73    1.37 
  -1  -4  -4   53.42    1.31 
   1  -4   4   54.21    1.34 
  -1  -4  -4   54.96    1.36 
   1   4   4   58.74    1.28 
  -1   4  -4   59.73    1.40 
  -2  -4  -4    3.12    0.38 
   2  -4   4    2.82    0.44 
   2  -4   4    2.45    0.43 
  -2  -4  -4    2.19    0.38 
  -2   4  -4    3.39    0.39 
   2   4   4    3.03    0.39 
   3  -4   4   29.18    1.04 
  -3  -4  -4   32.78    1.03 
  -3  -4  -4   29.10    0.87 
   3  -4   4   28.12    1.11 
   3   4   4   37.32    1.17 
  -3   4  -4   36.23    1.04 
  -4  -4  -4    6.61    0.57 
   4  -4   4    5.76    0.68 
   4  -4   4    7.34    0.61 
  -4  -4  -4    6.06    0.45 
  -4   4  -4    8.18    0.47 
   4   4   4    7.35    0.70 
   5  -4   4    3.17    0.52 
  -5  -4  -4    2.60    0.46 
   5  -4   4    2.87    0.62 
  -5   4  -4    3.15    0.36 
   5   4   4    4.12    0.65 
   6  -4   4   11.94    0.80 
   6  -4   4   12.35    1.01 
  -6  -4  -4   12.24    0.81 
  -6   4  -4    9.25    0.54 
   6   4   4    8.98    0.90 
  -7  -4  -4    3.07    0.56 
   7  -4   4    3.02    0.63 
   7   4   4    2.71    0.69 
  -8  -4  -4    3.04    0.62 
   8   4   4    1.50    0.72 
  -9  -4  -4    1.12    0.60 
  -9   4  -4    3.14    0.70 
   9   4   4    1.74    0.71 
  -8  -5   4   -0.73    0.42 
   8  -5  -4   -0.16    0.55 
   8   5  -4   -0.06    0.70 
  -8   5   4    0.04    0.45 
   7  -5  -4    2.38    0.64 
  -7  -5   4    1.69    0.56 
   7   5  -4    1.82    0.76 
  -7   5   4    2.17    0.60 
  -6  -5   4    3.30    0.60 
   6  -5  -4    3.22    0.63 
   6   5  -4    2.94    0.79 
  -6   5   4    2.63    0.62 
  -5  -5   4    1.59    0.53 
   5  -5  -4    1.37    0.53 
  -5   5   4    1.69    0.55 
   5   5  -4    2.47    0.67 
   4  -5  -4    4.09    0.60 
  -4  -5   4    4.56    0.60 
   4   5  -4    4.10    0.72 
  -4   5   4    6.38    0.71 
  -3  -5   4   22.60    0.96 
   3  -5  -4   20.42    1.01 
   3   5  -4   24.35    1.11 
  -3   5   4   22.93    1.13 
  -2  -5   4    5.89    0.47 
   2  -5  -4    5.27    0.63 
  -2  -5   4    6.56    0.59 
   2   5  -4    6.34    0.67 
  -2   5   4    5.41    0.64 
  -1  -5   4   39.29    1.17 
  -1  -5   4   35.97    1.21 
   1  -5  -4   38.51    1.25 
  -1  -5   4   37.69    1.08 
  -1   5   4   51.80    1.51 
   0  -5   4   10.25    0.67 
   0  -5   4    9.84    0.64 
   0  -5  -4   10.98    0.74 
   0  -5   4    9.48    0.64 
   0   5   4    9.18    0.65 
   1  -5   4    6.47    0.60 
   1  -5   4    6.67    0.62 
  -1  -5  -4    6.85    0.61 
  -1   5  -4    9.00    0.66 
   2  -5   4    2.96    0.46 
   2  -5   4    4.17    0.56 
  -2  -5  -4    2.61    0.45 
  -2  -5  -4    3.46    0.50 
  -2   5  -4    2.43    0.42 
   2   5   4    2.66    0.41 
  -3  -5  -4    9.34    0.61 
   3  -5   4    9.95    0.75 
   3  -5   4   10.20    0.70 
  -3  -5  -4   10.24    0.66 
   3   5   4   12.34    0.73 
  -3   5  -4   11.81    0.70 
  -4  -5  -4   -0.29    0.33 
   4  -5   4    0.63    0.42 
   4  -5   4    0.78    0.46 
  -4   5  -4    0.05    0.32 
   4   5   4   -0.07    0.41 
  -5  -5  -4   14.10    0.87 
   5  -5   4   12.95    0.86 
   5   5   4   16.66    1.08 
   6  -5   4    0.62    0.49 
  -6  -5  -4    0.73    0.44 
   6   5   4    1.07    0.60 
  -7  -5  -4    1.35    0.54 
   7  -5   4    1.14    0.53 
   7   5   4    0.62    0.61 
   8  -5   4   -0.15    0.47 
  -8  -5  -4    0.47    0.50 
   8   5   4   -0.20    0.60 
  -7  -6   4    4.82    0.77 
   7  -6  -4    6.67    0.90 
  -7   6   4    4.70    0.81 
   7   6  -4    6.43    1.03 
   6  -6  -4    0.68    0.56 
  -6  -6   4    1.61    0.60 
  -6   6   4    0.44    0.57 
   6   6  -4    1.58    0.79 
   5  -6  -4    4.18    0.71 
  -5  -6   4    4.21    0.70 
  -5   6   4    2.76    0.66 
   5   6  -4    3.48    0.79 
   4  -6  -4    3.64    0.66 
  -4  -6   4    3.68    0.64 
   4   6  -4    2.59    0.73 
  -4   6   4    3.36    0.66 
  -3  -6   4    2.47    0.53 
   3  -6  -4    2.44    0.61 
  -3   6   4    2.99    0.64 
   3   6  -4    4.39    0.70 
  -2  -6   4    3.33    0.58 
   2  -6  -4    3.24    0.63 
  -2  -6   4    3.89    0.52 
  -2   6   4    6.12    0.77 
   2   6  -4    5.33    0.70 
   1  -6  -4    8.70    0.78 
  -1  -6   4    8.27    0.73 
  -1  -6   4    8.67    0.67 
  -1   6   4    6.48    0.76 
   1   6  -4    6.97    0.72 
   0  -6   4    2.28    0.53 
   0  -6   4    2.44    0.54 
   0  -6  -4    2.14    0.53 
   0   6   4    2.27    0.53 
   0   6  -4    2.86    0.60 
   1  -6   4    5.34    0.63 
  -1  -6  -4    6.74    0.70 
   1  -6   4    6.08    0.68 
   1   6   4    6.10    0.71 
  -1   6  -4    5.55    0.69 
   2  -6   4    2.03    0.54 
  -2  -6  -4    1.15    0.47 
  -2  -6  -4    1.18    0.49 
  -2   6  -4    1.15    0.46 
   3  -6   4   10.59    0.88 
  -3  -6  -4    9.91    0.80 
  -3   6  -4   10.05    0.82 
   4  -6   4    1.42    0.57 
  -4  -6  -4    2.20    0.51 
   4   6   4    1.92    0.60 
   5  -6   4    0.02    0.47 
  -5  -6  -4   -0.29    0.40 
   5   6   4    0.11    0.54 
   6  -6   4    1.40    0.57 
  -6  -6  -4    0.39    0.50 
   6   6   4    1.49    0.66 
  -7  -6  -4    1.36    0.58 
   7  -6   4    1.37    0.59 
   7   6   4    1.37    0.67 
  -5  -7   4    1.14    0.61 
   5  -7  -4   -0.34    0.54 
  -5   7   4    0.50    0.60 
   5   7  -4    0.96    0.73 
   4  -7  -4    0.03    0.53 
  -4  -7   4   -0.22    0.54 
   4   7  -4   -0.07    0.66 
  -4   7   4    0.56    0.61 
   3  -7  -4    4.24    0.77 
  -3  -7   4    3.75    0.72 
  -3   7   4    3.99    0.82 
   3   7  -4    3.35    0.79 
   2  -7  -4    0.98    0.62 
  -2  -7   4    0.95    0.54 
   2   7  -4    1.40    0.65 
  -2   7   4    1.06    0.62 
   1  -7  -4    1.26    0.59 
  -1  -7   4    1.24    0.53 
  -1   7   4    0.85    0.57 
   0  -7   4    0.75    0.55 
   0  -7  -4    1.62    0.62 
   0   7  -4    1.38    0.64 
   0   7   4    1.22    0.55 
   1  -7   4    0.65    0.52 
  -1  -7  -4    0.27    0.54 
  -1   7  -4   -0.45    0.49 
   1   7   4   -0.07    0.44 
   2  -7   4    1.26    0.58 
  -2   7  -4    2.48    0.64 
   2   7   4    1.74    0.60 
   3  -7   4    1.42    0.64 
  -3  -7  -4    0.94    0.54 
   4  -7   4   -0.53    0.53 
  -4  -7  -4    0.83    0.45 
  -5  -7  -4    5.22    0.79 
   5  -7   4    3.77    0.75 
   2  -8  -4    1.70    0.71 
  -2   8   4    1.18    0.67 
   1  -8  -4    0.76    0.62 
  -1   8   4    1.29    0.65 
   1   8  -4    0.48    0.73 
   0  -8  -4    2.64    0.75 
   0  -8   4    3.20    0.74 
   0   8   4    2.62    0.71 
   0   8  -4    2.45    0.76 
   1  -8   4    0.35    0.62 
   1   8   4    1.11    0.58 
   2  -8   4    0.05    0.61 
   2   8   4    1.30    0.61 
  10   0  -5    0.00    0.71 
 -10   0   5    0.67    0.51 
   9   0  -5    0.63    0.64 
  -9   0   5    0.05    0.43 
  -8   0   5    5.17    0.58 
   8   0  -5    5.92    0.74 
   7   0  -5   18.72    1.03 
  -7   0   5   17.39    0.87 
   6   0  -5    0.89    0.23 
   6   0  -5    0.50    0.43 
  -6   0   5    0.84    0.34 
   5   0  -5   14.35    0.53 
  -5   0   5   14.44    0.62 
   5   0  -5   14.35    0.76 
   4   0  -5   21.46    0.61 
   4   0  -5   21.72    0.77 
  -4   0   5   22.48    0.70 
   3   0  -5   31.16    0.72 
  -3   0   5   29.01    0.76 
   3   0  -5   31.71    0.83 
   2   0  -5  270.37    3.89 
  -2   0   5  267.18    3.90 
  -2   0   5  265.86    3.97 
  -1   0   5   34.41    0.72 
  -1   0   5   34.56    0.82 
   1   0  -5   33.75    0.78 
   0   0   5  129.32    1.89 
   0   0   5  130.73    2.21 
   0   0  -5  129.36    2.11 
   1   0   5  337.35    4.98 
   1   0   5  337.97    4.64 
  -1   0  -5  335.96    4.93 
  -2   0  -5   25.73    0.68 
  -2   0  -5   26.32    0.51 
   2   0   5   25.67    0.78 
   3   0   5   34.32    0.98 
  -3   0  -5   33.59    0.81 
  -3   0  -5   33.33    0.70 
  -4   0  -5  114.46    1.97 
   4   0   5  115.56    2.28 
  -4   0  -5  117.07    1.91 
  -5   0  -5    1.94    0.31 
   5   0   5    1.43    0.40 
  -5   0  -5    1.82    0.26 
   6   0   5   48.10    1.50 
  -6   0  -5   46.46    1.11 
  -6   0  -5   47.25    1.16 
  -7   0  -5   34.63    0.99 
   7   0   5   34.29    1.36 
  -7   0  -5   32.98    1.03 
   8   0   5    6.36    0.80 
  -8   0  -5    4.84    0.54 
   9   0   5    1.46    0.64 
  -9   0  -5    1.64    0.46 
  10   0   5   -0.14    0.68 
 -10  -1   5   -0.33    0.46 
  10   1  -5    1.41    0.83 
 -10   1   5    0.68    0.55 
   9  -1  -5    6.50    0.82 
  -9  -1   5    7.68    0.78 
  -9   1   5    6.25    0.78 
   9   1  -5    7.29    0.93 
  -8  -1   5    9.02    0.74 
   8  -1  -5   10.23    0.89 
  -8   1   5    8.73    0.74 
   8   1  -5    9.86    1.02 
   7  -1  -5    3.61    0.42 
  -7  -1   5    4.54    0.55 
   7  -1  -5    4.35    0.59 
  -7   1   5    3.75    0.51 
   7   1  -5    5.09    0.74 
  -6  -1   5   13.29    0.67 
   6  -1  -5   11.21    0.69 
   6  -1  -5   11.69    0.58 
   6   1  -5   11.48    0.83 
  -6   1   5    9.09    0.61 
  -5  -1   5   10.01    0.54 
   5  -1  -5    9.90    0.58 
   5  -1  -5   10.08    0.51 
  -5   1   5    9.55    0.57 
   5   1  -5    8.68    0.67 
   5   1  -5    9.69    0.35 
  -4  -1   5   57.73    1.29 
   4  -1  -5   60.26    1.26 
   4  -1  -5   57.95    1.27 
   4   1  -5   55.00    1.36 
  -4   1   5   55.67    1.28 
   4   1  -5   53.80    1.00 
  -3  -1   5  171.54    2.72 
   3  -1  -5  169.66    2.64 
   3  -1  -5  170.17    2.74 
  -3   1   5  161.43    2.70 
   3   1  -5  159.12    2.42 
   2  -1  -5   21.16    0.62 
  -2  -1   5   21.19    0.57 
  -2  -1   5   22.83    0.71 
  -2   1   5   24.94    0.59 
  -2   1   5   24.37    0.67 
   2   1  -5   23.78    0.63 
  -1  -1   5  134.98    2.29 
  -1  -1   5  133.65    2.03 
   1  -1  -5  135.71    2.18 
   1   1  -5  141.64    2.23 
  -1   1   5  138.96    2.18 
  -1   1   5  141.61    2.27 
   0  -1   5   52.73    1.24 
   0  -1   5   54.83    0.85 
   0  -1  -5   56.08    1.08 
   0   1  -5   55.40    1.04 
   0   1   5   54.17    1.03 
   0   1   5   54.00    1.09 
  -1  -1  -5   69.84    1.20 
   1  -1   5   69.92    1.55 
  -1  -1  -5   69.24    1.32 
  -1   1  -5   77.24    1.37 
   1   1   5   75.44    1.41 
   2  -1   5  259.39    4.07 
  -2  -1  -5  254.21    3.96 
  -2  -1  -5  257.92    3.73 
  -2   1  -5  246.85    3.41 
   2   1   5  246.49    3.81 
  -2   1  -5  244.96    3.67 
  -3  -1  -5  186.29    2.94 
   3  -1   5  184.36    3.13 
  -3  -1  -5  184.29    2.83 
  -3   1  -5  196.23    2.84 
  -3   1  -5  198.49    3.07 
   3   1   5  200.35    3.31 
   4  -1   5   17.28    0.75 
  -4  -1  -5   15.81    0.62 
  -4  -1  -5   15.89    0.57 
  -4   1  -5   15.60    0.46 
  -4   1  -5   15.03    0.59 
   4   1   5   15.35    0.73 
   5  -1   5   48.57    1.41 
  -5  -1  -5   50.85    1.18 
  -5  -1  -5   51.77    1.22 
  -5   1  -5   55.62    1.23 
   5   1   5   54.37    1.57 
  -5   1  -5   55.02    1.14 
  -6  -1  -5   14.15    0.66 
   6  -1   5   16.01    0.93 
  -6  -1  -5   15.08    0.70 
  -6   1  -5   14.25    0.65 
  -6   1  -5   13.16    0.56 
   6   1   5   12.41    0.86 
   7  -1   5    9.00    0.82 
  -7  -1  -5    9.04    0.61 
  -7   1  -5    9.09    0.59 
   7   1   5    8.32    0.83 
  -7   1  -5    8.57    0.53 
  -8  -1  -5   15.18    0.83 
   8  -1   5   17.17    1.10 
   8   1   5   14.26    1.06 
  -8   1  -5   13.38    0.73 
   9  -1   5    1.37    0.69 
  -9  -1  -5    1.19    0.46 
   9   1   5    1.44    0.72 
 -10  -1  -5    2.67    0.60 
  10  -1   5    3.09    0.83 
  10   1   5    3.16    0.82 
 -10  -2   5    3.06    0.65 
 -10   2   5    2.79    0.64 
  10   2  -5    3.73    0.95 
  -9  -2   5    0.48    0.46 
  -9   2   5    1.07    0.49 
   9   2  -5    0.95    0.76 
  -8  -2   5   13.52    0.83 
   8   2  -5   14.77    1.21 
  -8   2   5   13.59    0.85 
   7  -2  -5   11.09    0.71 
  -7  -2   5   12.11    0.78 
  -7   2   5   11.04    0.74 
   7   2  -5   11.22    0.97 
   6  -2  -5    1.12    0.33 
   6  -2  -5    0.77    0.34 
  -6  -2   5    1.02    0.34 
   6   2  -5    1.22    0.54 
  -6   2   5    0.70    0.36 
  -5  -2   5   53.83    1.37 
   5  -2  -5   53.91    1.34 
   5  -2  -5   52.92    1.22 
  -5   2   5   57.15    1.49 
   5   2  -5   56.21    1.63 
   4  -2  -5   19.46    0.72 
   4  -2  -5   17.68    0.58 
  -4  -2   5   19.04    0.71 
  -4   2   5   16.61    0.72 
   4   2  -5   18.10    0.83 
   4   2  -5   19.72    0.46 
  -3  -2   5   37.29    0.92 
   3  -2  -5   35.30    0.72 
   3  -2  -5   36.38    0.98 
  -3   2   5   39.25    1.03 
   3   2  -5   38.48    0.82 
   2  -2  -5   88.46    1.32 
  -2  -2   5   87.65    1.76 
   2  -2  -5   86.83    1.68 
  -2  -2   5   87.18    1.57 
   2   2  -5   86.08    1.46 
  -2   2   5   85.72    1.72 
   1  -2  -5   26.53    0.76 
  -1  -2   5   26.84    0.64 
  -1  -2   5   28.05    0.84 
  -1   2   5   19.91    0.67 
  -1   2   5   19.22    0.43 
   1   2  -5   18.88    0.54 
   0  -2   5   38.64    1.03 
   0  -2  -5   39.21    0.92 
   0  -2   5   38.72    0.75 
   0   2  -5   34.27    0.79 
   0   2   5   34.40    0.84 
   0   2   5   34.29    0.73 
  -1  -2  -5  213.98    3.29 
   1  -2   5  215.56    3.65 
  -1  -2  -5  214.13    3.31 
  -1   2  -5  217.53    3.27 
   1   2   5  211.94    3.25 
  -1   2  -5  211.84    3.06 
   2  -2   5   13.12    0.73 
  -2  -2  -5   13.73    0.52 
  -2  -2  -5   13.51    0.50 
   2   2   5   19.23    0.68 
  -2   2  -5   19.72    0.64 
  -2   2  -5   20.45    0.44 
  -3  -2  -5   40.88    0.97 
   3  -2   5   37.86    1.15 
  -3  -2  -5   39.77    0.93 
  -3   2  -5   46.70    0.85 
   3   2   5   49.37    1.28 
  -3   2  -5   49.37    1.12 
  -4  -2  -5   75.84    1.45 
  -4  -2  -5   76.02    1.58 
   4  -2   5   73.94    1.77 
  -4   2  -5   81.18    1.62 
   4   2   5   79.05    1.86 
  -4   2  -5   81.01    1.38 
  -5  -2  -5   16.38    0.62 
   5  -2   5   15.84    0.83 
  -5  -2  -5   16.67    0.70 
   5   2   5   19.49    0.94 
  -5   2  -5   17.27    0.55 
  -5   2  -5   14.95    0.72 
  -6  -2  -5   24.36    0.93 
   6  -2   5   28.04    1.14 
   6   2   5   21.35    1.13 
  -6   2  -5   21.09    0.70 
  -6   2  -5   20.61    0.86 
  -7  -2  -5   23.32    0.96 
   7  -2   5   24.13    1.19 
  -7   2  -5   22.75    0.93 
   7   2   5   22.64    1.23 
  -7   2  -5   24.03    0.83 
  -8  -2  -5    0.47    0.41 
   8  -2   5    0.54    0.54 
  -8   2  -5    0.45    0.47 
   8   2   5    0.45    0.57 
  -9  -2  -5    2.55    0.56 
   9  -2   5    2.63    0.81 
   9   2   5    3.38    0.83 
  -9  -3   5    9.58    0.88 
  -9   3   5   10.45    0.87 
   9   3  -5   12.94    1.26 
   8  -3  -5    0.67    0.50 
  -8  -3   5    0.94    0.49 
   8   3  -5    2.19    0.77 
  -8   3   5    1.87    0.53 
  -7  -3   5    9.29    0.77 
   7  -3  -5    8.67    0.73 
  -7   3   5   10.63    0.77 
   7   3  -5   14.11    1.17 
  -6  -3   5   13.89    0.81 
   6  -3  -5   13.88    0.80 
  -6   3   5   14.45    0.86 
   6   3  -5   13.80    0.96 
   5  -3  -5    0.96    0.37 
  -5  -3   5    1.28    0.38 
   5   3  -5    0.70    0.47 
  -5   3   5    0.20    0.32 
   4  -3  -5   18.39    0.81 
  -4  -3   5   17.28    0.76 
  -4   3   5   16.82    0.76 
   4   3  -5   19.87    0.94 
   3  -3  -5   43.27    1.18 
  -3  -3   5   41.52    1.08 
   3   3  -5   36.51    0.79 
  -3   3   5   36.11    1.12 
   3   3  -5   38.03    1.13 
   2  -3  -5    0.10    0.24 
  -2  -3   5    0.14    0.19 
  -2  -3   5    0.10    0.26 
   2   3  -5    0.05    0.19 
  -2   3   5    0.25    0.30 
   1  -3  -5   98.17    1.89 
  -1  -3   5   93.49    1.93 
  -1  -3   5   93.48    1.70 
   1   3  -5  108.65    1.87 
  -1   3   5  109.45    2.10 
   0  -3   5    6.91    0.48 
   0  -3   5    6.59    0.36 
   0  -3  -5    6.50    0.45 
   0   3   5    8.07    0.33 
   0   3  -5    8.30    0.42 
   0   3   5    8.58    0.51 
  -1  -3  -5   30.47    0.88 
   1  -3   5   31.08    1.01 
  -1  -3  -5   30.89    0.88 
   1  -3   5   29.79    0.88 
   1   3   5   29.92    0.79 
  -1   3  -5   31.32    0.78 
  -2  -3  -5   45.27    1.14 
   2  -3   5   47.67    1.41 
   2  -3   5   46.95    1.21 
  -2  -3  -5   46.28    1.09 
   2   3   5   42.37    1.09 
  -2   3  -5   43.39    0.94 
   3  -3   5   20.68    0.95 
  -3  -3  -5   21.86    0.70 
   3  -3   5   20.51    0.81 
  -3  -3  -5   21.80    0.77 
   3   3   5   25.65    0.91 
  -3   3  -5   24.50    0.65 
  -4  -3  -5    9.62    0.55 
   4  -3   5   11.90    0.80 
   4  -3   5   10.25    0.64 
  -4  -3  -5   10.92    0.52 
   4   3   5   14.80    0.80 
  -4   3  -5   11.60    0.45 
   5  -3   5   40.39    1.37 
  -5  -3  -5   39.93    1.19 
  -5   3  -5   39.92    0.92 
   5   3   5   36.04    1.33 
   6  -3   5   15.55    0.95 
  -6  -3  -5   15.65    0.83 
  -6   3  -5   16.85    0.63 
  -6   3  -5   17.54    0.81 
   6   3   5   16.86    1.00 
  -7  -3  -5    3.71    0.56 
   7  -3   5    4.17    0.65 
   7   3   5    3.14    0.67 
  -7   3  -5    3.03    0.55 
  -8  -3  -5    2.84    0.56 
   8  -3   5    4.07    0.78 
   8   3   5    2.98    0.76 
  -8   3  -5    4.12    0.66 
  -9  -3  -5    0.37    0.45 
   9  -3   5    0.97    0.67 
  -9   3  -5    0.13    0.48 
   9   3   5    0.76    0.70 
  -9  -4   5    1.07    0.54 
  -9   4   5    1.24    0.54 
   9   4  -5    2.27    0.85 
   8  -4  -5    1.32    0.54 
  -8  -4   5    1.31    0.54 
  -8   4   5    2.70    0.60 
   8   4  -5    2.83    0.88 
   7  -4  -5    4.31    0.66 
  -7  -4   5    4.23    0.66 
   7   4  -5    3.31    0.83 
  -7   4   5    2.15    0.58 
   6  -4  -5    1.37    0.51 
  -6  -4   5    1.42    0.43 
  -6   4   5    1.97    0.53 
   6   4  -5    2.17    0.65 
   5  -4  -5   24.57    1.08 
  -5  -4   5   25.94    1.06 
   5   4  -5   28.23    1.30 
  -5   4   5   29.07    1.12 
   4  -4  -5   11.90    0.76 
  -4  -4   5   11.99    0.72 
  -4   4   5    7.48    0.64 
   4   4  -5    7.54    0.73 
   3  -4  -5   12.14    0.73 
  -3  -4   5   13.90    0.68 
  -3   4   5   13.19    0.81 
   3   4  -5   13.56    0.52 
   3   4  -5   13.02    0.81 
   2  -4  -5   11.57    0.70 
  -2  -4   5   12.51    0.65 
  -2  -4   5   10.59    0.73 
  -2   4   5   10.69    0.73 
   2   4  -5   10.95    0.50 
  -1  -4   5    1.09    0.34 
  -1  -4   5    1.24    0.31 
   1  -4  -5    0.85    0.36 
  -1   4   5    3.56    0.49 
   1   4  -5    2.68    0.34 
   0  -4  -5   15.58    0.71 
   0  -4   5   14.98    0.67 
   0  -4   5   16.09    0.75 
   0  -4   5   15.17    0.65 
   0   4   5   18.63    0.50 
   0   4   5   15.43    0.74 
  -1  -4  -5   27.51    0.90 
   1  -4   5   27.56    0.93 
   1  -4   5   25.89    0.96 
   1   4   5   32.97    0.87 
  -1   4  -5   31.95    0.93 
  -2  -4  -5   15.52    0.69 
  -2  -4  -5   16.90    0.77 
   2  -4   5   16.53    0.79 
   2  -4   5   14.56    0.79 
  -2   4  -5   13.47    0.60 
   2   4   5   12.36    0.62 
  -3  -4  -5   27.56    0.89 
   3  -4   5   27.94    1.23 
  -3  -4  -5   27.62    0.99 
   3  -4   5   27.09    1.04 
  -3   4  -5   21.48    0.74 
   3   4   5   20.13    0.89 
  -4  -4  -5   18.31    0.72 
   4  -4   5   16.83    0.95 
  -4  -4  -5   16.52    0.81 
   4  -4   5   17.03    0.85 
  -4   4  -5   19.79    0.67 
   4   4   5   20.72    1.01 
  -5  -4  -5    3.42    0.50 
   5  -4   5    3.01    0.52 
   5  -4   5    2.49    0.61 
   5   4   5    4.14    0.65 
  -5   4  -5    4.09    0.37 
   6  -4   5    6.10    0.85 
   6  -4   5    5.52    0.66 
  -6  -4  -5    6.64    0.64 
   6   4   5    4.81    0.75 
  -7  -4  -5    2.72    0.57 
   7  -4   5    2.14    0.73 
  -7   4  -5    1.88    0.56 
   7   4   5    2.05    0.62 
  -8  -4  -5   -0.20    0.43 
   8   4   5    0.17    0.55 
  -8   4  -5    0.45    0.59 
  -8  -5   5    0.69    0.53 
   8  -5  -5   -0.10    0.54 
  -8   5   5    0.61    0.53 
   8   5  -5    0.61    0.72 
  -7  -5   5    3.49    0.65 
   7  -5  -5    2.93    0.69 
  -7   5   5    2.30    0.67 
   7   5  -5    3.56    0.85 
   6  -5  -5    2.74    0.62 
  -6  -5   5    3.00    0.61 
  -6   5   5    3.74    0.63 
   6   5  -5    3.07    0.80 
   5  -5  -5   -0.12    0.44 
  -5  -5   5    0.34    0.44 
  -5   5   5    0.36    0.39 
   5   5  -5    0.12    0.56 
   4  -5  -5    4.30    0.64 
  -4  -5   5    5.25    0.61 
   4   5  -5    4.63    0.72 
  -4   5   5    6.59    0.73 
   3  -5  -5   17.49    0.93 
  -3  -5   5   18.88    0.89 
   3   5  -5   12.52    0.85 
  -3   5   5   11.29    0.87 
  -2  -5   5    7.98    0.62 
   2  -5  -5    6.52    0.67 
   2   5  -5    8.88    0.52 
  -2   5   5    8.25    0.70 
  -1  -5   5   10.10    0.65 
  -1  -5   5    8.95    0.73 
  -1  -5   5    9.28    0.60 
   1  -5  -5   10.91    0.74 
  -1   5   5   10.55    0.77 
   0  -5   5    3.13    0.49 
   0  -5   5    4.37    0.56 
   0  -5   5    3.04    0.50 
   0  -5  -5    4.20    0.55 
   0   5   5    6.21    0.66 
  -1  -5  -5    5.16    0.61 
   1  -5   5    5.67    0.58 
   1  -5   5    6.44    0.61 
   1   5   5    5.30    0.57 
  -1   5  -5    6.21    0.53 
   2  -5   5    7.76    0.67 
   2  -5   5    6.75    0.63 
  -2  -5  -5    8.46    0.64 
  -2  -5  -5    7.12    0.63 
  -2   5  -5    8.49    0.56 
   2   5   5    8.05    0.58 
  -3  -5  -5   14.40    0.79 
   3  -5   5   15.62    0.88 
   3  -5   5   16.08    0.88 
  -3  -5  -5   14.76    0.73 
   3   5   5   16.12    0.85 
  -3   5  -5   15.26    0.75 
   4  -5   5   11.06    0.93 
   4  -5   5    9.84    0.79 
  -4  -5  -5   10.56    0.77 
   4   5   5   10.54    0.82 
  -5  -5  -5    8.16    0.73 
   5  -5   5    7.48    0.78 
   5   5   5    9.90    0.90 
  -6  -5  -5    1.83    0.54 
   6  -5   5    2.12    0.59 
   6   5   5    1.54    0.65 
  -7  -5  -5    0.95    0.49 
   7   5   5    1.42    0.61 
  -8  -5  -5    2.98    0.67 
  -8   5  -5    4.44    0.75 
   8   5   5    3.58    0.83 
  -6  -6   5    3.03    0.73 
   6  -6  -5    2.04    0.63 
  -6   6   5    3.40    0.73 
   6   6  -5    3.08    0.89 
   5  -6  -5    1.38    0.60 
  -5  -6   5    1.72    0.57 
   5   6  -5   -0.25    0.61 
  -5   6   5    0.87    0.55 
   4  -6  -5    0.77    0.52 
  -4  -6   5    1.52    0.53 
  -4   6   5    0.28    0.47 
   4   6  -5    0.71    0.60 
   3  -6  -5    1.55    0.58 
  -3  -6   5    2.05    0.53 
  -3   6   5    1.01    0.57 
   3   6  -5    1.08    0.58 
  -2  -6   5    6.03    0.69 
   2  -6  -5    6.07    0.72 
  -2   6   5    6.43    0.80 
   2   6  -5    6.42    0.73 
  -1  -6   5   12.85    0.79 
   1  -6  -5   11.43    0.87 
  -1  -6   5   11.82    0.85 
  -1   6   5   10.22    0.85 
   0  -6   5   15.60    0.93 
   0  -6  -5   15.43    0.90 
   0  -6   5   16.11    0.91 
   0   6   5   16.41    0.97 
   0   6  -5   17.76    1.02 
   1  -6   5    6.29    0.68 
  -1  -6  -5    4.08    0.60 
   1  -6   5    5.56    0.69 
  -1   6  -5    6.92    0.69 
   1   6   5    6.51    0.74 
   2  -6   5    2.10    0.53 
  -2  -6  -5    2.99    0.56 
   2  -6   5    1.88    0.54 
  -2   6  -5    2.83    0.53 
  -3  -6  -5    5.31    0.69 
   3  -6   5    6.59    0.75 
  -4  -6  -5    3.57    0.62 
   4  -6   5    2.88    0.66 
   5  -6   5    1.51    0.58 
  -5  -6  -5    2.06    0.55 
   5   6   5    4.09    0.73 
  -6  -6  -5    3.53    0.69 
   6  -6   5    3.72    0.74 
   6   6   5    4.14    0.80 
   5  -7  -5    0.65    0.55 
  -5  -7   5    0.64    0.61 
   5   7  -5    1.79    0.83 
  -5   7   5    0.79    0.62 
   4  -7  -5    3.91    0.78 
  -4  -7   5    4.04    0.75 
  -4   7   5    2.29    0.70 
   4   7  -5    3.27    0.84 
  -3  -7   5    0.24    0.58 
   3  -7  -5    0.84    0.62 
  -3   7   5    1.02    0.61 
   3   7  -5    1.79    0.70 
   2  -7  -5    2.91    0.69 
  -2  -7   5    2.89    0.69 
   2   7  -5    2.62    0.70 
  -2   7   5    2.94    0.72 
  -1  -7   5    7.17    0.75 
   1  -7  -5    6.78    0.81 
  -1   7   5    7.44    0.88 
   1   7  -5    7.18    0.88 
   0  -7   5    3.09    0.63 
   0  -7  -5    2.73    0.67 
   0   7  -5    4.56    0.74 
   0   7   5    3.53    0.73 
  -1  -7  -5    2.28    0.67 
   1  -7   5    1.48    0.63 
  -1   7  -5    0.75    0.55 
   1   7   5    1.76    0.56 
  -2  -7  -5   -0.32    0.51 
   2  -7   5   -0.06    0.53 
   2   7   5    1.42    0.59 
   3  -7   5    2.36    0.70 
  -4  -7  -5    0.98    0.52 
   4  -7   5    1.18    0.65 
  -5  -7  -5    2.51    0.66 
   5  -7   5    3.86    0.77 
   1  -8  -5    1.38    0.66 
   1   8  -5    0.58    0.70 
  -1   8   5    1.97    0.70 
   0  -8   5   -0.55    0.57 
   0  -8  -5    0.23    0.64 
   0   8   5    1.05    0.65 
  -1  -8  -5    0.85    0.61 
   1  -8   5    1.04    0.66 
   1   8   5    1.11    0.62 
  10   0  -6    2.25    0.89 
 -10   0   6    2.15    0.59 
  -9   0   6    5.87    0.74 
   9   0  -6    6.76    0.90 
   8   0  -6   10.11    0.95 
  -8   0   6    9.83    0.80 
  -7   0   6   40.81    1.33 
   7   0  -6   39.47    1.45 
  -6   0   6    5.09    0.54 
   6   0  -6    5.00    0.38 
   6   0  -6    4.20    0.60 
   5   0  -6    8.94    0.44 
   5   0  -6    7.31    0.60 
  -5   0   6    6.53    0.50 
  -4   0   6   49.34    1.17 
   4   0  -6   46.71    1.19 
   4   0  -6   48.41    1.05 
  -3   0   6   30.11    0.84 
  -3   0   6   29.93    0.81 
   3   0  -6   31.23    0.78 
  -2   0   6  140.04    2.39 
  -2   0   6  147.22    2.35 
   2   0  -6  142.45    2.31 
  -1   0   6   17.00    0.46 
   1   0  -6   17.94    0.61 
  -1   0   6   16.62    0.59 
   0   0   6   29.17    0.56 
   0   0  -6   29.43    0.77 
   0   0   6   29.91    0.85 
   1   0   6   23.71    0.47 
  -1   0  -6   24.67    0.79 
   1   0   6   24.31    0.78 
  -2   0  -6    0.68    0.25 
  -2   0  -6    0.69    0.11 
   2   0   6    0.60    0.23 
  -3   0  -6   42.14    1.01 
   3   0   6   43.37    1.17 
  -3   0  -6   43.48    0.82 
   4   0   6   28.82    1.01 
  -4   0  -6   29.68    0.72 
  -4   0  -6   30.36    0.87 
  -5   0  -6    8.42    0.54 
   5   0   6    8.18    0.68 
  -5   0  -6    9.65    0.44 
  -6   0  -6    2.65    0.35 
   6   0   6    3.38    0.58 
  -6   0  -6    3.97    0.46 
  -7   0  -6    3.23    0.47 
   7   0   6    3.97    0.68 
  -7   0  -6    3.21    0.42 
   8   0   6    1.14    0.62 
  -8   0  -6    1.19    0.38 
   9   0   6    0.49    0.63 
  10   0   6    1.41    0.76 
 -10  -1   6    0.91    0.53 
 -10   1   6    1.16    0.54 
  10   1  -6    0.72    0.81 
  -9  -1   6    5.98    0.75 
  -9   1   6    6.82    0.78 
   9   1  -6    7.52    0.98 
  -8  -1   6   12.62    0.86 
   8   1  -6   16.63    1.21 
  -8   1   6   14.52    0.90 
   7  -1  -6    3.98    0.42 
  -7  -1   6    4.11    0.56 
   7  -1  -6    4.06    0.58 
   7   1  -6    4.05    0.73 
  -7   1   6    3.69    0.52 
   6  -1  -6   23.06    0.94 
  -6  -1   6   23.95    0.95 
   6  -1  -6   24.65    0.83 
  -6   1   6   21.12    0.92 
   6   1  -6   22.22    1.08 
   5  -1  -6   59.43    1.36 
  -5  -1   6   59.86    1.44 
   5  -1  -6   58.66    1.40 
   5   1  -6   64.37    1.21 
   5   1  -6   64.23    1.66 
  -5   1   6   65.85    1.58 
   4  -1  -6    3.57    0.35 
   4  -1  -6    3.38    0.38 
  -4  -1   6    3.35    0.36 
   4   1  -6    7.31    0.36 
   4   1  -6    5.86    0.52 
  -4   1   6    7.62    0.52 
  -3  -1   6   35.95    0.91 
   3  -1  -6   36.27    0.93 
  -3  -1   6   36.92    1.03 
   3  -1  -6   35.98    0.84 
   3   1  -6   39.13    0.85 
  -3   1   6   37.16    0.96 
  -2  -1   6   33.85    0.94 
  -2  -1   6   33.77    0.79 
   2  -1  -6   33.54    0.85 
   2   1  -6   37.31    0.87 
  -2   1   6   36.00    0.82 
  -2   1   6   36.78    0.86 
  -1  -1   6   68.07    1.43 
  -1  -1   6   65.82    1.14 
   1  -1  -6   68.41    1.32 
  -1   1   6   73.63    1.37 
   1   1  -6   74.08    1.48 
  -1   1   6   74.31    1.37 
   0  -1   6   57.99    0.91 
   0  -1  -6   57.59    1.19 
   0  -1   6   56.60    1.39 
   0   1  -6   58.37    1.15 
   0   1   6   57.84    1.11 
   0   1   6   56.60    1.25 
   1  -1   6    4.91    0.43 
  -1  -1  -6    3.87    0.38 
   1   1   6    4.40    0.28 
   1   1   6    4.47    0.36 
  -1   1  -6    4.88    0.35 
  -2  -1  -6  140.56    2.19 
  -2  -1  -6  140.39    2.41 
   2  -1   6  140.48    2.58 
  -2   1  -6  140.30    2.34 
   2   1   6  141.81    2.47 
  -3  -1  -6   21.86    0.72 
  -3  -1  -6   22.61    0.63 
   3  -1   6   21.91    0.84 
  -3   1  -6   14.28    0.59 
   3   1   6   15.96    0.68 
  -3   1  -6   15.29    0.36 
  -4  -1  -6    2.99    0.38 
   4  -1   6    1.99    0.40 
  -4  -1  -6    2.49    0.28 
  -4   1  -6    2.17    0.33 
  -4   1  -6    1.93    0.20 
   4   1   6    2.14    0.39 
  -5  -1  -6   11.74    0.55 
   5  -1   6   11.28    0.76 
  -5  -1  -6   11.09    0.64 
   5   1   6   17.22    0.90 
  -5   1  -6   15.67    0.69 
  -5   1  -6   16.68    0.55 
  -6  -1  -6   10.58    0.64 
  -6  -1  -6    9.96    0.56 
   6  -1   6    9.78    0.77 
  -6   1  -6    8.85    0.47 
   6   1   6    8.31    0.74 
  -6   1  -6    8.56    0.62 
   7  -1   6    1.95    0.56 
  -7  -1  -6    1.87    0.38 
  -7   1  -6    2.21    0.35 
  -7   1  -6    2.96    0.48 
   7   1   6    2.00    0.59 
  -8  -1  -6   13.48    0.78 
   8  -1   6   12.65    1.00 
  -8   1  -6   12.00    0.75 
   8   1   6   11.58    0.97 
   9  -1   6    1.31    0.70 
  -9  -1  -6    1.38    0.48 
   9   1   6    1.25    0.68 
  10  -1   6    0.98    0.74 
  10   1   6    0.70    0.69 
  -9  -2   6    3.72    0.66 
  -9   2   6    2.84    0.61 
   9   2  -6    4.10    0.98 
  -8  -2   6    6.49    0.71 
  -8   2   6    2.96    0.57 
   8   2  -6    4.55    0.90 
  -7  -2   6   15.59    0.87 
   7  -2  -6   15.24    0.80 
   7   2  -6   19.76    1.24 
  -7   2   6   19.01    0.96 
   6  -2  -6   10.52    0.66 
   6  -2  -6   11.08    0.65 
  -6  -2   6    9.74    0.68 
  -6   2   6   11.41    0.74 
   6   2  -6   10.55    0.88 
   5  -2  -6   19.51    0.71 
  -5  -2   6   20.51    0.81 
   5  -2  -6   20.48    0.81 
   5   2  -6   26.16    1.12 
  -5   2   6   28.44    1.01 
   4  -2  -6   30.90    0.95 
  -4  -2   6   30.80    0.94 
   4  -2  -6   31.86    0.78 
  -4   2   6   32.35    0.99 
   4   2  -6   32.14    1.10 
   4   2  -6   32.66    0.72 
   3  -2  -6    7.97    0.50 
  -3  -2   6    7.54    0.54 
   3  -2  -6    7.95    0.34 
  -3  -2   6    7.90    0.45 
   3   2  -6    7.55    0.41 
  -3   2   6    7.56    0.49 
   2  -2  -6   47.40    1.15 
  -2  -2   6   49.40    1.25 
  -2  -2   6   48.66    1.04 
  -2   2   6   49.13    0.87 
  -2   2   6   46.90    1.16 
   2   2  -6   52.32    1.05 
   1  -2  -6   88.67    1.72 
  -1  -2   6   88.96    1.52 
  -1  -2   6   90.59    1.86 
   1   2  -6  106.37    1.81 
  -1   2   6  106.85    1.74 
  -1   2   6  106.58    1.98 
   0  -2   6   41.19    0.78 
   0  -2   6   39.37    1.14 
   0  -2  -6   40.61    0.99 
   0   2   6   52.76    1.13 
   0   2   6   49.23    1.03 
   0   2  -6   50.59    1.07 
   1  -2   6  126.59    2.47 
  -1  -2  -6  126.29    2.19 
   1   2   6  133.51    2.24 
   1   2   6  131.10    2.23 
  -1   2  -6  134.69    2.24 
  -1   2  -6  131.64    1.94 
  -2  -2  -6   20.59    0.67 
  -2  -2  -6   20.68    0.63 
   2  -2   6   21.11    0.90 
   2   2   6   15.59    0.61 
  -2   2  -6   15.78    0.59 
  -2   2  -6   14.37    0.31 
  -3  -2  -6   36.36    0.93 
   3  -2   6   37.11    1.22 
  -3  -2  -6   36.22    0.93 
  -3   2  -6   35.64    0.96 
  -3   2  -6   35.74    0.65 
   3   2   6   35.33    1.05 
  -4  -2  -6   40.02    1.08 
   4  -2   6   44.46    1.34 
  -4  -2  -6   46.08    1.11 
  -4   2  -6   42.89    0.84 
  -4   2  -6   42.08    1.11 
   4   2   6   43.74    1.31 
  -5  -2  -6    4.59    0.46 
  -5  -2  -6    5.05    0.47 
   5  -2   6    5.35    0.64 
   5   2   6    2.92    0.55 
  -5   2  -6    3.97    0.48 
  -5   2  -6    4.73    0.33 
   6  -2   6   11.41    0.85 
  -6  -2  -6   11.81    0.65 
  -6   2  -6   17.44    0.80 
  -6   2  -6   15.49    0.59 
   6   2   6   12.78    0.94 
  -7  -2  -6   11.33    0.73 
   7  -2   6    9.67    0.83 
   7   2   6    9.63    0.91 
  -7   2  -6   11.92    0.76 
   8  -2   6   -0.25    0.53 
  -8  -2  -6   -0.08    0.40 
  -8   2  -6   -0.20    0.37 
   8   2   6   -0.18    0.56 
  -9  -2  -6    4.35    0.68 
   9  -2   6    5.14    0.85 
   9   2   6    2.91    0.78 
  -9  -3   6    3.29    0.68 
   9   3  -6    3.39    0.93 
  -9   3   6    2.76    0.66 
  -8  -3   6    9.64    0.85 
   8  -3  -6    9.20    0.77 
   8   3  -6   10.39    1.14 
  -8   3   6   10.85    0.87 
   7  -3  -6    7.51    0.71 
  -7  -3   6    6.47    0.69 
   7   3  -6    5.71    0.88 
  -7   3   6    6.08    0.73 
   6  -3  -6    7.29    0.66 
  -6  -3   6    7.21    0.66 
  -6   3   6    9.47    0.74 
   6   3  -6    9.88    0.92 
   5  -3  -6   17.01    0.87 
  -5  -3   6   16.87    0.82 
   5   3  -6   18.11    1.06 
  -5   3   6   19.28    0.85 
   4  -3  -6    1.64    0.41 
  -4  -3   6    1.45    0.37 
   4   3  -6    4.37    0.59 
  -4   3   6    4.61    0.50 
  -3  -3   6   79.98    1.93 
  -3  -3   6   87.94    1.76 
   3  -3  -6   89.66    1.87 
  -3   3   6   83.41    1.92 
   3   3  -6   92.42    1.57 
   2  -3  -6    4.61    0.44 
  -2  -3   6    4.62    0.38 
  -2  -3   6    4.87    0.50 
   2   3  -6    6.70    0.41 
  -2   3   6    7.69    0.59 
  -1  -3   6   15.53    0.55 
  -1  -3   6   15.18    0.72 
   1  -3  -6   14.58    0.66 
  -1   3   6   19.22    0.76 
   1   3  -6   18.28    0.62 
   0  -3  -6   18.11    0.71 
   0  -3   6   17.84    0.56 
   0  -3   6   17.24    0.77 
   0   3   6   14.95    0.46 
   0   3  -6   15.31    0.58 
   0   3   6   14.75    0.64 
  -1  -3  -6   21.60    0.75 
   1  -3   6   19.61    0.88 
  -1   3  -6   20.77    0.58 
   1   3   6   20.16    0.65 
  -1   3  -6   20.33    0.73 
   1   3   6   19.22    0.74 
   2  -3   6   59.71    1.63 
  -2  -3  -6   61.66    1.36 
  -2  -3  -6   62.28    1.40 
   2   3   6   68.25    1.48 
  -2   3  -6   66.21    1.44 
  -2   3  -6   68.21    1.26 
  -3  -3  -6   18.47    0.70 
   3  -3   6   21.87    1.00 
  -3  -3  -6   19.73    0.74 
  -3   3  -6   23.43    0.58 
   3   3   6   23.41    0.89 
  -4  -3  -6   29.07    0.85 
   4  -3   6   27.40    1.23 
  -4  -3  -6   26.22    0.92 
  -4   3  -6   31.41    0.70 
   4   3   6   26.71    1.09 
  -4   3  -6   29.11    0.98 
   5  -3   6   21.23    1.10 
  -5  -3  -6   20.40    0.85 
  -5  -3  -6   20.05    0.73 
   5   3   6   23.97    1.12 
  -5   3  -6   23.84    0.93 
   6  -3   6    5.12    0.71 
  -6  -3  -6    4.40    0.54 
  -6   3  -6    4.22    0.57 
   6   3   6    4.29    0.71 
   7  -3   6    1.01    0.56 
  -7  -3  -6    0.08    0.39 
   7   3   6    0.65    0.52 
  -7   3  -6    1.65    0.54 
   8  -3   6    4.91    0.83 
  -8  -3  -6    5.75    0.71 
   8   3   6    4.41    0.85 
  -8   3  -6    5.91    0.71 
  -9  -3  -6    0.28    0.49 
   9  -3   6    0.72    0.71 
   9   3   6    0.24    0.61 
  -9   3  -6   -0.09    0.55 
   8  -4  -6    1.18    0.60 
  -8  -4   6    0.18    0.48 
  -8   4   6    0.82    0.55 
   8   4  -6    0.87    0.82 
   7  -4  -6    8.83    0.82 
  -7  -4   6    9.07    0.80 
   7   4  -6   10.77    1.13 
  -7   4   6   11.15    0.90 
   6  -4  -6    6.21    0.74 
  -6  -4   6    5.40    0.67 
   6   4  -6    4.29    0.77 
  -6   4   6    6.21    0.70 
  -5  -4   6    2.62    0.51 
   5  -4  -6    3.15    0.55 
  -5   4   6    1.36    0.45 
   5   4  -6    1.31    0.55 
  -4  -4   6   18.32    0.84 
   4  -4  -6   16.83    0.89 
  -4   4   6   23.12    1.01 
   4   4  -6   24.57    1.12 
  -3  -4   6   14.42    0.70 
   3  -4  -6   13.08    0.76 
   3   4  -6   12.80    0.82 
   3   4  -6   13.25    0.52 
  -3   4   6   11.98    0.77 
  -2  -4   6   32.81    0.99 
  -2  -4   6   33.94    1.19 
   2   4  -6   31.83    0.86 
  -2   4   6   32.02    1.15 
  -1  -4   6   38.06    1.03 
   1  -4  -6   37.02    1.15 
  -1  -4   6   36.25    1.21 
   1   4  -6   31.98    0.92 
  -1   4   6   33.03    1.13 
   0  -4   6    9.79    0.56 
   0  -4  -6    7.20    0.60 
   0  -4   6    9.27    0.63 
   0   4   6    9.05    0.64 
   0   4  -6    8.74    0.53 
  -1  -4  -6   22.15    0.88 
   1  -4   6   25.28    0.99 
   1   4   6   29.81    0.83 
  -1   4  -6   30.04    0.86 
   1   4   6   29.08    1.03 
  -2  -4  -6    1.03    0.34 
   2  -4   6    0.63    0.39 
  -2  -4  -6    0.60    0.32 
   2  -4   6    0.79    0.37 
   2   4   6    1.56    0.34 
  -2   4  -6    2.32    0.33 
   3  -4   6    3.18    0.51 
   3  -4   6    2.95    0.61 
  -3  -4  -6    4.22    0.49 
  -3  -4  -6    2.78    0.41 
  -3   4  -6    3.48    0.37 
   3   4   6    3.05    0.46 
  -4  -4  -6    9.66    0.67 
  -4  -4  -6   10.23    0.61 
   4  -4   6    9.67    0.85 
   4   4   6   13.84    0.83 
  -5  -4  -6    6.38    0.60 
   5  -4   6    6.02    0.77 
   5   4   6    5.98    0.72 
  -6  -4  -6    6.16    0.62 
   6  -4   6    7.23    0.95 
   6   4   6    6.99    0.83 
  -6   4  -6    6.59    0.69 
   7  -4   6    3.89    0.86 
  -7  -4  -6    4.13    0.65 
  -7   4  -6    3.56    0.69 
   7   4   6    3.67    0.78 
  -8  -4  -6    1.92    0.59 
  -8   4  -6    2.46    0.67 
   8   4   6    1.12    0.69 
   8  -5  -6    3.41    0.73 
  -8  -5   6    1.08    0.56 
  -8   5   6    3.09    0.75 
   8   5  -6    2.33    0.88 
   7  -5  -6    2.88    0.66 
  -7  -5   6    2.72    0.65 
  -7   5   6    1.05    0.59 
   7   5  -6    1.76    0.82 
   6  -5  -6    7.68    0.82 
  -6  -5   6    6.70    0.76 
   6   5  -6    5.86    0.89 
  -6   5   6    7.27    0.74 
   5  -5  -6    9.70    0.86 
  -5  -5   6    9.31    0.79 
   5   5  -6    9.77    1.01 
  -5   5   6    9.50    0.79 
   4  -5  -6    9.47    0.78 
  -4  -5   6    9.58    0.72 
  -4   5   6    7.26    0.75 
   4   5  -6    7.06    0.81 
  -3  -5   6    7.62    0.64 
   3  -5  -6    5.33    0.65 
  -3   5   6    6.66    0.69 
   3   5  -6    5.84    0.72 
  -2  -5   6    8.41    0.78 
   2  -5  -6    7.75    0.71 
  -2  -5   6    6.44    0.60 
   2   5  -6    6.99    0.49 
  -2   5   6    5.98    0.72 
   1  -5  -6    5.34    0.64 
  -1  -5   6    5.55    0.59 
  -1  -5   6    6.40    0.67 
  -1   5   6    5.53    0.67 
   1   5  -6    5.84    0.52 
   0  -5   6   20.93    0.89 
   0  -5   6   20.82    0.96 
   0  -5  -6   19.66    0.92 
   0   5   6   21.66    1.01 
  -1  -5  -6   10.94    0.72 
   1  -5   6   10.93    0.73 
   1  -5   6   10.12    0.73 
   1   5   6   11.35    0.79 
  -1   5  -6   11.08    0.62 
  -2  -5  -6    8.14    0.67 
   2  -5   6    8.67    0.77 
  -2  -5  -6    8.50    0.68 
   2  -5   6    7.83    0.71 
  -2   5  -6    7.85    0.56 
   3  -5   6    1.17    0.48 
   3  -5   6    0.23    0.50 
  -3  -5  -6    1.12    0.43 
  -3  -5  -6    1.42    0.45 
   3   5   6    0.12    0.35 
   4  -5   6    0.49    0.59 
   4  -5   6    0.90    0.49 
  -4  -5  -6    0.63    0.40 
   4   5   6    0.57    0.47 
  -5  -5  -6    0.92    0.45 
   5  -5   6    1.04    0.68 
   5  -5   6    1.60    0.53 
   5   5   6    2.60    0.62 
  -6  -5  -6   -0.08    0.43 
   6   5   6    0.03    0.53 
  -7  -5  -6    0.35    0.50 
  -7   5  -6   -0.11    0.57 
   7   5   6   -0.38    0.57 
  -6  -6   6    2.73    0.69 
   6  -6  -6    2.56    0.72 
   6   6  -6    2.06    0.77 
  -6   6   6    2.88    0.65 
  -5  -6   6    7.92    0.82 
   5  -6  -6    7.95    0.85 
   5   6  -6    9.26    1.02 
  -5   6   6    8.66    0.86 
  -4  -6   6    5.49    0.74 
   4  -6  -6    4.55    0.72 
   4   6  -6    3.84    0.79 
  -4   6   6    3.04    0.67 
  -3  -6   6    3.97    0.68 
   3  -6  -6    3.61    0.67 
  -3   6   6    1.93    0.63 
   3   6  -6    4.09    0.75 
  -2  -6   6    2.14    0.58 
   2  -6  -6    2.27    0.59 
   2   6  -6    0.41    0.55 
  -2   6   6    0.73    0.54 
  -1  -6   6    3.01    0.63 
  -1  -6   6    1.87    0.58 
   1  -6  -6    2.08    0.56 
   1   6  -6    1.57    0.44 
  -1   6   6    1.04    0.52 
   0  -6  -6   10.58    0.86 
   0  -6   6   10.67    0.81 
   0   6   6   11.57    0.88 
   0   6  -6   10.88    0.77 
   1  -6   6    4.39    0.63 
  -1  -6  -6    3.34    0.63 
   1  -6   6    4.06    0.64 
  -1   6  -6    2.87    0.52 
   1   6   6    2.54    0.57 
  -2  -6  -6    5.91    0.69 
   2  -6   6    3.35    0.64 
   2   6   6    2.73    0.60 
   3  -6   6    3.78    0.68 
  -3  -6  -6    1.94    0.55 
  -4  -6  -6    0.95    0.51 
   4  -6   6    0.57    0.53 
   5  -6   6    0.88    0.57 
  -5  -6  -6    1.57    0.54 
  -6  -6  -6    2.76    0.65 
   6   6   6    2.68    0.71 
  -4  -7   6    0.88    0.61 
   4  -7  -6   -0.45    0.59 
  -4   7   6    0.96    0.61 
   4   7  -6    0.68    0.73 
   3  -7  -6    2.47    0.69 
  -3  -7   6    2.83    0.73 
   3   7  -6    2.34    0.75 
  -3   7   6    1.86    0.67 
   2  -7  -6    1.99    0.72 
  -2  -7   6    1.39    0.73 
   2   7  -6    1.35    0.67 
  -2   7   6    1.16    0.64 
   1  -7  -6    1.92    0.67 
  -1   7   6    0.85    0.59 
   1   7  -6    0.76    0.63 
   0  -7  -6    2.08    0.63 
   0   7   6    1.02    0.57 
  -1  -7  -6    0.45    0.55 
   1  -7   6   -0.26    0.54 
   1   7   6    0.15    0.54 
  -2  -7  -6    0.25    0.56 
   2  -7   6    0.71    0.58 
   2   7   6    0.75    0.57 
   3  -7   6    2.36    0.70 
   3   7   6    1.14    0.62 
   4  -7   6    4.90    0.80 
  -4  -7  -6    3.86    0.75 
 -10   0   7    9.06    0.88 
  10   0  -7   11.78    1.18 
   9   0  -7    4.54    0.84 
  -9   0   7    3.20    0.68 
  -8   0   7    7.83    0.79 
   8   0  -7    9.31    0.95 
   7   0  -7   27.98    1.26 
  -7   0   7   26.14    1.12 
   6   0  -7    0.80    0.27 
   6   0  -7    0.58    0.51 
  -6   0   7    0.61    0.34 
   5   0  -7   80.61    1.60 
   5   0  -7   79.46    1.83 
  -5   0   7   81.51    1.81 
  -4   0   7   91.07    1.88 
   4   0  -7   89.90    1.71 
   4   0  -7   91.80    1.85 
  -3   0   7   27.30    0.84 
   3   0  -7   27.27    0.77 
  -3   0   7   27.76    0.84 
   2   0  -7  108.66    1.92 
  -2   0   7  105.12    1.84 
  -2   0   7  111.25    1.99 
  -1   0   7  115.83    1.83 
   1   0  -7  118.52    2.12 
  -1   0   7  116.34    2.14 
   0   0   7   17.48    0.66 
   0   0  -7   18.07    0.63 
   0   0   7   17.17    0.41 
   1   0   7   26.25    0.54 
   1   0   7   28.32    0.93 
  -1   0  -7   28.51    0.86 
  -2   0  -7  109.74    1.66 
   2   0   7  113.67    2.18 
  -2   0  -7  112.40    2.13 
   3   0   7   24.49    0.90 
  -3   0  -7   25.22    0.82 
  -3   0  -7   24.14    0.55 
  -4   0  -7   88.61    1.53 
  -4   0  -7   86.49    1.74 
   4   0   7   89.87    2.01 
   5   0   7    4.83    0.61 
  -5   0  -7    4.45    0.34 
  -5   0  -7    4.88    0.50 
  -6   0  -7    2.24    0.32 
   6   0   7    2.06    0.54 
  -6   0  -7    2.56    0.44 
  -7   0  -7   17.10    0.71 
   7   0   7   16.73    1.11 
  -7   0  -7   15.81    0.80 
   8   0   7    6.96    0.88 
   9   0   7    4.69    0.89 
 -10  -1   7    1.05    0.59 
 -10   1   7   -0.30    0.49 
  10   1  -7    1.00    0.82 
  -9  -1   7    7.13    0.80 
  -9   1   7    8.16    0.85 
   9   1  -7    8.41    1.08 
  -8  -1   7   14.43    0.93 
   8  -1  -7   13.98    1.04 
  -8   1   7    9.75    0.84 
   8   1  -7   13.40    1.15 
  -7  -1   7    4.60    0.61 
   7  -1  -7    4.88    0.66 
  -7   1   7    5.08    0.65 
   7   1  -7    5.51    0.77 
  -6  -1   7   48.80    1.40 
   6  -1  -7   49.79    1.39 
   6  -1  -7   47.12    1.27 
   6   1  -7   47.67    1.54 
  -6   1   7   47.57    1.49 
  -5  -1   7   51.39    1.35 
   5  -1  -7   51.71    1.31 
   5  -1  -7   49.49    1.24 
   5   1  -7   55.70    1.16 
  -5   1   7   57.27    1.49 
   5   1  -7   56.25    1.56 
  -4  -1   7   21.31    0.78 
   4  -1  -7   22.16    0.77 
   4  -1  -7   23.07    0.77 
   4   1  -7   25.14    0.69 
   4   1  -7   23.81    0.91 
  -4   1   7   23.92    0.82 
  -3  -1   7   95.97    1.79 
  -3  -1   7   94.49    1.95 
   3  -1  -7   96.15    1.83 
   3   1  -7   95.43    1.74 
  -3   1   7   95.71    1.79 
   2  -1  -7   29.41    0.84 
  -2  -1   7   29.32    0.75 
  -2  -1   7   30.13    0.91 
  -2   1   7   35.03    0.86 
  -2   1   7   32.79    0.83 
   2   1  -7   34.96    0.89 
  -1  -1   7   17.73    0.48 
  -1  -1   7   17.76    0.69 
   1  -1  -7   17.57    0.62 
  -1   1   7   12.80    0.47 
   1   1  -7   12.62    0.56 
  -1   1   7   11.27    0.52 
   0  -1   7   70.72    1.61 
   0  -1   7   70.65    1.10 
   0  -1  -7   68.73    1.45 
   0   1   7   70.91    1.31 
   0   1  -7   68.18    1.39 
   0   1   7   70.22    1.48 
   1  -1   7  187.90    3.27 
  -1  -1  -7  184.59    3.18 
  -1   1  -7  200.67    3.18 
   1   1   7  205.50    3.30 
   1   1   7  199.97    3.02 
   2  -1   7   79.32    1.86 
  -2  -1  -7   81.61    1.63 
  -2  -1  -7   79.91    1.40 
   2   1   7   85.29    1.76 
  -2   1  -7   85.71    1.65 
   3  -1   7   21.86    0.89 
  -3  -1  -7   22.26    0.62 
  -3  -1  -7   20.86    0.76 
  -3   1  -7   23.04    0.76 
  -3   1  -7   23.04    0.44 
   3   1   7   24.83    0.88 
  -4  -1  -7    6.99    0.39 
   4  -1   7    7.92    0.63 
  -4  -1  -7    7.68    0.56 
  -4   1  -7    8.21    0.32 
   4   1   7    8.74    0.65 
  -4   1  -7    8.40    0.57 
  -5  -1  -7   31.96    1.00 
   5  -1   7   31.01    1.19 
  -5  -1  -7   30.52    0.86 
  -5   1  -7   30.84    0.74 
   5   1   7   29.68    1.18 
  -5   1  -7   28.73    0.98 
  -6  -1  -7   23.51    0.83 
  -6  -1  -7   23.06    0.88 
   6  -1   7   23.77    1.16 
   6   1   7   22.28    1.11 
  -6   1  -7   22.97    0.89 
   7  -1   7    0.02    0.51 
  -7  -1  -7    0.06    0.31 
   7   1   7   -0.39    0.43 
  -7   1  -7    0.40    0.43 
   8  -1   7    6.24    0.87 
  -8  -1  -7    5.81    0.60 
   8   1   7    7.12    0.89 
  -8   1  -7    7.08    0.69 
   9  -1   7    4.17    0.89 
   9   1   7    4.41    0.85 
  -9  -2   7    6.62    0.80 
  -9   2   7    3.02    0.65 
   9   2  -7    6.12    1.06 
  -8  -2   7    6.13    0.75 
   8   2  -7    9.26    1.06 
  -8   2   7    9.52    0.87 
   7  -2  -7   30.86    1.13 
  -7  -2   7   31.00    1.23 
  -7   2   7   32.65    1.33 
   7   2  -7   30.49    1.52 
   6  -2  -7    4.77    0.56 
  -6  -2   7    5.24    0.59 
  -6   2   7    8.33    0.66 
   6   2  -7    7.90    0.84 
   5  -2  -7   15.22    0.65 
  -5  -2   7   16.16    0.78 
   5  -2  -7   14.76    0.74 
   5   2  -7   18.51    0.98 
  -5   2   7   16.38    0.77 
   4  -2  -7   60.66    1.47 
  -4  -2   7   61.77    1.44 
   4  -2  -7   61.40    1.23 
   4   2  -7   60.90    1.59 
   4   2  -7   58.69    1.17 
  -4   2   7   60.02    1.41 
   3  -2  -7    5.72    0.34 
   3  -2  -7    6.13    0.47 
  -3  -2   7    5.23    0.42 
  -3  -2   7    5.76    0.52 
   3   2  -7    5.32    0.41 
  -3   2   7    4.95    0.44 
   2  -2  -7   56.05    1.31 
  -2  -2   7   55.74    1.16 
  -2  -2   7   53.95    1.40 
  -2   2   7   50.36    1.24 
  -2   2   7   50.93    0.96 
   2   2  -7   51.48    1.19 
  -1  -2   7   53.37    1.37 
   1  -2  -7   54.35    1.25 
  -1  -2   7   53.18    1.04 
  -1   2   7   50.25    1.08 
   1   2  -7   51.94    1.12 
  -1   2   7   50.34    1.22 
   0  -2  -7    9.62    0.52 
   0  -2   7    9.23    0.32 
   0  -2   7   10.04    0.64 
   0   2   7    8.29    0.46 
   0   2  -7    9.07    0.46 
   0   2   7    8.66    0.44 
   1  -2   7   64.63    1.59 
  -1  -2  -7   63.22    1.38 
   1   2   7   64.02    1.34 
  -1   2  -7   64.23    1.35 
   1   2   7   62.62    1.30 
  -2  -2  -7   16.75    0.68 
   2  -2   7   16.81    0.84 
  -2  -2  -7   16.68    0.58 
   2   2   7   21.25    0.76 
  -2   2  -7   21.19    0.73 
   3  -2   7    7.06    0.66 
  -3  -2  -7    7.57    0.43 
  -3  -2  -7    6.07    0.50 
  -3   2  -7    5.12    0.47 
   3   2   7    5.15    0.47 
  -3   2  -7    4.94    0.18 
   4  -2   7   24.31    1.06 
  -4  -2  -7   26.17    0.81 
  -4  -2  -7   22.04    0.84 
   4   2   7   22.00    0.92 
  -4   2  -7   22.74    0.85 
  -4   2  -7   23.34    0.53 
   5  -2   7    6.53    0.68 
  -5  -2  -7    7.59    0.52 
  -5  -2  -7    7.26    0.60 
   5   2   7    9.20    0.74 
  -5   2  -7   11.83    0.72 
   6  -2   7   11.17    0.90 
  -6  -2  -7   12.53    0.71 
   6   2   7   13.68    0.93 
  -6   2  -7   14.43    0.79 
   7  -2   7    7.32    0.82 
  -7  -2  -7    4.82    0.56 
  -7   2  -7    7.69    0.65 
   7   2   7    8.04    0.87 
  -8  -2  -7    0.91    0.45 
   8  -2   7    1.26    0.67 
  -8   2  -7   -0.03    0.48 
   8   2   7    0.54    0.56 
   9  -2   7    0.50    0.63 
   9   2   7    1.28    0.68 
  -9  -3   7    4.62    0.74 
   9   3  -7    4.98    1.02 
  -9   3   7    6.19    0.86 
  -8  -3   7    5.60    0.73 
   8  -3  -7    6.11    0.73 
   8   3  -7    5.70    0.97 
  -8   3   7    5.57    0.80 
  -7  -3   7    0.54    0.46 
   7  -3  -7    0.70    0.44 
   7   3  -7    0.61    0.69 
  -7   3   7    0.37    0.39 
  -6  -3   7   36.12    1.27 
   6  -3  -7   36.55    1.28 
   6   3  -7   38.07    1.59 
  -6   3   7   36.42    1.26 
   5  -3  -7    9.96    0.70 
  -5  -3   7    8.47    0.66 
   5   3  -7    8.30    0.81 
  -5   3   7    9.46    0.67 
  -4  -3   7    1.80    0.41 
   4  -3  -7    2.17    0.45 
  -4   3   7    2.64    0.47 
   4   3  -7    2.35    0.55 
  -3  -3   7   31.34    0.97 
  -3  -3   7   33.57    1.18 
   3  -3  -7   32.31    1.07 
   3   3  -7   27.59    0.84 
  -3   3   7   27.59    0.99 
   2  -3  -7   42.99    1.18 
  -2  -3   7   40.17    1.25 
  -2  -3   7   39.43    1.02 
   2   3  -7   47.45    1.06 
  -2   3   7   47.12    1.35 
  -1  -3   7   14.95    0.76 
   1  -3  -7   15.92    0.71 
  -1  -3   7   14.36    0.55 
  -1   3   7   15.22    0.43 
  -1   3   7   14.44    0.71 
   1   3  -7   15.06    0.61 
   0  -3  -7   75.56    1.64 
   0  -3   7   74.35    1.40 
   0  -3   7   72.74    1.77 
   0   3   7   67.55    1.54 
   0   3  -7   71.10    1.46 
   0   3   7   72.77    1.34 
   1  -3   7    8.94    0.74 
  -1  -3  -7   10.38    0.57 
  -1   3  -7    8.23    0.53 
   1   3   7    9.58    0.48 
   1   3   7    8.97    0.55 
  -1   3  -7    8.83    0.37 
  -2  -3  -7    5.75    0.44 
   2  -3   7    5.38    0.59 
  -2  -3  -7    4.54    0.46 
  -2   3  -7    4.89    0.47 
  -2   3  -7    4.93    0.28 
   2   3   7    5.45    0.45 
  -3  -3  -7   45.36    1.17 
  -3  -3  -7   43.81    1.18 
   3  -3   7   43.73    1.45 
   3   3   7   41.03    1.21 
  -3   3  -7   40.98    1.18 
   4  -3   7    4.12    0.72 
  -4  -3  -7    2.97    0.43 
  -4  -3  -7    3.46    0.42 
   4   3   7    4.08    0.55 
  -4   3  -7    4.14    0.53 
   5  -3   7    6.65    0.78 
  -5  -3  -7    5.15    0.50 
  -5  -3  -7    5.70    0.52 
   5   3   7    6.37    0.71 
  -5   3  -7    5.49    0.63 
   6  -3   7    1.59    0.57 
  -6  -3  -7    1.74    0.42 
  -6   3  -7    1.95    0.49 
   6   3   7    2.27    0.60 
   7  -3   7    1.78    0.68 
  -7  -3  -7    1.61    0.49 
   7   3   7    2.77    0.68 
  -7   3  -7    2.72    0.58 
  -8  -3  -7   11.79    0.83 
   8  -3   7   12.24    1.11 
  -8   3  -7   12.08    0.93 
   8   3   7   12.70    1.10 
  -9  -3  -7    2.10    0.57 
   9  -3   7    2.30    0.83 
  -9   3  -7    2.61    0.60 
   9   3   7    0.91    0.69 
   8  -4  -7    2.00    0.64 
  -8  -4   7    1.61    0.59 
   8   4  -7    1.95    0.87 
  -8   4   7    2.13    0.65 
  -7  -4   7   11.75    0.91 
   7  -4  -7   14.28    1.00 
   7   4  -7   15.26    1.26 
  -7   4   7   14.88    0.95 
   6  -4  -7    2.09    0.55 
  -6  -4   7    2.50    0.52 
  -6   4   7    0.96    0.47 
   6   4  -7    1.19    0.65 
  -5  -4   7   13.40    0.84 
   5  -4  -7   12.99    0.87 
  -5   4   7   14.65    0.85 
   5   4  -7   12.69    0.96 
  -4  -4   7   14.66    0.78 
   4  -4  -7   13.15    0.82 
  -4   4   7   14.85    0.86 
   4   4  -7   13.80    0.92 
   3  -4  -7    5.70    0.59 
  -3  -4   7    4.94    0.51 
  -3  -4   7    6.59    0.70 
   3   4  -7    5.69    0.45 
  -3   4   7    6.23    0.68 
  -2  -4   7    9.60    0.59 
   2  -4  -7   10.11    0.71 
  -2  -4   7   11.82    0.81 
  -2   4   7   12.72    0.83 
   2   4  -7   12.31    0.60 
  -1  -4   7   30.50    1.16 
  -1  -4   7   27.86    0.91 
   1  -4  -7   28.23    1.04 
  -1   4   7   36.03    1.19 
   1   4  -7   34.66    0.98 
   0  -4  -7    0.80    0.39 
   0  -4   7    1.27    0.45 
   0  -4   7    1.47    0.33 
   0   4   7    1.16    0.41 
   0   4  -7    1.06    0.36 
   1  -4   7   14.09    0.84 
  -1  -4  -7   13.32    0.75 
  -1   4  -7   10.00    0.49 
  -1   4  -7   10.25    0.64 
   1   4   7    9.76    0.68 
   1   4   7    9.33    0.49 
  -2  -4  -7   40.65    1.24 
  -2  -4  -7   47.40    1.33 
   2  -4   7   47.98    1.61 
   2   4   7   41.10    1.13 
  -2   4  -7   40.37    0.98 
  -2   4  -7   42.69    1.21 
   3  -4   7    2.06    0.58 
  -3  -4  -7    0.95    0.38 
  -3  -4  -7    1.58    0.40 
  -3   4  -7    0.42    0.38 
   3   4   7    0.98    0.34 
   4  -4   7   36.54    1.40 
  -4  -4  -7   35.04    1.20 
  -4  -4  -7   34.48    1.08 
   4   4   7   37.82    1.36 
  -4   4  -7   36.43    1.20 
  -5  -4  -7    3.26    0.52 
   5  -4   7    3.42    0.67 
  -5   4  -7    2.69    0.57 
   5   4   7    2.62    0.58 
   6  -4   7    2.52    0.75 
  -6  -4  -7    1.11    0.43 
   6   4   7    1.73    0.60 
  -6   4  -7    1.61    0.55 
   7  -4   7    4.65    1.00 
  -7  -4  -7    3.22    0.57 
  -7   4  -7    3.86    0.68 
   7   4   7    3.59    0.80 
   8  -4   7    3.69    0.95 
  -8  -4  -7    3.35    0.65 
  -8   4  -7    3.66    0.73 
   8   4   7    6.53    0.92 
  -7  -5   7    1.75    0.61 
   7  -5  -7    2.07    0.64 
   7   5  -7    1.79    0.88 
  -7   5   7    2.04    0.60 
  -6  -5   7    2.92    0.64 
   6  -5  -7    3.33    0.69 
  -6   5   7    3.51    0.63 
   6   5  -7    5.62    0.91 
  -5  -5   7    6.16    0.71 
   5  -5  -7    5.39    0.73 
   5   5  -7    7.11    0.88 
  -5   5   7    6.86    0.73 
  -4  -5   7    5.11    0.64 
   4  -5  -7    5.23    0.70 
  -4   5   7    5.95    0.70 
   4   5  -7    6.85    0.83 
   3  -5  -7   11.27    0.83 
  -3  -5   7   12.54    0.79 
   3   5  -7   13.72    0.93 
  -3   5   7   13.07    0.90 
  -2  -5   7    4.22    0.63 
  -2  -5   7    3.70    0.57 
   2  -5  -7    3.49    0.60 
  -2   5   7    5.23    0.68 
   2   5  -7    5.03    0.50 
  -1  -5   7    9.38    0.79 
  -1  -5   7   10.78    0.74 
   1  -5  -7   10.10    0.77 
   1   5  -7    8.72    0.59 
  -1   5   7    9.90    0.80 
   0  -5  -7   14.12    0.83 
   0  -5   7   14.02    0.71 
   0  -5   7   13.27    0.85 
   0   5   7   13.74    0.86 
   0   5  -7   13.24    0.75 
   1  -5   7   10.49    0.83 
  -1  -5  -7    8.33    0.68 
  -1   5  -7    8.81    0.65 
  -1   5  -7    9.41    0.59 
   1   5   7    9.42    0.77 
   2  -5   7    5.96    0.70 
  -2  -5  -7    5.98    0.64 
  -2   5  -7    5.17    0.58 
   2   5   7    4.80    0.65 
   3  -5   7    8.64    0.89 
  -3  -5  -7    7.40    0.68 
  -3  -5  -7    6.35    0.66 
   3   5   7    7.90    0.70 
  -3   5  -7    7.50    0.66 
  -4  -5  -7    5.40    0.66 
   4  -5   7    5.02    0.87 
  -4   5  -7    3.26    0.57 
   4   5   7    5.06    0.66 
  -5  -5  -7    3.06    0.58 
   5  -5   7    3.53    0.82 
   5   5   7    5.49    0.74 
  -5   5  -7    4.66    0.68 
  -6  -5  -7    9.99    0.81 
  -6   5  -7   10.45    0.88 
   6   5   7   11.07    1.02 
  -7  -5  -7    0.23    0.46 
  -7   5  -7    0.43    0.59 
   7   5   7    0.19    0.64 
  -6  -6   7    0.49    0.56 
   6  -6  -7   -0.25    0.55 
   6   6  -7    0.98    0.72 
  -6   6   7    1.08    0.58 
   5  -6  -7    1.64    0.61 
  -5  -6   7    2.18    0.64 
  -5   6   7    2.12    0.62 
   5   6  -7    0.58    0.67 
   4  -6  -7    0.01    0.48 
  -4  -6   7    0.62    0.53 
  -4   6   7    0.88    0.58 
   4   6  -7    0.71    0.64 
  -3  -6   7    3.42    0.70 
   3  -6  -7    3.47    0.66 
  -3   6   7    1.65    0.61 
   3   6  -7    1.25    0.68 
  -2  -6   7    2.22    0.68 
   2  -6  -7    1.60    0.58 
  -2   6   7    1.40    0.59 
   1  -6  -7    7.67    0.79 
  -1  -6   7    9.13    0.89 
   1   6  -7    8.42    0.66 
  -1   6   7    9.64    0.87 
   0  -6   7    0.28    0.49 
   0  -6  -7    0.94    0.53 
   0   6  -7    1.33    0.51 
   0   6   7    0.80    0.55 
   1  -6   7    1.13    0.60 
  -1  -6  -7    0.68    0.54 
  -1   6  -7    1.11    0.45 
   1   6   7    1.85    0.57 
  -2  -6  -7    0.83    0.50 
   2  -6   7    0.12    0.52 
  -2   6  -7   -0.18    0.46 
   2   6   7    0.51    0.51 
   3  -6   7    0.28    0.59 
  -3   6  -7   -0.11    0.48 
  -4  -6  -7   -0.18    0.44 
  -4   6  -7    0.84    0.52 
  -5  -6  -7    4.27    0.72 
  -5   6  -7    5.26    0.73 
  -6  -6  -7    1.27    0.58 
  -6   6  -7    0.28    0.56 
   4  -7  -7    2.34    0.73 
  -4  -7   7    3.53    0.87 
  -4   7   7    3.27    0.76 
   4   7  -7    3.91    0.88 
   3  -7  -7    1.74    0.69 
  -3  -7   7    1.63    0.76 
   3   7  -7    2.63    0.78 
  -3   7   7    1.86    0.69 
  -2  -7   7    0.79    0.62 
   2  -7  -7    1.81    0.69 
  -2   7   7    1.76    0.65 
   2   7  -7    0.74    0.67 
   1  -7  -7    0.78    0.67 
   1   7  -7   -0.51    0.55 
  -1   7   7   -0.32    0.52 
   0  -7   7    1.57    0.67 
   0  -7  -7    0.31    0.55 
   0   7  -7    1.70    0.58 
   0   7   7    0.32    0.58 
  -1  -7  -7    0.38    0.58 
   1   7   7    0.56    0.59 
  -1   7  -7   -0.25    0.50 
  -2  -7  -7    1.66    0.63 
  -2   7  -7    0.91    0.53 
   2   7   7    0.28    0.59 
  -3   7  -7    3.30    0.67 
   3   7   7    4.45    0.82 
  -4   7  -7    1.04    0.59 
   9   0  -8    2.51    0.87 
  -9   0   8    1.53    0.60 
  -8   0   8   -0.46    0.50 
   8   0  -8   -0.90    0.58 
   7   0  -8    8.08    0.85 
  -7   0   8    9.60    0.77 
   6   0  -8    8.83    0.51 
   6   0  -8   10.03    0.79 
  -6   0   8    9.46    0.79 
   5   0  -8    2.90    0.50 
  -5   0   8    4.02    0.55 
   5   0  -8    3.48    0.40 
   4   0  -8  113.09    2.20 
   4   0  -8  114.31    2.09 
  -4   0   8  114.65    2.21 
  -3   0   8   15.99    0.60 
   3   0  -8   16.69    0.65 
  -3   0   8   15.55    0.67 
  -2   0   8  194.18    3.25 
   2   0  -8  198.50    3.21 
  -2   0   8  196.89    3.02 
  -1   0   8   67.61    1.19 
   1   0  -8   67.46    1.45 
  -1   0   8   68.63    1.57 
   0   0  -8    2.41    0.32 
   0   0   8    2.18    0.19 
   0   0   8    2.03    0.34 
  -1   0  -8   77.23    1.62 
   1   0   8   78.77    1.84 
   1   0   8   76.68    1.22 
   2   0   8  125.29    2.51 
   2   0   8  130.68    1.91 
  -2   0  -8  129.92    2.49 
  -3   0  -8    1.58    0.18 
   3   0   8    1.76    0.38 
  -3   0  -8    2.04    0.43 
  -4   0  -8   40.55    0.85 
  -4   0  -8   39.96    1.18 
   4   0   8   40.94    1.31 
  -5   0  -8   -0.04    0.18 
   5   0   8   -0.26    0.36 
  -5   0  -8    0.31    0.39 
  -6   0  -8   15.74    0.83 
   6   0   8   14.56    1.01 
  -7   0  -8   14.71    0.88 
   7   0   8   15.06    1.05 
   8   0   8   -0.47    0.57 
   9   0   8    5.63    0.93 
  -9  -1   8    1.03    0.56 
  -9   1   8    0.60    0.55 
   9   1  -8    0.58    0.73 
  -8  -1   8   13.36    0.95 
  -8   1   8   13.17    1.05 
   8   1  -8   12.93    1.17 
   7  -1  -8    3.04    0.60 
  -7  -1   8    4.07    0.63 
  -7   1   8    3.68    0.62 
   7   1  -8    2.94    0.71 
   6  -1  -8   15.29    0.73 
   6  -1  -8   14.83    0.83 
  -6  -1   8   14.61    0.80 
   6   1  -8   17.19    1.04 
  -6   1   8   16.25    0.89 
  -5  -1   8   17.29    0.83 
   5  -1  -8   17.82    0.75 
   5  -1  -8   16.60    0.79 
   5   1  -8   22.85    0.72 
  -5   1   8   22.57    0.90 
   5   1  -8   23.52    1.06 
   4  -1  -8    0.63    0.33 
  -4  -1   8    1.09    0.35 
   4  -1  -8    1.49    0.34 
   4   1  -8    1.84    0.30 
  -4   1   8    1.54    0.31 
   4   1  -8    1.38    0.39 
   3  -1  -8   95.67    1.88 
  -3  -1   8   96.13    1.99 
  -3  -1   8   94.79    1.89 
  -3   1   8  114.72    2.05 
  -3   1   8  116.60    2.06 
   3   1  -8  111.01    2.08 
  -2  -1   8  100.17    2.07 
  -2  -1   8  104.81    1.89 
   2  -1  -8  102.64    1.97 
  -2   1   8   98.18    1.81 
  -2   1   8   98.43    1.76 
   2   1  -8   97.31    1.82 
   1  -1  -8   40.47    1.05 
  -1  -1   8   40.56    0.87 
  -1  -1   8   39.74    1.17 
  -1   1   8   43.37    0.98 
   1   1  -8   43.30    1.11 
  -1   1   8   45.58    1.14 
   0  -1   8   98.42    2.04 
   0  -1  -8   91.06    1.90 
   0  -1   8   94.62    1.45 
   0   1   8   97.60    1.94 
   0   1  -8  100.71    1.98 
   0   1   8  103.68    1.80 
  -1  -1  -8   51.89    1.30 
   1  -1   8   51.48    1.40 
  -1   1  -8   51.83    1.22 
   1   1   8   51.97    1.05 
   1   1   8   53.47    1.30 
  -2  -1  -8   56.48    1.34 
   2  -1   8   56.86    1.60 
  -2   1  -8   68.08    1.47 
   2   1   8   68.65    1.59 
  -3  -1  -8   26.07    0.69 
  -3  -1  -8   26.12    0.91 
   3  -1   8   25.68    1.04 
  -3   1  -8   22.56    0.81 
   3   1   8   23.41    0.91 
  -4  -1  -8    1.51    0.26 
   4  -1   8    2.25    0.50 
  -4  -1  -8    2.24    0.43 
   4   1   8    1.92    0.43 
  -4   1  -8    2.17    0.41 
  -5  -1  -8   15.95    0.75 
  -5  -1  -8   15.75    0.61 
   5  -1   8   17.17    0.97 
  -5   1  -8   20.56    0.86 
   5   1   8   19.31    0.99 
   6  -1   8    6.93    0.77 
  -6  -1  -8    6.18    0.47 
  -6  -1  -8    7.11    0.65 
   6   1   8    6.75    0.79 
  -6   1  -8    7.07    0.65 
   7  -1   8    2.60    0.69 
   7   1   8    1.63    0.60 
  -7   1  -8    2.58    0.53 
   8  -1   8   10.52    1.01 
   8   1   8   10.96    1.03 
  -8   1  -8   11.26    0.86 
   9  -1   8    2.46    0.80 
   9   1   8    3.04    0.80 
  -9  -2   8    3.04    0.70 
   9   2  -8    4.95    1.01 
  -9   2   8    4.16    0.81 
  -8  -2   8    0.14    0.49 
   8   2  -8    0.72    0.69 
  -8   2   8    0.42    0.53 
   7  -2  -8   12.49    0.78 
  -7  -2   8   13.36    0.89 
  -7   2   8   13.60    0.88 
   7   2  -8   12.58    1.02 
  -6  -2   8    2.35    0.51 
   6  -2  -8    1.87    0.46 
  -6   2   8    2.22    0.46 
   6   2  -8    2.14    0.63 
  -5  -2   8    5.92    0.60 
   5  -2  -8    5.29    0.56 
   5   2  -8    8.22    0.79 
  -5   2   8    9.37    0.65 
   4  -2  -8   55.45    1.48 
   4  -2  -8   63.93    1.26 
  -4  -2   8   61.95    1.49 
  -4   2   8   65.31    1.52 
   4   2  -8   65.86    1.37 
   3  -2  -8   14.09    0.52 
  -3  -2   8   12.89    0.60 
  -3  -2   8   14.33    0.76 
   3  -2  -8   14.26    0.68 
   3   2  -8   16.92    0.65 
  -3   2   8   18.00    0.70 
  -2  -2   8   47.73    1.10 
  -2  -2   8   50.57    1.37 
   2  -2  -8   48.98    1.25 
   2   2  -8   57.09    1.36 
  -2   2   8   56.02    1.30 
  -2   2   8   56.59    1.12 
  -1  -2   8   54.03    1.08 
   1  -2  -8   52.92    1.30 
  -1  -2   8   54.39    1.45 
  -1   2   8   71.36    1.44 
  -1   2   8   72.27    1.58 
   1   2  -8   70.92    1.48 
   0  -2  -8    1.35    0.31 
   0  -2   8    1.87    0.45 
   0  -2   8    1.84    0.21 
   0   2  -8    1.81    0.32 
   0   2   8    1.38    0.30 
   0   2   8    1.59    0.30 
   1  -2   8   12.99    0.74 
  -1  -2  -8   11.22    0.63 
  -1   2  -8   15.24    0.63 
   1   2   8   14.83    0.62 
   1   2   8   14.74    0.58 
   2  -2   8   68.24    1.78 
  -2  -2  -8   66.12    1.38 
  -2  -2  -8   67.33    1.55 
  -2   2  -8   61.99    1.41 
   2   2   8   60.19    1.45 
   3  -2   8    3.01    0.61 
  -3  -2  -8    2.99    0.32 
  -3  -2  -8    2.67    0.46 
   3   2   8    3.58    0.46 
  -3   2  -8    3.42    0.45 
  -4  -2  -8   15.40    0.65 
   4  -2   8   17.17    1.00 
  -4  -2  -8   16.48    0.87 
  -4   2  -8   19.61    0.83 
   4   2   8   20.24    0.95 
   5  -2   8    6.21    0.71 
  -5  -2  -8    4.63    0.66 
  -5  -2  -8    5.14    0.43 
  -5   2  -8    4.05    0.52 
   5   2   8    2.60    0.54 
   6  -2   8    2.89    0.63 
  -6  -2  -8    0.88    0.57 
  -6  -2  -8    1.40    0.39 
  -6   2  -8    1.89    0.51 
   6   2   8    1.47    0.53 
  -7  -2  -8    4.60    0.55 
   7  -2   8    6.79    0.86 
  -7   2  -8    3.13    0.57 
   7   2   8    2.52    0.65 
   8  -2   8    0.32    0.62 
   8   2   8    0.10    0.58 
  -8   2  -8    0.96    0.51 
   9  -2   8    0.90    0.70 
   9   2   8    2.31    0.77 
  -9  -3   8    1.08    0.59 
  -9   3   8   -0.03    0.55 
   9   3  -8    1.38    0.84 
  -8  -3   8    0.91    0.55 
   8  -3  -8    0.08    0.49 
   8   3  -8   -0.05    0.80 
  -8   3   8    0.10    0.47 
   7  -3  -8    3.29    0.60 
  -7  -3   8    3.29    0.64 
   7   3  -8    2.74    0.81 
  -7   3   8    2.74    0.56 
  -6  -3   8    7.64    0.71 
   6  -3  -8    9.19    0.75 
  -6   3   8   10.86    0.77 
   6   3  -8   10.66    0.97 
   5  -3  -8   39.56    1.34 
  -5  -3   8   44.49    1.35 
  -5   3   8   43.80    1.32 
   5   3  -8   44.29    1.57 
  -4  -3   8   20.13    0.87 
   4  -3  -8   17.04    0.85 
  -4   3   8   22.45    0.91 
   4   3  -8   22.03    1.08 
  -3  -3   8   44.44    1.20 
   3  -3  -8   42.03    1.29 
  -3  -3   8   42.81    1.41 
  -3   3   8   43.52    1.26 
   3   3  -8   42.61    1.18 
   2  -3  -8    7.78    0.61 
  -2  -3   8    8.77    0.50 
  -2  -3   8    9.01    0.71 
   2   3  -8   12.61    0.59 
  -2   3   8   11.99    0.74 
   1  -3  -8   -0.19    0.32 
  -1  -3   8    0.66    0.25 
  -1  -3   8   -0.10    0.33 
  -1   3   8    0.94    0.20 
   1   3  -8    0.12    0.28 
  -1   3   8    1.03    0.36 
   0  -3   8   29.60    1.13 
   0  -3  -8   30.87    1.00 
   0  -3   8   30.48    0.76 
   0   3   8   35.08    0.93 
   0   3   8   34.83    1.06 
   0   3  -8   35.72    1.01 
   1  -3   8    3.51    0.58 
  -1  -3  -8    2.56    0.40 
  -1   3  -8    4.23    0.47 
  -1   3  -8    4.27    0.26 
   1   3   8    5.22    0.47 
   1   3   8    4.52    0.40 
   2  -3   8    9.14    0.78 
  -2  -3  -8    8.52    0.58 
  -2   3  -8    7.00    0.57 
   2   3   8    6.61    0.49 
  -3  -3  -8   13.32    0.65 
  -3  -3  -8   13.50    0.70 
   3  -3   8   13.24    0.94 
  -3   3  -8   11.80    0.73 
   3   3   8   12.33    0.70 
   4  -3   8    1.55    0.61 
  -4  -3  -8    1.34    0.39 
  -4  -3  -8    1.83    0.38 
  -4   3  -8    2.27    0.49 
   4   3   8    1.83    0.47 
   5  -3   8    4.74    0.77 
  -5  -3  -8    4.41    0.53 
  -5  -3  -8    4.29    0.51 
  -5   3  -8    4.93    0.60 
   5   3   8    6.51    0.72 
   6  -3   8   17.17    1.16 
  -6  -3  -8   17.21    0.85 
  -6   3  -8   13.40    0.83 
   6   3   8   12.22    0.94 
  -7  -3  -8    1.01    0.45 
   7  -3   8    2.02    0.72 
   7   3   8    1.70    0.60 
  -7   3  -8    1.86    0.52 
   8  -3   8    0.25    0.67 
  -8  -3  -8    0.79    0.47 
  -8   3  -8    0.08    0.51 
   8   3   8   -0.36    0.55 
   8  -4  -8    1.44    0.60 
  -8  -4   8    1.83    0.63 
   8   4  -8    1.85    0.88 
  -8   4   8    2.21    0.58 
   7  -4  -8    4.22    0.71 
  -7  -4   8    4.59    0.73 
  -7   4   8    2.68    0.60 
   7   4  -8    2.77    0.79 
   6  -4  -8    2.85    0.60 
  -6  -4   8    3.28    0.63 
  -6   4   8    4.21    0.63 
   6   4  -8    4.72    0.83 
   5  -4  -8    8.06    0.77 
  -5  -4   8    8.77    0.74 
  -5   4   8    9.57    0.76 
   5   4  -8    8.86    0.93 
  -4  -4   8   26.67    1.09 
   4  -4  -8   25.52    1.15 
   4   4  -8   27.86    1.23 
  -4   4   8   28.96    1.11 
  -3  -4   8   16.32    0.79 
   3  -4  -8   14.82    0.84 
  -3  -4   8   15.75    0.96 
   3   4  -8   12.08    0.61 
  -3   4   8   12.64    0.79 
  -2  -4   8   22.01    1.03 
   2  -4  -8   21.25    0.97 
  -2  -4   8   21.99    0.86 
   2   4  -8   22.28    0.79 
  -2   4   8   22.58    1.07 
  -1  -4   8   28.17    1.17 
  -1  -4   8   26.99    0.94 
   1  -4  -8   29.35    1.10 
   1   4  -8   30.41    0.94 
  -1   4   8   29.86    1.15 
   0  -4   8   12.37    0.85 
   0  -4  -8   12.07    0.74 
   0  -4   8   11.57    0.55 
   0   4  -8   12.52    0.67 
   0   4   8   13.72    0.79 
   1  -4   8   16.38    1.00 
  -1  -4  -8   18.91    0.91 
   1   4   8   17.59    0.67 
  -1   4  -8   17.88    0.80 
   1   4   8   19.60    0.89 
  -2  -4  -8    1.63    0.46 
   2  -4   8    1.40    0.60 
   2   4   8    1.90    0.47 
  -2   4  -8    1.16    0.41 
   2   4   8    0.93    0.34 
  -3  -4  -8    3.13    0.50 
   3  -4   8    3.08    0.65 
  -3  -4  -8    3.42    0.49 
   3   4   8    3.44    0.48 
  -3   4  -8    3.11    0.50 
  -4  -4  -8   12.48    0.79 
   4  -4   8   11.90    1.00 
  -4  -4  -8   12.51    0.74 
  -4   4  -8    8.27    0.70 
   4   4   8    8.52    0.74 
   5  -4   8    0.43    0.61 
  -5  -4  -8    1.35    0.46 
  -5   4  -8   -0.23    0.43 
   5   4   8    0.65    0.51 
  -6  -4  -8    3.36    0.58 
   6  -4   8    4.22    0.83 
  -6   4  -8    5.04    0.66 
   6   4   8    3.47    0.71 
   7  -4   8    4.14    0.94 
  -7  -4  -8    2.03    0.52 
   7   4   8    1.62    0.68 
  -7   4  -8    1.88    0.59 
  -8  -4  -8    0.91    0.52 
   8  -4   8    2.31    0.98 
  -8   4  -8    2.55    0.66 
   8   4   8    0.38    0.67 
  -7  -5   8   -0.41    0.54 
   7  -5  -8    0.44    0.56 
   7   5  -8    0.10    0.70 
  -7   5   8    1.08    0.53 
   6  -5  -8    6.02    0.82 
  -6  -5   8    6.53    0.81 
   6   5  -8    6.37    0.96 
  -6   5   8    7.32    0.76 
   5  -5  -8    0.84    0.55 
  -5  -5   8    2.74    0.61 
   5   5  -8    1.48    0.66 
  -5   5   8    1.64    0.53 
  -4  -5   8    0.25    0.45 
   4  -5  -8   -0.40    0.42 
   4   5  -8    0.18    0.60 
  -4   5   8    0.24    0.42 
   3  -5  -8   11.25    0.84 
  -3  -5   8   11.43    0.83 
  -3   5   8    9.88    0.89 
  -2  -5   8    7.43    0.83 
   2  -5  -8    8.12    0.74 
  -2  -5   8    7.69    0.74 
  -2   5   8    8.38    0.82 
   2   5  -8    8.42    0.59 
  -1  -5   8   10.08    0.82 
  -1  -5   8   10.10    0.67 
   1  -5  -8   11.06    0.80 
  -1   5   8   11.72    0.87 
   1   5  -8   12.36    0.70 
   0  -5   8   31.45    1.30 
   0  -5  -8   28.84    1.16 
   0   5   8   34.94    1.29 
   0   5  -8   35.90    1.13 
   1  -5   8    0.38    0.50 
  -1  -5  -8    0.01    0.41 
   1   5   8    0.70    0.43 
  -1   5  -8    0.92    0.43 
   2  -5   8    4.57    0.71 
  -2  -5  -8    4.71    0.61 
   2   5   8    5.27    0.66 
  -2   5  -8    4.84    0.60 
   3  -5   8    5.12    0.90 
  -3  -5  -8    6.00    0.66 
  -3  -5  -8    4.94    0.62 
  -3   5  -8    3.13    0.59 
   4  -5   8    1.43    0.67 
  -4  -5  -8    0.78    0.44 
  -4   5  -8    0.42    0.49 
   4   5   8    0.43    0.49 
  -5  -5  -8    1.87    0.56 
   5  -5   8    3.12    0.76 
   5   5   8    1.27    0.58 
  -5   5  -8    1.96    0.60 
  -6  -5  -8    0.83    0.50 
   6  -5   8    1.72    0.82 
  -6   5  -8    0.38    0.54 
   6   5   8    0.20    0.59 
  -7  -5  -8    4.47    0.72 
  -7   5  -8    3.65    0.73 
   7   5   8    4.22    0.87 
   6  -6  -8    6.18    0.91 
  -6  -6   8    6.24    0.95 
  -6   6   8    4.53    0.74 
   6   6  -8    4.67    0.94 
   5  -6  -8    0.95    0.61 
  -5  -6   8    1.01    0.68 
   5   6  -8   -0.25    0.69 
  -5   6   8    0.64    0.51 
   4  -6  -8    3.35    0.73 
  -4  -6   8    5.38    0.85 
   4   6  -8    2.95    0.80 
  -4   6   8    2.77    0.67 
  -3  -6   8    1.77    0.69 
   3  -6  -8    2.93    0.68 
   3   6  -8    3.39    0.77 
  -3   6   8    3.83    0.71 
   2  -6  -8   12.18    0.95 
  -2  -6   8   12.30    0.88 
  -2  -6   8   12.60    0.99 
  -2   6   8   11.52    0.92 
   1  -6  -8    7.67    0.81 
  -1  -6   8    9.27    0.91 
  -1   6   8   10.92    0.94 
   1   6  -8   10.10    0.76 
   0  -6  -8    1.40    0.57 
   0  -6   8    1.82    0.60 
   0   6   8    2.32    0.60 
   0   6  -8    0.90    0.48 
   1  -6   8    1.03    0.57 
  -1  -6  -8    1.36    0.60 
   1   6   8    0.33    0.49 
  -1   6  -8    1.24    0.51 
  -2  -6  -8    2.70    0.64 
   2  -6   8    3.18    0.69 
  -2   6  -8    2.59    0.60 
   2   6   8    1.52    0.54 
   3  -6   8   -0.49    0.62 
  -3  -6  -8   -0.04    0.50 
  -3   6  -8    0.14    0.53 
   3   6   8    0.49    0.53 
  -4  -6  -8    3.66    0.66 
  -4   6  -8    4.22    0.73 
  -5  -6  -8    2.34    0.61 
  -5   6  -8    0.69    0.59 
  -4  -7   8    1.09    0.70 
   4  -7  -8    0.56    0.59 
  -4   7   8   -0.17    0.57 
   4   7  -8    1.32    0.71 
   3  -7  -8    0.80    0.65 
   3   7  -8   -0.23    0.69 
  -3   7   8    0.76    0.63 
   2  -7  -8    1.81    0.69 
   2   7  -8    0.86    0.63 
  -2   7   8    1.34    0.68 
  -1  -7   8    1.30    0.66 
   1  -7  -8    2.35    0.68 
  -1   7   8    0.80    0.66 
   0  -7   8    3.44    0.81 
   0  -7  -8    1.12    0.63 
   0   7   8    2.36    0.74 
   0   7  -8    2.83    0.59 
  -1  -7  -8    0.35    0.65 
   1   7   8    1.39    0.67 
  -1   7  -8    2.75    0.62 
  -2  -7  -8    2.02    0.67 
  -2   7  -8    1.08    0.62 
   2   7   8    2.29    0.70 
   3   7   8    1.60    0.70 
  -3   7  -8    1.18    0.67 
  -9   0   9    1.39    0.69 
   9   0  -9    2.82    0.83 
  -8   0   9    0.25    0.61 
   8   0  -9    0.93    0.69 
   7   0  -9   38.73    1.53 
  -7   0   9   39.47    1.50 
   6   0  -9   10.29    0.89 
  -6   0   9   10.21    0.77 
   6   0  -9    9.76    0.57 
   5   0  -9   13.33    0.82 
  -5   0   9   14.00    0.74 
   5   0  -9   15.56    0.68 
   4   0  -9   17.22    0.69 
  -4   0   9   16.02    0.69 
   3   0  -9    2.23    0.36 
  -3   0   9    1.29    0.33 
  -3   0   9    1.24    0.26 
   2   0  -9    3.13    0.44 
  -2   0   9    4.00    0.41 
  -2   0   9    3.47    0.29 
  -1   0   9   80.81    1.82 
   1   0  -9   80.67    1.68 
  -1   0   9   80.08    1.38 
   0   0   9    1.54    0.32 
   0   0  -9    1.04    0.32 
   0   0   9    1.37    0.16 
   1   0   9   48.07    0.82 
   1   0   9   46.46    1.41 
  -1   0  -9   47.81    1.24 
  -2   0  -9   57.20    1.47 
   2   0   9   58.17    1.58 
   2   0   9   58.37    0.98 
  -3   0  -9    0.54    0.45 
   3   0   9    0.47    0.33 
   4   0   9   10.58    0.79 
  -4   0  -9   10.90    0.84 
  -5   0  -9    4.15    0.61 
   5   0   9    2.34    0.53 
  -6   0  -9   13.24    0.90 
   6   0   9   13.13    0.97 
  -7   0  -9    1.02    0.59 
   7   0   9    0.11    0.57 
   8   0   9    7.77    0.98 
   9   0   9    0.35    0.69 
  -9  -1   9    6.77    0.94 
  -9   1   9    5.16    0.90 
   9   1  -9    5.90    1.03 
  -8  -1   9   11.19    1.00 
   8   1  -9   13.58    1.14 
  -8   1   9   12.96    1.01 
  -7  -1   9    5.12    0.76 
  -7   1   9    6.94    0.73 
   7   1  -9    6.44    0.83 
   6  -1  -9   17.14    0.92 
   6  -1  -9   16.04    0.79 
  -6  -1   9   20.14    1.08 
   6   1  -9   20.13    1.12 
  -6   1   9   18.87    0.92 
   5  -1  -9   21.88    0.90 
   5  -1  -9   19.36    0.81 
  -5  -1   9   23.71    1.05 
   5   1  -9   14.65    0.63 
   5   1  -9   15.56    0.93 
  -5   1   9   15.22    0.76 
   4  -1  -9    1.84    0.39 
   4  -1  -9    1.58    0.38 
  -4  -1   9    2.26    0.45 
  -4  -1   9    1.83    0.41 
  -4   1   9    1.48    0.34 
   4   1  -9    1.18    0.31 
  -3  -1   9   52.46    1.40 
  -3  -1   9   48.17    1.27 
   3  -1  -9   52.08    1.30 
  -3   1   9   48.84    1.15 
  -3   1   9   47.46    1.18 
   3   1  -9   49.44    1.30 
  -2  -1   9   68.83    1.45 
  -2  -1   9   70.77    1.68 
   2  -1  -9   70.93    1.58 
  -2   1   9   65.85    1.34 
  -2   1   9   67.19    1.46 
   2   1  -9   67.15    1.46 
  -1  -1   9    8.69    0.64 
  -1  -1   9    8.40    0.41 
   1  -1  -9    8.38    0.56 
  -1   1   9    7.27    0.40 
   1   1  -9    8.02    0.53 
  -1   1   9    7.78    0.52 
   0  -1   9   65.32    1.10 
   0  -1  -9   67.38    1.66 
   0  -1   9   60.71    1.61 
   0   1   9   70.79    1.58 
   0   1  -9   66.02    1.65 
   0   1   9   70.99    1.37 
  -1  -1  -9   13.20    0.69 
   1  -1   9   14.90    0.77 
   1   1   9   19.54    0.60 
   1   1   9   19.38    0.83 
  -1   1  -9   20.63    0.81 
  -2  -1  -9    2.99    0.43 
   2  -1   9    3.22    0.53 
   2   1   9    3.82    0.31 
   2   1   9    4.97    0.48 
  -2   1  -9    4.51    0.50 
   3  -1   9   54.27    1.66 
  -3  -1  -9   55.52    1.11 
  -3  -1  -9   54.86    1.39 
   3   1   9   48.40    1.36 
  -3   1  -9   40.73    1.21 
  -4  -1  -9   41.89    0.99 
   4  -1   9   43.06    1.48 
  -4  -1  -9   44.81    1.24 
  -4   1  -9   44.27    1.28 
   5  -1   9    1.56    0.52 
  -5  -1  -9    1.79    0.47 
  -5  -1  -9    0.73    0.26 
   5   1   9    0.40    0.43 
  -5   1  -9    0.36    0.42 
  -6  -1  -9    5.50    0.61 
   6  -1   9    5.00    0.73 
  -6   1  -9    5.30    0.65 
   6   1   9    3.53    0.64 
   7  -1   9    2.21    0.69 
   7   1   9    4.58    0.75 
  -7   1  -9    3.77    0.61 
   8  -1   9    1.31    0.67 
   8   1   9    1.47    0.65 
  -8   1  -9    0.80    0.59 
   9  -1   9    1.66    0.74 
   9   1   9    1.37    0.73 
  -9  -2   9    6.73    0.90 
  -9   2   9    5.80    0.86 
   9   2  -9    5.83    1.09 
  -8  -2   9    4.97    0.80 
  -8   2   9    4.81    0.73 
   8   2  -9    7.00    1.01 
  -7  -2   9   14.15    0.98 
   7  -2  -9   12.94    0.85 
  -7   2   9   11.25    0.84 
   7   2  -9   13.49    1.08 
   6  -2  -9    4.95    0.61 
  -6  -2   9    5.29    0.69 
  -6   2   9    5.69    0.63 
   6   2  -9    5.50    0.76 
  -5  -2   9    5.44    0.65 
   5  -2  -9    6.14    0.59 
   5   2  -9    3.46    0.63 
  -5   2   9    3.79    0.49 
   4  -2  -9   47.54    1.32 
  -4  -2   9   44.15    1.35 
  -4  -2   9   48.39    1.48 
   4   2  -9   58.87    1.40 
  -4   2   9   56.28    1.43 
   3  -2  -9   26.91    0.98 
  -3  -2   9   26.47    1.05 
  -3  -2   9   26.74    0.93 
   3   2  -9   21.68    0.76 
  -3   2   9   19.05    0.77 
   2  -2  -9   43.01    1.21 
  -2  -2   9   42.78    1.31 
  -2  -2   9   42.87    1.06 
   2   2  -9   46.10    1.22 
  -2   2   9   46.39    1.19 
  -2   2   9   47.04    1.05 
  -1  -2   9   87.43    2.05 
  -1  -2   9   87.62    1.60 
   1  -2  -9   90.07    1.89 
  -1   2   9   91.74    1.89 
   1   2  -9   91.94    1.90 
  -1   2   9   92.92    1.78 
   0  -2   9   11.02    0.73 
   0  -2  -9   11.22    0.65 
   0  -2   9   11.77    0.38 
   0   2  -9   13.08    0.64 
   0   2   9   12.80    0.62 
   0   2   9   12.16    0.59 
  -1  -2  -9   12.18    0.68 
   1  -2   9   11.89    0.76 
   1   2   9   12.37    0.64 
  -1   2  -9   13.22    0.66 
   1   2   9   13.36    0.59 
  -2  -2  -9  104.73    2.19 
   2  -2   9  102.99    2.40 
   2   2   9  107.32    2.00 
  -2   2  -9  110.00    2.15 
   2   2   9  109.11    2.21 
   3  -2   9   12.23    0.95 
  -3  -2  -9   12.42    0.55 
  -3  -2  -9   10.64    0.83 
   3   2   9   14.55    0.78 
  -3   2  -9   14.99    0.77 
  -4  -2  -9    9.56    0.52 
   4  -2   9    9.74    0.88 
  -4  -2  -9    7.72    0.75 
   4   2   9   11.60    0.77 
  -4   2  -9   11.56    0.75 
  -5  -2  -9   22.47    0.82 
   5  -2   9   23.46    1.20 
  -5  -2  -9   20.96    0.99 
  -5   2  -9   26.85    1.08 
   5   2   9   27.25    1.22 
  -6  -2  -9    4.07    0.65 
   6  -2   9    4.53    0.76 
  -6  -2  -9    3.92    0.47 
   6   2   9    5.30    0.76 
  -6   2  -9    4.73    0.62 
   7  -2   9   12.38    1.06 
   7   2   9   11.86    1.05 
  -7   2  -9   10.02    0.84 
   8  -2   9    4.62    0.84 
  -8   2  -9    3.54    0.69 
   8   2   9    3.66    0.83 
   9  -2   9    0.09    0.67 
   9   2   9   -0.17    0.58 
  -8  -3   9   11.30    1.03 
  -8   3   9   13.17    0.95 
   8   3  -9   15.39    1.41 
   7  -3  -9    2.48    0.60 
  -7  -3   9    2.49    0.64 
  -7   3   9    1.45    0.50 
   7   3  -9    1.36    0.71 
   6  -3  -9    8.80    0.76 
  -6  -3   9    7.85    0.79 
   6   3  -9    6.92    0.87 
  -6   3   9    6.92    0.68 
  -5  -3   9    4.87    0.66 
   5  -3  -9    5.07    0.65 
  -5   3   9    7.63    0.67 
   5   3  -9    8.35    0.85 
  -4  -3   9    3.57    0.55 
   4  -3  -9    2.84    0.51 
  -4   3   9    3.69    0.50 
   3  -3  -9    5.45    0.58 
  -3  -3   9    4.85    0.61 
  -3  -3   9    5.16    0.53 
   3   3  -9    3.58    0.45 
  -3   3   9    4.29    0.52 
  -2  -3   9   75.73    1.63 
   2  -3  -9   73.73    1.79 
  -2  -3   9   74.99    1.95 
   2   3  -9   74.59    1.64 
  -2   3   9   79.19    1.85 
  -1  -3   9    0.46    0.41 
  -1  -3   9    0.83    0.30 
   1  -3  -9    0.44    0.40 
   1   3  -9    0.51    0.34 
  -1   3   9    0.26    0.32 
   0  -3   9   75.15    1.33 
   0  -3  -9   74.64    1.75 
   0  -3   9   74.52    2.02 
   0   3  -9   85.39    1.78 
   0   3   9   85.85    1.85 
   0   3   9   86.13    1.76 
  -1  -3  -9   34.37    1.12 
   1  -3   9   33.54    1.32 
   1   3   9   41.84    1.11 
   1   3   9   39.43    1.15 
  -1   3  -9   41.72    1.18 
   2  -3   9    6.42    0.76 
  -2  -3  -9    4.69    0.56 
   2   3   9    4.12    0.45 
   2   3   9    3.64    0.45 
  -2   3  -9    4.24    0.50 
  -3  -3  -9   19.97    0.81 
   3  -3   9   19.81    1.09 
  -3  -3  -9   21.74    0.91 
   3   3   9   20.96    0.91 
  -3   3  -9   19.21    0.87 
  -4  -3  -9   14.31    0.80 
   4  -3   9   15.10    1.07 
  -4  -3  -9   14.28    0.74 
   4   3   9   15.97    0.92 
  -4   3  -9   18.17    0.88 
  -5  -3  -9    4.01    0.58 
  -5  -3  -9    4.71    0.51 
   5  -3   9    5.35    0.88 
  -5   3  -9    7.69    0.70 
   5   3   9    8.01    0.81 
   6  -3   9   18.28    1.26 
  -6  -3  -9   16.83    0.89 
  -6   3  -9   18.72    0.94 
   6   3   9   16.33    1.12 
   7  -3   9    3.64    0.89 
  -7  -3  -9    2.65    0.52 
   7   3   9    3.83    0.80 
  -7   3  -9    4.29    0.66 
   8  -3   9    5.14    0.99 
  -8   3  -9    3.85    0.74 
   8   3   9    5.09    0.88 
  -8  -4   9    2.46    0.74 
   8  -4  -9    3.77    0.77 
   8   4  -9    3.46    0.94 
  -8   4   9    3.27    0.64 
   7  -4  -9    0.43    0.53 
  -7  -4   9    0.10    0.58 
   7   4  -9   -0.31    0.68 
  -7   4   9   -0.15    0.41 
  -6  -4   9    9.02    0.86 
   6  -4  -9    6.95    0.80 
  -6   4   9    5.57    0.68 
   6   4  -9    5.47    0.85 
  -5  -4   9    2.25    0.58 
   5  -4  -9    1.46    0.54 
  -5   4   9    1.87    0.50 
   5   4  -9    0.61    0.57 
  -4  -4   9   13.83    0.91 
   4  -4  -9   10.87    0.85 
  -4   4   9   10.37    0.73 
   4   4  -9   10.20    0.87 
  -3  -4   9    4.06    0.56 
  -3  -4   9    3.58    0.65 
   3  -4  -9    3.37    0.57 
   3   4  -9    4.50    0.51 
  -3   4   9    5.15    0.66 
   2  -4  -9    9.45    0.75 
  -2  -4   9    9.63    0.84 
  -2  -4   9   10.22    0.66 
  -2   4   9    8.56    0.73 
   2   4  -9    8.92    0.57 
   1  -4  -9   15.62    0.84 
  -1  -4   9   16.97    1.00 
  -1  -4   9   13.30    0.65 
  -1   4   9   16.08    0.88 
   1   4  -9   17.27    0.78 
   0  -4   9   11.06    0.89 
   0  -4  -9    8.47    0.71 
   0   4  -9    8.76    0.65 
   0   4   9    8.76    0.72 
  -1  -4  -9    4.88    0.59 
   1  -4   9    4.13    0.75 
   1   4   9    4.36    0.55 
  -1   4  -9    5.13    0.57 
   2  -4   9   35.34    1.45 
  -2  -4  -9   35.98    1.23 
  -2   4  -9   45.23    1.31 
   2   4   9   44.01    1.36 
   2   4   9   44.13    1.25 
  -3  -4  -9    2.69    0.51 
  -3  -4  -9    1.55    0.42 
   3  -4   9    1.90    0.61 
   3   4   9    2.60    0.49 
  -3   4  -9    2.06    0.50 
  -4  -4  -9    3.00    0.51 
   4  -4   9    2.30    0.69 
  -4  -4  -9    3.35    0.56 
  -4   4  -9    1.54    0.52 
   4   4   9    2.63    0.56 
  -5  -4  -9    7.35    0.69 
   5  -4   9    8.62    0.99 
  -5   4  -9   10.29    0.83 
   5   4   9   10.15    0.88 
  -6  -4  -9    0.35    0.47 
   6  -4   9    3.14    0.76 
  -6   4  -9    1.03    0.52 
   6   4   9    1.91    0.65 
  -7  -4  -9    1.65    0.52 
   7  -4   9    2.49    0.88 
   7   4   9    3.45    0.74 
  -7   4  -9    1.83    0.62 
   7  -5  -9    0.63    0.56 
  -7  -5   9    0.18    0.70 
  -7   5   9   -0.31    0.47 
   7   5  -9    0.63    0.73 
  -6  -5   9    3.51    0.81 
   6  -5  -9    3.65    0.74 
  -6   5   9    2.31    0.61 
   6   5  -9    2.90    0.82 
  -5  -5   9    8.53    0.97 
   5  -5  -9    7.27    0.82 
   5   5  -9   10.19    1.11 
  -5   5   9    9.07    0.81 
   4  -5  -9    0.41    0.49 
  -4  -5   9    1.50    0.63 
   4   5  -9    0.69    0.58 
  -4   5   9    1.24    0.48 
  -3  -5   9    5.54    0.78 
  -3  -5   9    7.01    0.71 
   3  -5  -9    3.62    0.66 
  -3   5   9    5.25    0.74 
  -2  -5   9    5.95    0.64 
   2  -5  -9    5.79    0.73 
  -2  -5   9    5.25    0.74 
  -2   5   9    4.05    0.73 
   2   5  -9    2.48    0.47 
  -1  -5   9    0.70    0.51 
   1  -5  -9    1.09    0.48 
  -1   5   9   -0.04    0.46 
   1   5  -9    0.44    0.38 
   0  -5   9   10.30    0.86 
   0  -5  -9    9.75    0.77 
   0   5  -9    8.41    0.66 
   0   5   9    9.81    0.83 
  -1  -5  -9    5.69    0.67 
   1  -5   9    5.41    0.78 
   1   5   9    8.37    0.77 
  -1   5  -9    7.34    0.69 
   2  -5   9    0.46    0.63 
  -2  -5  -9    0.07    0.47 
   2   5   9    0.00    0.44 
  -2   5  -9   -0.18    0.42 
   3  -5   9    2.86    0.74 
  -3  -5  -9    2.67    0.60 
  -3   5  -9    3.09    0.57 
   3   5   9    4.45    0.68 
   4  -5   9    6.26    0.91 
  -4  -5  -9    6.18    0.70 
  -4   5  -9    6.25    0.72 
  -5  -5  -9    0.32    0.48 
   5  -5   9    0.19    0.68 
  -5   5  -9    0.34    0.54 
   5   5   9    0.61    0.53 
  -6  -5  -9    2.57    0.58 
   6  -5   9    3.82    0.85 
   6   5   9    4.63    0.79 
  -6   5  -9    3.24    0.69 
   5  -6  -9    1.32    0.60 
  -5  -6   9    2.59    0.78 
   5   6  -9    1.54    0.74 
  -5   6   9    0.77    0.54 
  -4  -6   9    3.65    0.73 
   4  -6  -9    1.64    0.61 
  -4   6   9    3.25    0.71 
   4   6  -9    4.00    0.82 
   3  -6  -9    9.40    0.93 
  -3  -6   9    9.14    0.86 
  -3   6   9    7.95    0.93 
   3   6  -9    7.48    0.94 
   2  -6  -9    0.15    0.57 
  -2  -6   9    0.88    0.60 
  -2   6   9    0.09    0.57 
   1  -6  -9    5.82    0.76 
  -1  -6   9    4.72    0.77 
  -1   6   9    4.65    0.81 
   1   6  -9    3.43    0.57 
   0  -6   9    2.77    0.72 
   0  -6  -9    2.44    0.66 
   0   6  -9    2.12    0.52 
   0   6   9    1.90    0.64 
   1  -6   9    9.86    0.91 
  -1  -6  -9   10.89    0.94 
  -1   6  -9    9.05    0.82 
   1   6   9    9.82    0.90 
   2  -6   9    1.02    0.63 
  -2  -6  -9    0.80    0.58 
   2   6   9    2.22    0.63 
  -2   6  -9    0.97    0.55 
  -3  -6  -9    1.95    0.62 
   3  -6   9    0.71    0.74 
  -3   6  -9    1.43    0.57 
   3   6   9    2.17    0.68 
   4  -6   9    0.43    0.85 
  -4   6  -9    1.20    0.58 
  -5  -6  -9    1.68    0.62 
  -5   6  -9    2.46    0.67 
   3  -7  -9    0.63    0.61 
   3   7  -9    1.01    0.67 
  -3   7   9   -0.42    0.62 
   2  -7  -9    3.01    0.72 
  -2   7   9    2.96    0.79 
   2   7  -9    2.00    0.75 
   1  -7  -9    1.37    0.66 
  -1  -7   9    0.09    0.67 
  -1   7   9    0.65    0.66 
   0  -7  -9    8.40    0.94 
   0  -7   9    6.67    0.94 
   0   7   9   11.35    1.04 
   0   7  -9    9.63    0.82 
  -1  -7  -9    0.40    0.65 
   1  -7   9   -0.57    0.60 
   1   7   9    0.10    0.60 
  -1   7  -9   -0.34    0.52 
  -2  -7  -9    0.37    0.66 
  -2   7  -9    1.33    0.59 
   2   7   9    1.48    0.65 
   3   7   9   -0.25    0.56 
  -3   7  -9    0.13    0.54 
  -9   0  10    6.46    0.92 
   8   0 -10   -0.11    0.73 
  -8   0  10    0.64    0.59 
  -7   0  10    6.65    0.74 
   7   0 -10    7.81    0.91 
   6   0 -10   19.85    1.10 
  -6   0  10   19.22    0.95 
   5   0 -10    6.77    0.72 
  -5   0  10    5.75    0.56 
   5   0 -10    5.88    0.51 
  -4   0  10   55.16    1.48 
   4   0 -10   53.06    1.36 
  -4   0  10   52.54    1.29 
  -3   0  10   15.82    0.61 
  -3   0  10   16.98    0.77 
   3   0 -10   16.56    0.74 
   2   0 -10   -0.05    0.33 
  -2   0  10    0.42    0.28 
  -2   0  10    0.10    0.18 
  -1   0  10  172.68    2.65 
  -1   0  10  172.42    3.18 
   1   0 -10  179.05    3.07 
   0   0 -10   14.07    0.68 
   0   0  10   13.32    0.39 
   0   0  10   12.99    0.67 
  -1   0 -10   22.84    0.87 
   1   0  10   21.89    0.47 
   1   0  10   22.84    0.95 
   2   0  10   25.78    0.53 
  -2   0 -10   25.71    0.99 
   2   0  10   26.50    1.12 
  -3   0 -10    1.69    0.52 
   3   0  10    0.63    0.39 
  -4   0 -10   36.73    1.35 
   4   0  10   36.08    1.36 
  -5   0 -10   60.06    1.81 
   5   0  10   57.03    1.82 
   6   0  10    0.49    0.49 
  -6   0 -10    0.98    0.61 
  -7   0 -10    9.98    0.95 
   7   0  10    8.01    0.93 
   8   0  10    0.26    0.66 
   9   0  10   -0.76    0.58 
  -9  -1  10    1.41    0.67 
  -9   1  10    0.81    0.60 
   9   1 -10    0.65    0.89 
  -8  -1  10    9.41    0.90 
  -8   1  10   13.15    0.98 
   8   1 -10   14.07    1.27 
  -7  -1  10   10.51    0.87 
  -7   1  10    8.96    0.77 
   7   1 -10    7.31    0.91 
   6  -1 -10   16.78    0.85 
   6  -1 -10   17.35    0.92 
  -6  -1  10   14.96    0.89 
  -6   1  10   14.76    0.83 
   6   1 -10   14.22    0.98 
  -5  -1  10   24.99    1.01 
   5  -1 -10   27.17    1.02 
   5  -1 -10   25.71    1.00 
  -5   1  10   25.46    0.93 
   5   1 -10   25.21    1.15 
   5   1 -10   23.10    0.83 
   4  -1 -10   17.27    0.78 
  -4  -1  10   18.31    0.91 
  -4  -1  10   15.70    0.74 
   4  -1 -10   18.19    0.85 
   4   1 -10   19.02    0.79 
  -4   1  10   20.79    0.78 
   3  -1 -10   24.91    0.92 
  -3  -1  10   22.73    0.96 
  -3  -1  10   22.43    0.77 
  -3   1  10   25.95    0.81 
   3   1 -10   23.75    0.90 
  -3   1  10   24.64    0.86 
  -2  -1  10   46.48    1.05 
   2  -1 -10   42.10    1.24 
  -2  -1  10   44.71    1.34 
  -2   1  10   46.97    1.06 
  -2   1  10   45.58    1.22 
   2   1 -10   45.59    1.20 
  -1  -1  10    0.63    0.36 
  -1  -1  10    0.63    0.21 
   1  -1 -10    0.86    0.39 
  -1   1  10    1.03    0.24 
   1   1 -10    1.08    0.36 
  -1   1  10    1.53    0.33 
   0  -1 -10   58.42    1.51 
   0  -1  10   56.94    1.00 
   0  -1  10   60.06    1.59 
   0   1 -10   62.53    1.58 
   0   1  10   66.85    1.56 
   0   1  10   67.04    1.32 
  -1  -1 -10   45.96    1.30 
   1  -1  10   45.70    1.39 
   1   1  10   38.56    0.92 
   1   1  10   39.97    1.31 
  -1   1 -10   38.72    1.27 
  -2  -1 -10    7.96    0.61 
   2  -1  10    8.28    0.74 
  -2   1 -10    8.66    0.69 
   2   1  10    8.31    0.66 
   2   1  10    7.51    0.42 
   3  -1  10   99.48    2.49 
  -3   1 -10   93.80    2.04 
   3   1  10   95.14    1.68 
  -4  -1 -10    7.20    0.67 
   4  -1  10    6.86    0.75 
  -4  -1 -10    8.16    0.43 
   4   1  10   12.65    0.84 
  -4   1 -10   13.99    0.83 
   5  -1  10   14.77    1.04 
  -5  -1 -10   14.78    0.86 
   5   1  10   12.93    0.93 
  -5   1 -10   13.88    0.84 
  -6  -1 -10   12.11    0.83 
   6  -1  10   12.09    1.00 
  -6   1 -10   15.92    0.94 
   6   1  10   17.93    1.10 
   7  -1  10    2.73    0.70 
   7   1  10    2.23    0.69 
  -7   1 -10    2.80    0.63 
   8  -1  10    1.29    0.68 
   8   1  10    1.99    0.76 
  -8   1 -10    2.97    0.72 
   9  -1  10    2.20    0.77 
   9   1  10    0.97    0.73 
  -9  -2  10    1.71    0.73 
   9   2 -10    1.87    0.95 
  -9   2  10    1.85    0.61 
  -8  -2  10    4.64    0.89 
   8   2 -10    2.54    0.88 
  -8   2  10    3.32    0.65 
  -7  -2  10   19.25    1.19 
   7  -2 -10   22.08    1.07 
  -7   2  10   23.57    1.10 
   7   2 -10   24.19    1.39 
  -6  -2  10   28.70    1.31 
   6  -2 -10   26.42    1.11 
   6   2 -10   28.35    1.34 
  -6   2  10   25.99    1.08 
  -5  -2  10   11.30    0.83 
   5  -2 -10   11.57    0.75 
  -5   2  10   13.00    0.74 
   5   2 -10   12.62    0.94 
  -4  -2  10   28.80    1.21 
   4  -2 -10   28.54    1.09 
  -4  -2  10   28.10    1.11 
  -4   2  10   34.42    1.08 
   4   2 -10   34.06    1.07 
  -3  -2  10    7.99    0.70 
  -3  -2  10    6.64    0.55 
   3  -2 -10    6.51    0.60 
  -3   2  10    2.90    0.41 
   3   2 -10    3.34    0.42 
  -3   2  10    3.15    0.36 
  -2  -2  10   27.21    1.11 
  -2  -2  10   28.17    0.85 
   2  -2 -10   25.69    1.00 
  -2   2  10   27.63    0.83 
  -2   2  10   26.03    0.87 
   2   2 -10   27.42    0.92 
   1  -2 -10   36.07    1.15 
  -1  -2  10   35.63    0.88 
  -1  -2  10   36.24    1.33 
  -1   2  10   29.48    0.90 
  -1   2  10   30.48    0.95 
   1   2 -10   30.87    1.14 
   0  -2  10    3.09    0.52 
   0  -2 -10    3.31    0.51 
   0   2  10    3.64    0.41 
   0   2  10    4.17    0.44 
   0   2 -10    3.71    0.47 
   1  -2  10   25.67    1.09 
  -1  -2 -10   24.08    1.02 
   1   2  10   30.53    0.92 
  -1   2 -10   33.20    1.09 
   1   2  10   32.72    1.10 
  -2  -2 -10   97.34    2.33 
   2  -2  10   97.99    2.38 
   2   2  10  103.03    1.94 
   2   2  10  101.93    2.20 
  -2   2 -10  102.64    2.11 
   3  -2  10   19.69    1.11 
  -3  -2 -10   18.17    0.97 
   3   2  10   20.05    0.93 
  -3   2 -10   20.47    0.93 
   4  -2  10   44.49    1.74 
  -4  -2 -10   42.00    1.13 
  -4  -2 -10   44.53    1.40 
   4   2  10   40.77    1.40 
  -4   2 -10   40.14    1.29 
   5  -2  10    2.29    0.67 
  -5  -2 -10    0.95    0.32 
  -5  -2 -10    1.82    0.53 
   5   2  10    1.37    0.51 
  -5   2 -10    0.77    0.48 
   6  -2  10    0.42    0.57 
  -6  -2 -10    1.05    0.52 
  -6   2 -10    0.38    0.51 
   6   2  10    0.91    0.56 
   7  -2  10    1.77    0.73 
   7   2  10    3.30    0.75 
  -7   2 -10    2.83    0.63 
   8  -2  10    2.85    0.83 
   8   2  10    2.27    0.78 
  -8   2 -10    3.89    0.73 
  -8  -3  10    8.88    1.12 
  -8   3  10    7.26    0.74 
   8   3 -10    7.86    1.18 
  -7  -3  10    3.93    0.85 
   7  -3 -10    3.51    0.70 
   7   3 -10    4.60    0.92 
  -7   3  10    6.04    0.70 
  -6  -3  10    9.61    0.95 
   6  -3 -10    8.30    0.78 
   6   3 -10    9.29    0.99 
  -6   3  10    9.95    0.75 
  -5  -3  10   22.65    1.17 
   5  -3 -10   19.56    1.00 
  -5   3  10   23.14    0.97 
   5   3 -10   24.35    1.28 
  -4  -3  10    1.61    0.53 
   4  -3 -10    1.74    0.51 
  -4  -3  10    1.79    0.55 
  -4   3  10    0.46    0.38 
  -3  -3  10   10.76    0.79 
  -3  -3  10   10.50    0.68 
   3  -3 -10    9.73    0.72 
   3   3 -10   15.15    0.73 
  -3   3  10   15.18    0.76 
  -2  -3  10   30.90    0.97 
   2  -3 -10   30.24    1.13 
  -2  -3  10   32.86    1.31 
   2   3 -10   26.44    1.03 
  -2   3  10   26.54    1.02 
   1  -3 -10   15.52    0.83 
  -1  -3  10   13.36    0.56 
  -1  -3  10   14.43    0.93 
  -1   3  10   16.19    0.85 
   1   3 -10   14.11    0.74 
   0  -3  10   36.63    1.51 
   0  -3 -10   35.81    1.22 
   0   3  10   38.44    1.22 
   0   3  10   38.77    1.07 
   0   3 -10   41.92    1.19 
   1  -3  10    2.94    0.59 
  -1  -3 -10    1.64    0.48 
  -1   3 -10    0.79    0.41 
   1   3  10    0.71    0.31 
   1   3  10    0.20    0.34 
  -2  -3 -10   12.19    0.81 
   2  -3  10   13.88    0.94 
  -2   3 -10   11.22    0.75 
   2   3  10   11.71    0.65 
   2   3  10   11.87    0.70 
   3  -3  10   15.31    1.02 
  -3  -3 -10   17.37    0.88 
   3   3  10   18.00    0.91 
  -3   3 -10   18.03    0.88 
  -4  -3 -10   18.21    0.94 
  -4  -3 -10   17.22    0.81 
   4  -3  10   19.65    1.17 
   4   3  10   17.31    0.95 
  -4   3 -10   16.24    0.89 
  -5  -3 -10   13.98    0.88 
   5  -3  10   14.92    1.19 
  -5  -3 -10   14.66    0.78 
   5   3  10   15.74    1.03 
  -5   3 -10   12.75    0.85 
  -6  -3 -10    0.42    0.40 
   6  -3  10    0.55    0.66 
   6   3  10    1.02    0.56 
  -6   3 -10   -0.05    0.48 
   7  -3  10    2.24    0.88 
  -7   3 -10    0.66    0.58 
   7   3  10   -0.32    0.57 
   8  -3  10    1.27    0.81 
   8   3  10    0.35    0.67 
  -8   3 -10    0.89    0.63 
  -7  -4  10    5.68    0.97 
   7  -4 -10    4.45    0.77 
   7   4 -10    3.56    0.93 
  -7   4  10    2.98    0.63 
  -6  -4  10    8.93    0.95 
   6  -4 -10    8.09    0.86 
  -6   4  10    9.23    0.79 
   6   4 -10    7.32    0.97 
   5  -4 -10    1.39    0.56 
  -5  -4  10    2.38    0.63 
  -5   4  10    2.59    0.52 
   5   4 -10    0.82    0.64 
  -4  -4  10    8.48    0.81 
   4  -4 -10    8.25    0.78 
  -4   4  10    9.22    0.75 
  -3  -4  10    3.77    0.68 
  -3  -4  10    4.74    0.56 
   3  -4 -10    4.39    0.62 
  -3   4  10    4.76    0.62 
  -2  -4  10    1.04    0.36 
  -2  -4  10    1.27    0.53 
   2  -4 -10    0.97    0.45 
  -2   4  10    2.42    0.57 
   2   4 -10    1.80    0.44 
  -1  -4  10   11.25    0.89 
   1  -4 -10   11.09    0.81 
   1   4 -10   13.98    0.76 
  -1   4  10   13.06    0.86 
   0  -4  10   13.36    1.00 
   0  -4 -10   12.81    0.85 
   0   4 -10    9.66    0.68 
   0   4  10    9.15    0.72 
  -1  -4 -10   15.87    0.91 
   1  -4  10   18.30    1.23 
   1   4  10   18.03    0.91 
  -1   4 -10   19.58    0.90 
  -2  -4 -10   10.34    0.77 
   2  -4  10   10.49    0.98 
   2   4  10    9.24    0.71 
   2   4  10    8.62    0.62 
  -2   4 -10    8.38    0.68 
   3  -4  10    0.49    0.59 
  -3  -4 -10    1.72    0.53 
  -3   4 -10   -0.50    0.42 
   3   4  10    1.04    0.46 
   3   4  10    1.08    0.49 
  -4  -4 -10    2.50    0.57 
   4  -4  10    2.98    0.73 
  -4  -4 -10    2.78    0.53 
  -4   4 -10    1.65    0.52 
   4   4  10    1.24    0.50 
   5  -4  10    4.74    0.83 
  -5  -4 -10    4.21    0.64 
  -5   4 -10    5.38    0.68 
   5   4  10    4.88    0.73 
   6  -4  10    3.66    0.88 
  -6  -4 -10    2.32    0.55 
  -6   4 -10    3.43    0.64 
   6   4  10    3.96    0.78 
  -7  -4 -10    0.26    0.50 
   7  -4  10   -0.10    0.72 
   7   4  10    0.73    0.69 
  -7   4 -10    1.34    0.55 
  -6  -5  10    2.55    0.76 
   6  -5 -10    1.59    0.61 
   6   5 -10    1.29    0.73 
  -6   5  10    2.77    0.60 
   5  -5 -10    1.60    0.63 
  -5  -5  10    2.07    0.61 
   5   5 -10    1.23    0.73 
  -5   5  10    0.53    0.49 
  -4  -5  10    2.31    0.60 
   4  -5 -10    1.53    0.63 
   4   5 -10    1.66    0.69 
  -4   5  10    2.38    0.61 
   3  -5 -10    5.05    0.73 
  -3  -5  10    5.71    0.65 
  -3  -5  10    6.06    0.82 
  -3   5  10    4.91    0.71 
  -2  -5  10    6.90    0.83 
   2  -5 -10    8.57    0.80 
   2   5 -10   11.78    0.73 
  -2   5  10   10.51    0.95 
  -1  -5  10   -0.38    0.54 
   1  -5 -10    0.50    0.51 
  -1   5  10    0.25    0.51 
   1   5 -10   -0.09    0.39 
   0  -5 -10    1.98    0.58 
   0  -5  10    1.17    0.63 
   0   5  10    1.25    0.50 
   0   5 -10    1.72    0.51 
   1  -5  10    8.51    0.99 
  -1  -5 -10    6.38    0.75 
   1   5  10    7.56    0.77 
  -1   5 -10    6.43    0.67 
  -2  -5 -10    3.18    0.59 
   2  -5  10    2.70    0.82 
  -2   5 -10    3.36    0.61 
   2   5  10    2.61    0.61 
   3  -5  10    6.37    0.86 
  -3  -5 -10    6.73    0.78 
   3   5  10    8.10    0.81 
  -3   5 -10    6.94    0.73 
   4  -5  10   -0.28    0.62 
  -4   5 -10   -0.22    0.48 
  -5  -5 -10    0.58    0.50 
   5  -5  10    0.45    0.71 
  -5   5 -10    0.23    0.50 
  -6  -5 -10    2.22    0.61 
   6  -5  10    3.71    0.87 
  -6   5 -10    2.37    0.65 
   6   5  10    4.25    0.80 
  -5  -6  10    3.40    0.73 
   5  -6 -10    3.21    0.72 
  -5   6  10    4.53    0.76 
   5   6 -10    5.86    0.98 
   4  -6 -10    4.43    0.80 
  -4   6  10    9.43    0.91 
   4   6 -10    7.77    1.03 
   3  -6 -10    0.81    0.61 
  -3   6  10    2.48    0.70 
   3   6 -10    1.87    0.68 
  -2  -6  10    2.25    0.73 
   2  -6 -10    2.41    0.67 
  -2   6  10    2.43    0.72 
  -1  -6  10    0.38    0.57 
   1  -6 -10    0.76    0.58 
   1   6 -10    0.10    0.46 
  -1   6  10   -0.06    0.58 
   0  -6 -10    1.47    0.62 
   0  -6  10    0.24    0.64 
   0   6  10    1.19    0.59 
   0   6 -10    1.35    0.52 
   1  -6  10    5.69    0.85 
  -1  -6 -10    5.68    0.76 
  -1   6 -10    5.58    0.71 
   1   6  10    6.78    0.85 
  -2  -6 -10    0.60    0.62 
   2  -6  10    1.67    0.77 
   2   6  10    1.25    0.61 
  -2   6 -10    1.88    0.58 
   3  -6  10   -0.37    0.77 
  -3  -6 -10    0.12    0.56 
   3   6  10    1.37    0.61 
  -3   6 -10    0.48    0.56 
   4  -6  10    2.74    0.94 
   4   6  10    1.34    0.64 
  -4   6 -10    0.46    0.58 
  -5   6 -10    0.99    0.63 
   2  -7 -10    0.82    0.60 
  -2   7  10   -0.30    0.60 
   2   7 -10   -0.41    0.60 
  -1  -7  10    1.50    0.75 
   1  -7 -10    0.54    0.68 
  -1   7  10    0.04    0.65 
   0  -7  10    4.32    0.90 
   0  -7 -10    3.82    0.84 
   0   7  10    5.54    0.88 
   0   7 -10    3.07    0.66 
  -1  -7 -10    0.12    0.61 
   1  -7  10    0.04    0.68 
   1   7  10    0.65    0.66 
  -1   7 -10    0.18    0.51 
  -2  -7 -10    0.41    0.67 
   2   7  10    1.14    0.66 
  -2   7 -10    1.60    0.65 
  -9   0  11    7.80    0.89 
   8   0 -11    5.22    0.91 
  -8   0  11    3.72    0.73 
   7   0 -11   17.77    1.13 
  -7   0  11   16.60    0.99 
   6   0 -11   28.17    1.28 
  -6   0  11   28.77    1.12 
   5   0 -11    1.29    0.55 
   5   0 -11    1.82    0.45 
  -5   0  11    1.71    0.41 
  -4   0  11   37.71    1.26 
  -4   0  11   39.05    1.07 
   4   0 -11   33.63    1.13 
  -3   0  11   23.41    0.97 
   3   0 -11   23.63    1.00 
  -3   0  11   25.33    0.79 
  -2   0  11    0.12    0.19 
   2   0 -11    0.71    0.36 
  -2   0  11    0.38    0.34 
  -1   0  11   31.29    0.73 
  -1   0  11   29.15    1.05 
   1   0 -11   28.11    1.02 
   0   0 -11   12.89    0.72 
   0   0  11   14.26    0.77 
   0   0  11   12.66    0.40 
  -1   0 -11    1.06    0.42 
   1   0  11    1.04    0.41 
   2   0  11   69.68    2.04 
  -2   0 -11   69.34    1.73 
  -3   0 -11    3.79    0.60 
   3   0  11    3.66    0.61 
  -4   0 -11    7.23    0.75 
   4   0  11    6.55    0.73 
   5   0  11   11.61    0.98 
  -5   0 -11   12.39    0.89 
   6   0  11   -0.28    0.49 
  -6   0 -11    0.33    0.54 
   7   0  11    0.49    0.59 
  -7   0 -11    3.56    0.71 
   8   0  11    4.29    0.89 
  -8  -1  11    5.66    0.80 
   8   1 -11   10.39    1.20 
  -8   1  11    8.48    0.86 
  -7  -1  11    8.46    0.80 
   7   1 -11   11.15    1.11 
  -7   1  11    9.78    0.79 
   6  -1 -11    1.75    0.49 
  -6  -1  11    2.54    0.55 
  -6   1  11    4.33    0.58 
   6   1 -11    2.71    0.72 
   5  -1 -11   26.10    1.05 
  -5  -1  11   27.86    1.06 
   5  -1 -11   27.84    1.10 
   5   1 -11   30.78    1.27 
  -5   1  11   31.04    1.05 
   5   1 -11   30.90    1.02 
   4  -1 -11   28.23    1.08 
  -4  -1  11   29.12    1.00 
  -4  -1  11   27.96    1.18 
   4   1 -11   27.89    1.02 
  -4   1  11   27.28    0.93 
  -3  -1  11    5.64    0.66 
  -3  -1  11    5.29    0.41 
   3  -1 -11    5.30    0.57 
  -3   1  11    8.05    0.56 
   3   1 -11    7.89    0.63 
  -3   1  11    9.34    0.53 
  -2  -1  11   38.60    0.96 
   2  -1 -11   37.93    1.25 
  -2  -1  11   35.44    1.30 
  -2   1  11   44.13    1.05 
  -2   1  11   44.28    1.30 
   2   1 -11   41.49    1.19 
   1  -1 -11    1.14    0.48 
  -1  -1  11    1.45    0.43 
  -1  -1  11    1.01    0.21 
  -1   1  11    0.94    0.26 
  -1   1  11    0.92    0.32 
   1   1 -11    0.98    0.39 
   0  -1 -11   19.29    0.91 
   0  -1  11   18.03    0.92 
   0   1  11   13.87    0.53 
   0   1  11   14.12    0.72 
   0   1 -11   13.81    0.78 
  -1  -1 -11   11.29    0.74 
   1  -1  11   10.56    0.76 
   1   1  11   14.47    0.84 
  -1   1 -11   14.59    0.90 
   1   1  11   15.06    0.58 
  -2  -1 -11   23.13    0.96 
   2  -1  11   23.27    1.11 
  -2   1 -11   24.54    1.12 
   2   1  11   20.70    1.02 
   2   1  11   22.74    0.68 
  -3  -1 -11   37.71    1.25 
   3  -1  11   40.16    1.60 
  -3   1 -11   51.22    1.55 
   3   1  11   51.20    1.62 
   4  -1  11   11.21    0.94 
  -4  -1 -11   12.05    0.77 
  -4   1 -11    8.22    0.83 
   4   1  11    8.22    0.75 
   5  -1  11    3.08    0.69 
  -5  -1 -11    2.94    0.56 
  -5   1 -11    3.27    0.62 
   5   1  11    1.95    0.57 
   6  -1  11    7.99    0.92 
  -6  -1 -11   10.30    0.80 
  -6   1 -11    8.25    0.82 
   6   1  11    8.58    0.89 
   7  -1  11    2.95    0.75 
  -7   1 -11    4.19    0.75 
   7   1  11    3.22    0.78 
   8  -1  11    0.97    0.70 
   8   1  11    1.17    0.69 
  -8   1 -11    1.81    0.76 
  -8  -2  11    1.18    0.59 
  -8   2  11    0.97    0.54 
   8   2 -11    1.19    0.84 
   7  -2 -11    1.78    0.57 
  -7  -2  11    2.40    0.63 
   7   2 -11    1.47    0.77 
  -7   2  11    1.23    0.49 
  -6  -2  11   13.85    0.90 
   6  -2 -11   14.49    0.89 
  -6   2  11   13.35    0.82 
   6   2 -11   14.69    1.08 
   5  -2 -11    3.79    0.59 
  -5  -2  11    3.64    0.56 
  -5   2  11    4.51    0.55 
   5   2 -11    5.37    0.75 
   4  -2 -11    7.22    0.68 
  -4  -2  11    7.01    0.74 
  -4  -2  11    6.77    0.61 
   4   2 -11   11.21    0.68 
  -4   2  11   11.32    0.67 
  -3  -2  11   27.42    1.17 
  -3  -2  11   26.34    0.89 
   3  -2 -11   25.73    1.06 
   3   2 -11   30.54    0.99 
  -3   2  11   29.32    0.96 
  -2  -2  11   15.00    0.93 
   2  -2 -11   14.73    0.81 
  -2  -2  11   14.89    0.62 
  -2   2  11   13.32    0.67 
  -2   2  11   13.03    0.64 
   2   2 -11   13.77    0.71 
   1  -2 -11   21.68    0.96 
  -1  -2  11   21.49    0.64 
  -1  -2  11   21.21    1.12 
  -1   2  11   29.72    0.94 
   1   2 -11   28.71    1.11 
  -1   2  11   29.06    0.95 
   0  -2 -11    4.97    0.65 
   0  -2  11    5.73    0.64 
   0   2  11    6.01    0.53 
   0   2  11    6.05    0.50 
   0   2 -11    5.63    0.66 
   1  -2  11    0.02    0.37 
  -1  -2 -11   -0.62    0.50 
   1   2  11    0.11    0.31 
  -1   2 -11   -0.33    0.38 
   1   2  11    0.36    0.33 
  -2  -2 -11    0.54    0.50 
   2  -2  11    0.16    0.44 
   2   2  11    1.50    0.34 
  -2   2 -11    1.68    0.48 
   2   2  11    1.95    0.45 
  -3  -2 -11   13.33    0.89 
   3  -2  11   11.22    0.94 
  -3   2 -11   10.81    0.79 
   3   2  11   11.66    0.81 
   3   2  11   10.97    0.61 
  -4  -2 -11    0.96    0.50 
   4  -2  11   -0.24    0.56 
  -4  -2 -11    0.55    0.27 
   4   2  11    0.96    0.47 
  -4   2 -11    1.69    0.54 
   5  -2  11   19.99    1.33 
  -5  -2 -11   21.69    1.04 
  -5   2 -11   23.37    1.08 
   5   2  11   23.93    1.24 
  -6  -2 -11    3.47    0.65 
   6  -2  11    3.82    0.83 
  -6   2 -11    2.29    0.66 
   6   2  11    1.47    0.60 
   7  -2  11    6.04    0.95 
   7   2  11    4.91    0.85 
  -7   2 -11    3.98    0.77 
   8  -2  11    0.87    0.73 
   8   2  11    1.13    0.76 
  -8   2 -11    2.11    0.68 
  -8  -3  11    2.22    0.71 
  -8   3  11    2.04    0.60 
   8   3 -11    3.38    0.94 
  -7  -3  11    2.42    0.70 
   7  -3 -11    1.92    0.64 
   7   3 -11    0.25    0.74 
  -7   3  11    1.61    0.56 
   6  -3 -11    3.23    0.68 
  -6  -3  11    3.43    0.65 
  -6   3  11    2.80    0.56 
   6   3 -11    3.20    0.83 
   5  -3 -11   12.86    0.91 
  -5  -3  11   11.57    0.81 
  -5   3  11   10.61    0.76 
   5   3 -11   11.33    1.01 
   4  -3 -11   18.03    1.02 
  -4  -3  11   17.98    0.87 
  -4  -3  11   16.30    1.04 
  -4   3  11   15.45    0.80 
   3  -3 -11    9.78    0.77 
  -3  -3  11    8.55    0.61 
  -3  -3  11    8.26    0.79 
   3   3 -11    8.65    0.61 
  -3   3  11    9.18    0.67 
  -2  -3  11   11.25    0.58 
  -2  -3  11   10.43    0.85 
   2  -3 -11   10.90    0.78 
   2   3 -11    9.41    0.77 
  -2   3  11    9.56    0.68 
  -1  -3  11   16.50    1.07 
   1  -3 -11   17.53    0.94 
  -1   3  11   22.35    0.97 
   1   3 -11   19.87    0.92 
   0  -3 -11    0.87    0.45 
   0  -3  11    1.09    0.53 
   0   3  11    0.70    0.44 
   0   3 -11   -0.14    0.41 
   0   3  11    0.44    0.28 
   1  -3  11   16.37    1.03 
  -1  -3 -11   17.16    0.97 
  -1   3 -11   13.00    0.78 
   1   3  11   12.93    0.75 
   1   3  11   15.37    0.78 
  -2  -3 -11    3.97    0.63 
   2  -3  11    4.25    0.68 
   2   3  11    4.38    0.53 
  -2   3 -11    3.28    0.56 
   2   3  11    3.53    0.49 
  -3  -3 -11    4.63    0.66 
   3  -3  11    5.08    0.75 
   3   3  11    3.64    0.57 
  -3   3 -11    3.55    0.58 
   3   3  11    4.71    0.55 
  -4  -3 -11    9.46    0.66 
   4  -3  11    8.71    0.93 
  -4  -3 -11    9.32    0.85 
  -4   3 -11    9.70    0.78 
   4   3  11    9.30    0.83 
  -5  -3 -11    2.52    0.64 
  -5  -3 -11    2.98    0.49 
   5  -3  11    2.15    0.76 
   5   3  11    1.21    0.58 
  -5   3 -11    2.44    0.58 
   6  -3  11    6.00    1.06 
  -6   3 -11    8.19    0.82 
   6   3  11    6.42    0.84 
   7  -3  11    3.62    1.00 
  -7   3 -11    2.53    0.68 
   7   3  11    2.02    0.74 
  -7  -4  11    0.65    0.63 
   7  -4 -11    0.63    0.58 
   7   4 -11    1.73    0.90 
  -7   4  11    1.78    0.57 
   6  -4 -11   10.09    0.94 
  -6  -4  11   12.70    0.99 
   6   4 -11   11.73    1.15 
  -6   4  11   11.48    0.86 
   5  -4 -11    3.93    0.69 
  -5  -4  11    5.04    0.69 
   5   4 -11    3.50    0.78 
  -5   4  11    4.59    0.63 
   4  -4 -11   17.42    1.03 
  -4  -4  11   17.44    1.11 
  -4  -4  11   15.59    0.89 
  -4   4  11   16.71    0.93 
  -3  -4  11    9.84    0.90 
  -3  -4  11   10.36    0.66 
   3  -4 -11    9.38    0.81 
  -3   4  11    9.53    0.77 
   2  -4 -11    1.09    0.49 
  -2  -4  11    2.80    0.65 
   2   4 -11    1.00    0.46 
  -2   4  11    1.48    0.51 
  -1  -4  11    9.51    0.91 
   1  -4 -11    9.02    0.81 
  -1   4  11    7.01    0.77 
   1   4 -11    7.20    0.70 
   0  -4 -11   17.00    0.99 
   0  -4  11   17.81    1.23 
   0   4 -11   18.90    0.91 
   0   4  11   18.65    1.00 
   1  -4  11    4.64    0.77 
  -1  -4 -11    4.63    0.67 
  -1   4 -11    2.85    0.52 
   1   4  11    3.88    0.61 
   2  -4  11    4.91    0.76 
  -2  -4 -11    5.41    0.67 
   2   4  11    6.01    0.66 
  -2   4 -11    5.49    0.67 
  -3  -4 -11    2.50    0.60 
   3  -4  11    2.13    0.66 
  -3   4 -11    1.99    0.55 
   3   4  11    1.30    0.49 
   3   4  11    2.05    0.54 
   4  -4  11    2.48    0.74 
  -4  -4 -11    3.04    0.62 
   4   4  11    1.87    0.54 
  -4   4 -11    2.17    0.58 
  -5  -4 -11   11.47    0.82 
   5  -4  11    9.10    1.04 
  -5   4 -11    7.77    0.78 
   5   4  11    8.06    0.87 
   6  -4  11   -0.18    0.68 
   6   4  11    0.19    0.60 
  -6   4 -11    0.78    0.55 
   7  -4  11    3.18    0.96 
  -7   4 -11    3.65    0.76 
   7   4  11    2.98    0.85 
  -6  -5  11    0.96    0.62 
   6  -5 -11    1.04    0.64 
   6   5 -11   -0.03    0.71 
  -6   5  11    0.90    0.53 
  -5  -5  11   11.32    0.89 
   5  -5 -11    9.27    0.98 
  -5   5  11    9.41    0.86 
   5   5 -11    7.85    1.03 
   4  -5 -11    3.30    0.73 
  -4   5  11    4.98    0.71 
   4   5 -11    3.97    0.83 
   3  -5 -11    1.25    0.57 
  -3  -5  11    1.85    0.71 
  -3   5  11    1.79    0.59 
   2  -5 -11   13.56    0.97 
  -2  -5  11   12.81    1.06 
   2   5 -11    9.63    0.75 
  -2   5  11   11.93    0.97 
  -1  -5  11    3.72    0.75 
   1  -5 -11    4.22    0.68 
  -1   5  11    4.19    0.71 
   1   5 -11    2.49    0.56 
   0  -5 -11    2.91    0.68 
   0  -5  11    2.75    0.73 
   0   5 -11    1.79    0.51 
   0   5  11    1.80    0.61 
  -1  -5 -11    5.22    0.71 
   1  -5  11    6.18    0.97 
   1   5  11    5.65    0.74 
  -1   5 -11    4.96    0.64 
  -2  -5 -11   -0.26    0.49 
   2  -5  11   -0.04    0.58 
   2   5  11    0.81    0.53 
  -2   5 -11   -0.08    0.47 
   3  -5  11    3.95    0.83 
  -3  -5 -11    6.33    0.80 
  -3   5 -11    4.25    0.66 
   3   5  11    3.85    0.68 
  -4  -5 -11    1.97    0.65 
   4  -5  11    1.48    0.76 
   4   5  11    1.39    0.66 
  -4   5 -11    1.96    0.59 
   5  -5  11    1.12    0.76 
  -5  -5 -11    0.24    0.47 
  -5   5 -11    0.39    0.52 
   6  -5  11   -0.33    0.73 
  -6  -5 -11    0.77    0.52 
  -6   5 -11   -0.20    0.50 
   4  -6 -11    0.01    0.57 
  -4   6  11    0.07    0.55 
   4   6 -11   -0.46    0.71 
   3  -6 -11    1.57    0.67 
  -3   6  11    0.38    0.56 
   2  -6 -11    3.14    0.78 
  -2  -6  11    3.90    0.85 
  -2   6  11    3.55    0.80 
  -1  -6  11    2.03    0.70 
   1  -6 -11    1.52    0.70 
  -1   6  11    1.43    0.66 
   1   6 -11    1.52    0.55 
   0  -6 -11    4.67    0.80 
   0  -6  11    3.21    0.81 
   0   6  11    5.97    0.88 
   0   6 -11    3.86    0.66 
   1  -6  11    0.09    0.63 
  -1  -6 -11    0.04    0.56 
   1   6  11   -0.11    0.60 
  -1   6 -11    0.53    0.53 
   2  -6  11    1.23    0.88 
  -2  -6 -11    3.01    0.72 
   2   6  11    2.17    0.70 
  -2   6 -11    1.96    0.61 
  -3  -6 -11    1.49    0.67 
   3  -6  11    0.15    0.80 
   3   6  11   -0.33    0.61 
  -3   6 -11   -0.40    0.50 
   4  -6  11   -0.04    0.78 
  -4   6 -11    0.21    0.55 
   4   6  11   -0.52    0.59 
  -8   0  12    0.02    0.55 
   7   0 -12    6.72    0.90 
  -7   0  12    6.22    0.75 
  -6   0  12   21.15    0.97 
   6   0 -12   21.38    1.18 
   5   0 -12    1.26    0.44 
  -5   0  12    1.57    0.41 
   5   0 -12    1.24    0.59 
  -4   0  12   31.38    1.23 
   4   0 -12   31.98    1.18 
  -4   0  12   33.00    1.02 
  -3   0  12   75.76    1.56 
  -3   0  12   75.03    1.93 
  -2   0  12    2.75    0.31 
  -2   0  12    2.84    0.55 
   2   0 -12    2.75    0.51 
  -1   0  12  115.52    2.48 
  -1   0  12  115.73    1.92 
   0   0  12    6.69    0.60 
   0   0 -12    6.77    0.62 
   0   0  12    6.85    0.31 
  -1   0 -12   22.62    0.97 
   1   0  12   23.12    1.08 
   2   0  12   14.86    1.03 
  -2   0 -12   13.16    0.83 
   3   0  12    7.30    0.83 
  -3   0 -12    7.36    0.75 
  -4   0 -12    0.17    0.51 
   4   0  12   -0.63    0.38 
   5   0  12   15.82    1.10 
  -5   0 -12   15.71    1.03 
  -6   0 -12    0.96    0.63 
   6   0  12    1.21    0.60 
  -7   0 -12   -0.13    0.62 
   7   0  12    0.31    0.59 
   8   0  12    2.10    0.76 
  -8  -1  12    6.18    0.80 
  -8   1  12    7.32    0.83 
   8   1 -12    8.11    1.14 
  -7  -1  12   13.23    0.93 
   7   1 -12   11.78    1.18 
  -7   1  12   12.56    0.88 
   6  -1 -12    3.30    0.59 
  -6  -1  12    3.24    0.57 
  -6   1  12    3.86    0.57 
   6   1 -12    4.81    0.82 
  -5  -1  12   39.38    1.26 
   5  -1 -12   38.27    1.35 
  -5   1  12   40.70    1.22 
   5   1 -12   36.29    1.47 
   5   1 -12   38.36    1.24 
  -4  -1  12   18.04    1.03 
  -4  -1  12   18.11    0.80 
   4  -1 -12   18.37    0.96 
   4   1 -12   14.91    0.91 
  -4   1  12   14.68    0.72 
  -4   1  12   14.06    0.77 
  -3  -1  12   17.87    0.71 
  -3  -1  12   18.10    0.98 
   3  -1 -12   17.00    0.91 
   3   1 -12   17.74    0.88 
  -3   1  12   15.62    0.79 
  -3   1  12   16.77    0.69 
  -2  -1  12   81.06    2.23 
  -2  -1  12   82.89    1.58 
  -2   1  12   78.59    1.97 
   2   1 -12   84.70    1.89 
  -2   1  12   84.39    1.64 
  -1  -1  12   24.61    1.09 
   1  -1 -12   25.07    1.08 
   1   1 -12   22.29    0.94 
  -1   1  12   22.31    0.91 
  -1   1  12   22.28    0.69 
   0  -1  12   29.55    1.20 
   0  -1 -12   27.57    1.10 
   0   1  12   30.94    0.80 
   0   1 -12   30.06    1.11 
   0   1  12   28.97    1.05 
   1  -1  12   40.45    1.40 
  -1  -1 -12   37.20    1.24 
   1   1  12   31.05    0.82 
  -1   1 -12   32.12    1.22 
   1   1  12   30.94    1.20 
  -2  -1 -12    3.33    0.56 
   2  -1  12    3.04    0.62 
   2   1  12    3.49    0.64 
  -2   1 -12    2.97    0.69 
  -3  -1 -12   21.27    0.99 
   3  -1  12   20.67    1.23 
   3   1  12   18.53    1.03 
  -3   1 -12   17.44    1.10 
   4  -1  12    5.05    0.81 
  -4  -1 -12    5.33    0.65 
  -4   1 -12    5.77    0.78 
   4   1  12    4.70    0.69 
  -5  -1 -12    0.65    0.52 
   5  -1  12    0.65    0.63 
   5   1  12    0.41    0.51 
  -5   1 -12    1.20    0.67 
   6  -1  12    2.43    0.73 
  -6  -1 -12    3.30    0.64 
  -6   1 -12    4.09    0.77 
   6   1  12    2.39    0.70 
   7  -1  12    2.20    0.73 
  -7  -1 -12    2.03    0.61 
  -7   1 -12    2.08    0.79 
   7   1  12    1.52    0.69 
   8  -1  12    0.56    0.67 
  -8   1 -12    0.84    0.85 
   8   1  12   -0.20    0.60 
  -8  -2  12    5.74    0.80 
  -8   2  12    5.87    0.75 
   8   2 -12    7.23    1.08 
  -7  -2  12    5.70    0.77 
   7  -2 -12    6.78    0.80 
   7   2 -12    7.99    1.07 
  -7   2  12    6.61    0.74 
   6  -2 -12   24.13    1.18 
  -6  -2  12   23.39    1.10 
   6   2 -12   25.56    1.43 
  -6   2  12   25.93    1.09 
   5  -2 -12    0.52    0.49 
  -5  -2  12    0.26    0.38 
   5   2 -12   -0.07    0.61 
  -5   2  12    0.29    0.37 
   4  -2 -12   20.23    1.02 
  -4  -2  12   22.43    0.90 
  -4  -2  12   19.38    1.11 
  -4   2  12   21.68    0.88 
   4   2 -12   19.45    0.88 
  -3  -2  12   50.73    1.68 
  -3  -2  12   50.18    1.28 
   3  -2 -12   51.24    1.55 
   3   2 -12   45.60    1.31 
  -3   2  12   48.95    1.28 
  -2  -2  12    3.60    0.66 
   2  -2 -12    3.17    0.56 
  -2   2  12    3.25    0.44 
   2   2 -12    2.84    0.51 
  -2   2  12    3.46    0.48 
   1  -2 -12   57.66    1.71 
  -1  -2  12   59.37    1.82 
   1   2 -12   64.56    1.71 
  -1   2  12   61.51    1.46 
  -1   2  12   64.77    1.54 
   0  -2  12   38.14    1.41 
   0  -2 -12   38.37    1.50 
   0   2 -12   42.70    1.51 
   0   2  12   42.58    1.20 
   0   2  12   44.18    1.28 
  -1  -2 -12    7.03    0.78 
   1  -2  12    7.37    0.75 
   1   2  12    6.70    0.56 
   1   2  12    7.26    0.66 
  -1   2 -12    7.89    0.75 
   2  -2  12   29.67    1.31 
  -2  -2 -12   27.57    1.17 
   2   2  12   27.81    1.20 
   2   2  12   26.18    0.88 
  -2   2 -12   25.85    1.07 
   3  -2  12   11.96    1.01 
  -3  -2 -12   14.09    0.89 
   3   2  12   10.31    0.85 
  -3   2 -12    9.97    0.83 
   4  -2  12    4.96    0.85 
  -4  -2 -12    5.22    0.69 
   4   2  12    3.80    0.65 
  -4   2 -12    4.43    0.66 
  -5  -2 -12    3.54    0.64 
   5  -2  12    3.19    0.84 
   5   2  12    5.36    0.76 
  -5   2 -12    3.55    0.70 
   6  -2  12    0.93    0.74 
  -6  -2 -12    1.01    0.59 
  -6   2 -12    0.93    0.59 
   6   2  12    0.26    0.54 
   7  -2  12    2.53    0.91 
  -7   2 -12    2.05    0.72 
   7   2  12    2.20    0.72 
   7  -3 -12    4.94    0.81 
  -7  -3  12    4.01    0.76 
  -7   3  12    5.27    0.70 
   7   3 -12    3.73    0.92 
   6  -3 -12    0.56    0.59 
  -6  -3  12   -0.27    0.47 
  -6   3  12    0.03    0.43 
   6   3 -12    0.08    0.74 
  -5  -3  12   11.19    0.82 
   5  -3 -12   10.81    0.87 
  -5   3  12   12.07    0.80 
   5   3 -12   13.98    1.12 
  -4  -3  12   23.45    0.99 
   4  -3 -12   22.75    1.15 
  -4  -3  12   24.10    1.30 
  -4   3  12   26.47    1.06 
  -3  -3  12   17.16    1.06 
   3  -3 -12   17.72    1.01 
  -3   3  12   20.88    0.91 
   3   3 -12   20.81    0.91 
  -2  -3  12   33.37    1.43 
   2  -3 -12   32.15    1.27 
   2   3 -12   31.31    1.18 
  -2   3  12   33.90    1.15 
   1  -3 -12   12.90    0.87 
  -1  -3  12   13.01    1.05 
  -1   3  12   13.05    0.81 
   1   3 -12   15.19    0.92 
   0  -3 -12   16.46    0.97 
   0  -3  12   18.20    1.08 
   0   3 -12   15.24    0.85 
   0   3  12   15.17    0.84 
   1  -3  12   33.86    1.42 
  -1  -3 -12   33.07    1.33 
  -1   3 -12   38.77    1.30 
   1   3  12   35.33    1.18 
   1   3  12   35.27    1.28 
   2  -3  12    2.72    0.68 
  -2  -3 -12    3.46    0.68 
   2   3  12    3.43    0.53 
   2   3  12    3.18    0.54 
  -2   3 -12    3.46    0.60 
   3  -3  12   10.88    0.96 
  -3  -3 -12    8.93    0.97 
   3   3  12    9.88    0.79 
  -3   3 -12    9.38    0.79 
   3   3  12    9.43    0.71 
  -4  -3 -12    1.20    0.71 
   4  -3  12    2.16    0.70 
   4   3  12    0.55    0.49 
  -4   3 -12    0.63    0.53 
   4   3  12    0.42    0.44 
   5  -3  12    1.29    0.71 
  -5  -3 -12    0.93    0.83 
   5   3  12    1.60    0.61 
  -5   3 -12    1.76    0.62 
   6  -3  12    1.34    0.82 
   6   3  12    2.39    0.74 
  -6   3 -12    1.74    0.67 
   7  -3  12    3.15    1.02 
  -7   3 -12    4.14    0.75 
   7   3  12    5.88    0.95 
   6  -4 -12    1.96    0.67 
  -6  -4  12    2.15    0.64 
   6   4 -12    3.96    0.93 
  -6   4  12    2.21    0.61 
  -5  -4  12    2.96    0.61 
   5  -4 -12    1.70    0.67 
  -5   4  12    3.42    0.60 
   5   4 -12    3.41    0.89 
   4  -4 -12    5.98    0.79 
  -4  -4  12    6.04    0.86 
  -4   4  12    7.63    0.74 
  -3  -4  12   11.64    1.00 
   3  -4 -12   10.84    0.88 
  -3   4  12   14.91    0.90 
  -2  -4  12    0.46    0.56 
   2  -4 -12    1.36    0.57 
  -2   4  12    2.19    0.56 
   2   4 -12    1.67    0.57 
  -1  -4  12   16.73    1.21 
   1  -4 -12   16.87    1.03 
  -1   4  12   17.62    1.06 
   1   4 -12   19.18    0.99 
   0  -4 -12   10.57    0.90 
   0  -4  12    9.96    1.03 
   0   4 -12   11.17    0.80 
   0   4  12   10.63    0.86 
   1  -4  12    5.08    0.82 
  -1  -4 -12    3.98    0.69 
  -1   4 -12    3.22    0.59 
   1   4  12    4.22    0.64 
  -2  -4 -12    3.59    0.68 
   2  -4  12    3.78    0.74 
  -2   4 -12    3.23    0.65 
   2   4  12    4.15    0.64 
   3  -4  12    2.22    0.70 
  -3  -4 -12    0.90    0.57 
   3   4  12    2.43    0.57 
  -3   4 -12    0.76    0.52 
  -4  -4 -12    4.97    0.77 
   4  -4  12    4.82    0.85 
   4   4  12    3.84    0.68 
  -4   4 -12    3.41    0.65 
   4   4  12    4.91    0.68 
   5  -4  12    1.72    0.77 
  -5   4 -12    1.57    0.58 
   5   4  12    1.39    0.66 
   6  -4  12    1.11    0.80 
   6   4  12    0.94    0.65 
  -6   4 -12    1.16    0.60 
   5  -5 -12    5.22    0.86 
  -5   5  12    5.20    0.73 
   5   5 -12    5.49    0.96 
   4  -5 -12    5.02    0.80 
   4   5 -12    4.44    0.83 
  -4   5  12    5.73    0.77 
  -3  -5  12    3.45    0.79 
   3  -5 -12    2.47    0.64 
  -3   5  12    3.90    0.70 
   2  -5 -12    6.84    0.85 
  -2  -5  12    6.36    0.87 
  -2   5  12    4.44    0.75 
   1  -5 -12    0.60    0.61 
  -1  -5  12    1.11    0.70 
  -1   5  12    1.67    0.68 
   1   5 -12    1.17    0.56 
   0  -5 -12    2.11    0.62 
   0  -5  12    1.51    0.75 
   0   5 -12    1.63    0.58 
   0   5  12    1.68    0.65 
  -1  -5 -12    4.11    0.74 
   1  -5  12    4.27    0.91 
  -1   5 -12    3.82    0.65 
   1   5  12    3.82    0.71 
   2  -5  12   -0.07    0.58 
  -2  -5 -12   -0.24    0.59 
   2   5  12    0.06    0.53 
  -2   5 -12    0.34    0.56 
   3  -5  12    3.51    0.82 
  -3  -5 -12    4.23    0.80 
  -3   5 -12    2.48    0.66 
   3   5  12    3.62    0.73 
  -4  -5 -12    2.56    0.71 
   4  -5  12    2.63    0.77 
  -4   5 -12    1.02    0.59 
   4   5  12    2.14    0.69 
   5  -5  12    0.94    0.79 
   5   5  12    0.26    0.62 
  -5   5 -12    0.54    0.56 
   3  -6 -12    3.32    0.77 
  -3   6  12    3.85    0.78 
  -2  -6  12    0.28    0.69 
   2  -6 -12    0.78    0.61 
  -2   6  12    0.81    0.67 
  -1  -6  12    5.09    0.88 
   1  -6 -12    4.40    0.80 
  -1   6  12    4.84    0.89 
   1   6 -12    3.85    0.67 
   0  -6 -12   -0.07    0.60 
   0  -6  12    0.49    0.75 
   0   6 -12    0.85    0.61 
   0   6  12    0.64    0.67 
   1  -6  12    0.23    0.79 
  -1  -6 -12    0.89    0.68 
   1   6  12   -0.41    0.60 
  -1   6 -12    0.03    0.54 
  -2  -6 -12    0.90    0.68 
   2  -6  12   -0.27    0.82 
   2   6  12   -0.59    0.57 
  -2   6 -12    0.78    0.56 
  -3  -6 -12    2.07    0.70 
   3  -6  12   -0.48    0.78 
  -3   6 -12   -0.11    0.56 
   3   6  12    1.23    0.67 
  -8   0  13    3.68    0.73 
  -7   0  13    2.22    0.62 
   6   0 -13   10.80    1.01 
  -6   0  13   12.50    0.81 
   5   0 -13    2.60    0.56 
   5   0 -13    1.74    0.69 
  -5   0  13    2.27    0.47 
  -4   0  13    3.56    0.60 
   4   0 -13    2.99    0.62 
  -4   0  13    3.10    0.45 
  -3   0  13    7.83    0.50 
   3   0 -13    9.09    0.81 
  -3   0  13    7.63    0.76 
  -2   0  13    0.20    0.21 
  -2   0  13    0.03    0.38 
   2   0 -13   -0.28    0.38 
  -1   0  13    0.61    0.41 
   1   0 -13    1.16    0.44 
   0   0  13   90.32    2.20 
   0   0 -13   91.34    2.07 
  -1   0 -13    8.65    0.71 
   1   0  13    9.78    0.78 
   2   0  13   26.00    1.26 
  -2   0 -13   24.54    1.09 
   3   0  13   12.37    1.09 
  -3   0 -13   13.23    0.89 
   4   0  13   -0.34    0.54 
  -4   0 -13   -0.15    0.50 
  -5   0 -13    7.81    0.84 
   5   0  13    7.17    0.90 
  -6   0 -13    1.54    0.63 
   6   0  13    0.40    0.60 
  -7   0 -13    0.17    0.66 
   7   0  13    0.31    0.67 
  -8  -1  13    2.35    0.64 
  -8   1  13    2.46    0.63 
   8   1 -13    1.05    0.89 
  -7  -1  13    5.47    0.72 
   7   1 -13    7.81    1.06 
  -7   1  13    5.85    0.73 
  -6  -1  13    2.55    0.57 
   6  -1 -13    3.01    0.62 
   6   1 -13    2.47    0.79 
  -6   1  13    2.33    0.52 
   5  -1 -13    5.74    0.71 
  -5  -1  13    5.38    0.61 
  -5   1  13    8.16    0.65 
   5   1 -13    7.19    0.86 
   4  -1 -13    2.81    0.56 
  -4  -1  13    2.35    0.57 
  -4  -1  13    2.59    0.46 
  -4   1  13    2.41    0.43 
  -4   1  13    3.26    0.52 
   4   1 -13    2.44    0.57 
  -3  -1  13    0.33    0.28 
  -3  -1  13    0.85    0.55 
   3  -1 -13    0.84    0.50 
  -3   1  13    0.49    0.32 
  -3   1  13    0.59    0.38 
   3   1 -13    0.87    0.46 
  -2  -1  13   30.41    1.34 
   2  -1 -13   31.07    1.32 
  -2   1  13   21.71    0.97 
  -2   1  13   21.29    0.73 
   2   1 -13   22.88    0.98 
   1  -1 -13   35.09    1.29 
  -1  -1  13   37.17    1.36 
   1   1 -13   37.43    1.25 
  -1   1  13   39.77    1.27 
  -1   1  13   41.90    1.00 
   0  -1 -13    6.87    0.67 
   0  -1  13    6.50    0.68 
   0   1  13    3.99    0.36 
   0   1 -13    4.74    0.59 
   0   1  13    4.70    0.57 
  -1  -1 -13   35.53    1.27 
   1  -1  13   33.74    1.37 
  -1   1 -13   42.16    1.39 
   1   1  13   41.17    1.43 
   2  -1  13    9.19    0.88 
  -2  -1 -13    9.55    0.79 
  -2   1 -13    8.34    0.82 
   2   1  13    7.60    0.82 
  -3  -1 -13    5.45    0.66 
   3  -1  13    6.79    0.85 
  -3   1 -13    6.48    0.85 
   3   1  13    6.31    0.81 
   4  -1  13   14.91    1.24 
  -4  -1 -13   16.26    0.92 
   4   1  13   14.76    1.10 
  -4   1 -13   15.34    1.18 
   5  -1  13    1.76    0.72 
  -5  -1 -13    1.65    0.58 
   5   1  13    1.66    0.66 
  -5   1 -13    2.06    0.80 
   6  -1  13    2.68    0.81 
  -6  -1 -13    2.39    0.65 
  -6   1 -13    2.37    0.85 
   6   1  13    1.86    0.69 
   7  -1  13    1.34    0.75 
  -7  -1 -13    2.29    0.64 
   7   1  13    0.86    0.70 
  -7   1 -13    1.87    0.94 
  -7  -2  13    3.97    0.72 
  -7   2  13    4.10    0.67 
   7   2 -13    4.48    0.95 
  -6  -2  13    9.61    0.81 
   6  -2 -13    9.22    0.89 
   6   2 -13    7.36    0.99 
  -6   2  13    7.69    0.71 
   5  -2 -13   -0.01    0.47 
  -5  -2  13    0.27    0.41 
   5   2 -13    1.14    0.66 
  -5   2  13    0.84    0.41 
   4  -2 -13    3.88    0.66 
  -4  -2  13    4.92    0.76 
  -4  -2  13    4.85    0.54 
   4   2 -13    2.13    0.50 
  -4   2  13    2.77    0.48 
   3  -2 -13   21.33    1.10 
  -3  -2  13   23.07    1.22 
   3   2 -13   27.16    1.07 
  -3   2  13   28.40    0.99 
  -2  -2  13    3.03    0.69 
   2  -2 -13    2.91    0.62 
  -2   2  13    2.62    0.43 
   2   2 -13    2.49    0.54 
   1  -2 -13   40.22    1.58 
  -1  -2  13   44.63    1.57 
  -1   2  13   41.42    1.16 
   1   2 -13   41.09    1.36 
  -1   2  13   43.67    1.26 
   0  -2 -13    6.98    0.83 
   0  -2  13    6.72    0.72 
   0   2  13    7.71    0.58 
   0   2 -13    8.43    0.80 
   0   2  13    8.39    0.61 
  -1  -2 -13    0.42    0.50 
   1  -2  13    1.64    0.56 
   1   2  13    0.82    0.36 
  -1   2 -13    0.98    0.59 
   1   2  13    1.00    0.48 
  -2  -2 -13    4.98    0.72 
   2  -2  13    3.69    0.65 
   2   2  13    7.58    0.81 
  -2   2 -13    6.68    0.79 
  -3  -2 -13   32.35    1.30 
   3  -2  13   30.54    1.47 
  -3   2 -13   34.25    1.40 
   3   2  13   37.53    1.47 
  -4  -2 -13    2.57    0.66 
   4  -2  13    1.43    0.71 
  -4   2 -13    1.08    0.58 
   4   2  13    2.02    0.61 
   5  -2  13    8.78    1.10 
  -5  -2 -13    8.36    0.86 
   5   2  13    5.85    0.84 
  -5   2 -13    7.35    0.84 
   6  -2  13    0.84    0.76 
  -6  -2 -13    0.29    0.60 
   6   2  13   -0.37    0.57 
  -6   2 -13    0.23    0.65 
   7  -2  13    0.17    0.80 
  -7   2 -13    0.83    0.73 
   7   2  13    0.29    0.67 
  -7  -3  13    5.45    0.78 
   7  -3 -13    6.33    0.89 
  -7   3  13    4.43    0.68 
   7   3 -13    4.08    0.96 
   6  -3 -13    0.61    0.61 
  -6  -3  13    0.15    0.48 
  -6   3  13    0.21    0.46 
   6   3 -13    0.34    0.83 
   5  -3 -13   13.41    1.03 
  -5  -3  13   14.25    0.89 
   5   3 -13   13.65    1.14 
  -5   3  13   13.52    0.85 
  -4  -3  13    7.58    0.89 
   4  -3 -13    3.67    0.67 
  -4   3  13   10.77    0.75 
   3  -3 -13    4.87    0.72 
  -3  -3  13    2.47    0.67 
   3   3 -13    6.64    0.70 
  -3   3  13    5.25    0.60 
  -2  -3  13    1.86    0.64 
   2  -3 -13    1.89    0.58 
   2   3 -13    4.53    0.61 
  -2   3  13    5.55    0.60 
   1  -3 -13    7.31    0.78 
  -1  -3  13    9.65    0.93 
  -1   3  13    7.22    0.71 
   1   3 -13    6.05    0.79 
   0  -3 -13    3.18    0.68 
   0  -3  13    2.11    0.59 
   0   3 -13    4.13    0.66 
   0   3  13    4.30    0.61 
   1  -3  13   16.58    1.07 
  -1  -3 -13   14.95    1.08 
   1   3  13   16.95    0.92 
  -1   3 -13   16.81    0.95 
  -2  -3 -13    4.04    0.86 
   2  -3  13    4.12    0.76 
   2   3  13    3.16    0.62 
   2   3  13    3.81    0.55 
  -2   3 -13    2.11    0.59 
  -3  -3 -13   10.91    1.05 
   3  -3  13   12.09    1.03 
   3   3  13    9.34    0.83 
  -3   3 -13    8.83    0.86 
  -4  -3 -13    3.04    0.81 
   4  -3  13    2.78    0.78 
   4   3  13    0.90    0.57 
  -4   3 -13    2.22    0.65 
  -5  -3 -13    1.16    0.75 
   5  -3  13    2.17    0.81 
  -5   3 -13    2.45    0.73 
   5   3  13    2.55    0.72 
   6  -3  13    1.74    0.82 
   6   3  13    1.86    0.66 
  -6   3 -13    2.82    0.74 
   6  -4 -13    1.08    0.62 
   6   4 -13    0.17    0.77 
  -6   4  13    1.30    0.55 
   5  -4 -13    1.01    0.62 
  -5   4  13    0.42    0.48 
   5   4 -13    0.73    0.79 
  -4  -4  13    2.76    0.77 
   4  -4 -13    2.24    0.67 
  -4   4  13    4.10    0.64 
   3  -4 -13    2.41    0.66 
  -3  -4  13    3.80    0.79 
  -3   4  13    3.92    0.64 
  -2  -4  13    1.45    0.72 
   2  -4 -13    0.73    0.56 
   2   4 -13    0.79    0.58 
  -2   4  13    1.27    0.54 
  -1  -4  13    1.26    0.72 
   1  -4 -13    1.51    0.61 
   1   4 -13    2.32    0.61 
  -1   4  13    3.24    0.68 
   0  -4 -13    3.74    0.73 
   0  -4  13    2.76    0.74 
   0   4 -13    2.98    0.62 
   0   4  13    3.90    0.68 
   1  -4  13   -0.26    0.54 
  -1  -4 -13    0.67    0.55 
  -1   4 -13    0.00    0.55 
   1   4  13    0.64    0.57 
  -2  -4 -13    7.37    0.89 
   2  -4  13    6.80    0.86 
   2   4  13    6.89    0.74 
  -2   4 -13    6.66    0.77 
   3  -4  13    1.30    0.69 
  -3  -4 -13    3.42    0.77 
   3   4  13    2.74    0.60 
  -3   4 -13    1.63    0.60 
  -4  -4 -13    0.12    0.60 
   4  -4  13    1.29    0.71 
  -4   4 -13    0.29    0.56 
   5  -4  13    0.84    0.68 
   5   4  13    0.90    0.60 
  -5   4 -13   -0.17    0.54 
   6  -4  13    0.18    0.80 
   6   4  13    0.47    0.64 
  -6   4 -13   -0.22    0.59 
   5  -5 -13    3.16    0.78 
   5   5 -13    2.18    0.84 
  -5   5  13    2.74    0.65 
   4  -5 -13    0.89    0.63 
  -4   5  13    1.22    0.57 
  -3  -5  13   -0.44    0.60 
   3  -5 -13   -0.03    0.53 
  -3   5  13    0.39    0.57 
  -2  -5  13    2.35    0.74 
   2  -5 -13    3.46    0.74 
  -2   5  13    3.52    0.72 
  -1  -5  13    0.71    0.76 
   1  -5 -13    3.05    0.74 
   1   5 -13    2.35    0.63 
  -1   5  13    2.91    0.72 
   0  -5 -13   -0.19    0.53 
   0  -5  13    0.19    0.74 
   0   5 -13    0.87    0.60 
   0   5  13    1.18    0.68 
  -1  -5 -13    5.51    0.89 
   1  -5  13    4.53    0.92 
  -1   5 -13    3.60    0.69 
   1   5  13    6.18    0.85 
  -2  -5 -13    3.00    0.78 
   2  -5  13    4.20    0.90 
   2   5  13    4.64    0.83 
  -2   5 -13    3.14    0.70 
   3  -5  13    0.84    0.71 
  -3  -5 -13    0.50    0.68 
  -3   5 -13    0.90    0.62 
   3   5  13    0.22    0.60 
  -4  -5 -13    3.29    0.79 
   4  -5  13    2.59    0.85 
  -4   5 -13    0.26    0.59 
   4   5  13    1.92    0.69 
   2  -6 -13   -0.50    0.60 
  -2  -6  13    1.60    0.79 
  -2   6  13    1.68    0.74 
  -1  -6  13    0.26    0.71 
   1  -6 -13   -0.49    0.58 
  -1   6  13    0.38    0.67 
   0  -6 -13    2.28    0.74 
   0  -6  13    2.06    0.88 
   0   6 -13    1.42    0.65 
   0   6  13    1.49    0.70 
  -1  -6 -13    1.27    0.72 
   1  -6  13    0.74    0.86 
   1   6  13    0.63    0.68 
  -1   6 -13    1.76    0.69 
  -2  -6 -13    3.45    0.82 
   2  -6  13    0.14    0.79 
   2   6  13    1.30    0.72 
  -2   6 -13    1.27    0.64 
  -7   0  14    2.15    0.62 
   6   0 -14   29.19    1.44 
  -6   0  14   26.70    1.13 
   5   0 -14   10.38    1.06 
   5   0 -14   11.75    0.89 
  -5   0  14   12.68    0.76 
  -4   0  14    0.17    0.33 
  -4   0  14   -0.27    0.45 
   4   0 -14    0.31    0.58 
   3   0 -14   60.85    1.76 
  -3   0  14   61.75    1.96 
  -3   0  14   62.54    1.42 
   2   0 -14    0.29    0.46 
  -2   0  14   -0.39    0.40 
  -1   0  14   37.78    1.40 
   1   0 -14   38.64    1.33 
   0   0  14   22.57    1.12 
   0   0 -14   24.52    1.07 
   1   0  14    1.31    0.50 
  -1   0 -14    1.28    0.48 
   2   0  14    6.03    0.77 
  -2   0 -14    6.34    0.75 
  -3   0 -14   17.94    1.03 
   3   0  14   16.68    1.21 
   4   0  14   -0.11    0.59 
  -4   0 -14   -0.57    0.55 
   5   0  14    1.96    0.71 
  -5   0 -14    0.17    0.57 
   6   0  14    9.05    1.07 
  -6   0 -14    9.31    0.97 
  -7   0 -14   -0.31    0.66 
   7   0  14   -0.24    0.69 
  -7  -1  14   18.77    1.06 
   7   1 -14   22.78    1.50 
  -7   1  14   22.80    1.14 
  -6  -1  14    5.00    0.67 
   6  -1 -14    5.33    0.74 
   6   1 -14    3.48    0.89 
  -6   1  14    3.45    0.59 
   5  -1 -14   25.76    1.21 
  -5  -1  14   25.80    1.04 
  -5   1  14   25.44    1.04 
   5   1 -14   25.83    1.36 
  -4  -1  14   25.02    1.31 
  -4  -1  14   28.33    0.99 
   4  -1 -14   26.45    1.25 
  -4   1  14   28.79    1.00 
   4   1 -14   27.15    1.17 
   3  -1 -14    3.33    0.77 
  -3  -1  14    2.96    0.68 
   3   1 -14    3.74    0.60 
  -3   1  14    4.12    0.66 
  -3   1  14    4.13    0.46 
   2  -1 -14   17.65    1.03 
  -2  -1  14   17.57    1.05 
   2   1 -14   23.76    1.02 
  -2   1  14   22.95    1.07 
  -2   1  14   21.56    0.77 
  -1  -1  14    9.95    0.82 
   1  -1 -14    9.97    0.79 
   1   1 -14   15.66    0.87 
  -1   1  14   14.98    0.87 
   0  -1  14   14.94    0.94 
   0  -1 -14   15.36    0.90 
   0   1  14   18.80    0.98 
   0   1 -14   16.48    0.98 
  -1  -1 -14   20.53    1.04 
   1  -1  14   19.84    1.12 
  -1   1 -14   19.38    1.01 
   1   1  14   19.76    1.04 
  -2  -1 -14    4.39    0.65 
   2  -1  14    4.49    0.74 
  -2   1 -14    3.47    0.66 
   2   1  14    4.57    0.73 
  -3  -1 -14    2.19    0.59 
   3  -1  14    1.87    0.64 
   3   1  14    1.31    0.61 
  -3   1 -14    1.13    0.65 
  -4  -1 -14   16.96    1.03 
   4  -1  14   14.29    1.28 
   4   1  14   16.05    1.23 
  -4   1 -14   17.66    1.18 
   5  -1  14    2.82    0.82 
  -5  -1 -14    2.74    0.65 
   5   1  14    2.03    0.73 
  -5   1 -14    2.49    0.80 
   6  -1  14    1.27    0.81 
  -6  -1 -14    1.81    0.61 
   6   1  14    1.07    0.67 
  -6   1 -14    0.97    0.81 
   7  -1  14    2.84    0.89 
  -7  -1 -14    1.04    0.63 
  -7   1 -14    3.99    0.93 
   7   1  14    1.32    0.77 
  -7  -2  14    3.05    0.70 
   7   2 -14    2.17    0.90 
  -7   2  14    2.91    0.62 
   6  -2 -14   12.87    1.02 
  -6  -2  14   15.96    0.99 
  -6   2  14   15.13    0.90 
   6   2 -14   11.64    1.25 
  -5  -2  14   13.34    0.82 
   5  -2 -14   13.42    1.00 
   5   2 -14   14.54    1.21 
  -5   2  14   14.18    0.84 
   4  -2 -14   12.69    0.95 
  -4  -2  14   13.31    1.08 
   4   2 -14   13.83    0.84 
  -4   2  14   15.40    0.81 
  -3  -2  14   17.87    1.25 
   3  -2 -14   16.06    1.04 
  -3   2  14   23.40    0.92 
   3   2 -14   23.99    1.06 
  -2  -2  14    2.73    0.70 
   2  -2 -14    3.43    0.71 
   2   2 -14    1.81    0.54 
  -2   2  14    1.93    0.42 
   1  -2 -14    7.60    0.89 
  -1  -2  14    7.93    0.88 
   1   2 -14    6.27    0.71 
  -1   2  14    7.87    0.61 
  -1   2  14    6.59    0.55 
   0  -2 -14   20.37    1.14 
   0  -2  14   22.26    1.15 
   0   2  14   20.32    0.96 
   0   2 -14   21.18    1.10 
   0   2  14   21.80    0.84 
  -1  -2 -14    0.92    0.58 
   1  -2  14    1.46    0.54 
   1   2  14    1.22    0.48 
  -1   2 -14    1.23    0.60 
   2  -2  14    5.56    0.77 
  -2  -2 -14    6.58    0.78 
   2   2  14    7.92    0.91 
  -2   2 -14    6.26    0.93 
  -3  -2 -14   13.22    0.93 
   3  -2  14   11.54    1.03 
   3   2  14   16.21    1.13 
  -3   2 -14   16.02    1.16 
  -4  -2 -14    4.41    0.72 
   4  -2  14    4.65    0.88 
  -4   2 -14    3.36    0.78 
   4   2  14    3.65    0.75 
  -5  -2 -14    9.23    0.93 
   5  -2  14   10.49    1.22 
  -5   2 -14    8.06    0.97 
   5   2  14    9.20    1.04 
  -6  -2 -14    0.96    0.67 
   6  -2  14    0.20    0.74 
  -6   2 -14    0.59    0.74 
   6   2  14    1.17    0.68 
   6  -3 -14    1.58    0.64 
   6   3 -14    2.24    0.86 
  -6   3  14    1.50    0.52 
   5  -3 -14    9.03    0.91 
   5   3 -14    6.95    0.98 
  -5   3  14    9.26    0.77 
   4  -3 -14    3.61    0.70 
  -4  -3  14    3.70    0.81 
  -4   3  14    3.64    0.58 
   3  -3 -14    2.39    0.68 
  -3  -3  14    1.73    0.69 
  -3   3  14    1.44    0.45 
   3   3 -14    1.41    0.52 
   2  -3 -14   13.35    1.01 
  -2  -3  14   13.77    1.11 
   2   3 -14   15.39    0.94 
  -2   3  14   15.94    0.85 
   1  -3 -14   15.87    1.06 
  -1  -3  14   17.82    1.16 
  -1   3  14   18.72    0.93 
   1   3 -14   17.88    1.10 
   0  -3  14    5.04    0.77 
   0  -3 -14    4.89    0.87 
   0   3  14    4.15    0.62 
   0   3 -14    3.95    0.78 
   1  -3  14   10.46    0.96 
  -1  -3 -14   12.97    1.22 
   1   3  14   15.36    0.92 
  -1   3 -14   14.63    1.06 
  -2  -3 -14    2.01    0.74 
   2  -3  14    1.17    0.65 
  -2   3 -14    1.62    0.60 
   2   3  14    0.79    0.58 
   3  -3  14    5.42    0.87 
  -3  -3 -14    5.13    0.83 
   3   3  14    5.61    0.79 
  -3   3 -14    6.00    0.79 
  -4  -3 -14    4.66    0.80 
   4  -3  14    4.76    0.92 
   4   3  14    3.44    0.73 
  -4   3 -14    4.59    0.79 
  -5  -3 -14    7.53    0.94 
   5  -3  14    7.50    1.09 
  -5   3 -14    5.60    0.85 
   5   3  14    5.80    0.88 
   6  -3  14    4.30    1.00 
   6   3  14    2.13    0.76 
  -6   3 -14    4.52    0.85 
   5  -4 -14    8.25    0.94 
   5   4 -14    6.76    1.09 
  -5   4  14    8.26    0.81 
  -4  -4  14    5.57    0.94 
   4  -4 -14    8.08    0.89 
  -4   4  14    6.39    0.72 
  -3  -4  14   16.21    1.23 
   3  -4 -14   17.49    1.16 
  -3   4  14   17.89    1.00 
  -2  -4  14    3.23    0.89 
   2  -4 -14    3.59    0.74 
  -2   4  14    5.90    0.75 
   2   4 -14    6.32    0.80 
   1  -4 -14    5.98    0.86 
  -1  -4  14    6.09    0.96 
   1   4 -14    6.19    0.88 
  -1   4  14    7.32    0.83 
   0  -4  14    3.57    0.80 
   0  -4 -14    4.28    0.81 
   0   4  14    5.92    0.82 
   0   4 -14    4.71    0.75 
  -1  -4 -14    6.31    0.85 
   1  -4  14    6.10    0.87 
   1   4  14    5.35    0.75 
  -1   4 -14    3.78    0.74 
   2  -4  14    5.61    0.86 
  -2  -4 -14    6.94    0.92 
   2   4  14    9.34    0.85 
  -2   4 -14    7.57    0.87 
  -3  -4 -14    7.05    1.00 
   3  -4  14    7.61    0.99 
  -3   4 -14    8.08    0.90 
   4  -4  14    1.01    0.73 
  -4  -4 -14    2.14    0.79 
  -4   4 -14    0.67    0.64 
   5  -4  14    6.36    0.99 
  -5   4 -14    4.11    0.79 
   4  -5 -14    8.54    0.97 
  -4   5  14    7.27    0.83 
   3  -5 -14    1.67    0.69 
  -3  -5  14    0.66    0.76 
  -3   5  14    2.09    0.65 
  -2  -5  14    4.24    0.93 
   2  -5 -14    3.06    0.79 
  -2   5  14    3.85    0.76 
  -1  -5  14    2.39    0.95 
   1  -5 -14    1.58    0.71 
  -1   5  14    2.09    0.77 
   1   5 -14    1.51    0.67 
   0  -5  14    0.32    0.71 
   0  -5 -14   -0.10    0.64 
   0   5  14    1.59    0.70 
   0   5 -14    0.52    0.63 
   1  -5  14    4.20    0.94 
  -1  -5 -14    3.09    0.83 
  -1   5 -14    5.60    0.81 
   1   5  14    6.21    0.90 
   2  -5  14    1.27    0.78 
  -2  -5 -14    2.34    0.76 
  -2   5 -14    1.47    0.65 
   2   5  14    1.37    0.67 
   3  -5  14    0.17    0.71 
  -3  -5 -14    1.61    0.79 
   3   5  14    0.62    0.60 
  -3   5 -14    1.13    0.66 
  -7   0  15    0.39    0.52 
  -6   0  15    6.53    0.74 
  -5   0  15    5.40    0.60 
   5   0 -15    6.76    0.96 
   5   0 -15    6.47    0.84 
  -4   0  15    2.18    0.45 
   4   0 -15    1.46    0.62 
  -4   0  15    2.13    0.67 
  -3   0  15   15.32    1.05 
   3   0 -15   12.89    0.94 
   2   0 -15   14.93    0.94 
  -2   0  15   14.90    0.99 
  -1   0  15    0.28    0.42 
   1   0 -15    1.00    0.49 
   0   0  15   21.98    1.09 
   0   0 -15   20.82    1.06 
   1   0  15    0.10    0.45 
  -1   0 -15   -0.47    0.43 
   2   0  15    1.05    0.59 
  -2   0 -15    1.57    0.61 
   3   0  15   25.31    1.39 
  -3   0 -15   27.34    1.29 
   4   0  15    1.17    0.68 
  -4   0 -15    1.27    0.66 
  -5   0 -15   15.16    1.11 
   5   0  15   14.97    1.32 
   6   0  15    6.70    1.10 
  -6   0 -15    5.94    0.90 
  -7  -1  15    3.34    0.67 
   7   1 -15    2.96    0.97 
  -7   1  15    3.89    0.71 
  -6  -1  15    1.18    0.54 
   6   1 -15    1.12    0.85 
  -6   1  15    1.74    0.55 
   5  -1 -15    2.90    0.68 
  -5   1  15    4.57    0.59 
  -4  -1  15   11.37    1.08 
   4  -1 -15    8.71    0.97 
   4   1 -15    9.73    0.84 
  -4   1  15    8.40    0.62 
   3  -1 -15    9.83    0.92 
  -3  -1  15   11.27    1.05 
  -3   1  15   12.13    0.67 
  -3   1  15    9.43    0.88 
   3   1 -15    9.99    0.78 
  -2  -1  15    4.97    0.74 
   2  -1 -15    4.89    0.72 
  -2   1  15    2.34    0.56 
   2   1 -15    3.15    0.60 
  -1  -1  15   25.19    1.26 
   1  -1 -15   24.46    1.15 
  -1   1  15   28.91    1.21 
   1   1 -15   26.34    1.14 
   0  -1  15    1.82    0.54 
   0  -1 -15    1.87    0.56 
   0   1  15    1.86    0.53 
   0   1 -15    1.73    0.54 
   1  -1  15   17.08    1.07 
  -1  -1 -15   14.72    0.96 
   1   1  15   14.33    0.97 
  -1   1 -15   14.00    0.95 
  -2  -1 -15    3.13    0.66 
   2  -1  15    2.01    0.63 
   2   1  15    3.58    0.69 
  -2   1 -15    2.95    0.67 
  -3  -1 -15    1.87    0.63 
   3  -1  15    1.31    0.63 
   3   1  15    1.24    0.67 
  -3   1 -15    0.94    0.62 
  -4  -1 -15   10.71    0.95 
   4  -1  15   11.47    1.12 
  -4   1 -15   15.47    1.19 
   4   1  15   12.34    1.16 
   5  -1  15    1.21    0.77 
  -5  -1 -15    2.30    0.69 
   5   1  15    1.36    0.71 
  -5   1 -15    1.35    0.81 
  -6  -1 -15    5.85    0.86 
   6  -1  15    4.72    1.06 
  -6   1 -15    5.19    0.94 
   6   1  15    4.73    0.93 
   6  -2 -15    1.65    0.68 
   6   2 -15    3.06    0.94 
  -6   2  15    3.23    0.62 
   5  -2 -15    9.08    0.93 
  -5   2  15    7.78    0.72 
  -4  -2  15    2.30    0.76 
   4  -2 -15    2.95    0.73 
  -4   2  15    2.48    0.48 
   3  -2 -15   15.42    1.13 
  -3  -2  15   12.76    1.16 
   3   2 -15   12.30    0.89 
  -3   2  15   12.05    0.70 
   2  -2 -15    4.50    0.83 
  -2  -2  15    4.04    0.77 
   2   2 -15    3.72    0.61 
  -1  -2  15    0.86    0.54 
   1  -2 -15    0.51    0.58 
   1   2 -15    0.16    0.52 
   0  -2 -15   17.39    1.09 
   0  -2  15   16.97    1.13 
   0   2 -15   16.51    1.08 
   0   2  15   18.63    0.97 
   1  -2  15    0.08    0.47 
  -1  -2 -15    0.12    0.55 
  -1   2 -15    0.98    0.61 
   1   2  15    0.58    0.46 
  -2  -2 -15    8.45    0.86 
   2  -2  15    8.86    0.96 
   2   2  15    7.82    0.88 
  -2   2 -15    6.09    0.88 
   3  -2  15    0.73    0.64 
  -3  -2 -15    2.12    0.67 
   3   2  15    2.56    0.74 
  -3   2 -15    3.40    0.91 
   4  -2  15    0.89    0.65 
  -4  -2 -15    2.19    0.66 
  -4   2 -15    1.59    0.80 
   4   2  15    0.91    0.63 
   5  -2  15    3.48    0.93 
  -5  -2 -15    4.91    0.78 
  -5   2 -15    3.27    0.92 
   5   2  15    3.41    0.77 
  -6  -2 -15    4.30    0.80 
   6  -2  15    4.41    1.02 
   6   2  15    4.67    0.90 
  -6   2 -15    5.13    1.04 
   6  -3 -15    1.55    0.72 
  -6   3  15    0.58    0.56 
   6   3 -15    1.53    0.85 
   5  -3 -15    2.80    0.79 
   5   3 -15    1.55    0.88 
  -5   3  15    0.66    0.51 
  -4  -3  15    7.62    1.05 
   4  -3 -15    7.47    0.94 
  -4   3  15    7.98    0.72 
  -3  -3  15    3.57    0.91 
   3  -3 -15    4.25    0.79 
   3   3 -15    4.60    0.66 
  -3   3  15    4.64    0.60 
   2  -3 -15   10.77    1.02 
  -2  -3  15   12.67    1.08 
  -2   3  15   12.76    0.79 
   2   3 -15   14.75    0.99 
   1  -3 -15    2.88    0.79 
  -1  -3  15    2.95    0.75 
  -1   3  15    1.44    0.50 
   1   3 -15    1.64    0.63 
   0  -3  15    3.37    0.71 
   0  -3 -15    3.42    0.87 
   0   3 -15    3.63    0.76 
  -1  -3 -15   11.06    1.05 
   1  -3  15    7.83    0.90 
  -1   3 -15    5.53    0.90 
   2  -3  15    1.18    0.63 
  -2  -3 -15    2.70    0.78 
  -2   3 -15    0.86    0.67 
  -3  -3 -15    1.76    0.71 
   3  -3  15    1.12    0.72 
  -3   3 -15    0.68    0.64 
   3   3  15    1.13    0.64 
  -4  -3 -15    4.72    0.87 
   4  -3  15    4.44    0.90 
   4   3  15    5.37    0.84 
  -4   3 -15    4.37    0.85 
  -5  -3 -15   -0.48    0.69 
   5  -3  15    0.51    0.71 
   5   3  15    0.13    0.60 
  -5   3 -15   -0.43    0.67 
   4  -4 -15    1.57    0.70 
  -4  -4  15    1.37    0.75 
  -4   4  15    1.55    0.55 
   3  -4 -15    2.92    0.73 
  -3  -4  15    1.29    0.78 
  -3   4  15    6.11    0.73 
   2  -4 -15    1.00    0.70 
  -2  -4  15    0.27    0.69 
   2   4 -15   -0.18    0.56 
  -2   4  15   -0.13    0.50 
  -1  -4  15    2.36    0.79 
   1  -4 -15    2.38    0.82 
  -1   4  15    3.30    0.67 
   1   4 -15    2.00    0.77 
   0  -4  15    3.89    0.85 
   0  -4 -15    4.67    0.91 
   0   4 -15    3.09    0.82 
   0   4  15    3.33    0.72 
  -1  -4 -15    0.77    0.77 
   1  -4  15    0.72    0.68 
  -1   4 -15    0.76    0.61 
  -2  -4 -15    7.40    1.09 
   2  -4  15    7.75    1.00 
  -2   4 -15    5.61    0.82 
   3  -4  15    0.11    0.62 
  -3  -4 -15   -1.36    0.89 
  -3   4 -15    0.04    0.59 
   4  -4  15    0.50    0.73 
  -4  -4 -15    0.66    0.95 
  -4   4 -15   -0.73    0.58 
   3  -5 -15    2.23    0.78 
  -3  -5  15    0.59    0.74 
  -3   5  15    1.29    0.61 
   2  -5 -15    0.27    0.63 
  -2  -5  15    0.16    0.80 
  -2   5  15    0.79    0.59 
   1  -5 -15    2.57    0.75 
  -1  -5  15    1.02    0.76 
  -1   5  15    1.69    0.69 
   1   5 -15    1.02    0.74 
   0  -5  15    2.60    0.83 
   0  -5 -15    3.97    0.85 
   0   5 -15    2.98    0.76 
   0   5  15    2.85    0.83 
   1  -5  15   -0.25    0.68 
  -1  -5 -15    0.66    0.79 
  -1   5 -15    0.48    0.61 
   1   5  15    0.73    0.66 
  -2  -5 -15    0.56    0.78 
   2  -5  15    0.39    0.69 
  -2   5 -15   -0.82    0.55 
  -6   0  16    3.43    0.64 
   5   0 -16   14.21    1.14 
   4   0 -16    1.32    0.65 
  -4   0  16    0.80    0.66 
  -3   0  16   14.08    1.04 
   3   0 -16   14.43    1.00 
  -2   0  16   10.42    0.90 
   2   0 -16   10.31    0.88 
   1   0 -16    0.37    0.56 
  -1   0  16   -0.48    0.44 
   0   0 -16   15.22    0.99 
   0   0  16   16.61    1.04 
   1   0  16    8.44    0.87 
  -1   0 -16    7.56    0.80 
   2   0  16    5.17    0.83 
  -2   0 -16    4.02    0.68 
  -3   0 -16    1.70    0.64 
   3   0  16    2.05    0.68 
   4   0  16   -0.80    0.56 
  -4   0 -16    0.62    0.59 
  -5   0 -16    0.78    0.69 
   5   0  16    0.05    0.75 
  -6   0 -16    1.93    0.80 
   6   0  16    0.89    0.78 
  -6   1  16    8.97    0.84 
   6   1 -16   11.18    1.31 
   5  -1 -16    4.97    0.90 
  -5   1  16    4.03    0.61 
  -4  -1  16   17.67    1.32 
   4  -1 -16   16.11    1.22 
  -4   1  16   18.85    0.89 
   4   1 -16   20.80    1.14 
   3  -1 -16    2.22    0.67 
  -3  -1  16    2.92    0.73 
   3   1 -16    3.63    0.66 
  -2  -1  16    6.23    0.82 
   2  -1 -16    8.12    0.85 
   2   1 -16    8.45    0.81 
  -2   1  16    7.73    0.77 
  -1  -1  16   19.96    1.16 
   1  -1 -16   20.51    1.12 
  -1   1  16   18.94    1.02 
   1   1 -16   17.86    1.02 
   0  -1 -16    3.24    0.67 
   0  -1  16    3.80    0.70 
   0   1 -16    3.08    0.65 
   0   1  16    4.44    0.67 
  -1  -1 -16    5.33    0.75 
   1  -1  16    4.29    0.76 
  -1   1 -16    7.28    0.83 
   1   1  16    6.07    0.75 
   2  -1  16    3.35    0.74 
  -2  -1 -16    3.36    0.70 
   2   1  16    3.03    0.72 
  -2   1 -16    3.35    0.70 
  -3  -1 -16    3.29    0.72 
   3  -1  16    4.08    0.85 
   3   1  16    3.77    0.81 
  -3   1 -16    5.31    0.82 
  -4  -1 -16    3.11    0.72 
   4  -1  16    2.20    0.76 
   4   1  16    1.96    0.78 
  -4   1 -16    1.16    0.76 
   5  -1  16   -0.31    0.66 
  -5  -1 -16    0.45    0.65 
   5   1  16   -0.15    0.72 
  -5   1 -16    0.49    0.73 
   6  -1  16    2.85    0.92 
  -6  -1 -16    1.30    0.67 
  -6   1 -16    2.47    0.84 
   6   1  16    1.43    0.85 
   6  -2 -16   14.30    1.20 
   6   2 -16   15.29    1.35 
  -6   2  16   16.13    0.99 
   5  -2 -16   10.85    1.09 
  -5   2  16   14.13    0.89 
   4  -2 -16    2.81    0.81 
  -4  -2  16    2.36    0.85 
  -4   2  16    3.10    0.53 
   3  -2 -16    7.35    1.03 
  -3  -2  16    5.78    0.91 
   3   2 -16    9.99    0.88 
  -3   2  16    9.48    0.67 
  -2  -2  16   13.54    1.06 
   2  -2 -16   13.83    1.09 
   2   2 -16   16.10    1.02 
   1  -2 -16    3.31    0.71 
  -1  -2  16    3.35    0.72 
   1   2 -16    4.85    0.70 
   0  -2  16   17.66    1.19 
   0  -2 -16   18.89    1.15 
   0   2 -16   21.08    1.19 
   1  -2  16    1.00    0.54 
  -1  -2 -16    2.20    0.68 
   1   2  16    1.67    0.57 
  -1   2 -16    2.02    0.70 
   2  -2  16    0.55    0.61 
  -2  -2 -16    0.56    0.58 
  -2   2 -16    1.48    0.70 
   2   2  16    0.73    0.57 
  -3  -2 -16    4.50    0.76 
   3  -2  16    1.74    0.67 
   3   2  16    4.19    0.86 
  -3   2 -16    2.10    0.79 
  -4  -2 -16    2.20    0.76 
   4  -2  16    2.65    0.78 
   4   2  16    3.09    0.82 
  -4   2 -16    3.07    0.91 
   5  -2  16    0.64    0.80 
  -5  -2 -16    1.01    0.70 
   5   2  16    1.34    0.72 
  -5   2 -16    1.43    0.86 
   5  -3 -16    1.92    0.77 
   5   3 -16    2.84    0.96 
  -5   3  16    2.42    0.57 
  -4  -3  16   10.66    1.31 
   4  -3 -16    8.24    1.02 
  -4   3  16   11.56    0.83 
  -3  -3  16   11.46    1.11 
   3  -3 -16   10.57    1.09 
  -3   3  16   13.48    0.89 
   2  -3 -16    5.94    1.03 
  -2  -3  16    5.58    0.88 
   2   3 -16    4.52    0.75 
  -2   3  16    7.04    0.67 
   1  -3 -16    5.37    0.91 
  -1  -3  16    5.33    0.89 
   1   3 -16    5.91    0.82 
   0  -3  16    2.86    0.73 
   0  -3 -16    3.21    0.79 
   0   3 -16    2.28    0.72 
   1  -3  16    1.10    0.62 
  -1  -3 -16   -0.26    0.65 
  -1   3 -16    1.08    0.71 
   2  -3  16    4.32    0.87 
  -2  -3 -16    6.67    0.95 
  -3  -3 -16    0.02    0.62 
   3  -3  16    1.12    0.72 
  -3   3 -16   -0.01    0.69 
   4  -3  16    3.32    0.88 
  -4  -3 -16    2.77    0.82 
  -4   3 -16    3.01    0.90 
   4   3  16    3.28    0.89 
   3  -4 -16    7.91    1.04 
  -3  -4  16    6.97    1.06 
  -3   4  16    9.29    0.82 
   2  -4 -16    3.29    0.85 
  -2  -4  16    3.57    0.90 
   2   4 -16    2.73    0.71 
  -2   4  16    3.13    0.67 
   1  -4 -16   -0.50    0.72 
  -1  -4  16    0.54    0.63 
  -1   4  16    1.18    0.59 
   1   4 -16    0.48    0.63 
   0  -4 -16    3.84    1.06 
   0  -4  16    2.18    0.80 
   0   4 -16    3.66    0.84 
  -1  -4 -16   -0.20    0.88 
   1  -4  16    1.84    0.78 
  -1   4 -16    1.61    0.79 
   2  -4  16    1.05    0.67 
  -2  -4 -16    0.52    0.79 
  -2   4 -16    0.36    0.69 
   3  -4  16    1.50    0.77 
  -3  -4 -16    0.90    0.86 
  -3   4 -16    0.52    0.67 
  -4   0  17    1.25    0.69 
   4   0 -17    0.45    0.57 
   3   0 -17    4.89    0.79 
  -3   0  17    6.18    0.80 
   2   0 -17    8.92    0.89 
  -2   0  17    9.05    0.92 
   1   0 -17    0.51    0.52 
  -1   0  17    0.87    0.50 
   0   0 -17    9.51    0.90 
   0   0  17    9.98    0.95 
   1   0  17    9.59    0.97 
  -1   0 -17    9.72    0.90 
  -2   0 -17    0.68    0.60 
   2   0  17    0.69    0.59 
  -3   0 -17    8.83    0.90 
   3   0  17    9.26    1.06 
  -4   0 -17    3.40    0.78 
   4   0  17    3.62    0.85 
   5   0  17    0.35    0.81 
  -5   0 -17    0.16    0.65 
   5  -1 -17    0.91    0.84 
  -4  -1  17   12.98    1.20 
   4  -1 -17   14.71    1.10 
   4   1 -17   12.38    1.01 
   3  -1 -17    3.04    0.75 
  -3  -1  17    2.85    0.76 
   3   1 -17    0.87    0.59 
   2  -1 -17   10.93    1.00 
  -2  -1  17   10.48    1.00 
   2   1 -17   12.11    0.94 
   1  -1 -17   10.13    0.92 
  -1  -1  17    9.87    0.99 
   1   1 -17    6.02    0.80 
  -1   1  17    7.15    0.81 
   0  -1  17    7.75    0.91 
   0  -1 -17    7.68    0.85 
   0   1 -17   11.02    0.90 
   0   1  17    8.64    0.85 
   1  -1  17    8.10    0.95 
  -1  -1 -17    9.67    0.91 
   1   1  17    7.76    0.87 
  -1   1 -17    7.19    0.85 
   2  -1  17   11.39    1.07 
  -2  -1 -17    9.61    0.95 
  -2   1 -17   10.71    0.99 
   2   1  17   10.35    1.02 
  -3  -1 -17    0.81    0.67 
   3  -1  17    0.08    0.60 
   3   1  17    0.38    0.60 
  -3   1 -17    0.16    0.61 
  -4  -1 -17    8.57    0.96 
   4  -1  17    7.34    1.08 
  -4   1 -17    5.08    0.90 
   4   1  17    5.77    1.01 
   5  -1  17    4.22    0.96 
  -5  -1 -17    5.52    0.90 
  -5   1 -17    5.17    0.94 
   5   1  17    5.24    1.11 
   5  -2 -17    9.96    1.19 
  -5   2  17    6.16    0.69 
   4  -2 -17    0.88    0.85 
  -4  -2  17    0.02    0.70 
  -3  -2  17   12.24    1.12 
   3  -2 -17   10.89    1.12 
   3   2 -17   10.92    0.96 
   2  -2 -17    6.35    0.90 
  -2  -2  17    5.51    0.87 
   2   2 -17   10.15    0.90 
  -1  -2  17    0.59    0.57 
   1  -2 -17    0.08    0.55 
   1   2 -17    0.30    0.57 
   0  -2 -17   19.84    1.20 
   0  -2  17   21.18    1.29 
   0   2 -17   20.11    1.25 
  -1  -2 -17    4.56    0.79 
   1  -2  17    6.72    0.88 
  -1   2 -17    7.44    0.89 
   2  -2  17   -0.04    0.59 
  -2  -2 -17    0.76    0.59 
  -2   2 -17    0.72    0.66 
   2   2  17    1.17    0.54 
   3  -2  17    3.54    0.86 
  -3  -2 -17    3.78    0.80 
   3   2  17    3.58    0.83 
  -3   2 -17    3.10    0.86 
  -4  -2 -17    6.42    0.93 
   4  -2  17    6.79    1.03 
   4   2  17    5.96    1.05 
  -4   2 -17    5.58    1.00 
  -4  -3  17    5.48    1.05 
   4  -3 -17    6.35    1.05 
  -4   3  17    6.74    0.76 
  -3  -3  17    1.57    0.72 
   3  -3 -17    1.57    0.96 
  -2  -3  17    3.07    0.82 
   2  -3 -17    2.55    0.85 
   2   3 -17    6.03    0.81 
  -1  -3  17   11.08    1.04 
   1  -3 -17    9.03    1.01 
   1   3 -17   10.33    0.95 
   0  -3 -17    1.73    0.72 
   0  -3  17    1.15    0.68 
   0   3 -17    0.90    0.69 
   1  -3  17    0.92    0.64 
  -1  -3 -17    0.87    0.74 
  -1   3 -17    0.23    0.66 
  -2  -3 -17    8.14    0.98 
   2  -3  17    7.50    1.00 
  -2   3 -17    7.46    1.07 
   3  -3  17    4.58    0.99 
  -3  -3 -17    3.32    0.82 
  -3   3 -17    3.60    0.98 
   2  -4 -17    2.21    0.92 
  -2  -4  17    2.59    0.82 
   1  -4 -17    2.36    1.03 
  -1  -4  17    0.80    0.69 
   1   4 -17    1.35    0.80 
   0  -4  17    3.60    0.84 
   0  -4 -17    4.93    1.06 
   0   4 -17    4.71    0.90 
  -1  -4 -17    1.84    0.82 
   1  -4  17    1.05    0.70 
  -1   4 -17    1.93    0.86 
   4   0 -18    1.31    0.68 
   3   0 -18    1.38    0.67 
  -3   0  18    0.26    0.58 
   2   0 -18   12.41    1.03 
  -2   0  18   12.37    1.03 
   1   0 -18    1.30    0.63 
  -1   0  18    1.68    0.61 
   0   0  18   11.55    1.02 
   0   0 -18   11.09    0.98 
   1   0  18    5.27    0.83 
  -1   0 -18    7.84    0.89 
   2   0  18   -0.32    0.54 
  -2   0 -18   -1.49    0.56 
  -3   0 -18    1.02    0.62 
   3   0  18    0.10    0.59 
   4   0  18    4.54    0.98 
  -4   0 -18    6.28    0.91 
   4  -1 -18    5.89    0.92 
  -4  -1  18    6.21    0.94 
   4   1 -18    4.85    0.81 
  -3  -1  18    6.26    0.90 
   3  -1 -18    6.22    0.91 
   3   1 -18    7.58    0.83 
   2  -1 -18    1.75    0.64 
  -2  -1  18    0.53    0.61 
   2   1 -18    2.82    0.67 
  -1  -1  18    2.66    0.71 
   1  -1 -18    3.26    0.73 
   1   1 -18    4.08    0.77 
   0  -1 -18    2.69    0.70 
   0  -1  18    3.41    0.76 
   0   1 -18    5.60    0.81 
   0   1  18    5.56    0.75 
   1  -1  18    5.66    0.84 
  -1  -1 -18    4.71    0.82 
  -1   1 -18    6.39    0.83 
   1   1  18    6.79    0.87 
  -2  -1 -18    1.91    0.68 
   2  -1  18    1.87    0.71 
  -2   1 -18    2.74    0.74 
   2   1  18    2.59    0.73 
   3  -1  18    4.05    0.86 
  -3  -1 -18    1.28    0.69 
  -3   1 -18    1.52    0.74 
   3   1  18    1.69    0.73 
   4  -1  18    1.33    0.74 
  -4  -1 -18    1.16    0.69 
   4   1  18    0.24    0.65 
  -4   1 -18    0.62    0.71 
  -3  -2  18    2.09    0.76 
   3  -2 -18    2.63    0.83 
   3   2 -18    1.70    0.60 
   2  -2 -18    4.68    0.84 
  -2  -2  18    3.59    0.79 
   2   2 -18    7.11    0.89 
   1  -2 -18    5.53    0.86 
  -1  -2  18    5.31    0.88 
   1   2 -18    4.90    0.80 
   0  -2  18    3.64    0.80 
   0  -2 -18    3.41    0.76 
   0   2 -18    3.90    0.76 
  -1  -2 -18    3.27    0.79 
   1  -2  18    3.27    0.77 
  -1   2 -18    1.60    0.70 
  -2  -2 -18    0.76    0.68 
   2  -2  18    0.46    0.65 
  -2   2 -18    0.75    0.70 
   3  -2  18    0.36    0.66 
  -3  -2 -18    2.22    0.69 
   3   2  18    3.43    0.80 
  -3   2 -18    2.73    0.81 
   2  -3 -18    0.29    0.66 
  -2  -3  18   -0.32    0.58 
   2   3 -18    1.24    0.61 
  -1  -3  18    2.15    0.73 
   1  -3 -18    2.83    0.78 
   1   3 -18    1.96    0.73 
   0  -3 -18    1.56    0.71 
   0  -3  18    1.58    0.73 
   0   3 -18    1.43    0.70 
   1  -3  18    7.65    1.00 
  -1  -3 -18    7.47    1.00 
  -1   3 -18    6.83    0.98 
   2  -3  18    1.71    0.73 
  -2  -3 -18    2.90    0.77 
  -2   3 -18    2.42    0.83 
   3   0 -19    1.36    0.65 
  -2   0  19    9.71    0.97 
   2   0 -19    7.25    0.93 
  -1   0  19    0.72    0.62 
   1   0 -19    0.50    0.60 
   0   0  19    9.67    1.01 
   0   0 -19    8.33    0.93 
   1   0  19    4.82    0.86 
  -1   0 -19    5.20    0.84 
  -2   0 -19    1.76    0.72 
   2   0  19    1.81    0.75 
   3  -1 -19    0.33    0.71 
  -3  -1  19    2.34    0.76 
   3   1 -19    4.14    0.82 
  -2  -1  19    0.74    0.60 
   2  -1 -19   -0.37    0.57 
   2   1 -19    1.06    0.65 
  -1  -1  19    2.01    0.73 
   1  -1 -19    1.51    0.71 
   1   1 -19    2.42    0.73 
   0  -1 -19   10.01    0.98 
   0  -1  19   10.72    1.02 
   0   1 -19   10.16    0.99 
   1  -1  19    5.95    0.91 
  -1  -1 -19    5.97    0.88 
  -1   1 -19    6.71    0.90 
   1   1  19    7.11    0.90 
  -2  -1 -19    8.78    0.97 
   2  -1  19    9.57    1.10 
   2   1  19    9.85    1.03 
  -2   1 -19    7.17    0.92 
   2  -2 -19    4.69    0.86 
  -2  -2  19    4.87    0.85 
   2   2 -19    4.32    0.83 
   1  -2 -19    2.13    0.73 
  -1  -2  19    2.97    0.78 
   1   2 -19    3.10    0.78 
   0  -2  19    1.29    0.69 
   0  -2 -19    1.19    0.66 
   0   2 -19    0.41    0.66 
   1  -2  19    8.65    1.08 
  -1  -2 -19    7.23    0.96 
  -1   2 -19    9.81    1.00 
   0   0   0    0.00    0.00 
;
_shelx_hkl_checksum              72088
loop_
_space_group_symop_operation_xyz
'x, y, z'
'-x, y+1/2, -z'
loop_
_atom_site_label
_atom_site_type_symbol
_atom_site_fract_x
_atom_site_fract_y
_atom_site_fract_z
_atom_site_U_iso_or_equiv
_atom_site_adp_type
_atom_site_occupancy
_atom_site_site_symmetry_order
_atom_site_calc_flag
_atom_site_refinement_flags_posn
_atom_site_refinement_flags_adp
Br1 Br 0.82013(5) 0.41331(10) 0.53321(2) 0.05101(16) Uani 1 1 d . .
N1 N 0.3012(4) 0.2378(5) 0.90337(18) 0.0227(6) Uani 1 1 d . .
H1 H 0.3451 0.3661 0.8892 0.027 Uiso 1 1 calc R U
O1 O 0.1091(3) -0.0523(5) 0.70139(15) 0.0297(6) Uani 1 1 d . .
C1 C 0.2140(4) 0.0992(5) 0.8430(2) 0.0215(7) Uani 1 1 d . .
C2 C 0.1624(3) -0.0823(7) 0.88918(18) 0.0195(5) Uani 1 1 d . .
C3 C 0.2204(3) -0.0619(6) 0.98333(18) 0.0183(6) Uani 1 1 d . .
C4 C 0.2086(4) -0.1931(5) 1.0614(2) 0.0237(7) Uani 1 1 d . .
H4 H 0.1494 -0.3292 1.0589 0.028 Uiso 1 1 calc R U
C5 C 0.2851(4) -0.1206(6) 1.1432(2) 0.0267(8) Uani 1 1 d . .
H5 H 0.2780 -0.2085 1.1971 0.032 Uiso 1 1 calc R U
C6 C 0.3716(4) 0.0782(6) 1.1475(2) 0.0263(8) Uani 1 1 d . .
H6 H 0.4232 0.1227 1.2044 0.032 Uiso 1 1 calc R U
C7 C 0.3849(4) 0.2131(6) 1.0714(2) 0.0240(7) Uani 1 1 d . .
H7 H 0.4443 0.3490 1.0748 0.029 Uiso 1 1 calc R U
C8 C 0.3077(4) 0.1411(5) 0.9898(2) 0.0201(7) Uani 1 1 d . .
C9 C 0.1749(4) 0.1454(6) 0.7431(2) 0.0243(7) Uani 1 1 d . .
H9 H 0.0862 0.2633 0.7382 0.029 Uiso 1 1 calc R U
C10 C -0.0188(4) -0.1594(6) 0.7546(2) 0.0288(8) Uani 1 1 d . .
H10A H -0.0730 -0.2776 0.7173 0.035 Uiso 1 1 calc R U
H10B H -0.1086 -0.0522 0.7704 0.035 Uiso 1 1 calc R U
C11 C 0.0578(4) -0.2566(6) 0.8425(2) 0.0248(7) Uani 1 1 d . .
H11A H -0.0342 -0.3064 0.8834 0.030 Uiso 1 1 calc R U
H11B H 0.1305 -0.3844 0.8279 0.030 Uiso 1 1 calc R U
C12 C 0.3283(4) 0.2123(6) 0.6900(2) 0.0223(7) Uani 1 1 d . .
C13 C 0.3427(4) 0.4184(8) 0.65057(19) 0.0288(6) Uani 1 1 d . .
H13 H 0.2515 0.5204 0.6557 0.035 Uiso 1 1 calc R U
C14 C 0.4893(5) 0.4785(6) 0.6034(2) 0.0334(9) Uani 1 1 d . .
H14 H 0.4982 0.6204 0.5767 0.040 Uiso 1 1 calc R U
C15 C 0.6199(5) 0.3303(7) 0.5962(2) 0.0316(9) Uani 1 1 d . .
C16 C 0.6077(5) 0.1216(7) 0.6320(2) 0.0322(9) Uani 1 1 d . .
H16 H 0.6972 0.0183 0.6240 0.039 Uiso 1 1 calc R U
C17 C 0.4627(5) 0.0647(6) 0.6798(2) 0.0283(8) Uani 1 1 d . .
H17 H 0.4549 -0.0776 0.7061 0.034 Uiso 1 1 calc R U
loop_
_atom_site_aniso_label
_atom_site_aniso_U_11
_atom_site_aniso_U_22
_atom_site_aniso_U_33
_atom_site_aniso_U_23
_atom_site_aniso_U_13
_atom_site_aniso_U_12
Br1 0.0462(2) 0.0733(3) 0.0340(2) 0.0045(3) 0.01149(15) -0.0158(3)
N1 0.0299(14) 0.0173(13) 0.0211(14) 0.0018(12) 0.0031(11) -0.0049(12)
O1 0.0375(12) 0.0303(16) 0.0213(10) -0.0036(11) -0.0003(9) -0.0064(12)
C1 0.0246(16) 0.0191(16) 0.0209(16) -0.0020(13) 0.0019(13) 0.0002(13)
C2 0.0196(12) 0.0176(14) 0.0215(13) -0.0049(18) 0.0034(10) 0.0025(17)
C3 0.0155(12) 0.0179(17) 0.0216(14) 0.0010(15) 0.0023(10) 0.0032(14)
C4 0.0212(16) 0.0214(16) 0.0285(17) 0.0038(14) 0.0015(14) 0.0012(14)
C5 0.0279(15) 0.030(2) 0.0216(14) 0.0076(16) 0.0012(12) 0.0062(16)
C6 0.0226(17) 0.036(2) 0.0200(17) -0.0032(15) -0.0039(14) 0.0064(15)
C7 0.0180(15) 0.0271(18) 0.0269(18) -0.0041(15) 0.0001(13) -0.0006(14)
C8 0.0182(15) 0.0208(16) 0.0213(16) 0.0011(13) 0.0034(12) 0.0026(13)
C9 0.0307(18) 0.0206(17) 0.0215(17) -0.0008(14) -0.0007(14) 0.0002(14)
C10 0.0285(17) 0.030(2) 0.0272(17) -0.0054(14) -0.0033(14) -0.0062(14)
C11 0.0275(18) 0.0230(16) 0.0240(17) -0.0008(14) 0.0022(14) -0.0023(14)
C12 0.0341(18) 0.0218(17) 0.0109(14) -0.0020(13) -0.0040(13) -0.0006(14)
C13 0.0410(17) 0.0265(16) 0.0190(13) -0.001(2) 0.0000(12) 0.002(2)
C14 0.055(2) 0.028(2) 0.0173(16) 0.0011(13) 0.0010(16) -0.0066(16)
C15 0.0343(19) 0.045(2) 0.0157(16) 0.0023(14) 0.0020(14) -0.0087(16)
C16 0.033(2) 0.041(2) 0.0221(18) -0.0014(16) -0.0020(15) 0.0058(17)
C17 0.038(2) 0.0249(19) 0.0216(17) 0.0025(14) -0.0027(15) 0.0009(16)
loop_
_atom_type_symbol
_atom_type_description
_atom_type_scat_dispersion_real
_atom_type_scat_dispersion_imag
_atom_type_scat_source
C C 0.0033 0.0016 'International Tables Vol C Tables 4.2.6.8 and 6.1.1.4'
H H 0.0000 0.0000 'International Tables Vol C Tables 4.2.6.8 and 6.1.1.4'
N N 0.0061 0.0033 'International Tables Vol C Tables 4.2.6.8 and 6.1.1.4'
O O 0.0106 0.0060 'International Tables Vol C Tables 4.2.6.8 and 6.1.1.4'
Br Br -0.2901 2.4595 'International Tables Vol C Tables 4.2.6.8 and 6.1.1.4'
loop_
_geom_angle_atom_site_label_1
_geom_angle_atom_site_label_2
_geom_angle_atom_site_label_3
_geom_angle
C8 N1 C1 108.7(3)
C8 N1 H1 125.7
C1 N1 H1 125.7
C10 O1 C9 113.7(2)
C2 C1 N1 109.4(3)
C2 C1 C9 124.9(3)
N1 C1 C9 125.6(3)
C1 C2 C3 107.9(3)
C1 C2 C11 121.4(3)
C3 C2 C11 130.7(3)
C8 C3 C4 119.3(3)
C8 C3 C2 106.3(3)
C4 C3 C2 134.4(3)
C5 C4 C3 118.5(3)
C5 C4 H4 120.7
C3 C4 H4 120.7
C6 C5 C4 121.1(3)
C6 C5 H5 119.5
C4 C5 H5 119.5
C5 C6 C7 121.9(3)
C5 C6 H6 119.0
C7 C6 H6 119.0
C6 C7 C8 117.0(3)
C6 C7 H7 121.5
C8 C7 H7 121.5
N1 C8 C3 107.7(3)
N1 C8 C7 130.1(3)
C3 C8 C7 122.2(3)
O1 C9 C12 107.1(3)
O1 C9 C1 108.2(3)
C12 C9 C1 113.5(3)
O1 C9 H9 109.3
C12 C9 H9 109.3
C1 C9 H9 109.3
O1 C10 C11 111.3(3)
O1 C10 H10A 109.4
C11 C10 H10A 109.4
O1 C10 H10B 109.4
C11 C10 H10B 109.4
H10A C10 H10B 108.0
C2 C11 C10 107.8(3)
C2 C11 H11A 110.1
C10 C11 H11A 110.1
C2 C11 H11B 110.1
C10 C11 H11B 110.1
H11A C11 H11B 108.5
C13 C12 C17 118.2(3)
C13 C12 C9 122.2(3)
C17 C12 C9 119.6(3)
C14 C13 C12 121.0(4)
C14 C13 H13 119.5
C12 C13 H13 119.5
C15 C14 C13 119.1(3)
C15 C14 H14 120.4
C13 C14 H14 120.4
C14 C15 C16 121.4(3)
C14 C15 Br1 119.1(3)
C16 C15 Br1 119.4(3)
C17 C16 C15 118.9(4)
C17 C16 H16 120.6
C15 C16 H16 120.6
C16 C17 C12 121.3(3)
C16 C17 H17 119.3
C12 C17 H17 119.3
loop_
_geom_bond_atom_site_label_1
_geom_bond_atom_site_label_2
_geom_bond_distance
Br1 C15 1.899(4)
N1 C8 1.385(4)
N1 C1 1.384(4)
N1 H1 0.8800
O1 C10 1.434(4)
O1 C9 1.438(4)
C1 C2 1.358(5)
C1 C9 1.501(5)
C2 C3 1.435(4)
C2 C11 1.493(5)
C3 C8 1.414(5)
C3 C4 1.391(5)
C4 C5 1.388(5)
C4 H4 0.9500
C5 C6 1.388(5)
C5 H5 0.9500
C6 C7 1.381(5)
C6 H6 0.9500
C7 C8 1.388(5)
C7 H7 0.9500
C9 C12 1.497(5)
C9 H9 1.0000
C10 C11 1.516(5)
C10 H10A 0.9900
C10 H10B 0.9900
C11 H11A 0.9900
C11 H11B 0.9900
C12 C13 1.385(6)
C12 C17 1.394(5)
C13 C14 1.397(5)
C13 H13 0.9500
C14 C15 1.369(5)
C14 H14 0.9500
C15 C16 1.378(6)
C16 C17 1.386(5)
C16 H16 0.9500
C17 H17 0.9500
loop_
_geom_torsion_atom_site_label_1
_geom_torsion_atom_site_label_2
_geom_torsion_atom_site_label_3
_geom_torsion_atom_site_label_4
_geom_torsion
C8 N1 C1 C2 0.9(4)
C8 N1 C1 C9 178.3(3)
N1 C1 C2 C3 -0.8(4)
C9 C1 C2 C3 -178.1(3)
N1 C1 C2 C11 177.1(3)
C9 C1 C2 C11 -0.3(5)
C1 C2 C3 C8 0.3(3)
C11 C2 C3 C8 -177.3(3)
C1 C2 C3 C4 -179.3(3)
C11 C2 C3 C4 3.2(6)
C8 C3 C4 C5 -0.8(5)
C2 C3 C4 C5 178.8(3)
C3 C4 C5 C6 0.0(5)
C4 C5 C6 C7 0.4(5)
C5 C6 C7 C8 0.0(5)
C1 N1 C8 C3 -0.7(3)
C1 N1 C8 C7 177.9(3)
C4 C3 C8 N1 179.9(3)
C2 C3 C8 N1 0.3(3)
C4 C3 C8 C7 1.1(5)
C2 C3 C8 C7 -178.5(3)
C6 C7 C8 N1 -179.2(3)
C6 C7 C8 C3 -0.7(5)
C10 O1 C9 C12 169.1(3)
C10 O1 C9 C1 46.3(3)
C2 C1 C9 O1 -12.6(4)
N1 C1 C9 O1 170.4(3)
C2 C1 C9 C12 -131.4(3)
N1 C1 C9 C12 51.7(4)
C9 O1 C10 C11 -69.2(4)
C1 C2 C11 C10 -17.5(4)
C3 C2 C11 C10 159.8(3)
O1 C10 C11 C2 49.8(4)
O1 C9 C12 C13 124.7(3)
C1 C9 C12 C13 -115.9(3)
O1 C9 C12 C17 -55.8(4)
C1 C9 C12 C17 63.6(4)
C17 C12 C13 C14 -1.3(5)
C9 C12 C13 C14 178.3(3)
C12 C13 C14 C15 0.2(5)
C13 C14 C15 C16 1.9(5)
C13 C14 C15 Br1 -179.3(2)
C14 C15 C16 C17 -2.9(5)
Br1 C15 C16 C17 178.4(3)
C15 C16 C17 C12 1.7(5)
C13 C12 C17 C16 0.3(5)
C9 C12 C17 C16 -179.3(3)
