#------------------------------------------------------------------------------
#$Date: 2019-11-25 16:04:17 +0200 (Mon, 25 Nov 2019) $
#$Revision: 241276 $
#$URL: file:///home/coder/svn-repositories/cod/cif/4/13/09/4130943.cif $
#------------------------------------------------------------------------------
#
# This file is available in the Crystallography Open Database (COD),
# http://www.crystallography.net/
#
# All data on this site have been placed in the public domain by the
# contributors.
#
data_4130943
loop_
_publ_author_name
'Izquierdo, Susana'
'Essafi, St\'ephanie'
'Del Rosal, Iker'
'Vidossich, Pietro'
'Pleixats, Roser'
'Vallribera, Adelina'
'Ujaque, Gregori'
'Lled\'os, Agust\'i'
'Shafir, Alexandr'
_publ_section_title
;
 Acid Activation in Phenyliodine Dicarboxylates: Direct Observation,
 Structures, and Implications.
;
_journal_issue                   39
_journal_name_full               'Journal of the American Chemical Society'
_journal_page_first              12747
_journal_page_last               12750
_journal_paper_doi               10.1021/jacs.6b07999
_journal_volume                  138
_journal_year                    2016
_chemical_formula_sum            'C10 H7 F4 I O4'
_chemical_formula_weight         394.06
_space_group_IT_number           2
_space_group_name_Hall           '-P 1'
_space_group_name_H-M_alt        'P -1'
_symmetry_cell_setting           triclinic
_symmetry_space_group_name_H-M   'P -1'
_atom_sites_solution_hydrogens   mixed
_audit_creation_method           SHELXL-2014/7
_cell_angle_alpha                108.6001(10)
_cell_angle_beta                 93.4806(12)
_cell_angle_gamma                93.8251(12)
_cell_formula_units_Z            2
_cell_length_a                   4.1971(2)
_cell_length_b                   10.0492(4)
_cell_length_c                   14.9871(7)
_cell_measurement_reflns_used    5528
_cell_measurement_temperature    100(2)
_cell_measurement_theta_max      32.27
_cell_measurement_theta_min      2.88
_cell_volume                     595.52(5)
_computing_cell_refinement       'Bruker APEX2 v2011.4-0'
_computing_data_collection       'Bruker APEX2 v2011.4-0'
_computing_data_reduction        'Bruker SAINT V7.60A'
_computing_molecular_graphics    'Bruker SHELXTL'
_computing_publication_material  'Bruker SHELXTL'
_computing_structure_refinement  'SHELXL-2014 (Sheldrick, 2014)'
_computing_structure_solution    Sir2011
_diffrn_ambient_temperature      100(2)
_diffrn_detector_area_resol_mean 512
_diffrn_detector_type            '4K CCD area detector APEX II'
_diffrn_measured_fraction_theta_full 0.992
_diffrn_measured_fraction_theta_max 0.881
_diffrn_measurement_device_type  'APEX DUO Kappa 4-axis goniometer'
_diffrn_measurement_method
;
 Fullsphere data collection, phi and omega scans
;
_diffrn_measurement_specimen_support 'magnetic support with MicroMount'
_diffrn_radiation_monochromator  'Quazar MX Multilayer Optics'
_diffrn_radiation_type           MoK\a
_diffrn_radiation_wavelength     0.71073
_diffrn_reflns_av_R_equivalents  0.0394
_diffrn_reflns_av_unetI/netI     0.0490
_diffrn_reflns_Laue_measured_fraction_full 0.992
_diffrn_reflns_Laue_measured_fraction_max 0.881
_diffrn_reflns_limit_k_max       14
_diffrn_reflns_limit_k_min       -11
_diffrn_reflns_limit_l_max       22
_diffrn_reflns_limit_l_min       -20
_diffrn_reflns_number            7806
_diffrn_reflns_point_group_measured_fraction_full 0.992
_diffrn_reflns_point_group_measured_fraction_max 0.881
_diffrn_reflns_theta_full        25.242
_diffrn_reflns_theta_max         32.508
_diffrn_reflns_theta_min         2.147
_diffrn_source                   'Microfocus source E025 IuS'
_diffrn_source_current           0.6
_diffrn_source_power             50
_diffrn_source_size              '0.2 mm x 0.2 mm fine focus'
_diffrn_source_type              'Bruker APEX DUO'
_exptl_absorpt_coefficient_mu    2.749
_exptl_absorpt_correction_T_max  0.898
_exptl_absorpt_correction_T_min  0.632
_exptl_absorpt_correction_type   empirical
_exptl_absorpt_process_details
; 
 SADABS Version 2008/1 Bruker-Nonius
 Blessing, Acta Cryst. (1995) A51 33-38
;
_exptl_crystal_colour            colourless
_exptl_crystal_density_diffrn    2.198
_exptl_crystal_description       plate
_exptl_crystal_F_000             376
_exptl_crystal_size_max          0.35
_exptl_crystal_size_mid          0.15
_exptl_crystal_size_min          0.04
_refine_diff_density_max         1.533
_refine_diff_density_min         -2.147
_refine_diff_density_rms         0.184
_refine_ls_extinction_method     none
_refine_ls_goodness_of_fit_ref   1.139
_refine_ls_hydrogen_treatment    constr
_refine_ls_matrix_type           full
_refine_ls_number_parameters     190
_refine_ls_number_reflns         3801
_refine_ls_number_restraints     28
_refine_ls_restrained_S_all      1.139
_refine_ls_R_factor_all          0.0376
_refine_ls_R_factor_gt           0.0358
_refine_ls_shift/su_max          0.000
_refine_ls_shift/su_mean         0.000
_refine_ls_structure_factor_coef Fsqd
_refine_ls_weighting_details
'w=1/[\s^2^(Fo^2^)+(0.0232P)^2^+2.3614P] where P=(Fo^2^+2Fc^2^)/3'
_refine_ls_weighting_scheme      calc
_refine_ls_wR_factor_gt          0.0925
_refine_ls_wR_factor_ref         0.0935
_reflns_Friedel_coverage         0.000
_reflns_number_gt                3605
_reflns_number_total             3801
_reflns_threshold_expression     'I > 2\s(I)'
_cod_data_source_file            ja6b07999_si_003.cif
_cod_data_source_block           mo_sif140b_0m
_cod_depositor_comments
;
The following automatic conversions were performed:

data item '_symmetry_cell_setting' value 'Triclinic' was changed to
'triclinic' in accordance with the
/home/saulius/struct/COD-crude-data/automatic-downloads/DataCite-retrospective/ACS/depositions/lib/dictionaries/cif_core.dic
dictionary named 'cif_core.dic' version 2.4.2 last updated on
2011-04-26.

Automatic conversion script
Id: cif_fix_values 6909 2019-04-08 15:41:33Z antanas 
;
_cod_original_sg_symbol_H-M      P-1
_cod_database_code               4130943
_shelx_shelxl_version_number     2014/7
_shelx_space_group_comment
;
The symmetry employed for this shelxl refinement is uniquely defined
by the following loop, which should always be used as a source of
symmetry information in preference to the above space-group names.
They are only intended as comments.
;
_shelx_estimated_absorpt_t_min   0.446
_shelx_estimated_absorpt_t_max   0.898
_shelx_res_file
;
    mo_sif140b_0m.res created by SHELXL-2014/7
TITL mo_sif140b_0m in P-1
CELL 0.71073   4.19710  10.04920  14.98710 108.6001  93.4806  93.8251
ZERR    2.00   0.00020   0.00040   0.00070   0.0010   0.0012   0.0012
LATT 1
SFAC C  H  O  F  I
UNIT 20 14 8 8 2
LIST 4
L.S. 15
BOND
FMAP 2
PLAN 5
ACTA
CONF
SIZE 0.040 0.150 0.350
TEMP -173.160
ISOR 0.005 F3 > F4'
WGHT    0.023200    2.361400
FVAR       0.21647
MOLE 1
I1    5    0.948738    0.963522    0.156341    11.00000    0.01673    0.00868 =
         0.01578    0.00354    0.00185    0.00001
O1    3    1.267346    1.111473    0.266491    11.00000    0.01933    0.00869 =
         0.02794    0.00297   -0.00239    0.00106
O2    3    0.976328    1.287658    0.257670    11.00000    0.04036    0.01705 =
         0.02457    0.00315   -0.01147    0.00747
O3    3    0.628145    0.785943    0.071195    11.00000    0.02396    0.01471 =
         0.01422    0.00314   -0.00025   -0.00405
O4    3    0.752228    0.855947   -0.050463    11.00000    0.06939    0.03413 =
         0.02153    0.01259   -0.00526   -0.02830
C1    1    0.925165    0.854348    0.253948    11.00000    0.01933    0.01124 =
         0.01590    0.00399   -0.00021   -0.00043
C2    1    0.801222    0.917822    0.339569    11.00000    0.02421    0.01281 =
         0.01830    0.00250    0.00319    0.00144
AFIX  43
H2    2    0.722723    1.008097    0.353525    11.00000   -1.20000
AFIX   0
C3    1    0.795960    0.844494    0.404348    11.00000    0.02761    0.01913 =
         0.01872    0.00406    0.00338   -0.00090
AFIX  43
H3    2    0.714260    0.885054    0.463835    11.00000   -1.20000
AFIX   0
C4    1    0.910205    0.711974    0.381999    11.00000    0.02998    0.01796 =
         0.02052    0.00766   -0.00062   -0.00340
AFIX  43
H4    2    0.906579    0.662739    0.426578    11.00000   -1.20000
AFIX   0
C5    1    1.028918    0.651154    0.295664    11.00000    0.02736    0.01331 =
         0.02702    0.00737   -0.00005    0.00101
AFIX  43
H5    2    1.101743    0.559736    0.280986    11.00000   -1.20000
AFIX   0
C6    1    1.042811    0.722488    0.230052    11.00000    0.02760    0.00964 =
         0.01812    0.00116    0.00162    0.00297
AFIX  43
H6    2    1.129291    0.682678    0.171217    11.00000   -1.20000
AFIX   0
C7    1    1.193336    1.241225    0.292224    11.00000    0.01931    0.01126 =
         0.01464    0.00446    0.00339    0.00092
C8    1    1.411779    1.341453    0.376250    11.00000    0.02021    0.01162 =
         0.02157    0.00389   -0.00040   -0.00023
AFIX  13
H8    2    1.577899    1.395712    0.353286    11.00000   -1.20000
AFIX   0
C9    1    0.607760    0.776818   -0.017100    11.00000    0.02357    0.01302 =
         0.01517    0.00368    0.00065   -0.00037
C10   1    0.381221    0.653540   -0.082152    11.00000    0.01991    0.02055 =
         0.01613    0.00479    0.00009   -0.00022
AFIX   3
PART 1
H10A  2    0.253058    0.684528   -0.125693    10.65000   -1.20000
PART 2
H10B  2    0.203858    0.689728   -0.107573    10.35000   -1.20000
PART 0
AFIX   0
F1    4    1.553506    1.269620    0.428015    11.00000    0.03550    0.01838 =
         0.02503    0.00568   -0.01167    0.00044
F2    4    1.224051    1.430958    0.433464    11.00000    0.02868    0.01967 =
         0.02649   -0.00562   -0.00273    0.00556
PART 1 10.65
DFIX 1.34 0.01 C10 F3 C10 F4 C10 F3' C10 F4'
F3    4    0.195909    0.593050   -0.032114    10.65000    0.02774    0.02537 =
         0.02304    0.00969   -0.00176   -0.01011
F4    4    0.563425    0.555424   -0.132611    10.65000    0.02889    0.01675 =
         0.04516   -0.00475    0.00676    0.00508
PART 2 10.35
F3'   4    0.277247    0.564190   -0.037943    10.35000    0.03929    0.02274 =
         0.03083    0.01248   -0.00833   -0.00922
F4'   4    0.547142    0.583203   -0.155126    10.35000    0.03689    0.02097 =
         0.02457   -0.00913    0.00292    0.00091
PART 0
HKLF 4
REM  mo_sif140b_0m in P-1
REM R1 =  0.0358 for    3605 Fo > 4sig(Fo)  and  0.0376 for all    3801 data
REM    190 parameters refined using     28 restraints
END
WGHT      0.0232      2.3614
REM Highest difference peak  1.533,  deepest hole -2.147,  1-sigma level  0.184
Q1    1   0.5462  0.9318  0.1601  11.00000  0.05    1.53
Q2    1   1.3437  0.9953  0.1582  11.00000  0.05    1.53
Q3    1   1.0922  0.9406  0.1241  11.00000  0.05    1.48
Q4    1   0.8143  0.9940  0.1960  11.00000  0.05    1.06
Q5    1   1.6539  1.3679  0.4714  11.00000  0.05    0.80
;
_shelx_res_checksum              13065
_shelx_hkl_file
;
  -1   0   0  346.99   18.77
  -1   0   0  335.06   18.85
   1   0   0  379.05   18.80
   1   0   0  348.37   18.78
   1   0   0  340.45   18.85
  -2   0   0  132.65    6.95
   2   0   0  121.70    6.95
  -3   0   0   45.29    2.64
  -4   0   0   11.60    0.88
  -5   0   0    4.58    0.56
  -6   0   0    6.37    0.66
  -6   1   0   -0.04    0.16
  -5   1   0    2.41    0.37
  -4   1   0    9.70    0.72
  -3   1   0   67.80    3.78
  -2   1   0  100.32    5.56
  -2   1   0  104.64    5.68
   1  -1   0  931.93   45.56
   1  -1   0  798.71   45.52
   1  -1   0  931.66   45.60
  -1   1   0  756.37   45.62
  -1   1   0  819.95   45.71
  -1   1   0  866.53   45.59
   0  -1   0  234.58   12.55
   0  -1   0  227.19   12.55
   0   1   0  235.21   12.55
   0   1   0  223.79   12.55
   0   1   0  247.69   12.52
  -1  -1   0   54.66    3.24
   1   1   0   61.76    3.24
  -2  -1   0   45.87    2.73
   2   1   0   48.32    2.71
  -3  -1   0   38.31    2.33
  -4  -1   0    2.55    0.41
  -5  -1   0    8.33    0.77
  -5   2   0    4.35    0.41
  -4   2   0   65.06    3.66
  -3   2   0   50.85    2.99
  -3   2   0   48.58    2.77
  -2   2   0  119.09    6.51
  -2   2   0  119.28    6.39
  -2   2   0  116.47    6.46
  -2   2   0  111.55    6.29
   1  -2   0  794.06   41.05
   1  -2   0  828.63   41.14
   1  -2   0  830.83   41.08
   1  -2   0  811.45   41.03
  -1   2   0  717.27   41.05
  -1   2   0  779.96   41.08
  -1   2   0  623.92   41.04
  -1   2   0  748.78   41.13
   0  -2   0   37.70    1.86
   0   2   0   25.73    1.82
   0   2   0   33.31    1.78
   0   2   0   30.79    1.83
  -1  -2   0    0.56    0.15
   1   2   0    0.59    0.23
  -3  -2   0    1.24    0.29
  -4  -2   0    1.33    0.32
  -5  -2   0   17.30    1.35
  -4   3   0   37.77    2.20
  -4   3   0   40.90    2.55
  -3   3   0  138.16    7.85
  -3   3   0  145.56    8.13
  -3   3   0  152.46    7.99
  -2   3   0  396.26   22.61
  -2   3   0  411.89   22.78
  -2   3   0  439.45   22.76
  -2   3   0  438.69   22.66
   1  -3   0  533.57   27.68
   1  -3   0  574.82   27.65
   1  -3   0  475.68   27.60
  -1   3   0  477.84   27.65
  -1   3   0  510.13   27.63
  -1   3   0  526.45   27.77
  -1   3   0  513.01   27.71
   0  -3   0  164.46   10.05
   0   3   0  184.82    9.98
   0   3   0  190.38   10.08
   0   3   0  199.47   10.09
  -1  -3   0   69.32    4.20
   1   3   0   78.12    4.18
  -2  -3   0   84.69    4.89
  -3  -3   0    0.35    0.19
  -4  -3   0   11.64    1.04
  -5  -3   0   30.75    2.16
  -4   4   0   63.16    3.68
  -4   4   0   56.09    3.26
  -3   4   0   96.12    5.13
  -3   4   0   91.75    5.30
  -3   4   0   87.17    5.02
   2  -4   0  416.54   22.93
  -2   4   0  391.65   22.92
  -2   4   0  426.32   23.09
  -2   4   0  457.00   22.98
  -2   4   0  439.21   22.93
   1  -4   0   67.26    3.72
   1  -4   0   71.46    3.58
  -1   4   0   63.42    3.59
  -1   4   0   66.38    3.67
  -1   4   0   62.48    3.80
  -1   4   0   63.31    3.75
   0  -4   0   51.65    3.33
   0   4   0   59.64    3.25
   0   4   0   60.82    3.37
   0   4   0   58.91    3.37
  -1  -4   0   50.79    3.33
   1   4   0   61.42    3.32
  -3  -4   0    1.23    0.34
   3   4   0    0.70    0.25
  -4  -4   0   45.14    2.99
  -5  -4   0   18.14    1.51
  -4   5   0   37.61    2.57
  -3   5   0  101.93    5.71
  -3   5   0  102.71    5.95
   2  -5   0   60.66    3.55
  -2   5   0   70.46    3.65
  -2   5   0   62.33    3.81
   1  -5   0   43.43    2.53
  -1   5   0   41.89    2.44
  -1   5   0   41.60    2.57
  -1   5   0   42.57    2.63
   0  -5   0   19.47    1.38
   0   5   0   18.38    1.37
   0   5   0   21.29    1.26
   0   5   0   19.94    1.40
  -1  -5   0    4.13    0.60
   1   5   0    3.72    0.52
  -2  -5   0   15.89    1.26
   2   5   0   14.52    1.16
  -3  -5   0   44.96    2.95
   3   5   0   43.24    2.80
  -4  -5   0   39.58    2.77
  -5  -5   0   10.77    1.12
  -4   6   0   43.47    2.95
  -3   6   0  181.83   10.03
  -3   6   0  184.38   10.33
   2  -6   0   63.09    3.95
  -2   6   0   83.15    4.38
  -2   6   0   75.86    4.11
   1  -6   0   41.66    2.57
  -1   6   0   43.69    2.68
  -1   6   0   36.83    2.58
  -1   6   0   45.01    2.45
   0  -6   0    3.88    0.55
   0   6   0    5.00    0.44
   0   6   0    4.39    0.59
   0   6   0    4.76    0.42
   0   6   0    3.80    0.58
  -1  -6   0    2.99    0.54
   1   6   0    5.07    0.67
  -2  -6   0    6.28    0.85
   2   6   0    5.19    0.70
  -3  -6   0   46.72    3.18
   3   6   0   47.39    3.02
  -4  -6   0   50.50    3.44
  -5  -6   0   24.36    2.00
  -4   7   0   78.72    4.92
  -3   7   0   70.68    3.98
  -3   7   0   67.52    4.28
  -2   7   0   35.43    2.24
  -2   7   0   38.71    2.50
   1  -7   0   32.25    2.07
  -1   7   0   28.70    2.11
  -1   7   0   32.19    1.90
   0  -7   0   24.99    1.78
   0   7   0   23.22    1.75
   0   7   0   26.09    1.60
  -1  -7   0    0.36    0.23
   1   7   0    0.22    0.19
   1   7   0    0.80    0.23
  -2  -7   0   52.72    3.53
   2   7   0   54.70    3.40
  -3  -7   0  108.95    6.70
   3   7   0  112.56    6.51
  -4  -7   0   14.02    1.43
  -4   8   0   51.37    3.49
  -3   8   0   33.60    2.07
  -3   8   0   32.31    2.39
  -2   8   0   32.85    2.17
  -2   8   0   26.23    1.82
  -1   8   0    2.45    0.50
  -1   8   0    2.99    0.38
   0  -8   0   10.32    1.03
   0   8   0   10.70    0.85
   0   8   0   11.65    1.07
  -1  -8   0   21.77    1.71
   1   8   0   20.39    1.47
   1   8   0   19.84    1.61
  -2  -8   0  104.50    6.39
   2   8   0  106.15    6.24
  -3  -8   0   45.80    3.34
   3   8   0   49.65    3.20
  -4  -8   0   58.76    4.06
  -4   9   0   17.63    1.65
  -3   9   0   15.22    1.43
  -2   9   0    0.29    0.18
  -2   9   0    0.38    0.25
  -1   9   0   41.86    2.54
   0   9   0    8.98    0.81
   0   9   0   10.66    0.79
   0   9   0   10.50    1.06
  -1  -9   0  115.27    7.15
   1   9   0  118.02    6.87
   1   9   0  127.65    7.14
  -2  -9   0  131.01    7.63
   2   9   0  133.92    7.47
   2   9   0  113.43    7.26
  -3  -9   0   33.00    2.57
   3   9   0   31.29    2.34
   3   9   0   30.46    2.30
  -4  -9   0   45.29    3.38
  -4  10   0   13.60    1.64
  -3  10   0   14.89    1.46
  -2  10   0    5.29    0.65
  -2  10   0    5.55    0.88
  -1  10   0    1.60    0.47
  -1  10   0    2.08    0.38
   0  10   0   69.62    3.97
   0  10   0   63.34    4.28
   1  10   0   80.90    5.01
   1  10   0   89.25    5.32
   2  10   0   43.93    2.98
   2  10   0   45.39    3.13
   3  10   0   52.93    3.70
   3  10   0   59.54    3.83
  -4 -10   0   23.82    2.57
  -4  11   0   13.25    1.63
  -3  11   0    0.88    0.44
  -2  11   0    4.71    0.86
  -2  11   0    4.66    0.64
  -1  11   0   31.79    2.14
  -1  11   0   34.49    2.56
   0  11   0   43.60    3.12
   0  11   0   43.13    2.74
   1  11   0   49.51    3.13
   1  11   0   47.21    3.38
   2  11   0   22.64    1.80
   2  11   0   22.18    1.94
   3  11   0   32.85    2.59
  -3  12   0   15.85    1.63
  -2  12   0   23.52    2.05
  -1  12   0   46.09    2.89
  -1  12   0   44.54    3.29
   0  12   0   48.45    3.44
   0  12   0   46.09    2.98
   1  12   0   45.74    3.03
   1  12   0   46.32    3.37
   2  12   0   50.03    3.48
   2  12   0   55.32    3.76
  -2  13   0   19.41    1.87
  -1  13   0   29.08    2.11
  -1  13   0   33.51    2.64
   0  13   0   62.47    3.79
   0  13   0   57.61    4.19
   1  13   0   28.58    2.15
   1  13   0   30.08    2.51
   0  14   0   12.24    1.17
   0  14  -1    8.75    1.04
   2  13  -1    2.85    0.75
   1  13  -1   13.67    1.78
   1  13  -1   13.16    1.40
   0  13  -1   12.94    1.62
   0  13  -1   10.18    1.11
  -1  13  -1   36.28    2.81
  -1  13  -1   34.21    2.39
  -2  13  -1   19.65    1.86
   2  12  -1   11.08    1.45
   2  12  -1    9.93    1.21
   1  12  -1   16.64    1.42
   1  12  -1   18.45    1.73
   0  12  -1   40.18    2.53
   0  12  -1   36.49    2.88
  -1  12  -1   79.52    5.06
  -1  12  -1   75.37    4.55
  -2  12  -1   40.56    3.01
  -3  12  -1   36.29    2.80
   3  11  -1    0.41    0.43
   3  11  -1    0.09    0.28
   2  11  -1   10.38    1.20
   2  11  -1    9.97    1.35
   1  11  -1   39.72    2.83
   1  11  -1   36.16    2.50
   0  11  -1   95.32    5.58
   0  11  -1   98.44    6.01
  -1  11  -1   22.71    1.55
  -1  11  -1   21.41    1.87
  -2  11  -1   65.17    4.28
  -3  11  -1   34.16    2.61
  -4  11  -1   12.49    1.56
  -4 -10   1    0.17    0.47
   3  10  -1   25.22    2.02
   3  10  -1   24.74    2.07
  -3 -10   1   27.31    2.32
   2  10  -1   49.74    3.36
   2  10  -1   47.39    3.18
   1  10  -1   74.23    4.46
   1  10  -1   74.63    4.73
   0  10  -1   54.96    3.66
   0  10  -1   55.37    3.32
  -1  10  -1   81.94    4.64
  -1  10  -1   78.93    5.02
  -2  10  -1   79.54    4.46
  -2  10  -1   60.10    3.96
  -3  10  -1   22.02    1.85
  -4  10  -1    5.47    0.97
  -4  -9   1   16.10    1.70
   3   9  -1   14.60    1.43
  -3  -9   1   16.70    1.63
   2   9  -1   80.36    5.11
  -2  -9   1   85.93    5.32
   1   9  -1  150.04    8.92
   1   9  -1  163.49    8.74
  -1  -9   1  150.12    9.00
   0   9  -1   73.38    4.65
   0   9  -1   77.31    4.37
  -1   9  -1  180.68    9.60
  -1   9  -1  166.53    9.94
  -2   9  -1   34.82    2.34
  -2   9  -1   29.34    1.97
  -3   9  -1   29.92    2.25
  -4   9  -1    6.24    1.00
  -4  -8   1    9.60    1.32
   3   8  -1   62.63    4.06
  -3  -8   1   65.70    4.28
   2   8  -1   78.80    4.99
  -2  -8   1   86.50    5.19
   1   8  -1   72.46    4.49
   1   8  -1   74.25    4.33
  -1  -8   1   73.36    4.58
   0   8  -1  138.54    8.00
   0   8  -1  146.00    8.30
   0  -8   1  149.65    8.33
  -1   8  -1   89.62    5.49
  -1   8  -1   94.47    5.18
  -2   8  -1   48.23    3.13
  -2   8  -1   62.03    3.52
  -3   8  -1    3.66    0.45
  -3   8  -1    3.83    0.69
  -4   8  -1    0.69    0.38
  -5  -7   1   11.97    1.94
  -4  -7   1   28.56    2.27
   3   7  -1   67.60    4.41
  -3  -7   1   76.84    4.65
   2   7  -1  179.47   10.00
  -2  -7   1  173.79   10.11
   1   7  -1  125.32    6.93
  -1  -7   1  114.09    6.96
   0   7  -1  241.02   12.98
   0   7  -1  233.80   13.21
   0   7  -1  239.29   12.93
   0  -7   1  238.14   13.23
  -1   7  -1   82.23    4.52
  -1   7  -1   82.79    4.81
   1  -7   1   76.89    4.71
  -2   7  -1    0.12    0.11
  -2   7  -1    0.10    0.15
  -3   7  -1    0.20    0.22
  -3   7  -1    0.52    0.18
  -4   7  -1    8.85    1.09
  -5  -6   1   15.27    1.45
  -4  -6   1   64.49    4.17
   3   6  -1  122.25    6.86
  -3  -6   1  112.57    6.95
   2   6  -1  168.59    9.33
  -2  -6   1  161.55    9.42
   1   6  -1  184.95   10.03
  -1  -6   1  173.96   10.08
   0   6  -1  152.40    8.63
   0   6  -1  157.94    8.87
   0   6  -1  162.85    8.68
   0  -6   1  161.15    8.90
  -1   6  -1    3.39    0.37
  -1   6  -1    3.24    0.50
   1  -6   1    3.74    0.49
  -2   6  -1    3.05    0.35
  -2   6  -1    2.60    0.45
  -3   6  -1    2.87    0.40
  -3   6  -1    3.50    0.40
  -3   6  -1    4.77    0.64
  -4   6  -1   16.58    1.42
  -5  -5   1   16.50    1.46
   4   5  -1   55.88    3.56
  -4  -5   1   57.00    3.66
   3   5  -1  210.18   11.41
  -3  -5   1  197.91   11.50
   2   5  -1   28.90    1.93
  -2  -5   1   28.19    2.00
   1   5  -1  155.27    8.17
  -1  -5   1  135.72    8.19
   0   5  -1    0.48    0.19
   0   5  -1    0.55    0.15
   0   5  -1    1.17    0.18
   0  -5   1    0.63    0.21
  -1   5  -1   19.85    1.16
   1  -5   1   17.92    1.26
  -2   5  -1    3.03    0.30
  -2   5  -1    2.85    0.37
  -2   5  -1    2.97    0.44
   2  -5   1    2.81    0.28
  -3   5  -1   35.75    2.12
  -3   5  -1   38.95    2.37
  -3   5  -1   33.74    2.12
  -4   5  -1   27.70    1.72
  -4   5  -1   30.12    2.06
  -5  -4   1   39.24    2.68
  -4  -4   1   97.53    5.78
  -3  -4   1   25.44    1.83
  -2  -4   1  135.48    7.68
   1   4  -1  121.82    6.95
  -1  -4   1  127.04    7.00
   0   4  -1   72.94    3.95
   0   4  -1   68.95    3.78
   0   4  -1   71.35    3.81
   0  -4   1   60.43    3.91
  -1   4  -1    0.07    0.07
  -1   4  -1    0.04    0.10
  -1   4  -1   -0.02    0.08
   1  -4   1    0.03    0.07
   1  -4   1   -0.10    0.07
  -2   4  -1   28.97    1.82
  -2   4  -1   29.97    1.92
  -2   4  -1   31.00    1.78
   2  -4   1   32.59    1.84
  -3   4  -1   37.09    2.24
  -3   4  -1   38.60    2.27
  -3   4  -1   41.34    2.46
  -4   4  -1   38.87    2.25
  -4   4  -1   38.58    2.53
  -5  -3   1   45.35    2.94
  -4  -3   1   83.44    4.95
  -3  -3   1   84.12    4.92
  -2  -3   1  169.66    9.43
  -1  -3   1    5.88    0.54
   0   3  -1   21.56    1.36
   0   3  -1   21.72    1.25
   0  -3   1   21.03    1.34
   0  -3   1   21.43    1.37
  -1   3  -1    8.21    0.64
  -1   3  -1    6.79    0.58
  -1   3  -1    7.89    0.54
   1  -3   1    8.46    0.53
   1  -3   1    8.64    0.60
   1  -3   1    9.01    0.54
  -2   3  -1   29.72    1.66
  -2   3  -1   30.09    1.77
  -2   3  -1   26.96    1.64
   2  -3   1   27.42    1.64
  -3   3  -1   65.12    3.81
  -3   3  -1   73.55    4.03
  -4   3  -1   88.94    4.94
  -5   3  -1   30.19    1.81
  -5  -2   1   52.58    3.25
  -4  -2   1   36.30    2.34
  -3  -2   1   48.23    2.92
  -2  -2   1   57.75    3.37
   1   2  -1   39.90    2.41
  -1  -2   1   39.18    2.35
  -1  -2   1   39.71    2.33
   0   2  -1    4.63    0.32
   0   2  -1    4.69    0.38
   0   2  -1    4.42    0.37
   0  -2   1    4.55    0.32
   0  -2   1    4.12    0.36
  -1   2  -1  300.26   15.62
  -1   2  -1  293.16   15.65
  -1   2  -1  276.59   15.69
   1  -2   1  258.20   15.62
   1  -2   1  305.38   15.70
   1  -2   1  307.81   15.62
   1  -2   1  298.84   15.67
  -2   2  -1  182.13    9.38
  -2   2  -1  171.91    9.43
  -2   2  -1  162.27    9.35
   2  -2   1  176.09    9.36
  -3   2  -1   71.02    3.88
  -3   2  -1   63.40    3.74
  -4   2  -1   98.44    5.49
  -5   2  -1   20.15    1.33
  -6   2  -1   23.48    1.48
  -5  -1   1   36.17    2.29
  -4  -1   1   29.99    1.91
  -3  -1   1  120.97    6.76
  -2  -1   1    2.69    0.42
  -2  -1   1    2.87    0.30
  -1  -1   1   22.73    1.36
   0   1  -1  102.51    5.46
   0  -1   1   99.60    5.47
   0  -1   1  102.67    5.50
  -1   1  -1   41.67    2.39
  -1   1  -1   45.41    2.41
   1  -1   1   43.97    2.40
   1  -1   1   44.16    2.47
   1  -1   1   41.42    2.37
   1  -1   1   44.19    2.38
  -2   1  -1   46.18    2.65
  -2   1  -1   47.66    2.69
   2  -1   1   48.05    2.67
  -3   1  -1  239.60   12.99
  -4   1  -1   80.84    4.59
  -5   1  -1   42.71    2.61
  -6   1  -1    7.81    0.72
  -6   0   1   17.74    1.26
  -5   0   1   19.58    1.32
  -4   0   1   61.90    3.56
  -3   0   1   14.18    0.95
  -2   0   1    7.75    0.72
  -2   0   1    8.12    0.56
   1   0  -1    3.09    0.27
   1   0  -1    3.18    0.29
   1   0  -1    2.85    0.31
  -1   0   1    2.91    0.32
  -1   0   1    2.58    0.26
  -1   0   1    3.27    0.30
  -1   0  -1   66.71    3.80
   1   0   1   71.67    3.76
  -2   0  -1  214.77   11.75
   2   0   1  218.48   11.70
  -3   0  -1  269.01   14.62
  -4   0  -1   54.61    3.23
  -5   0  -1   18.59    1.35
  -5   1   1   31.23    1.89
  -4   1   1   15.34    0.99
  -2   1   1    3.63    0.38
  -2   1   1    3.36    0.46
  -2   1   1    3.69    0.34
   1  -1  -1  191.89    9.88
   1  -1  -1  200.07    9.83
   1  -1  -1  177.99    9.87
  -1   1   1  180.88    9.88
  -1   1   1  170.61    9.88
  -1   1   1  171.66    9.83
   0  -1  -1  142.38    7.80
   0   1   1  142.35    7.81
   0   1   1  159.29    7.79
   0   1   1  134.60    7.80
  -1  -1  -1  716.05   39.35
   1   1   1  750.82   39.35
  -2  -1  -1  502.05   27.07
  -3  -1  -1  156.26    8.68
  -4  -1  -1   36.59    2.33
  -5  -1  -1   14.28    1.13
  -4   2   1    5.47    0.41
  -3   2   1    2.12    0.32
  -3   2   1    2.34    0.39
  -2   2   1   58.15    3.47
  -2   2   1   59.70    3.49
  -2   2   1   62.22    3.39
   1  -2  -1  287.89   14.65
   1  -2  -1  271.91   14.58
   1  -2  -1  304.85   14.74
   1  -2  -1  266.19   14.59
   1  -2  -1  277.80   14.64
  -1   2   1  260.47   14.72
  -1   2   1  253.90   14.63
  -1   2   1  261.23   14.65
  -1   2   1  267.99   14.66
   0  -2  -1  681.63   32.50
   0  -2  -1  672.17   32.46
   0  -2  -1  566.59   32.49
   0   2   1  566.65   32.49
   0   2   1  559.51   32.50
   0   2   1  588.07   32.44
  -1  -2  -1   56.04    3.43
   1   2   1   63.26    3.37
  -2  -2  -1  469.52   25.39
  -3  -2  -1   40.72    2.57
  -4  -2  -1   33.87    2.25
  -5  -2  -1    9.42    0.91
  -4   3   1    5.08    0.73
  -3   3   1   15.63    1.27
  -3   3   1   18.94    1.34
  -3   3   1   17.51    1.17
  -2   3   1  118.56    6.10
  -2   3   1  105.17    6.21
  -2   3   1  113.15    6.17
  -2   3   1  105.92    6.01
   1  -3  -1  168.29    7.93
   1  -3  -1  156.61    7.97
  -1   3   1  133.99    7.97
  -1   3   1  138.78    8.01
  -1   3   1  138.03    7.93
  -1   3   1  143.63    8.09
   0  -3  -1  114.35    6.33
   0   3   1  114.94    6.35
   0   3   1  112.49    6.24
   0   3   1  114.51    6.33
  -1  -3  -1  844.43   48.52
   1   3   1  961.25   48.45
  -2  -3  -1  109.18    6.25
   2   3   1  110.12    6.12
  -3  -3  -1   27.12    1.87
   3   3   1   26.51    1.73
  -4  -3  -1    8.39    0.87
  -5  -3  -1    6.94    0.89
  -4   4   1    1.75    0.44
  -3   4   1    7.03    0.72
  -3   4   1    6.19    0.57
  -3   4   1    7.39    0.70
  -2   4   1  240.44   13.14
  -2   4   1  240.59   13.01
  -2   4   1  237.56   12.97
  -2   4   1  237.70   12.96
   1  -4  -1  229.90   11.65
  -1   4   1  212.52   11.76
  -1   4   1  201.24   11.69
  -1   4   1  203.91   11.53
  -1   4   1  223.44   11.62
   0  -4  -1  278.97   15.66
   0   4   1  298.95   15.68
   0   4   1  274.84   15.54
   0   4   1  298.74   15.70
  -1  -4  -1  249.95   14.71
   1   4   1  286.68   14.65
  -2  -4  -1   36.24    2.35
   2   4   1   35.40    2.22
  -3  -4  -1   87.41    5.15
   3   4   1   85.14    4.97
  -4  -4  -1   12.57    1.17
  -5  -4  -1    1.05    0.39
  -4   5   1    0.46    0.27
  -4   5   1    0.11    0.15
  -3   5   1  165.03    9.44
  -3   5   1  168.69    9.19
   2  -5  -1   68.47    4.04
  -2   5   1   72.75    4.15
  -2   5   1   77.54    4.20
  -2   5   1   72.81    4.33
  -2   5   1   75.28    4.13
   1  -5  -1  107.72    5.81
  -1   5   1  103.53    5.93
  -1   5   1  109.15    5.89
  -1   5   1  101.27    5.74
  -1   5   1   97.60    5.62
   0  -5  -1  311.90   16.45
   0   5   1  282.01   16.27
   0   5   1  307.39   16.45
   0   5   1  302.46   16.47
  -1  -5  -1  110.99    6.57
   1   5   1  118.51    6.50
  -2  -5  -1  115.37    6.73
   2   5   1  116.58    6.58
  -3  -5  -1    0.58    0.29
   3   5   1    0.84    0.28
  -4  -5  -1    0.80    0.34
  -5  -5  -1    0.26    0.28
  -4   6   1   52.53    3.50
  -4   6   1   52.73    3.15
  -3   6   1   84.90    4.78
  -3   6   1   82.50    5.05
   2  -6  -1   87.27    5.24
  -2   6   1   92.23    5.38
  -2   6   1  104.07    5.30
  -2   6   1  100.27    5.62
   1  -6  -1  157.55    8.07
  -1   6   1  141.24    8.12
  -1   6   1  138.32    8.18
  -1   6   1  142.24    7.94
  -1   6   1  141.83    7.80
   0  -6  -1  267.94   14.47
   0   6   1  260.52   14.48
   0   6   1  266.99   14.52
   0   6   1  255.40   14.27
  -1  -6  -1   74.87    4.57
   1   6   1   77.54    4.50
   1   6   1   76.06    4.41
  -2  -6  -1   36.56    2.50
   2   6   1   35.31    2.35
  -3  -6  -1    3.92    0.72
   3   6   1    3.92    0.62
  -4  -6  -1    0.05    0.23
  -5  -6  -1    3.90    0.78
  -4   7   1   46.77    3.22
  -3   7   1   39.95    2.55
  -3   7   1   44.55    2.88
  -2   7   1  100.12    5.17
  -2   7   1   98.72    5.62
  -2   7   1   82.47    5.31
   1  -7  -1  213.91   11.20
  -1   7   1  200.22   11.28
  -1   7   1  184.42   11.01
  -1   7   1  205.31   11.33
  -1   7   1  204.42   10.87
   0  -7  -1   94.38    5.78
   0   7   1  102.00    5.84
   0   7   1  101.71    5.60
  -1  -7  -1   67.74    4.22
   1   7   1   66.68    4.15
   1   7   1   70.44    4.04
  -2  -7  -1    4.62    0.79
   2   7   1    3.91    0.62
  -3  -7  -1    1.22    0.45
   3   7   1    0.76    0.31
  -4   8   1   33.00    2.52
  -3   8   1   58.26    3.38
  -3   8   1   54.21    3.68
  -2   8   1   54.99    3.35
  -2   8   1   58.11    3.65
  -1   8   1  129.15    7.24
  -1   8   1  130.64    7.57
   0  -8  -1   63.00    3.86
   0   8   1   62.15    3.87
   0   8   1   62.34    3.50
   0   8   1   58.09    3.59
  -1  -8  -1   27.38    2.06
   1   8   1   26.67    1.85
   1   8   1   27.89    2.00
  -2  -8  -1    4.59    0.81
   2   8   1    3.23    0.56
   2   8   1    4.05    0.67
  -3  -8  -1    0.53    0.39
   3   8   1    0.78    0.38
  -4  -8  -1   13.49    1.47
  -4   9   1   27.82    2.27
  -3   9   1   66.14    4.38
  -3   9   1   69.13    4.03
  -2   9   1  113.55    6.85
  -2   9   1  115.82    6.53
  -1   9   1   92.21    5.75
  -1   9   1   96.30    5.40
   0   9   1   51.01    2.91
   0   9   1   49.46    3.29
   0   9   1   46.49    2.97
   1   9   1    3.41    0.66
   1   9   1    3.62    0.55
  -2  -9  -1    0.80    0.44
   2   9   1    0.91    0.34
   2   9   1    0.93    0.36
  -3  -9  -1    1.53    0.59
   3   9   1    0.85    0.39
   3   9   1    0.92    0.40
  -4  -9  -1   21.51    1.99
   4   9   1   15.86    2.27
  -4  10   1   50.06    3.59
  -3  10   1   51.38    3.58
  -2  10   1   45.21    2.92
  -2  10   1   49.47    3.30
  -1  10   1   24.40    1.64
  -1  10   1   22.46    1.93
   0  10   1    1.73    0.48
   0  10   1    1.62    0.36
   1  10   1    0.36    0.31
   1  10   1    0.36    0.22
   2  10   1    4.01    0.67
   2  10   1    3.49    0.68
   3  10   1   19.85    1.72
  -4  11   1   23.15    2.11
  -3  11   1   22.60    2.02
  -2  11   1   15.00    1.51
  -2  11   1   15.58    1.24
  -1  11   1   11.08    1.46
  -1  11   1   17.33    1.23
   0  11   1    2.97    0.71
   0  11   1    2.58    0.48
   1  11   1   16.11    1.38
   1  11   1   18.05    1.66
   2  11   1   13.75    1.40
   2  11   1   11.54    1.31
  -3  12   1   26.05    2.29
  -2  12   1   17.63    1.73
  -1  12   1    2.95    0.54
  -1  12   1    2.30    0.63
   0  12   1   13.68    1.47
   0  12   1   12.92    1.14
   1  12   1    2.33    0.63
   1  12   1    1.22    0.41
   2  12   1   24.18    1.91
   2  12   1   22.38    2.05
  -1  13   1   12.73    1.73
  -1  13   1   15.30    1.27
   0  13   1    6.68    0.89
   0  13   1    8.60    1.33
   1  13   1   15.53    1.36
   1  13   1   12.67    1.70
   1  14  -2    5.72    0.86
   0  14  -2   17.80    1.45
   2  13  -2   23.42    2.17
   1  13  -2   39.11    2.70
   1  13  -2   40.40    3.09
   0  13  -2    3.02    0.57
   0  13  -2    2.22    0.67
  -1  13  -2   10.12    1.39
  -2  13  -2    7.29    1.14
  -3  13  -2    5.46    1.23
   3  12  -2   17.91    1.79
   2  12  -2    6.99    0.99
   2  12  -2    9.22    1.34
   1  12  -2   13.46    1.43
   1  12  -2   12.67    1.15
   0  12  -2   -0.18    0.19
   0  12  -2    0.53    0.25
  -1  12  -2    3.89    0.81
  -1  12  -2    5.84    0.68
  -2  12  -2    2.90    0.68
  -3  12  -2    9.58    1.31
  -4  12  -2   14.26    1.54
   3  11  -2    6.13    0.96
   3  11  -2    4.61    0.90
   2  11  -2   19.05    1.60
   2  11  -2   19.57    1.78
   1  11  -2    1.10    0.45
   1  11  -2    1.26    0.37
   0  11  -2   17.58    1.65
   0  11  -2   19.18    1.37
  -1  11  -2   35.89    2.18
  -1  11  -2   32.00    2.51
  -2  11  -2   36.02    2.66
  -3  11  -2   39.18    2.85
  -4  11  -2   31.40    2.51
  -4 -10   2   21.73    2.08
   3  10  -2   15.39    1.51
  -3 -10   2   14.66    1.82
   2  10  -2   27.25    2.02
   2  10  -2   27.87    2.18
  -2 -10   2   27.68    2.32
   1  10  -2    2.34    0.46
   1  10  -2    1.31    0.46
   0  10  -2   30.14    1.94
   0  10  -2   29.58    2.24
  -1  10  -2   51.13    3.35
  -1  10  -2   48.65    2.95
  -2  10  -2   46.66    2.84
  -2  10  -2   33.92    2.34
  -3  10  -2   58.77    3.86
  -4  10  -2   60.35    4.05
  -4  -9   2    9.66    1.37
   3   9  -2   23.31    1.93
  -3  -9   2   23.67    2.08
   2   9  -2    0.71    0.36
  -2  -9   2    0.99    0.44
   1   9  -2   31.00    2.27
   1   9  -2   32.08    2.09
  -1  -9   2   30.40    2.35
   0   9  -2   38.57    2.41
   0   9  -2   40.32    2.72
  -1   9  -2   35.42    2.17
  -1   9  -2   36.05    2.49
  -2   9  -2   79.33    4.31
  -2   9  -2   59.27    3.85
  -3   9  -2   45.89    3.09
  -4   9  -2   57.93    3.86
  -4  -8   2    1.82    0.62
   3   8  -2    1.39    0.47
  -3  -8   2    1.25    0.48
   2   8  -2   21.43    1.69
  -2  -8   2   20.87    1.79
   1   8  -2   53.53    3.37
  -1  -8   2   50.93    3.42
   0   8  -2  118.76    6.90
   0   8  -2  117.42    6.62
   0  -8   2  120.38    6.94
  -1   8  -2  150.55    8.02
  -1   8  -2  140.23    8.31
  -2   8  -2   66.99    4.04
  -2   8  -2   63.80    3.72
  -3   8  -2   97.67    5.83
  -4   8  -2   47.08    3.20
  -5  -7   2    7.47    1.16
   4   7  -2   12.68    1.29
  -4  -7   2   13.08    1.36
   3   7  -2   -0.09    0.21
  -3  -7   2    0.06    0.21
   2   7  -2  119.54    7.14
  -2  -7   2  126.52    7.27
   1   7  -2  133.97    7.33
  -1  -7   2  120.31    7.36
   0   7  -2  118.32    6.88
   0   7  -2  120.49    6.59
   0   7  -2  122.20    6.66
   0  -7   2  119.00    6.93
  -1   7  -2  162.59    9.46
  -1   7  -2  166.16    9.19
   1  -7   2  177.13    9.47
  -2   7  -2  126.76    7.18
  -2   7  -2  123.85    6.89
  -3   7  -2  233.25   12.70
  -3   7  -2  228.73   12.87
  -3   7  -2  240.84   13.08
  -4   7  -2   17.17    1.47
  -5  -6   2    1.82    0.52
   4   6  -2    0.25    0.30
  -4  -6   2    0.74    0.33
   3   6  -2   63.92    3.94
  -3  -6   2   62.15    4.02
   2   6  -2   23.12    1.70
  -2  -6   2   23.66    1.78
   1   6  -2  127.66    6.92
  -1  -6   2  113.75    6.92
   0   6  -2  301.00   16.09
   0   6  -2  316.29   16.04
   0   6  -2  286.02   16.28
   0  -6   2  283.99   16.30
  -1   6  -2  173.69   10.00
  -1   6  -2  181.60    9.78
   1  -6   2  184.57    9.99
  -2   6  -2  294.10   16.30
  -2   6  -2  309.64   16.04
  -2   6  -2  287.56   16.19
  -3   6  -2   13.26    1.04
  -3   6  -2   15.92    0.98
  -3   6  -2   15.18    1.20
  -4   6  -2    8.86    0.74
  -4   6  -2   10.35    0.99
  -5   6  -2    0.19    0.15
  -5  -5   2    0.90    0.34
  -4  -5   2   12.92    1.22
  -3  -5   2   51.28    3.32
   2   5  -2  131.99    7.44
  -2  -5   2  129.66    7.50
   1   5  -2  261.25   13.89
  -1  -5   2  243.16   13.83
  -1  -5   2  253.43   13.92
   0   5  -2  140.44    7.88
   0   5  -2  154.19    7.68
   0  -5   2  126.73    7.87
  -1   5  -2  100.91    5.31
  -1   5  -2   95.91    5.50
  -1   5  -2   91.71    5.46
   1  -5   2   99.29    5.49
  -2   5  -2   86.24    4.66
  -2   5  -2   89.52    4.89
  -2   5  -2   79.80    4.77
   2  -5   2   84.46    4.68
  -3   5  -2   11.75    0.78
  -3   5  -2   10.62    0.82
  -3   5  -2   11.83    0.96
  -4   5  -2    0.49    0.17
  -4   5  -2    0.97    0.33
  -5   5  -2    0.95    0.21
  -5  -4   2    3.86    0.66
  -4  -4   2   39.23    2.64
  -3  -4   2   31.36    2.15
  -2  -4   2  257.04   14.16
  -1  -4   2  204.49   11.21
  -1  -4   2  201.91   11.14
   0   4  -2  281.48   15.20
   0   4  -2  291.74   15.02
   0  -4   2  263.25   15.19
  -1   4  -2  248.63   13.82
  -1   4  -2  261.88   13.95
  -1   4  -2  261.12   13.99
   1  -4   2  257.37   13.96
  -2   4  -2   28.66    1.82
  -2   4  -2   29.34    1.88
  -2   4  -2   31.26    1.73
   2  -4   2   30.78    1.84
   2  -4   2   31.25    1.72
  -3   4  -2   16.90    1.12
  -3   4  -2   13.07    0.95
  -4   4  -2    0.32    0.22
  -4   4  -2    0.29    0.14
  -5   4  -2    0.85    0.19
  -5  -3   2    6.54    0.80
  -4  -3   2   21.29    1.57
  -3  -3   2  121.74    6.95
  -2  -3   2  162.11    9.03
  -2  -3   2  163.12    9.14
  -1  -3   2  447.67   23.58
  -1  -3   2  424.60   23.57
   0   3  -2  173.51    9.10
   0   3  -2  172.12    9.09
   0   3  -2  174.92    8.97
   0  -3   2  161.61    9.07
   0  -3   2  151.24    8.98
  -1   3  -2  415.09   23.18
  -1   3  -2  422.57   23.05
  -1   3  -2  405.44   23.15
   1  -3   2  410.08   23.08
   1  -3   2  459.17   23.20
   1  -3   2  472.48   23.06
  -2   3  -2   33.96    1.83
  -2   3  -2   30.31    1.87
  -2   3  -2   32.67    1.93
   2  -3   2   31.30    1.81
  -3   3  -2   18.28    1.22
  -3   3  -2   20.54    1.32
  -4   3  -2    1.58    0.28
  -5   3  -2   10.60    0.81
  -6   3  -2   10.19    0.76
  -5  -2   2    7.97    0.77
  -4  -2   2   17.13    1.27
  -3  -2   2  141.77    7.93
  -2  -2   2  296.78   16.87
  -2  -2   2  325.64   17.05
  -1  -2   2   54.10    3.13
   0   2  -2  147.31    7.94
   0   2  -2  147.99    7.86
   0  -2   2  140.10    7.88
   0  -2   2  149.90    7.93
  -1   2  -2    3.81    0.30
  -1   2  -2    3.93    0.24
  -1   2  -2    3.48    0.30
   1  -2   2    3.54    0.23
   1  -2   2    3.79    0.31
  -2   2  -2   46.46    2.73
  -2   2  -2   45.88    2.74
   2  -2   2   48.28    2.69
   2  -2   2   52.16    2.74
  -4   2  -2   22.68    1.48
  -5   2  -2   18.41    1.29
  -6   2  -2   12.11    0.95
  -6  -1   2    3.53    0.54
  -5  -1   2   32.24    2.06
  -4  -1   2  111.13    6.24
  -3  -1   2  222.47   12.67
  -3  -1   2  229.96   12.37
  -2  -1   2   77.44    4.51
  -2  -1   2   76.98    4.32
   0   1  -2  277.43   13.43
   0   1  -2  239.61   13.47
   0   1  -2  259.15   13.44
   0  -1   2  248.93   13.43
   0  -1   2  245.94   13.44
   0  -1   2  232.46   13.46
  -1   1  -2   40.59    2.23
  -1   1  -2   35.25    2.29
   1  -1   2   45.47    2.25
  -2   1  -2    0.48    0.13
  -2   1  -2    0.36    0.11
   2  -1   2    0.43    0.11
  -3   1  -2   75.17    4.26
  -4   1  -2   41.81    2.54
  -5   1  -2   24.19    1.65
  -6   0   2   14.52    1.03
  -5   0   2   18.06    1.21
  -4   0   2  126.10    6.96
  -3   0   2  153.98    8.76
  -3   0   2  154.12    8.41
  -2   0   2  249.79   13.86
  -2   0   2  261.32   14.00
   1   0  -2  654.55   32.02
   1   0  -2  570.65   32.05
   1   0  -2  658.35   32.08
  -1   0   2  564.46   32.02
  -1   0   2  568.77   32.07
  -1   0   2  589.66   32.07
  -1   0   2  576.69   31.95
   0   0  -2   68.38    3.45
   0   0  -2   60.70    3.46
   0   0  -2   61.44    3.43
   0   0   2   64.50    3.45
   0   0   2   60.92    3.46
   0   0   2   62.30    3.43
  -1   0  -2  170.79    8.77
   1   0   2  151.44    8.74
  -2   0  -2    9.51    0.74
   2   0   2   10.70    0.64
  -3   0  -2    9.06    0.74
   3   0   2    9.25    0.64
  -4   0  -2   33.73    2.13
  -5   0  -2   34.99    2.27
  -5   1   2   40.89    2.26
  -5   1   2   36.91    2.24
  -4   1   2   82.74    4.56
  -3   1   2  112.06    6.32
  -3   1   2  122.95    6.76
  -2   1   2   16.15    1.13
  -2   1   2   16.48    1.07
  -2   1   2   16.53    1.17
   1  -1  -2   66.20    3.53
   1  -1  -2   65.67    3.55
   1  -1  -2   65.20    3.58
  -1   1   2   65.87    3.53
  -1   1   2   58.63    3.55
  -1   1   2   63.21    3.59
  -1   1   2   61.46    3.47
   0  -1  -2   82.74    5.11
   0  -1  -2   87.72    5.10
   0  -1  -2   99.48    5.09
   0   1   2  102.41    5.11
   0   1   2   89.74    5.10
   0   1   2   91.13    5.12
   0   1   2   96.79    5.09
  -1  -1  -2   56.33    3.38
   1   1   2   57.66    3.41
   1   1   2   63.98    3.28
  -2  -1  -2  115.42    6.45
  -3  -1  -2  117.47    6.52
   3   1   2  113.31    6.49
  -4  -1  -2   42.09    2.65
  -5  -1  -2   42.04    2.70
  -3   2   2   45.18    2.87
  -3   2   2   44.76    2.75
  -3   2   2   48.95    2.95
  -2   2   2  126.39    6.68
  -2   2   2  124.37    6.77
  -2   2   2  112.35    6.76
   1  -2  -2    9.78    0.61
   1  -2  -2   10.21    0.65
  -1   2   2    9.84    0.66
  -1   2   2    9.81    0.66
  -1   2   2   10.65    0.69
   0  -2  -2    4.60    0.44
   0  -2  -2    6.31    0.46
  -1  -2  -2  203.32   11.46
   1   2   2  216.05   11.36
  -2  -2  -2  310.71   17.26
   2   2   2  322.90   17.11
  -3  -2  -2  107.82    6.49
   3   2   2  119.35    6.33
  -4  -2  -2  125.47    7.20
  -5  -2  -2   52.84    3.33
  -4   3   2   71.43    4.39
  -3   3   2   85.37    4.90
  -3   3   2   87.38    5.08
  -3   3   2   86.12    5.04
  -2   3   2   29.05    1.65
  -2   3   2   29.72    1.85
  -2   3   2   27.19    1.76
  -2   3   2   26.74    1.71
   1  -3  -2    7.26    0.54
   1  -3  -2    8.74    0.55
  -1   3   2    8.29    0.59
  -1   3   2    7.98    0.60
  -1   3   2    6.74    0.62
  -1   3   2    7.52    0.53
   0  -3  -2   32.40    1.97
  -1  -3  -2  250.85   14.14
   1   3   2  266.86   14.05
  -2  -3  -2   62.69    3.71
   2   3   2   61.04    3.54
  -3  -3  -2  113.07    6.88
   3   3   2  126.58    6.72
  -4  -3  -2   56.43    3.55
  -5  -3  -2   17.99    1.48
  -4   4   2   19.85    1.40
  -4   4   2   19.75    1.60
  -3   4   2    6.44    0.66
  -3   4   2    5.81    0.57
  -3   4   2    7.38    0.75
  -2   4   2   10.64    0.74
  -2   4   2    9.76    0.75
  -2   4   2    9.67    0.75
  -2   4   2    8.97    0.83
   1  -4  -2   42.84    2.22
   1  -4  -2   40.81    2.28
  -1   4   2   36.26    2.38
  -1   4   2   39.67    2.20
  -1   4   2   36.08    2.26
  -1   4   2   34.78    2.32
   0  -4  -2   83.66    5.02
   0   4   2   86.98    5.04
   0   4   2   92.63    5.10
   0   4   2   91.57    4.94
  -1  -4  -2   58.41    3.60
   1   4   2   61.54    3.52
   1   4   2   62.16    3.54
  -2  -4  -2  182.89   10.57
   2   4   2  195.14   10.42
  -3  -4  -2   59.27    3.81
   3   4   2   63.10    3.61
  -4  -4  -2   43.94    2.96
  -5  -4  -2    9.86    1.07
  -5   5   2   14.40    1.47
  -4   5   2    2.24    0.41
  -4   5   2    2.03    0.52
  -3   5   2    0.11    0.17
  -3   5   2    0.05    0.14
  -3   5   2    0.16    0.14
  -2   5   2    9.51    0.74
  -2   5   2    9.57    0.90
  -2   5   2   11.07    0.82
  -2   5   2   10.27    0.79
   1  -5  -2   53.93    2.98
  -1   5   2   46.83    3.03
  -1   5   2   51.31    2.93
  -1   5   2   50.90    2.83
  -1   5   2   48.89    3.08
   0  -5  -2  384.19   21.03
   0   5   2  386.35   20.90
   0   5   2  383.20   21.06
   0   5   2  394.76   21.11
  -1  -5  -2  355.58   19.49
   1   5   2  349.49   19.36
   1   5   2  364.22   19.42
  -2  -5  -2  110.95    6.62
   2   5   2  116.69    6.46
  -3  -5  -2   92.55    5.63
   3   5   2   94.29    5.39
  -4  -5  -2   40.18    2.82
  -5  -5  -2   25.91    2.07
  -5   6   2   12.94    1.38
  -4   6   2    8.04    1.10
  -4   6   2    5.73    0.71
  -3   6   2   12.03    0.93
  -3   6   2   12.90    1.16
  -3   6   2   10.59    0.91
  -2   6   2   10.50    0.75
  -2   6   2   11.94    0.92
  -2   6   2    9.52    0.81
  -2   6   2    9.45    0.95
   1  -6  -2   91.53    5.01
  -1   6   2   79.91    5.07
  -1   6   2   87.42    5.18
  -1   6   2   83.72    4.92
  -1   6   2   92.40    4.82
   0  -6  -2  141.01    8.19
   0   6   2  138.93    8.03
   0   6   2  147.16    8.30
   0   6   2  143.64    8.24
   0   6   2  155.82    8.00
  -1  -6  -2  110.37    6.41
   1   6   2  110.34    6.33
   1   6   2  110.22    6.24
  -2  -6  -2  109.51    6.37
   2   6   2  105.58    6.17
  -3  -6  -2  107.02    6.24
   3   6   2   99.17    5.92
  -4  -6  -2   19.94    1.75
  -5  -6  -2    9.16    1.25
  -5   7   2    1.13    0.51
  -4   7   2    0.05    0.26
  -4   7   2    0.34    0.22
  -3   7   2    3.82    0.53
  -3   7   2    2.94    0.62
  -2   7   2    2.37    0.31
  -2   7   2    2.26    0.40
  -2   7   2    1.84    0.46
  -2   7   2    2.82    0.61
   1  -7  -2  181.92    9.71
  -1   7   2  169.13    9.79
  -1   7   2  176.31    9.42
  -1   7   2  172.63    9.85
  -1   7   2  166.55    9.55
   0  -7  -2   99.93    5.79
   0   7   2  104.71    5.52
   0   7   2   93.67    5.79
   0   7   2   95.48    5.58
  -1  -7  -2   62.99    3.95
   1   7   2   63.79    3.78
   1   7   2   63.32    3.89
  -2  -7  -2   70.77    4.38
   2   7   2   69.23    4.18
   2   7   2   66.77    4.17
  -3  -7  -2   14.61    1.39
   3   7   2   12.36    1.14
  -4  -7  -2   39.61    2.94
  -5   8   2    0.30    0.48
  -4   8   2    2.12    0.61
  -3   8   2    6.06    0.72
  -3   8   2    5.94    0.92
  -2   8   2  100.47    6.11
  -2   8   2  102.40    5.82
  -1   8   2  100.68    5.32
  -1   8   2   96.08    5.82
  -1   8   2   91.22    5.47
   0   8   2   70.96    4.81
   0   8   2   76.19    4.59
   0   8   2   88.87    4.54
  -1  -8  -2   73.96    4.82
   1   8   2   78.99    4.63
   1   8   2   82.61    4.81
  -2  -8  -2  100.04    5.96
   2   8   2   97.83    5.73
   2   8   2   91.04    5.67
  -3  -8  -2   55.60    3.77
   3   8   2   55.73    3.54
   3   8   2   52.52    3.54
  -4  -8  -2    4.41    0.92
   4   8   2    4.34    0.82
  -5   9   2    0.13    0.52
  -4   9   2    4.26    0.89
  -3   9   2   23.76    2.00
  -3   9   2   24.33    1.72
  -2   9   2   92.61    5.39
  -2   9   2   80.47    4.99
  -1   9   2   55.94    3.76
  -1   9   2   57.93    3.43
   0   9   2  124.12    7.49
   0   9   2  131.51    7.83
   0   9   2  142.51    7.47
   1   9   2  116.85    7.01
   1   9   2  128.33    7.27
   2   9   2   54.53    3.48
   2   9   2   53.86    3.55
  -3  -9  -2   27.49    2.27
   3   9   2   24.84    2.01
  -4  -9  -2    0.63    0.47
  -4  10   2    3.78    0.87
  -3  10   2   33.31    2.60
  -2  10   2   36.20    2.21
  -2  10   2   28.09    2.40
  -1  10   2  112.17    6.32
  -1  10   2  107.45    6.68
   0  10   2   79.82    4.96
   0  10   2   75.83    4.57
   1  10   2   70.51    4.13
   1  10   2   63.64    4.31
   2  10   2   29.02    2.20
   2  10   2   26.74    2.06
   3  10   2    0.19    0.33
  -3  11   2   49.66    3.59
  -2  11   2   43.05    3.15
  -2  11   2   42.36    2.77
  -1  11   2   55.87    3.37
  -1  11   2   51.98    3.74
   0  11   2   40.64    2.92
   0  11   2   37.24    2.52
   1  11   2   13.94    1.24
   1  11   2   13.55    1.42
   2  11   2    6.82    1.10
   2  11   2    7.20    1.02
  -3  12   2   27.78    2.75
  -2  12   2   56.95    3.67
  -2  12   2   61.27    4.16
  -1  12   2   41.23    3.04
  -1  12   2   37.41    2.57
   0  12   2   39.02    2.86
   0  12   2   32.76    2.37
   1  12   2   17.86    1.49
   1  12   2   16.90    1.71
   2  12   2    1.36    0.58
  -1  13   2   26.24    1.94
  -1  13   2   25.25    2.30
   0  13   2   13.66    1.27
   0  13   2   16.32    1.91
   1  13   2    1.75    0.65
   1  14  -3   41.81    2.85
   0  14  -3   29.95    2.20
   0  14  -3   29.27    2.58
  -1  14  -3   30.23    2.78
   2  13  -3   36.44    2.88
   2  13  -3   34.27    2.57
   1  13  -3   57.50    3.86
   1  13  -3   48.72    3.35
   0  13  -3   50.90    3.19
   0  13  -3   50.75    3.65
  -1  13  -3   24.56    2.14
  -2  13  -3   11.59    1.46
  -3  13  -3    0.45    0.41
   3  12  -3   28.45    2.42
   2  12  -3   45.62    3.11
   2  12  -3   46.09    3.37
   1  12  -3   63.23    4.26
   1  12  -3   61.97    3.89
   0  12  -3   80.77    4.74
   0  12  -3   80.33    5.20
  -1  12  -3   14.16    1.46
  -1  12  -3   15.88    1.16
  -2  12  -3    9.12    1.25
  -3  12  -3    0.66    0.39
  -4  12  -3    2.31    0.71
   3  11  -3   20.79    1.92
   2  11  -3   61.58    4.00
   2  11  -3   65.01    4.26
   1  11  -3   66.30    4.08
   1  11  -3   67.93    4.41
   0  11  -3    3.17    0.68
   0  11  -3    3.41    0.53
  -1  11  -3   32.16    2.47
  -1  11  -3   34.09    2.10
  -2  11  -3    0.00    0.23
  -3  11  -3    2.15    0.57
  -4  11  -3    3.11    0.74
  -4 -10   3   27.89    2.45
   3  10  -3   37.31    2.84
  -3 -10   3   40.25    3.08
   2  10  -3   64.50    4.45
  -2 -10   3   74.57    4.69
   1  10  -3   51.34    3.46
   1  10  -3   51.52    3.21
   0  10  -3   26.35    2.09
   0  10  -3   28.57    1.82
  -1  10  -3   14.30    0.99
  -1  10  -3   11.82    1.21
  -2  10  -3    7.43    1.01
  -3  10  -3   11.92    1.20
  -4  10  -3   12.19    1.29
  -4  -9   3   27.57    2.35
   3   9  -3  121.84    7.27
  -3  -9   3  120.07    7.41
   2   9  -3  121.17    7.23
  -2  -9   3  122.56    7.39
   1   9  -3   19.12    1.59
  -1  -9   3   18.43    1.64
   0   9  -3   36.06    2.32
   0   9  -3   38.91    2.62
   0  -9   3   39.88    2.70
  -1   9  -3    1.94    0.44
  -2   9  -3    1.85    0.46
  -2   9  -3    1.84    0.29
  -3   9  -3   14.07    1.27
  -4   9  -3   32.61    2.43
   4   8  -3   49.54    3.44
  -4  -8   3   50.54    3.55
   3   8  -3   48.13    3.35
  -3  -8   3   52.06    3.51
   2   8  -3   25.46    1.91
  -2  -8   3   23.20    1.95
   1   8  -3   10.66    1.01
  -1  -8   3    9.18    1.15
   0   8  -3   14.87    1.26
   0   8  -3   14.30    0.99
   0   8  -3   15.58    1.06
   0  -8   3   15.72    1.33
  -1   8  -3   20.14    1.54
  -1   8  -3   21.11    1.30
   1  -8   3   20.10    1.56
  -2   8  -3   44.37    2.51
  -2   8  -3   41.16    2.79
  -3   8  -3   77.31    4.49
  -3   8  -3   69.30    4.32
  -4   8  -3   36.01    2.56
  -5  -7   3   18.76    1.72
   4   7  -3   61.81    3.94
  -4  -7   3   57.88    3.98
   3   7  -3   49.82    3.32
  -3  -7   3   51.08    3.44
   2   7  -3    5.20    0.77
  -2  -7   3    5.79    0.87
   1   7  -3   39.52    2.54
  -1  -7   3   36.42    2.56
   0   7  -3   11.41    0.80
   0   7  -3   10.53    0.71
   0   7  -3   10.95    0.97
   0  -7   3    9.80    0.97
  -1   7  -3   42.93    2.91
  -1   7  -3   50.19    2.69
   1  -7   3   47.20    2.95
  -2   7  -3  120.02    7.05
  -2   7  -3  123.86    7.10
  -2   7  -3  128.45    6.80
  -3   7  -3   81.23    4.35
  -3   7  -3   62.75    4.12
  -4   7  -3   55.25    3.38
  -4   7  -3   58.08    3.61
  -5   7  -3   43.33    2.65
  -5  -6   3   32.49    2.43
   4   6  -3   56.04    3.63
  -4  -6   3   54.94    3.67
   3   6  -3   36.59    2.64
  -3  -6   3   42.70    2.78
   2   6  -3   60.70    3.78
  -2  -6   3   61.97    3.85
  -2  -6   3   60.94    3.74
   1   6  -3    4.95    0.66
  -1  -6   3    2.85    0.52
   0   6  -3   54.85    2.99
   0   6  -3   51.36    3.23
   0  -6   3   54.29    3.30
  -1   6  -3   75.94    4.54
  -1   6  -3   81.90    4.56
  -1   6  -3   78.87    4.31
   1  -6   3   76.20    4.54
  -2   6  -3  104.75    6.05
  -2   6  -3  107.08    6.12
  -2   6  -3  109.43    5.85
  -3   6  -3   68.29    4.30
  -3   6  -3   80.71    4.47
  -3   6  -3   76.31    4.15
  -4   6  -3   66.43    3.96
  -4   6  -3   70.19    4.17
  -5   6  -3   40.35    2.45
  -5  -5   3   44.10    2.99
  -4  -5   3   38.38    2.65
  -3  -5   3    1.85    0.46
  -2  -5   3    1.93    0.42
  -2  -5   3    1.67    0.36
   1   5  -3   23.77    1.58
  -1  -5   3   20.88    1.49
  -1  -5   3   22.21    1.58
  -1  -5   3   23.31    1.54
   0   5  -3   91.32    5.11
   0   5  -3   89.58    4.87
   0  -5   3   86.86    5.13
  -1   5  -3  294.96   17.07
  -1   5  -3  340.24   17.12
  -1   5  -3  309.33   16.88
   1  -5   3  313.94   17.11
  -2   5  -3  178.59   10.29
  -2   5  -3  166.76   10.23
  -2   5  -3  184.66   10.07
   2  -5   3  189.27   10.16
   2  -5   3  212.73   10.08
  -3   5  -3  134.19    7.63
  -3   5  -3  141.23    7.73
  -4   5  -3   39.54    2.44
  -4   5  -3   41.65    2.60
  -5   5  -3   34.79    2.14
  -5  -4   3   17.88    1.47
  -4  -4   3    7.43    0.81
  -3  -4   3   -0.06    0.14
  -1  -4   3  302.61   15.88
  -1  -4   3  287.48   15.93
  -1  -4   3  284.74   15.87
   0   4  -3  351.08   19.12
   0   4  -3  356.59   19.14
   0   4  -3  382.62   18.96
   0  -4   3  338.49   19.24
   0  -4   3  336.54   18.99
  -1   4  -3  245.88   13.39
  -1   4  -3  233.72   13.21
  -1   4  -3  253.94   13.39
   1  -4   3  251.85   13.21
  -2   4  -3  130.67    7.36
  -2   4  -3  135.69    7.19
   2  -4   3  132.36    7.17
  -3   4  -3   58.02    3.36
  -3   4  -3   56.23    3.29
  -4   4  -3   99.18    5.58
  -5   4  -3    8.13    0.70
  -5  -3   3   16.16    1.31
  -4  -3   3    0.24    0.19
  -3  -3   3    1.07    0.32
  -2  -3   3   58.54    3.48
  -2  -3   3   56.69    3.30
  -2  -3   3   55.23    3.36
  -1  -3   3   30.45    1.90
  -1  -3   3   32.62    1.96
   0   3  -3   90.61    4.70
   0  -3   3   83.20    4.80
   0  -3   3   85.03    4.73
  -1   3  -3  266.85   14.20
  -1   3  -3  257.26   14.18
   1  -3   3  262.25   14.20
  -2   3  -3  119.98    6.73
  -2   3  -3  121.50    6.71
   2  -3   3  124.63    6.61
  -3   3  -3   88.84    5.26
  -3   3  -3   99.43    5.29
  -4   3  -3   22.05    1.46
  -5   3  -3    3.26    0.46
  -5  -2   3    0.47    0.22
  -4  -2   3    0.11    0.15
  -3  -2   3    0.30    0.23
  -3  -2   3    0.12    0.14
  -2  -2   3   79.10    4.48
  -2  -2   3   81.01    4.69
  -1  -2   3   98.66    5.52
  -1  -2   3   99.07    5.45
   0   2  -3  875.52   48.54
   0   2  -3 1000.00   48.67
   0  -2   3  895.03   48.34
   0  -2   3  843.04   48.31
  -1   2  -3   89.70    4.78
  -1   2  -3   81.60    4.83
   1  -2   3   90.57    4.79
  -2   2  -3   87.52    5.21
  -2   2  -3   91.37    5.13
   2  -2   3  103.65    5.14
   2  -2   3   91.59    5.11
  -3   2  -3  129.97    7.59
   3  -2   3  144.33    7.51
  -4   2  -3   14.85    1.10
  -5   2  -3    7.79    0.73
  -6  -1   3    0.87    0.27
  -5  -1   3    1.95    0.35
  -4  -1   3    0.02    0.12
  -4  -1   3    0.11    0.13
  -3  -1   3   47.51    2.79
  -3  -1   3   47.63    3.09
  -2  -1   3   66.24    3.82
  -2  -1   3   62.39    3.57
   1   1  -3  861.05   46.18
  -1  -1   3  810.48   46.19
  -1  -1   3  882.37   46.29
  -1  -1   3  898.06   46.24
   0   1  -3  152.52    8.34
   0   1  -3  153.01    8.32
   0   1  -3  169.17    8.28
   0  -1   3  161.52    8.29
   0  -1   3  143.54    8.34
   0  -1   3  138.83    8.31
  -1   1  -3  291.96   15.55
  -1   1  -3  288.51   15.68
  -2   1  -3  150.39    8.66
   2  -1   3  165.08    8.51
  -3   1  -3   92.53    5.49
   3  -1   3  101.50    5.33
  -4   1  -3   14.04    1.07
  -5   1  -3    2.78    0.47
  -5   0   3    0.50    0.16
  -4   0   3   18.05    1.18
  -4   0   3   19.20    1.21
  -3   0   3   79.11    4.77
  -3   0   3   78.48    4.39
  -3   0   3   81.01    4.42
  -2   0   3  236.22   13.51
  -2   0   3  255.73   13.66
  -2   0   3  263.55   13.80
   1   0  -3  454.04   23.41
   1   0  -3  464.73   23.42
   1   0  -3  460.24   23.45
   1   0  -3  419.42   23.30
  -1   0   3  448.33   23.39
  -1   0   3  420.28   23.45
  -1   0   3  405.95   23.41
  -1   0   3  409.86   23.32
   0   0  -3   79.00    3.95
   0   0  -3   81.69    3.93
   0   0   3   73.26    3.93
   0   0   3   68.93    3.95
   0   0   3   68.14    3.97
   0   0   3   61.07    3.96
  -1   0  -3   50.01    2.85
  -2   0  -3  215.00   11.74
  -3   0  -3   12.78    0.97
   3   0   3   12.94    0.79
  -4   0  -3    1.48    0.33
  -5   0  -3    3.94    0.59
  -4   1   3   25.50    1.93
  -4   1   3   23.83    1.41
  -3   1   3   65.81    3.85
  -3   1   3   66.90    4.04
  -2   1   3  310.62   16.49
  -2   1   3  303.53   16.31
  -2   1   3  304.10   16.58
  -2   1   3  298.90   16.58
   1  -1  -3  203.02   10.65
   1  -1  -3  209.36   10.72
  -1   1   3  188.50   10.68
  -1   1   3  203.10   10.74
  -1   1   3  184.52   10.74
   0  -1  -3  326.19   16.70
   0  -1  -3  339.88   16.73
   0  -1  -3  272.38   16.72
   0   1   3  307.80   16.74
   0   1   3  273.97   16.75
   0   1   3  326.89   16.71
   0   1   3  325.65   16.73
  -1  -1  -3  181.12   10.23
  -1  -1  -3  176.79   10.09
   1   1   3  195.00   10.17
   1   1   3  197.36   10.10
  -2  -1  -3  112.56    6.45
   2   1   3  117.40    6.25
  -3  -1  -3   18.43    1.34
   3   1   3   16.44    1.10
   3   1   3   20.99    1.14
  -4  -1  -3    0.88    0.28
  -5  -1  -3   10.04    0.95
  -4   2   3   70.28    4.40
  -3   2   3  126.39    7.29
  -3   2   3  124.95    7.28
  -3   2   3  131.77    7.15
  -2   2   3  414.10   20.96
  -2   2   3  392.47   21.23
  -2   2   3  371.22   21.16
  -2   2   3  383.96   21.10
   1  -2  -3   70.78    3.73
   1  -2  -3   66.97    3.69
  -1   2   3   64.99    3.74
  -1   2   3   65.72    3.77
  -1   2   3   66.92    3.74
   0  -2  -3   86.37    4.88
   0  -2  -3   94.20    4.88
   0   2   3   91.98    4.83
   0   2   3   84.54    4.86
   0   2   3   79.96    4.89
   0   2   3   89.27    4.85
  -1  -2  -3  485.48   27.83
  -1  -2  -3  516.04   27.97
   1   2   3  537.46   27.89
   1   2   3  535.37   27.85
  -2  -2  -3   57.09    3.40
   2   2   3   56.69    3.20
  -3  -2  -3   -0.04    0.11
   3   2   3   -0.01    0.09
  -4  -2  -3   38.55    2.55
  -5  -2  -3   15.71    1.32
  -4   3   3   55.91    3.43
  -4   3   3   61.55    3.69
  -4   3   3   53.64    3.62
  -3   3   3  205.85   11.42
  -3   3   3  196.30   11.47
  -3   3   3  214.15   11.31
  -2   3   3  104.27    5.51
  -2   3   3   97.35    5.72
  -2   3   3  101.62    5.60
  -2   3   3   96.15    5.61
   1  -3  -3  421.01   22.24
   1  -3  -3  472.58   22.54
  -1   3   3  393.39   22.30
  -1   3   3  410.30   22.26
  -1   3   3  374.35   22.31
   0  -3  -3  305.14   17.01
   0   3   3  318.63   16.94
   0   3   3  294.52   17.01
   0   3   3  338.97   16.96
   0   3   3  311.71   17.07
  -1  -3  -3   14.71    1.07
   1   3   3   14.96    0.99
   1   3   3   13.44    0.98
  -2  -3  -3    8.14    0.79
   2   3   3    9.41    0.68
  -3  -3  -3   36.80    2.47
   3   3   3   37.39    2.22
  -4  -3  -3   22.09    1.71
  -5  -3  -3   20.02    1.61
  -4   4   3   80.09    4.94
  -4   4   3   82.55    4.88
  -4   4   3   77.61    4.67
  -3   4   3  183.98   10.01
  -3   4   3  172.31   10.07
  -3   4   3  174.15   10.20
  -3   4   3  191.49    9.83
  -2   4   3  154.40    9.00
  -2   4   3  168.01    9.04
  -2   4   3  176.06    9.02
  -2   4   3  156.94    9.19
   1  -4  -3   32.21    1.89
  -1   4   3   30.15    2.01
  -1   4   3   33.15    1.86
  -1   4   3   31.88    1.99
  -1   4   3   29.42    1.90
   0  -4  -3   39.36    2.47
   0   4   3   42.57    2.38
   0   4   3   39.27    2.49
   0   4   3   41.80    2.39
   0   4   3   40.06    2.54
  -1  -4  -3    2.54    0.43
   1   4   3    2.78    0.40
   1   4   3    2.10    0.34
  -3  -4  -3   40.26    2.65
   3   4   3   38.24    2.37
  -4  -4  -3   44.06    2.99
  -5  -4  -3   15.91    1.44
  -5   5   3   24.95    2.10
  -4   5   3   98.85    5.82
  -4   5   3   98.40    5.99
  -4   5   3   98.08    5.68
  -3   5   3   68.79    3.97
  -3   5   3   66.72    3.92
  -3   5   3   64.46    4.13
  -2   5   3   43.17    2.61
  -2   5   3   43.83    2.84
  -2   5   3   40.09    2.65
  -2   5   3   50.25    2.72
   1  -5  -3   35.19    2.02
  -1   5   3   31.70    1.91
  -1   5   3   29.04    2.10
  -1   5   3   33.12    1.99
  -1   5   3   32.43    2.11
   0  -5  -3   16.96    1.22
   0   5   3   14.92    1.21
   0   5   3   16.47    1.11
   0   5   3   15.38    1.27
   0   5   3   17.71    1.10
  -1  -5  -3    7.24    0.76
   1   5   3    7.34    0.68
   1   5   3    8.79    0.75
  -2  -5  -3   18.99    1.47
   2   5   3   17.32    1.33
   2   5   3   18.57    1.31
  -3  -5  -3   66.03    4.09
   3   5   3   62.64    3.78
  -4  -5  -3   16.90    1.53
  -5  -5  -3   30.24    2.33
  -5   6   3   35.50    2.74
  -4   6   3   71.47    4.67
  -4   6   3   73.75    4.33
  -3   6   3   53.69    3.09
  -3   6   3   49.84    3.31
  -3   6   3   47.73    3.03
  -2   6   3   35.76    2.46
  -2   6   3   35.52    2.16
  -2   6   3   34.40    2.26
  -2   6   3   38.83    2.34
   1  -6  -3   47.26    2.74
  -1   6   3   40.97    2.82
  -1   6   3   45.28    2.69
  -1   6   3   46.36    2.60
  -1   6   3   42.94    2.89
   0  -6  -3    3.37    0.51
   0   6   3    3.63    0.56
   0   6   3    3.49    0.44
   0   6   3    3.51    0.60
  -1  -6  -3    0.04    0.13
   1   6   3    0.02    0.12
   1   6   3    0.08    0.12
  -2  -6  -3  107.11    6.30
   2   6   3  104.97    6.12
   2   6   3  106.19    6.09
  -3  -6  -3   41.44    2.80
   3   6   3   39.50    2.50
   3   6   3   35.72    2.55
  -4  -6  -3   49.03    3.40
   5   6   3   21.04    1.80
  -5   7   3   52.66    3.76
  -4   7   3   37.20    2.45
  -4   7   3   38.29    2.82
  -3   7   3   37.93    2.39
  -3   7   3   35.71    2.64
  -2   7   3   16.89    1.26
  -2   7   3   16.57    1.12
  -2   7   3   17.52    1.47
  -1   7   3    2.76    0.31
   0  -7  -3    1.36    0.37
   0   7   3    0.35    0.22
   0   7   3    0.88    0.24
   0   7   3    0.94    0.23
  -1  -7  -3   46.28    3.01
   1   7   3   46.40    2.83
   1   7   3   43.18    2.90
  -2  -7  -3   66.30    4.23
   2   7   3   67.56    4.06
   2   7   3   65.52    4.05
  -3  -7  -3   50.54    3.31
   3   7   3   42.71    3.02
  -4  -7  -3   40.33    2.84
   4   7   3   32.45    2.54
  -5   8   3   19.73    1.95
  -4   8   3    9.19    1.24
  -3   8   3   10.26    0.92
  -3   8   3    9.36    1.19
  -2   8   3    0.12    0.21
  -2   8   3    0.39    0.22
  -1   8   3    2.43    0.54
  -1   8   3    3.16    0.46
  -1   8   3    2.72    0.35
   0   8   3   24.94    1.87
   0   8   3   24.65    1.58
   0   8   3   22.43    1.62
  -1  -8  -3   95.55    5.92
   1   8   3  103.26    5.75
   1   8   3   97.40    5.88
  -2  -8  -3   59.28    3.93
   2   8   3   59.69    3.73
   2   8   3   59.57    3.75
  -3  -8  -3   49.54    3.47
   3   8   3   47.77    3.22
  -4  -8  -3   14.67    1.49
   4   8   3    8.36    1.18
  -5   9   3    8.22    1.47
  -4   9   3   24.66    2.17
  -3   9   3    3.28    0.57
  -3   9   3    4.30    0.82
  -2   9   3    2.23    0.45
  -2   9   3    2.85    0.67
  -1   9   3   17.64    1.28
  -1   9   3   15.58    1.49
   0   9   3   29.23    2.35
   0   9   3   37.42    2.16
   0   9   3   30.07    2.12
   1   9   3   38.76    2.59
   1   9   3   40.51    2.78
   2   9   3   41.76    2.79
   2   9   3   40.69    2.84
   3   9   3   33.53    2.45
  -4  10   3    5.40    1.05
  -3  10   3    1.33    0.49
  -3  10   3    1.29    0.41
  -2  10   3    2.28    0.47
  -2  10   3    2.09    0.60
  -1  10   3    5.97    0.73
  -1  10   3    5.86    0.98
   0  10   3   37.42    2.86
   0  10   3   42.45    2.62
   1  10   3   57.87    4.00
   1  10   3   64.89    3.85
   2  10   3   69.86    4.38
   2  10   3   69.42    4.47
   3  10   3   28.08    2.19
  -3  11   3    2.70    0.75
  -2  11   3   11.27    1.04
  -2  11   3    9.87    1.41
  -1  11   3   30.27    2.43
  -1  11   3   29.49    2.06
   0  11   3   87.55    5.28
   0  11   3   91.15    5.70
   1  11   3   66.67    4.39
   1  11   3   65.61    4.13
   2  11   3   48.30    3.50
   2  11   3   53.67    3.44
  -2  12   3   11.78    1.22
  -2  12   3    9.29    1.39
  -1  12   3   46.91    3.03
  -1  12   3   45.44    3.41
   0  12   3   34.06    2.43
   0  12   3   37.71    2.85
   1  12   3   62.58    4.24
   1  12   3   60.60    3.94
   2  12   3   21.65    2.11
  -1  13   3   36.90    2.57
   0  13   3   52.22    3.42
   1  14  -4    6.49    0.93
   0  14  -4   21.37    2.03
  -1  14  -4   49.48    3.63
   2  13  -4    7.21    1.04
   2  13  -4    6.75    1.22
   1  13  -4   11.96    1.14
   1  13  -4   12.91    1.63
   0  13  -4   44.45    2.90
   0  13  -4   48.39    3.43
  -1  13  -4   26.50    2.23
  -2  13  -4   45.28    3.27
  -3  13  -4   28.26    2.31
   3  12  -4   12.06    1.62
   2  12  -4   16.04    1.42
   2  12  -4   15.21    1.60
   1  12  -4   38.26    3.00
   1  12  -4   42.88    2.72
   0  12  -4   25.85    2.10
   0  12  -4   24.08    1.71
  -1  12  -4   63.43    4.21
  -2  12  -4   38.88    2.83
  -3  12  -4   12.62    1.32
  -4 -11   4    7.70    1.60
   3  11  -4   24.65    2.15
   2  11  -4   51.73    3.65
   1  11  -4   58.44    4.12
   1  11  -4   67.04    3.89
   0  11  -4   71.10    4.46
   0  11  -4   66.33    4.02
  -1  11  -4  128.66    7.62
  -1  11  -4  128.44    7.18
  -2  11  -4   49.05    3.32
  -3  11  -4   17.52    1.56
  -4 -10   4    7.09    1.26
   3  10  -4   16.07    1.58
  -3 -10   4   17.09    1.73
   2  10  -4   28.36    2.21
  -2 -10   4   26.69    2.30
   1  10  -4   24.29    2.02
   1  10  -4   25.84    1.79
  -1 -10   4   26.69    2.40
   0  10  -4  141.28    7.88
   0  10  -4  141.01    8.24
  -1  10  -4   86.83    4.76
  -1  10  -4   80.23    5.12
  -2  10  -4   65.76    4.16
  -3  10  -4   12.25    1.19
  -4  10  -4    3.59    1.04
   4   9  -4   19.16    1.76
  -4  -9   4   17.73    1.80
   3   9  -4   21.85    1.92
  -3  -9   4   24.57    2.10
   2   9  -4   30.40    2.35
  -2  -9   4   32.57    2.48
   1   9  -4   49.81    3.33
  -1  -9   4   51.23    3.45
   0   9  -4  146.59    8.40
   0   9  -4  144.60    8.05
   0  -9   4  144.02    8.44
  -1   9  -4  115.03    6.69
  -1   9  -4  114.15    6.34
  -2   9  -4    2.50    0.42
  -2   9  -4    1.65    0.44
  -3   9  -4    4.69    0.74
  -4   9  -4    0.31    0.35
   4   8  -4   23.75    2.07
  -4  -8   4   27.36    2.20
   3   8  -4   43.88    3.01
  -3  -8   4   41.59    3.07
   2   8  -4   92.45    5.74
  -2  -8   4   97.45    5.86
   1   8  -4  361.62   19.65
  -1  -8   4  350.12   19.70
   0   8  -4  207.21   11.99
   0   8  -4  220.24   11.72
   0   8  -4  204.12   11.57
   0  -8   4  228.31   12.11
  -1   8  -4   30.21    2.03
  -1   8  -4   28.81    1.73
   1  -8   4   28.04    2.04
  -2   8  -4    5.23    0.72
  -2   8  -4    6.28    0.46
  -2   8  -4    5.28    0.72
  -3   8  -4   10.01    0.94
  -3   8  -4    8.35    0.84
  -4   8  -4    0.77    0.27
  -5  -7   4   10.38    1.32
   4   7  -4   30.91    2.34
  -4  -7   4   30.06    2.35
   3   7  -4  109.00    6.58
  -3  -7   4  111.98    6.67
   2   7  -4   86.71    5.27
  -2  -7   4   88.08    5.34
   1   7  -4  224.73   12.37
  -1  -7   4  217.55   12.41
   0   7  -4  127.20    7.31
   0   7  -4  129.56    6.96
   0  -7   4  127.01    7.36
  -1   7  -4   26.99    1.48
  -1   7  -4   22.65    1.70
  -1   7  -4   28.87    1.77
   1  -7   4   20.23    1.68
  -2   7  -4   44.20    2.43
  -2   7  -4   43.24    2.74
  -2   7  -4   42.42    2.72
  -3   7  -4    1.24    0.30
  -3   7  -4    1.34    0.35
  -4   7  -4    4.59    0.58
  -5   7  -4   12.59    1.01
  -5  -6   4   21.10    1.78
  -4  -6   4   55.48    3.67
  -3  -6   4   23.54    1.85
  -2  -6   4  239.83   13.10
  -2  -6   4  228.31   12.95
   1   6  -4  173.56    9.33
  -1  -6   4  160.51    9.34
  -1  -6   4  162.64    9.20
   0   6  -4   24.04    1.34
   0   6  -4   22.18    1.59
   0  -6   4   21.91    1.39
   0  -6   4   22.94    1.64
  -1   6  -4    0.23    0.15
  -1   6  -4   -0.01    0.12
  -1   6  -4    0.30    0.10
   1  -6   4   -0.03    0.12
  -2   6  -4    0.14    0.12
  -2   6  -4    0.10    0.13
  -2   6  -4    0.40    0.08
   2  -6   4    0.18    0.08
   2  -6   4    0.13    0.13
   2  -6   4    0.13    0.09
  -3   6  -4    9.99    0.84
  -4   6  -4   24.26    1.64
  -5   6  -4   36.52    2.30
  -5  -5   4   40.48    2.80
  -4  -5   4   73.90    4.60
  -3  -5   4   97.02    5.75
  -2  -5   4  198.73   11.21
  -2  -5   4  206.37   11.36
  -2  -5   4  202.78   11.32
  -1  -5   4  111.56    6.32
  -1  -5   4  110.14    6.31
  -1  -5   4  114.18    6.42
   0   5  -4    1.68    0.17
   0   5  -4    1.61    0.31
   0   5  -4    1.76    0.33
   0  -5   4    1.12    0.20
  -1   5  -4   26.59    1.68
  -1   5  -4   25.82    1.45
  -1   5  -4   26.07    1.65
   1  -5   4   24.67    1.43
  -2   5  -4   36.64    1.91
  -2   5  -4   29.70    2.11
  -2   5  -4   36.18    2.16
   2  -5   4   35.11    2.07
  -3   5  -4   62.31    3.42
  -3   5  -4   52.60    3.34
  -4   5  -4   78.80    4.55
  -5   5  -4   32.81    2.09
  -5  -4   4   57.24    3.63
  -4  -4   4   41.85    2.77
  -3  -4   4  162.70    9.42
  -3  -4   4  175.68    9.56
  -3  -4   4  169.56    9.73
  -2  -4   4  173.94    9.62
  -2  -4   4  170.40    9.69
  -2  -4   4  172.25    9.53
  -1  -4   4   14.47    1.07
  -1  -4   4   14.97    1.06
   0   4  -4    7.83    0.64
   0   4  -4    7.77    0.62
   0  -4   4    6.81    0.52
   0  -4   4    6.85    0.72
  -1   4  -4   11.70    0.85
  -1   4  -4   12.15    0.87
   1  -4   4   11.80    0.74
  -2   4  -4   40.00    2.30
  -2   4  -4   37.10    2.30
  -3   4  -4   88.49    4.60
  -3   4  -4   72.92    4.59
  -4   4  -4   56.31    3.34
  -5   4  -4   19.52    1.38
  -5  -3   4   34.62    2.31
  -4  -3   4   37.69    2.46
  -3  -3   4  109.06    6.23
  -3  -3   4  113.04    6.33
  -3  -3   4  109.67    6.55
  -2  -3   4   44.02    2.62
  -2  -3   4   43.88    2.78
   1   3  -4   -0.21    0.07
  -1  -3   4   -0.18    0.07
  -1  -3   4    0.02    0.11
   0   3  -4   19.96    1.34
   0   3  -4   22.67    1.25
   0  -3   4   21.02    1.27
   0  -3   4   21.29    1.34
  -1   3  -4   81.02    4.38
  -1   3  -4   74.85    4.32
  -2   3  -4   26.81    1.76
  -2   3  -4   28.92    1.69
   2  -3   4   32.59    1.72
   2  -3   4   26.56    1.58
  -3   3  -4  109.20    5.73
  -3   3  -4   97.15    5.81
  -4   3  -4   25.06    1.67
  -5   3  -4   32.13    2.10
  -5  -2   4   13.42    1.07
  -4  -2   4   95.09    5.46
  -3  -2   4   28.71    1.90
  -3  -2   4   29.17    2.15
  -3  -2   4   31.77    1.87
   1   2  -4  115.97    6.57
  -1  -2   4  127.07    6.60
  -1  -2   4  122.72    6.66
  -1  -2   4  114.53    6.59
   0   2  -4   41.18    2.13
   0   2  -4   37.55    2.22
   0   2  -4   35.68    2.15
   0  -2   4   36.28    2.21
   0  -2   4   37.25    2.13
   0  -2   4   40.50    2.19
  -1   2  -4    5.09    0.42
  -1   2  -4    4.26    0.33
  -2   2  -4  200.88   11.62
  -2   2  -4  209.55   11.47
   2  -2   4  221.06   11.47
   2  -2   4  219.92   11.48
  -3   2  -4  132.62    8.12
   3  -2   4  159.31    7.96
  -4   2  -4   59.94    3.58
  -5   2  -4   16.47    1.26
  -6  -1   4   15.89    1.12
  -5  -1   4   40.70    2.47
  -4  -1   4   23.43    1.61
  -4  -1   4   28.58    1.70
  -4  -1   4   26.50    2.08
  -3  -1   4   16.86    1.38
  -3  -1   4   17.10    1.12
  -3  -1   4   15.86    1.07
  -2  -1   4    0.62    0.15
   1   1  -4    3.71    0.33
  -1  -1   4    4.51    0.38
  -1  -1   4    4.26    0.35
  -1  -1   4    3.74    0.39
   0   1  -4   50.44    2.51
   0   1  -4   43.81    2.49
   0  -1   4   39.71    2.48
   0  -1   4   41.27    2.42
  -1   1  -4  378.89   21.22
  -1   1  -4  363.17   21.05
   1  -1   4  438.66   21.09
  -2   1  -4  299.11   16.24
  -3   1  -4  111.93    6.32
  -4   1  -4   50.44    3.09
  -5   1  -4   33.08    2.21
  -5   0   4   25.63    1.57
  -4   0   4   37.56    2.17
  -4   0   4   37.45    2.64
  -4   0   4   35.38    2.13
  -3   0   4   19.55    1.20
  -3   0   4   19.88    1.53
  -3   0   4   20.79    1.40
  -2   0   4    3.71    0.32
  -2   0   4    4.88    0.51
   1   0  -4    2.60    0.22
  -1   0   4    1.88    0.28
  -1   0   4    2.48    0.29
  -1   0   4    2.20    0.32
  -1   0   4    2.69    0.24
   0   0  -4  130.36    6.40
   0   0  -4  119.82    6.41
   0   0  -4  127.64    6.36
   0   0   4  103.23    6.41
   0   0   4  109.68    6.42
   0   0   4  114.96    6.39
   0   0   4  113.89    6.36
  -1   0  -4   29.28    1.82
  -1   0  -4   30.52    1.66
   1   0   4   29.86    1.73
  -2   0  -4  246.12   13.44
  -3   0  -4   74.24    4.33
  -4   0  -4   32.09    2.13
  -5   0  -4   21.07    1.58
  -4   1   4    1.11    0.43
  -3   1   4   10.12    0.94
  -3   1   4    9.71    0.62
  -3   1   4    9.85    0.82
  -3   1   4   11.14    0.95
  -2   1   4    6.52    0.55
  -2   1   4    6.25    0.62
  -2   1   4    4.93    0.55
  -2   1   4    6.93    0.44
   1  -1  -4  172.70    9.15
  -1   1   4  168.77    9.19
  -1   1   4  167.45    9.24
  -1   1   4  156.38    9.21
  -1   1   4  181.38    9.33
   0  -1  -4  182.91    9.49
   0  -1  -4  174.60    9.51
   0   1   4  165.63    9.49
   0   1   4  161.61    9.52
   0   1   4  179.09    9.53
   0   1   4  183.90    9.47
  -1  -1  -4  860.23   47.14
  -1  -1  -4  887.00   46.99
   1   1   4  916.67   47.06
   1   1   4  849.12   46.98
  -2  -1  -4   54.39    3.28
   2   1   4   55.64    3.01
  -3  -1  -4   41.90    2.64
  -4  -1  -4   32.33    2.18
  -5  -1  -4   12.01    1.11
  -4   2   4    0.31    0.28
  -4   2   4    0.78    0.27
  -3   2   4    1.59    0.37
  -2   2   4  109.35    5.96
  -2   2   4  104.03    6.21
  -2   2   4  117.38    6.11
  -2   2   4  105.58    6.12
   1  -2  -4  218.04   11.61
  -1   2   4  220.06   11.69
  -1   2   4  224.59   11.78
  -1   2   4  208.99   11.68
  -1   2   4  203.31   11.66
   0  -2  -4  559.52   30.42
   0   2   4  570.04   30.37
   0   2   4  528.30   30.45
   0   2   4  521.99   30.41
   0   2   4  648.08   30.44
  -1  -2  -4  329.03   17.99
  -1  -2  -4  316.81   18.13
   1   2   4  345.43   18.05
   1   2   4  343.76   18.00
  -2  -2  -4  160.37    9.28
   2   2   4  171.86    9.04
  -3  -2  -4  116.77    7.05
   3   2   4  128.59    6.73
  -4  -2  -4   82.19    4.93
  -5  -2  -4    5.69    0.81
  -4   3   4   12.45    1.19
  -4   3   4   13.51    1.07
  -4   3   4   12.06    1.20
  -3   3   4   29.19    2.13
  -3   3   4   29.02    2.06
  -3   3   4   31.97    2.00
  -3   3   4   32.12    1.77
  -2   3   4   67.76    4.09
  -2   3   4   68.05    3.96
  -2   3   4   67.80    3.96
  -2   3   4   71.17    3.88
   1  -3  -4  125.43    6.48
  -1   3   4  113.58    6.53
  -1   3   4  104.68    6.54
  -1   3   4  126.52    6.51
   0  -3  -4  346.06   18.90
   0   3   4  348.55   18.96
   0   3   4  363.03   18.85
   0   3   4  345.42   18.83
   0   3   4  339.63   18.89
  -1  -3  -4   37.63    2.39
   1   3   4   39.54    2.31
   1   3   4   37.84    2.28
  -2  -3  -4  132.26    7.62
   2   3   4  135.83    7.39
  -3  -3  -4   77.47    4.74
   3   3   4   79.61    4.41
  -4  -3  -4   15.70    1.37
  -5  -3  -4    1.33    0.43
  -4   4   4   39.86    2.50
  -4   4   4   36.56    2.59
  -4   4   4   39.03    2.73
  -3   4   4   79.79    4.86
  -3   4   4   80.63    4.64
  -3   4   4   80.74    4.45
  -3   4   4   77.71    4.69
  -2   4   4  119.27    7.08
  -2   4   4  126.08    7.27
  -2   4   4  135.08    7.07
  -2   4   4  126.37    7.06
   1  -4  -4  162.40    8.88
  -1   4   4  159.67    9.07
  -1   4   4  163.32    8.92
  -1   4   4  166.91    8.89
  -1   4   4  157.59    9.01
   0  -4  -4  255.07   14.31
   0   4   4  256.62   14.33
   0   4   4  263.41   14.41
   0   4   4  282.11   14.24
   0   4   4  251.34   14.22
  -1  -4  -4  174.50    9.71
   1   4   4  172.59    9.59
   1   4   4  174.42    9.58
  -2  -4  -4   37.67    2.49
   2   4   4   37.50    2.28
   2   4   4   37.05    2.35
  -3  -4  -4   21.67    1.67
   3   4   4   20.51    1.42
  -4  -4  -4    1.92    0.51
  -5  -4  -4    7.17    0.98
  -5   5   4    4.42    0.99
  -5   5   4    2.94    0.77
  -4   5   4   49.00    3.00
  -4   5   4   46.64    3.06
  -4   5   4   45.64    3.23
  -3   5   4  126.55    7.34
  -3   5   4  119.00    7.07
  -3   5   4  132.14    6.97
  -3   5   4  122.18    7.10
  -2   5   4  181.43    9.18
  -2   5   4  159.58    9.14
  -2   5   4  159.76    9.06
  -2   5   4  156.67    9.31
   1  -5  -4  475.29   24.08
  -1   5   4  411.68   24.22
  -1   5   4  436.67   24.08
  -1   5   4  444.79   24.22
  -1   5   4  456.19   24.02
   0  -5  -4  105.07    5.86
   0   5   4   99.65    5.95
   0   5   4   95.50    5.73
   0   5   4  100.49    5.88
   0   5   4  109.27    5.74
  -1  -5  -4   98.93    5.59
   1   5   4   91.21    5.46
   1   5   4   96.10    5.44
  -2  -5  -4   78.23    4.88
   2   5   4   80.44    4.68
   2   5   4   84.66    4.77
  -3  -5  -4   16.68    1.45
   3   5   4   15.80    1.30
  -4  -5  -4    0.17    0.27
  -5  -5  -4   11.30    1.23
   5   5   4   10.39    1.26
  -5   6   4   13.77    1.67
  -4   6   4   34.81    2.73
  -4   6   4   39.66    2.49
  -3   6   4   62.60    3.62
  -3   6   4   57.53    3.92
  -3   6   4   62.50    3.71
  -3   6   4   61.74    3.67
  -2   6   4   60.55    3.73
  -2   6   4   64.19    3.64
  -2   6   4   66.61    3.81
  -2   6   4   58.94    3.92
   1  -6  -4   75.79    4.14
  -1   6   4   69.17    4.29
  -1   6   4   66.38    4.26
  -1   6   4   69.10    4.08
  -1   6   4   71.14    4.02
   0  -6  -4  120.13    6.87
   0   6   4  128.17    6.72
   0   6   4  118.08    6.91
   0   6   4  115.42    6.99
   0   6   4  117.09    6.72
  -1  -6  -4   62.90    4.02
   1   6   4   67.01    3.97
   1   6   4   67.26    3.90
  -2  -6  -4   27.67    1.99
   2   6   4   25.37    1.77
   2   6   4   24.24    1.79
  -3  -6  -4    1.07    0.41
   3   6   4    1.33    0.40
  -4  -6  -4    5.01    0.93
   4   6   4    6.56    0.92
  -5   7   4   22.83    2.11
  -4   7   4   27.49    2.42
  -4   7   4   34.97    2.21
  -3   7   4   43.76    3.00
  -3   7   4   40.54    2.68
  -2   7   4  119.35    6.75
  -2   7   4  120.61    7.03
  -2   7   4  115.33    6.57
  -1   7   4   54.46    3.44
  -1   7   4   60.89    3.73
  -1   7   4   59.44    3.38
   0  -7  -4   38.11    2.64
   0   7   4   42.09    2.50
   0   7   4   39.95    2.51
   0   7   4   41.98    2.73
  -1  -7  -4    1.03    0.36
   1   7   4    1.19    0.34
   1   7   4    0.85    0.29
  -2  -7  -4    2.51    0.60
   2   7   4    1.93    0.44
   2   7   4    1.81    0.44
  -3  -7  -4    4.95    0.87
   3   7   4    4.19    0.70
  -4  -7  -4   17.13    1.63
   4   7   4   12.17    1.43
  -5   8   4   16.87    1.78
  -4   8   4   63.28    3.97
  -4   8   4   61.44    4.27
  -3   8   4   80.47    4.82
  -3   8   4   66.83    4.36
  -2   8   4   80.39    4.60
  -2   8   4   73.50    4.85
  -1   8   4   69.54    3.91
  -1   8   4   68.54    4.32
  -1   8   4   65.40    4.01
   0   8   4   17.47    1.20
   0   8   4   14.50    1.19
   0   8   4   15.33    1.39
   1   8   4   29.26    2.15
   1   8   4   30.15    2.04
  -2  -8  -4    8.26    1.16
   2   8   4    7.04    0.87
   2   8   4    7.56    0.94
  -3  -8  -4   10.05    1.32
   3   8   4    7.13    0.99
  -4  -8  -4   21.67    1.98
   4   8   4   17.77    1.67
  -4   9   4   25.13    2.23
  -3   9   4   31.59    2.35
  -3   9   4   39.86    2.82
  -2   9   4   21.99    1.98
  -2   9   4   25.48    1.76
  -1   9   4   21.57    1.55
  -1   9   4   21.05    1.80
   0   9   4   21.15    1.79
   0   9   4   19.74    1.55
   0   9   4   24.04    1.70
   1   9   4    0.00    0.18
   1   9   4    0.28    0.26
   2   9   4    2.50    0.51
   2   9   4    2.35    0.55
   3   9   4   16.02    1.46
  -4  10   4   17.10    1.80
  -3  10   4   18.31    1.60
  -3  10   4   25.75    2.12
  -2  10   4   20.52    1.58
  -2  10   4   20.91    1.92
  -1  10   4   16.25    1.28
  -1  10   4   15.26    1.53
   0  10   4    0.05    0.23
   0  10   4    0.24    0.22
   1  10   4    1.68    0.51
   1  10   4    1.49    0.41
   2  10   4   14.73    1.34
   2  10   4   13.20    1.35
  -3  11   4   15.63    1.90
  -2  11   4   22.91    1.75
  -2  11   4   22.36    2.08
  -1  11   4    6.65    0.82
  -1  11   4    5.44    1.02
   0  11   4    0.10    0.28
   0  11   4   -0.03    0.16
   1  11   4    6.71    0.93
   1  11   4    8.02    1.18
   2  11   4   36.22    2.52
   2  11   4   30.41    2.97
  -2  12   4    6.21    0.89
  -2  12   4    4.47    0.98
  -1  12   4    0.13    0.26
  -1  12   4    0.22    0.34
   0  12   4    6.48    0.88
   0  12   4    5.08    1.01
   1  12   4   22.41    2.05
   1  12   4   23.98    1.87
  -1  13   4    5.83    0.89
   1  14  -5   11.83    1.15
   0  14  -5    0.44    0.44
  -1  14  -5    1.46    0.54
  -2  14  -5    0.48    0.43
   2  13  -5   16.36    1.51
   2  13  -5   18.43    1.81
   1  13  -5    2.08    0.65
   1  13  -5    1.87    0.47
   0  13  -5    0.02    0.20
   0  13  -5    0.03    0.25
  -1  13  -5    5.72    0.98
  -2  13  -5   10.61    1.39
  -3  13  -5   23.16    2.00
   3  12  -5   21.12    2.05
   2  12  -5   17.17    1.46
   2  12  -5   14.81    1.61
   1  12  -5    6.26    1.03
   1  12  -5    4.07    0.68
   0  12  -5    6.06    0.72
   0  12  -5    5.39    0.94
  -1  12  -5   10.39    1.33
  -2  12  -5   20.42    1.77
  -3  12  -5   37.80    2.76
  -4 -11   5   14.36    2.02
   3  11  -5   11.36    1.48
  -3 -11   5    8.90    1.45
   2  11  -5    0.28    0.31
   1  11  -5    7.72    0.91
   1  11  -5    6.68    1.07
   0  11  -5   17.27    1.27
   0  11  -5   17.86    1.59
  -1  11  -5   29.08    1.83
  -1  11  -5   28.95    2.21
  -2  11  -5   60.98    3.96
  -3  11  -5   54.85    3.63
   4  10  -5    5.37    1.03
  -4 -10   5    5.94    1.14
   3  10  -5    1.85    0.64
  -3 -10   5    1.48    0.61
   2  10  -5    0.77    0.35
   1  10  -5   27.71    2.15
  -1 -10   5   27.33    2.25
   0  10  -5   37.82    2.75
   0  10  -5   41.72    2.47
  -1  10  -5   88.01    4.97
  -1  10  -5   89.23    5.37
  -2  10  -5   47.18    3.13
  -3  10  -5   56.89    3.68
   4   9  -5    8.52    1.25
  -4  -9   5   10.26    1.39
   3   9  -5    2.00    0.62
  -3  -9   5    2.92    0.76
   2   9  -5   15.09    1.41
  -2  -9   5   13.38    1.42
   1   9  -5   10.13    1.24
  -1  -9   5   11.20    1.19
   0   9  -5   19.53    1.62
   0   9  -5   21.86    1.40
   0  -9   5   20.63    1.73
  -1   9  -5   43.97    2.98
  -1   9  -5   47.13    2.66
  -2   9  -5   70.72    4.30
  -2   9  -5   69.64    4.31
  -3   9  -5   90.15    5.44
  -3   9  -5   91.63    5.43
  -4   9  -5   21.49    1.65
   4   8  -5    2.01    0.61
  -4  -8   5    1.75    0.60
   3   8  -5    5.74    0.94
  -3  -8   5    5.31    0.94
   2   8  -5   15.67    1.43
  -2  -8   5   16.90    1.53
   1   8  -5   50.30    3.18
  -1  -8   5   45.25    3.18
   0   8  -5  131.18    7.53
   0   8  -5  127.01    7.21
   0  -8   5  135.90    7.64
  -1   8  -5   90.84    5.45
  -1   8  -5   92.60    5.14
  -1   8  -5   96.97    5.52
   1  -8   5   92.42    5.53
  -2   8  -5  229.70   12.36
  -2   8  -5  214.84   12.06
  -2   8  -5  220.68   12.33
  -3   8  -5   37.23    2.47
  -3   8  -5   37.83    2.50
  -4   8  -5   15.77    1.27
  -5   8  -5    4.24    0.61
  -5  -7   5    3.96    0.80
  -4  -7   5    2.82    0.66
  -3  -7   5    9.69    1.21
   2   7  -5   38.27    2.64
  -2  -7   5   38.76    2.69
   1   7  -5  129.64    7.23
  -1  -7   5  121.80    7.06
  -1  -7   5  123.19    7.26
   0   7  -5  190.74   10.94
   0   7  -5  199.49   10.58
   0  -7   5  197.32   10.68
   0  -7   5  194.82   11.01
  -1   7  -5  267.85   14.60
  -1   7  -5  281.40   14.94
  -1   7  -5  252.41   14.87
   1  -7   5  283.69   15.01
  -2   7  -5  140.42    7.47
  -2   7  -5  139.62    7.83
  -2   7  -5  135.12    7.82
  -3   7  -5   60.41    3.94
  -3   7  -5   72.54    4.02
  -4   7  -5    6.50    0.69
  -5   7  -5    4.16    0.58
  -5  -6   5    0.51    0.33
  -4  -6   5    1.87    0.49
  -3  -6   5    8.61    1.06
  -2  -6   5   95.20    5.91
  -2  -6   5  102.89    5.85
  -2  -6   5  104.12    5.98
  -1  -6   5  161.30    8.97
  -1  -6   5  160.12    9.11
   0   6  -5   78.03    4.20
   0   6  -5   73.54    4.46
   0   6  -5   76.94    4.49
   0  -6   5   76.08    4.29
  -1   6  -5  211.91   11.55
  -1   6  -5  210.21   11.57
  -1   6  -5  206.55   11.28
  -2   6  -5   69.52    4.18
  -2   6  -5   71.08    4.16
   2  -6   5   76.27    4.01
   2  -6   5   68.48    3.95
  -3   6  -5   20.04    1.58
  -3   6  -5   28.06    1.68
  -4   6  -5    2.17    0.40
  -5   6  -5    0.48    0.21
  -5  -5   5    2.98    0.63
  -4  -5   5   11.94    1.15
  -3  -5   5   62.13    4.01
  -3  -5   5   61.63    3.86
  -2  -5   5   72.55    4.45
  -2  -5   5   74.83    4.43
  -2  -5   5   73.17    4.32
  -1  -5   5  255.85   14.35
  -1  -5   5  268.32   14.37
   0   5  -5  309.45   17.17
   0   5  -5  330.33   16.96
   0   5  -5  311.22   17.18
   0  -5   5  309.04   17.02
  -1   5  -5  205.60   11.36
  -1   5  -5  197.38   11.12
  -1   5  -5  217.88   11.41
   1  -5   5  209.77   11.18
  -2   5  -5   57.34    3.27
  -2   5  -5   54.30    3.29
  -3   5  -5    0.36    0.17
  -3   5  -5    0.57    0.20
  -4   5  -5    6.83    0.67
  -5   5  -5    1.75    0.36
  -5  -4   5    2.47    0.53
  -4  -4   5   23.92    1.78
  -3  -4   5  127.67    7.20
  -3  -4   5  112.33    6.83
  -3  -4   5  125.32    6.98
  -2  -4   5  428.38   23.86
  -2  -4   5  453.27   24.05
   1   4  -5  133.47    7.33
  -1  -4   5  125.36    7.35
  -1  -4   5  136.21    7.35
   0   4  -5  436.56   20.84
   0   4  -5  376.71   20.96
   0   4  -5  389.43   20.81
   0  -4   5  347.59   20.85
  -1   4  -5  126.98    7.39
  -1   4  -5  136.19    7.46
   1  -4   5  140.32    7.34
  -2   4  -5   99.71    5.47
  -2   4  -5   96.46    5.53
  -3   4  -5   21.86    1.28
  -3   4  -5   16.86    1.31
  -4   4  -5    2.84    0.45
  -5   4  -5   10.15    0.90
  -5  -3   5   16.10    1.29
  -4  -3   5   86.56    4.95
  -4  -3   5   80.42    5.28
  -3  -3   5  124.92    7.39
  -3  -3   5  142.71    7.52
  -3  -3   5  131.42    7.76
  -2  -3   5   69.11    4.00
  -2  -3   5   62.88    3.78
   1   3  -5  156.92    8.94
  -1  -3   5  165.36    9.01
  -1  -3   5  167.34    8.97
   0   3  -5  305.60   14.66
   0   3  -5  257.04   14.76
   0   3  -5  270.33   14.67
   0  -3   5  268.30   14.70
   0  -3   5  259.76   14.75
  -1   3  -5  133.66    7.64
  -1   3  -5  144.03    7.74
   1  -3   5  142.94    7.66
  -2   3  -5   28.25    1.61
  -2   3  -5   26.31    1.74
  -3   3  -5    4.22    0.57
  -3   3  -5    5.80    0.43
  -4   3  -5   14.54    1.13
  -5   3  -5   14.51    1.17
  -5  -2   5   32.32    2.10
  -4  -2   5   89.49    5.65
  -4  -2   5   92.24    5.24
  -3  -2   5  139.12    7.57
  -3  -2   5  133.90    7.91
  -2  -2   5   63.56    3.87
  -2  -2   5   65.47    3.69
   1   2  -5  244.36   12.81
  -1  -2   5  234.84   12.82
  -1  -2   5  233.55   12.88
  -1  -2   5  232.68   12.83
   0   2  -5  100.66    5.61
   0   2  -5  111.50    5.55
   0  -2   5  103.60    5.63
   0  -2   5   97.94    5.56
   0  -2   5   96.70    5.65
  -1   2  -5    0.10    0.08
  -1   2  -5    0.02    0.09
   1  -2   5    0.27    0.06
  -2   2  -5    2.46    0.37
  -3   2  -5   17.32    1.26
  -4   2  -5   15.43    1.21
  -5   2  -5   19.37    1.47
  -6  -1   5    8.32    0.68
  -5  -1   5   44.96    2.69
  -4  -1   5   59.47    4.01
  -4  -1   5   62.22    3.59
  -4  -1   5   62.76    3.55
  -3  -1   5   74.79    4.87
  -3  -1   5   86.56    4.57
  -2  -1   5   88.33    5.17
  -2  -1   5   95.90    5.09
  -2  -1   5   89.96    5.29
   1   1  -5  275.94   14.50
  -1  -1   5  256.14   14.59
  -1  -1   5  276.02   14.53
  -1  -1   5  266.52   14.54
   0   1  -5  143.51    8.73
   0   1  -5  183.19    8.75
   0   1  -5  166.10    8.67
   0  -1   5  152.37    8.74
   0  -1   5  158.13    8.77
   0  -1   5  157.72    8.67
  -1   1  -5    4.39    0.42
  -1   1  -5    4.18    0.29
   1  -1   5    3.82    0.30
  -2   1  -5    0.84    0.21
  -3   1  -5   18.44    1.33
  -4   1  -5   12.81    1.07
  -5   1  -5   23.47    1.72
  -5   0   5   43.06    2.46
  -5   0   5   42.03    2.45
  -4   0   5   86.48    4.97
  -4   0   5   91.02    5.52
  -4   0   5   92.42    5.00
  -3   0   5   13.52    1.08
  -3   0   5   13.60    1.21
  -3   0   5   15.01    0.92
  -2   0   5  201.65   11.57
  -2   0   5  209.77   11.50
  -2   0   5  217.78   11.37
   1   0  -5   98.04    5.10
  -1   0   5   91.99    5.15
  -1   0   5   84.02    5.12
  -1   0   5   97.37    5.21
   0   0  -5   25.93    1.66
   0   0  -5   29.83    1.77
   0   0  -5   31.06    1.66
   0   0   5   22.79    1.66
   0   0   5   25.21    1.65
   0   0   5   30.35    1.63
   0   0   5   27.50    1.69
  -1   0  -5   22.99    1.31
  -1   0  -5   21.75    1.48
   1   0   5   24.33    1.37
  -2   0  -5   83.98    4.85
   2   0   5   85.41    4.72
  -3   0  -5   18.80    1.37
  -4   0  -5   55.57    3.44
  -5   0  -5   30.43    2.14
  -4   1   5   37.56    2.65
  -3   1   5  139.08    7.51
  -3   1   5  138.46    7.77
  -3   1   5  139.22    7.92
  -3   1   5  136.15    7.90
  -2   1   5  121.34    6.84
  -2   1   5  117.96    6.76
  -2   1   5  122.32    6.59
  -2   1   5  119.45    6.71
   1  -1  -5   53.01    3.07
  -1   1   5   57.94    3.25
  -1   1   5   54.86    3.17
  -1   1   5   54.17    3.14
   0  -1  -5   81.80    4.51
   0   1   5   78.02    4.50
   0   1   5   79.37    4.54
   0   1   5   75.29    4.52
   0   1   5   87.03    4.47
  -1  -1  -5  103.37    5.90
  -1  -1  -5  106.29    5.74
   1   1   5  102.20    5.79
   1   1   5  108.13    5.75
  -2  -1  -5    6.46    0.62
   2   1   5    6.27    0.54
  -3  -1  -5   55.67    3.40
  -4  -1  -5   70.37    4.29
  -5  -1  -5   32.89    2.31
  -4   2   5   36.36    2.36
  -4   2   5   35.36    2.52
  -3   2   5   44.00    2.98
  -3   2   5   45.74    2.93
  -3   2   5   46.36    2.59
  -3   2   5   48.59    2.86
  -2   2   5    8.35    0.78
  -2   2   5    8.03    0.70
  -2   2   5    7.59    0.58
  -2   2   5    7.75    0.67
   1  -2  -5   25.54    1.56
  -1   2   5   26.39    1.63
  -1   2   5   26.99    1.64
  -1   2   5   25.85    1.64
   0  -2  -5   37.27    2.30
   0   2   5   36.00    2.35
   0   2   5   43.03    2.35
   0   2   5   41.07    2.27
   0   2   5   36.78    2.30
  -1  -2  -5   15.08    1.11
  -1  -2  -5   15.64    1.00
   1   2   5   15.37    1.03
   1   2   5   14.82    0.98
  -2  -2  -5  131.45    7.59
   2   2   5  129.40    7.45
   2   2   5  140.62    7.31
  -3  -2  -5   77.84    4.66
  -4  -2  -5   44.31    2.91
  -5  -2  -5   22.56    1.78
  -4   3   5   24.04    1.78
  -4   3   5   25.69    2.01
  -4   3   5   26.70    1.96
  -3   3   5   31.85    2.32
  -3   3   5   31.47    2.16
  -3   3   5   36.45    1.98
  -3   3   5   33.15    2.24
  -2   3   5   86.88    5.35
  -2   3   5  103.59    5.31
  -2   3   5   92.16    5.51
  -2   3   5   93.82    5.37
   1  -3  -5   47.02    2.83
  -1   3   5   50.72    3.02
  -1   3   5   48.41    2.89
  -1   3   5   48.92    2.94
  -1   3   5   53.11    2.92
   0  -3  -5   83.58    4.74
   0   3   5   80.58    4.74
   0   3   5   86.80    4.74
   0   3   5   83.45    4.82
   0   3   5   82.16    4.68
  -1  -3  -5  146.08    8.14
   1   3   5  139.67    7.99
   1   3   5  149.76    8.02
  -2  -3  -5   32.97    2.24
   2   3   5   36.56    2.01
   2   3   5   29.65    2.07
  -3  -3  -5  136.13    7.89
   3   3   5  137.66    7.72
  -4  -3  -5   73.28    4.54
  -5  -3  -5   29.74    2.20
   5   3   5   28.01    2.09
  -4   4   5   33.77    2.33
  -4   4   5   34.90    2.44
  -4   4   5   36.15    2.60
  -3   4   5   48.38    3.07
  -3   4   5   55.30    2.90
  -3   4   5   44.05    3.20
  -3   4   5   47.18    3.03
  -2   4   5    2.68    0.42
  -2   4   5    3.28    0.47
  -2   4   5    3.26    0.54
  -2   4   5    3.41    0.45
   1  -4  -5   35.76    2.00
  -1   4   5   32.15    2.11
  -1   4   5   33.04    2.03
  -1   4   5   30.65    2.00
  -1   4   5   31.48    2.15
   0  -4  -5  107.83    6.14
   0   4   5  109.29    6.26
   0   4   5  102.34    6.14
   0   4   5  115.98    6.11
   0   4   5  106.61    6.07
  -1  -4  -5   87.01    5.01
   1   4   5   85.59    4.87
   1   4   5   83.20    4.87
  -2  -4  -5  172.83    9.88
   2   4   5  182.00    9.64
   2   4   5  168.70    9.71
  -3  -4  -5  125.27    7.27
   3   4   5  122.16    7.06
  -4  -4  -5   40.29    2.78
   4   4   5   38.25    2.61
  -5  -4  -5   12.32    1.30
   5   4   5   14.04    1.28
  -5   5   5   13.22    1.18
  -5   5   5   12.43    1.59
  -4   5   5   17.13    1.34
  -4   5   5   15.43    1.36
  -4   5   5   15.58    1.51
  -3   5   5    1.11    0.33
  -3   5   5    1.26    0.33
  -3   5   5    1.19    0.27
  -3   5   5    1.53    0.44
  -2   5   5   20.71    1.45
  -2   5   5   19.05    1.57
  -2   5   5   18.84    1.41
  -2   5   5   21.17    1.39
   1  -5  -5  154.00    8.10
  -1   5   5  142.49    8.07
  -1   5   5  139.93    8.28
  -1   5   5  149.18    8.27
  -1   5   5  142.74    8.12
   0  -5  -5  154.15    8.49
   0   5   5  163.73    8.40
   0   5   5  146.66    8.38
   0   5   5  144.60    8.48
   0   5   5  143.88    8.59
  -1  -5  -5   76.28    4.50
   1   5   5   74.48    4.36
   1   5   5   73.82    4.38
  -2  -5  -5  170.82    9.70
   2   5   5  171.98    9.46
   2   5   5  167.35    9.52
  -3  -5  -5   52.89    3.55
   3   5   5   54.42    3.37
  -4  -5  -5   30.58    2.35
   4   5   5   30.03    2.17
   5   5   5    8.32    1.10
  -5   6   5    9.31    1.37
  -4   6   5    2.01    0.46
  -4   6   5    2.24    0.63
  -3   6   5    4.66    0.63
  -3   6   5    2.79    0.50
  -3   6   5    5.22    0.84
  -2   6   5   97.51    5.47
  -2   6   5   90.21    5.77
  -2   6   5  100.01    5.58
  -1   6   5   90.68    5.29
  -1   6   5   92.14    5.36
  -1   6   5   98.72    5.60
   0  -6  -5   92.69    5.03
   0   6   5   80.46    5.00
   0   6   5   92.36    4.89
   0   6   5   72.30    4.82
  -1  -6  -5  112.95    6.43
   1   6   5  108.64    6.27
   1   6   5  107.06    6.31
  -2  -6  -5   90.14    5.49
   2   6   5   94.43    5.28
   2   6   5   85.68    5.28
  -3  -6  -5   58.67    3.81
   3   6   5   54.49    3.55
  -4  -6  -5   10.11    1.31
   4   6   5    8.98    1.11
  -5   7   5    4.05    0.96
  -4   7   5   -0.10    0.20
  -4   7   5    0.27    0.32
  -3   7   5   29.38    2.27
  -3   7   5   27.43    1.98
  -2   7   5   62.57    3.55
  -2   7   5   55.56    3.89
  -2   7   5   61.06    3.68
  -1   7   5   48.11    2.87
  -1   7   5   47.48    3.10
  -1   7   5   43.93    2.76
   0   7   5   26.54    1.91
   0   7   5   31.63    1.94
   0   7   5   28.82    2.10
  -1  -7  -5  149.38    8.29
   1   7   5  139.13    8.17
   1   7   5  140.33    8.08
  -2  -7  -5   84.72    4.99
   2   7   5   78.57    4.72
   2   7   5   73.48    4.71
  -3  -7  -5   22.61    1.96
   3   7   5   22.47    1.76
  -4  -7  -5    3.20    0.82
   4   7   5    3.68    0.75
  -5   8   5    1.01    0.58
  -4   8   5    6.36    1.10
  -4   8   5    5.45    0.82
  -3   8   5   33.27    2.42
  -3   8   5   24.91    1.98
  -2   8   5   41.42    3.05
  -2   8   5   44.82    2.81
  -1   8   5   82.41    4.73
  -1   8   5   80.47    5.01
  -1   8   5   78.06    4.59
   0   8   5  148.61    7.79
   0   8   5  130.77    7.79
   0   8   5  133.03    8.04
   1   8   5   87.91    5.15
   1   8   5   83.55    5.24
   1   8   5   88.48    5.13
   2   8   5   31.87    2.19
   2   8   5   28.78    2.14
   3   8   5    2.67    0.61
  -4  -8  -5    3.07    0.96
  -4   9   5    8.33    1.33
  -3   9   5   42.98    3.06
  -3   9   5   35.61    2.60
  -2   9   5   59.84    3.74
  -2   9   5   60.28    4.08
  -1   9   5   44.74    2.83
  -1   9   5   43.29    3.12
   0   9   5   76.24    4.65
   0   9   5   80.59    4.95
   1   9   5   35.49    2.66
   1   9   5   41.04    2.56
   1   9   5   37.11    2.55
   2   9   5   21.88    1.70
   2   9   5   19.81    1.68
   3   9   5    1.20    0.45
  -3  10   5   21.09    1.95
  -3  10   5   17.05    1.52
  -2  10   5   39.04    2.85
  -2  10   5   32.25    2.38
  -1  10   5   50.23    3.46
  -1  10   5   46.08    3.06
   0  10   5   34.94    2.62
   0  10   5   34.04    2.34
   1  10   5   23.58    1.84
   1  10   5   24.92    2.02
   2  10   5    2.40    0.55
  -2  11   5   32.98    2.39
  -2  11   5   35.22    2.81
  -1  11   5   40.79    2.82
  -1  11   5   45.38    3.26
   0  11   5   28.28    2.30
   0  11   5   26.73    2.01
   1  11   5    8.51    1.21
   1  11   5    9.23    1.13
  -2  12   5   21.83    1.77
  -1  12   5   26.20    2.04
  -1  12   5   29.75    2.50
   0  12   5   15.11    1.41
   0  12   5   17.79    1.74
   1  12   5    5.59    1.02
   1  14  -6   47.18    3.11
   0  14  -6   57.14    4.07
  -1  14  -6   48.64    3.55
  -2  14  -6   14.64    1.54
   2  13  -6   35.18    2.86
   2  13  -6   34.81    2.54
   1  13  -6   61.18    3.93
   1  13  -6   65.94    4.40
   0  13  -6   17.31    1.71
  -1  13  -6   28.45    2.31
  -2  13  -6    3.39    0.75
  -3  13  -6    0.29    0.34
   3  12  -6   33.69    2.77
   2  12  -6   58.81    4.11
   1  12  -6   45.05    3.37
   1  12  -6   48.50    3.04
   0  12  -6   27.39    2.29
   0  12  -6   30.01    1.93
  -1  12  -6    3.53    0.72
  -2  12  -6   -0.15    0.18
  -3  12  -6    6.02    0.97
   4  11  -6   28.52    2.46
  -4 -11   6   29.88    2.91
   3  11  -6   64.14    4.49
  -3 -11   6   68.36    4.70
   2  11  -6   98.68    6.19
   1  11  -6   38.52    2.84
   0  11  -6   45.89    2.72
   0  11  -6   41.58    3.04
  -1  11  -6   13.97    1.32
  -2  11  -6    0.10    0.22
  -3  11  -6    1.39    0.45
   4  10  -6   37.74    3.01
  -4 -10   6   40.78    3.12
   3  10  -6   60.47    4.16
  -3 -10   6   61.17    4.26
   2  10  -6   39.01    2.96
  -2 -10   6   43.13    3.13
   1  10  -6   23.18    1.89
  -1 -10   6   22.12    1.97
   0  10  -6    1.06    0.27
   0  10  -6    1.04    0.38
  -1  10  -6    2.15    0.31
  -1  10  -6    2.46    0.54
  -2  10  -6    6.44    0.87
  -3  10  -6   21.46    1.70
  -3  10  -6   19.85    1.65
  -4  10  -6   17.94    1.51
   4   9  -6   37.22    2.88
  -4  -9   6   37.96    2.94
   3   9  -6   32.39    2.56
  -3  -9   6   34.93    2.69
   2   9  -6    6.24    0.98
  -2  -9   6    5.60    0.93
   1   9  -6   17.53    1.52
  -1  -9   6   16.73    1.56
   0   9  -6    1.47    0.40
   0   9  -6    1.16    0.26
   0  -9   6    1.46    0.45
  -1   9  -6   23.18    1.45
  -1   9  -6   25.11    1.83
  -1   9  -6   23.78    1.77
  -2   9  -6   50.52    3.08
  -2   9  -6   42.50    2.96
  -3   9  -6   42.98    2.81
  -3   9  -6   41.30    2.80
  -4   9  -6   38.91    2.62
   4   8  -6   41.98    3.17
  -4  -8   6   46.50    3.26
   3   8  -6   51.10    3.45
  -3  -8   6   49.12    3.47
   2   8  -6   57.32    3.77
  -2  -8   6   58.18    3.83
   1   8  -6    0.56    0.28
  -1  -8   6   -0.04    0.21
   0   8  -6    0.54    0.26
   0  -8   6    0.64    0.33
  -1   8  -6   13.47    1.12
  -1   8  -6   13.57    1.15
  -1   8  -6   13.96    0.86
   1  -8   6   11.42    1.15
  -2   8  -6   13.52    1.13
  -2   8  -6   14.12    1.17
  -3   8  -6   54.59    3.25
  -3   8  -6   48.19    3.22
  -4   8  -6   51.94    3.28
  -5   8  -6   28.04    1.97
  -5  -7   6   25.58    2.12
  -4  -7   6   44.34    3.14
  -3  -7   6   14.38    1.38
  -2  -7   6   11.14    1.08
  -2  -7   6   11.46    1.13
   1   7  -6   11.41    1.04
  -1  -7   6   10.47    0.92
  -1  -7   6   10.48    1.05
   0   7  -6    1.88    0.40
   0   7  -6    2.73    0.49
   0  -7   6    1.88    0.31
  -1   7  -6   33.23    2.24
  -1   7  -6   33.72    1.97
  -1   7  -6   38.35    2.32
  -2   7  -6   60.82    3.57
  -2   7  -6   59.66    3.50
   2  -7   6   55.31    3.19
  -3   7  -6   79.76    4.59
  -3   7  -6   75.91    4.61
  -4   7  -6   31.91    2.16
  -5   7  -6   19.68    1.49
  -5  -6   6   31.06    2.34
  -4  -6   6   29.50    2.24
  -3  -6   6    7.20    1.07
  -3  -6   6    8.12    1.02
  -2  -6   6    5.76    0.80
  -2  -6   6    6.96    0.86
  -1  -6   6   49.05    3.01
   0   6  -6  101.88    5.97
   0   6  -6  104.62    5.98
   0  -6   6  105.36    5.80
  -1   6  -6   76.19    4.28
  -1   6  -6   67.20    4.19
  -1   6  -6   81.93    3.97
  -1   6  -6   66.97    3.94
   1  -6   6   70.37    4.00
  -2   6  -6  191.53   10.47
  -2   6  -6  188.51   10.40
   2  -6   6  185.38   10.24
  -3   6  -6   84.85    5.27
  -3   6  -6   97.86    5.26
  -4   6  -6   77.38    4.57
  -5   6  -6   15.79    1.26
  -5  -5   6   43.29    2.93
  -4  -5   6    3.83    0.67
  -3  -5   6    1.65    0.44
  -3  -5   6    1.90    0.54
  -2  -5   6    4.33    0.58
  -2  -5   6    4.42    0.68
   1   5  -6   11.76    0.94
  -1  -5   6   11.45    0.94
  -1  -5   6   12.32    0.96
   0   5  -6   60.05    3.38
   0  -5   6   53.98    3.23
  -1   5  -6  278.47   15.55
  -1   5  -6  304.86   15.64
   1  -5   6  275.65   15.41
  -2   5  -6  192.01   10.98
  -2   5  -6  205.60   10.90
  -3   5  -6  138.71    8.20
  -3   5  -6  153.83    8.11
  -4   5  -6   30.76    2.05
  -5   5  -6   12.97    1.10
  -5  -4   6    6.85    0.87
  -4  -4   6    2.50    0.51
  -4  -4   6    2.52    0.69
  -3  -4   6    1.25    0.44
  -3  -4   6    1.64    0.38
  -2  -4   6    8.59    0.89
  -2  -4   6   10.53    0.83
   1   4  -6    6.41    0.59
  -1  -4   6    7.22    0.64
  -1  -4   6    7.32    0.65
   0   4  -6  161.47    9.38
   0   4  -6  186.21    9.24
   0  -4   6  162.99    9.29
  -1   4  -6  308.27   16.19
  -1   4  -6  287.27   16.09
   1  -4   6  295.87   16.06
  -2   4  -6  105.67    6.35
  -2   4  -6  119.33    6.24
  -3   4  -6   81.14    4.99
  -3   4  -6   90.56    4.80
  -4   4  -6   16.37    1.26
  -5   4  -6    6.12    0.75
  -5  -3   6    1.75    0.41
  -4  -3   6    0.53    0.36
  -4  -3   6    0.00    0.18
  -3  -3   6    5.07    0.81
  -3  -3   6    6.82    0.62
  -2  -3   6   12.74    1.10
  -2  -3   6   13.94    0.99
   1   3  -6  393.06   20.70
  -1  -3   6  390.99   20.73
  -1  -3   6  364.88   20.75
   0   3  -6  498.72   26.34
   0   3  -6  542.00   26.21
   0  -3   6  467.87   26.21
   0  -3   6  486.78   26.28
   0  -3   6  446.89   26.32
  -1   3  -6  219.23   12.34
  -1   3  -6  242.03   12.47
   1  -3   6  223.07   12.39
  -2   3  -6  110.83    6.54
  -2   3  -6  121.06    6.34
  -3   3  -6   55.80    3.39
  -4   3  -6   25.15    1.77
  -5   3  -6    1.18    0.34
  -5  -2   6    1.89    0.39
  -4  -2   6   10.77    1.17
  -4  -2   6    9.06    0.82
  -3  -2   6   42.23    2.89
  -3  -2   6   44.30    2.60
  -2  -2   6  190.39   10.56
  -2  -2   6  191.93   10.35
  -2  -2   6  184.71   10.40
   1   2  -6  200.60   10.56
  -1  -2   6  194.17   10.63
  -1  -2   6  184.16   10.56
  -1  -2   6  195.09   10.56
   0   2  -6  557.60   31.82
   0   2  -6  661.16   31.72
   0  -2   6  553.34   31.79
   0  -2   6  602.21   31.85
   0  -2   6  583.83   31.72
  -1   2  -6  189.70   11.07
  -1   2  -6  206.21   11.28
   1  -2   6  217.35   11.08
   1  -2   6  210.73   11.25
  -2   2  -6  231.89   13.45
   2  -2   6  258.43   13.22
  -3   2  -6   31.35    2.08
  -4   2  -6    1.90    0.41
  -5   2  -6    0.03    0.20
  -5  -1   6    6.57    0.61
  -4  -1   6   12.00    1.25
  -4  -1   6   12.49    0.92
  -4  -1   6   12.19    0.89
  -3  -1   6   36.45    2.49
  -3  -1   6   32.36    2.28
  -3  -1   6   38.44    2.16
  -2  -1   6  176.21    9.92
  -2  -1   6  175.29    9.72
  -2  -1   6  182.77    9.83
   1   1  -6  439.77   22.65
  -1  -1   6  423.31   22.76
  -1  -1   6  402.89   22.67
  -1  -1   6  415.63   22.68
   0   1  -6  186.59    9.58
   0  -1   6  186.79    9.61
   0  -1   6  166.70    9.56
   0  -1   6  159.74    9.47
  -1   1  -6   69.30    3.62
  -1   1  -6   66.22    3.80
  -1   1  -6   63.05    3.62
   1  -1   6   64.74    3.62
  -2   1  -6   35.08    2.30
   2  -1   6   38.49    2.13
  -3   1  -6   61.13    3.68
  -4   1  -6    0.02    0.15
  -5   1  -6    1.69    0.43
  -5   0   6    4.38    0.40
  -5   0   6    4.14    0.39
  -5   0   6    4.65    0.87
  -4   0   6   32.64    2.45
  -4   0   6   33.85    2.01
  -4   0   6   34.12    1.99
  -3   0   6   76.41    4.68
  -3   0   6   78.79    4.83
  -3   0   6   84.27    4.48
  -2   0   6  100.04    6.17
  -2   0   6  112.76    6.14
  -2   0   6  113.50    6.02
   1   0  -6   72.27    4.01
  -1   0   6   69.27    4.04
  -1   0   6   74.68    4.17
  -1   0   6   65.96    4.04
  -1   0   6   76.28    4.13
   0   0  -6   14.82    0.99
   0   0   6   12.78    0.95
   0   0   6   15.08    0.93
   0   0   6   14.65    1.02
   0   0   6   14.54    1.01
  -1   0  -6  229.53   12.63
  -1   0  -6  229.49   12.82
   1   0   6  245.16   12.69
  -2   0  -6   68.97    4.14
   2   0   6   72.14    3.98
  -3   0  -6    1.54    0.35
  -4   0  -6    3.17    0.55
  -5   0  -6    6.23    0.85
  -5   1   6   22.23    1.94
  -4   1   6   34.72    2.33
  -4   1   6   34.38    1.98
  -4   1   6   34.70    2.49
  -3   1   6  124.83    7.27
  -3   1   6  126.74    7.17
  -3   1   6  128.08    7.33
  -3   1   6  125.84    6.92
  -2   1   6  138.67    7.25
  -2   1   6  136.15    7.36
  -2   1   6  124.06    7.47
  -2   1   6  126.29    7.39
   1  -1  -6  263.89   14.52
  -1   1   6  278.14   14.60
  -1   1   6  290.49   14.64
  -1   1   6  242.48   14.58
   0  -1  -6  244.00   13.03
   0   1   6  236.90   13.02
   0   1   6  242.18   12.98
   0   1   6  240.59   13.06
   0   1   6  232.34   13.06
  -1  -1  -6   94.24    5.21
  -1  -1  -6   89.72    5.37
   1   1   6  105.49    5.27
   1   1   6   90.09    5.20
  -2  -1  -6   28.31    1.87
   2   1   6   27.13    1.72
  -3  -1  -6    8.94    0.86
   3   1   6    8.44    0.73
  -4  -1  -6    1.79    0.45
  -5  -1  -6   12.68    1.19
  -5   2   6   17.23    1.62
  -4   2   6   56.24    3.43
  -4   2   6   52.97    3.54
  -3   2   6   86.84    5.17
  -3   2   6   89.22    5.00
  -3   2   6   83.76    5.06
  -3   2   6   83.18    4.73
  -2   2   6  321.49   17.02
  -2   2   6  294.61   16.96
  -2   2   6  320.80   16.88
  -2   2   6  307.88   17.12
   1  -2  -6   86.89    4.86
  -1   2   6   87.18    4.96
  -1   2   6   87.92    5.03
  -1   2   6   85.74    4.94
  -1   2   6   88.52    4.93
   0  -2  -6  313.46   16.80
   0   2   6  331.09   16.84
   0   2   6  293.82   16.78
   0   2   6  300.01   16.86
   0   2   6  307.63   16.75
  -1  -2  -6   78.14    4.86
   1   2   6   92.66    4.79
   1   2   6   83.71    4.73
  -3  -2  -6    0.13    0.17
   3   2   6    0.04    0.15
  -4  -2  -6   12.23    1.17
   4   2   6   13.14    1.07
  -5  -2  -6    4.42    0.76
  -5   3   6   17.21    1.62
  -4   3   6   53.83    3.54
  -4   3   6   49.53    3.26
  -4   3   6   52.41    3.40
  -3   3   6  102.73    6.17
  -3   3   6  106.29    6.32
  -3   3   6  113.54    5.91
  -3   3   6  101.23    6.10
  -2   3   6   33.40    2.38
  -2   3   6   37.17    2.29
  -2   3   6   36.22    2.28
  -2   3   6   36.85    2.22
   1  -3  -6   43.97    2.55
  -1   3   6   46.07    2.74
  -1   3   6   39.53    2.59
  -1   3   6   43.26    2.67
  -1   3   6   44.94    2.62
   0  -3  -6   29.65    1.85
   0   3   6   32.28    1.88
   0   3   6   27.70    1.92
   0   3   6   27.12    1.84
   0   3   6   26.97    1.78
  -1  -3  -6    7.21    0.70
   1   3   6    6.64    0.59
   1   3   6    6.59    0.60
  -2  -3  -6    5.57    0.75
   2   3   6    6.31    0.68
   2   3   6    6.58    0.53
  -3  -3  -6   29.75    2.19
   3   3   6   32.76    2.08
  -4  -3  -6   12.03    1.17
   4   3   6   11.74    1.06
  -5  -3  -6   17.34    1.56
  -5   4   6   33.11    2.30
  -5   4   6   31.30    2.44
  -4   4   6   59.06    3.77
  -4   4   6   64.76    3.75
  -4   4   6   53.69    3.89
  -3   4   6   81.76    4.97
  -3   4   6   80.99    4.99
  -3   4   6   89.80    4.82
  -3   4   6   84.58    5.20
  -2   4   6   42.55    2.93
  -2   4   6   47.05    2.79
  -2   4   6   47.86    2.83
  -2   4   6   44.18    2.77
   1  -4  -6  172.39    8.57
  -1   4   6  153.61    8.75
  -1   4   6  144.15    8.59
  -1   4   6  147.50    8.68
   0  -4  -6   11.15    0.92
   0   4   6   11.37    0.88
   0   4   6   13.74    0.97
   0   4   6   10.42    0.93
   0   4   6   10.81    1.01
  -1  -4  -6    3.41    0.55
   1   4   6    3.11    0.44
   1   4   6    3.25    0.46
  -2  -4  -6   64.07    3.92
   2   4   6   60.70    3.63
   2   4   6   63.89    3.75
  -3  -4  -6   26.04    1.96
   3   4   6   24.62    1.78
  -4  -4  -6   30.09    2.25
   4   4   6   28.89    2.08
  -5  -4  -6   33.88    2.62
   5   4   6   36.20    2.50
  -5   5   6   45.64    3.54
  -5   5   6   52.29    3.26
  -4   5   6   77.08    4.50
  -4   5   6   73.67    4.44
  -4   5   6   65.45    4.64
  -3   5   6   83.85    5.10
  -3   5   6   83.32    5.07
  -3   5   6   89.77    4.97
  -3   5   6   87.96    5.36
  -2   5   6  126.31    7.16
  -2   5   6  115.47    7.32
  -2   5   6  132.28    7.11
  -2   5   6  127.25    7.15
   1  -5  -6   15.77    1.09
  -1   5   6   16.84    1.28
  -1   5   6   14.53    1.23
  -1   5   6   11.96    1.04
  -1   5   6   15.67    1.12
   0  -5  -6   60.66    3.56
   0   5   6   62.88    3.51
   0   5   6   56.13    3.56
   0   5   6   53.61    3.44
  -1  -5  -6    7.09    0.88
   1   5   6    7.21    0.76
   1   5   6    6.12    0.65
  -2  -5  -6   21.52    1.64
   2   5   6   20.48    1.47
   2   5   6   17.97    1.36
  -3  -5  -6   53.62    3.47
   3   5   6   48.73    3.21
  -4  -5  -6   32.57    2.44
   4   5   6   30.55    2.23
   5   5   6   24.83    1.97
  -5   6   6   24.30    2.23
  -4   6   6   29.66    2.07
  -4   6   6   25.75    2.26
  -3   6   6   19.42    1.46
  -3   6   6   18.55    1.49
  -3   6   6   20.36    1.73
  -2   6   6   18.66    1.34
  -2   6   6   14.65    1.43
  -2   6   6   17.07    1.25
  -1   6   6   25.23    1.63
  -1   6   6   24.12    1.79
  -1   6   6   20.92    1.53
   0  -6  -6   30.15    2.15
   0   6   6   29.54    2.05
   0   6   6   30.88    2.19
   0   6   6   37.40    2.14
  -1  -6  -6   95.23    5.41
   1   6   6   84.97    5.19
   1   6   6   88.60    5.26
  -2  -6  -6   72.52    4.56
   2   6   6   70.16    4.28
   2   6   6   74.49    4.37
  -3  -6  -6   22.09    1.87
   3   6   6   21.37    1.67
  -4  -6  -6   20.01    1.83
   4   6   6   19.18    1.62
  -5   7   6   17.98    2.14
  -4   7   6   21.26    2.03
  -4   7   6   23.88    1.80
  -3   7   6   15.65    1.34
  -3   7   6   16.67    1.58
  -2   7   6    5.70    0.91
  -2   7   6    5.44    0.60
  -2   7   6    6.17    0.75
  -1   7   6   25.29    1.67
  -1   7   6   20.87    1.56
  -1   7   6   25.44    1.90
   0   7   6   69.37    4.27
   0   7   6   77.55    4.29
   0   7   6   68.87    4.44
   1   7   6   62.17    3.96
   1   7   6   62.81    4.04
   1   7   6   71.87    4.06
  -2  -7  -6   58.15    3.85
   2   7   6   57.65    3.59
   2   7   6   57.92    3.63
  -3  -7  -6   34.22    2.58
   3   7   6   31.10    2.30
  -4  -7  -6   61.86    4.15
   4   7   6   57.17    3.85
  -4   8   6   12.65    1.25
  -4   8   6   14.57    1.77
  -3   8   6   17.26    1.48
  -3   8   6   19.54    1.80
  -2   8   6    0.90    0.33
  -2   8   6   -0.03    0.22
  -1   8   6    5.31    0.85
  -1   8   6    5.11    0.57
  -1   8   6    5.35    0.70
   0   8   6   25.01    1.94
   0   8   6   24.83    1.76
   1   8   6   34.83    2.47
   1   8   6   31.24    2.33
   1   8   6   38.64    2.42
   2   8   6   16.42    1.38
   2   8   6   15.87    1.37
   3   8   6   35.79    2.55
  -4   9   6    5.02    1.11
  -3   9   6    0.61    0.32
  -3   9   6    0.55    0.40
  -2   9   6    2.40    0.51
  -2   9   6    1.95    0.58
  -1   9   6   25.52    1.85
  -1   9   6   25.63    2.13
   0   9   6   41.46    2.66
   0   9   6   38.45    2.83
   1   9   6   33.36    2.46
   1   9   6   35.93    2.35
   1   9   6   31.42    2.32
   2   9   6   25.36    1.95
   3   9   6   44.89    3.20
  -3  10   6    4.25    0.95
  -3  10   6    3.26    0.67
  -2  10   6   21.17    1.62
  -2  10   6   17.74    1.84
  -1  10   6   43.28    3.02
  -1  10   6   51.96    3.50
   0  10   6   39.43    2.70
   0  10   6   41.23    2.97
   1  10   6   34.19    2.44
   1  10   6   34.77    2.58
   2  10   6   47.57    3.23
  -3  11   6    2.96    0.65
  -2  11   6    8.49    1.32
  -2  11   6    7.10    0.99
  -1  11   6   22.41    2.10
  -1  11   6   22.70    1.76
   0  11   6   32.74    2.68
   0  11   6   36.27    2.48
   1  11   6   30.14    2.22
   1  11   6   28.19    2.34
  -2  12   6   24.06    1.92
  -1  12   6   27.33    2.07
   0  12   6   16.80    1.74
   1  12   6   16.85    1.82
   1  14  -7   11.06    1.55
   0  14  -7   30.38    2.55
  -1  14  -7   48.79    3.54
  -2  14  -7   38.39    2.93
   2  13  -7    7.58    1.31
   2  13  -7    8.12    1.08
   1  13  -7   24.56    1.82
   1  13  -7   23.64    2.15
   0  13  -7   60.67    4.18
  -1  13  -7   60.61    4.12
  -2  13  -7   34.84    2.65
  -3  13  -7   22.31    1.94
   3  12  -7    4.48    0.99
   2  12  -7   22.89    2.08
   1  12  -7   52.32    3.23
   1  12  -7   48.66    3.58
   0  12  -7   90.74    5.14
   0  12  -7   86.26    5.57
  -1  12  -7   43.14    3.04
  -2  12  -7   36.69    2.67
  -3  12  -7   22.30    1.87
  -4 -11   7    8.08    1.93
   3  11  -7   12.45    1.58
  -3 -11   7   10.38    1.56
   2  11  -7   20.07    1.87
   1  11  -7   96.68    6.02
   0  11  -7   89.79    5.65
   0  11  -7   92.28    5.22
  -1  11  -7   94.70    5.78
  -2  11  -7   19.55    1.63
  -3  11  -7   11.12    1.15
   4  10  -7    3.18    0.88
  -4 -10   7    3.76    0.94
   3  10  -7   18.40    1.79
  -3 -10   7   18.66    1.87
   2  10  -7   98.97    6.40
  -2 -10   7  109.14    6.57
   1  10  -7  178.54   10.46
  -1 -10   7  183.00   10.58
   0  10  -7  105.64    6.16
   0  10  -7   98.74    5.74
  -1  10  -7   32.00    2.29
  -2  10  -7   24.05    1.85
  -2  10  -7   21.64    1.73
  -3  10  -7    9.33    1.04
  -3  10  -7   11.70    1.09
  -4  10  -7    1.68    0.45
   4   9  -7   10.97    1.48
  -4  -9   7   11.12    1.49
   3   9  -7   47.42    3.48
  -3  -9   7   52.47    3.60
   2   9  -7  114.08    7.07
  -2  -9   7  121.43    7.19
   1   9  -7   78.64    5.05
  -1  -9   7   84.54    5.16
   0   9  -7   64.65    4.12
   0  -9   7   67.45    4.26
  -1   9  -7   13.51    1.18
  -2   9  -7   19.08    1.50
  -2   9  -7   17.37    1.42
  -3   9  -7    1.93    0.45
  -3   9  -7    2.60    0.52
  -4   9  -7    7.51    0.93
  -4  -8   7   37.36    2.84
  -3  -8   7   82.40    5.25
   2   8  -7  139.75    8.08
  -2  -8   7  136.97    7.98
  -2  -8   7  134.47    8.08
   1   8  -7   73.89    4.42
  -1  -8   7   65.22    4.41
  -1  -8   7   71.93    4.23
   0   8  -7   16.92    1.35
   0   8  -7   15.41    1.33
   0  -8   7   16.22    1.12
  -1   8  -7   30.73    2.12
  -1   8  -7   30.51    1.79
  -1   8  -7   32.97    2.18
  -2   8  -7    6.56    0.83
  -2   8  -7    6.50    0.70
  -3   8  -7    2.43    0.50
  -3   8  -7    2.55    0.47
  -4   8  -7   10.29    1.00
  -5   8  -7   13.26    1.74
  -5  -7   7   12.72    1.72
  -4  -7   7   40.56    2.93
  -3  -7   7   87.64    5.62
  -3  -7   7   93.07    5.60
  -2  -7   7   92.30    5.73
  -2  -7   7   96.96    5.69
  -1  -7   7  115.22    6.60
   0   7  -7   22.49    1.56
   0   7  -7   20.62    1.51
   0  -7   7   18.97    1.33
  -1   7  -7   68.31    3.86
  -1   7  -7   71.44    4.24
  -1   7  -7   80.93    3.90
  -1   7  -7   67.31    4.16
   1  -7   7   65.08    3.92
  -2   7  -7   12.79    1.02
  -2   7  -7   14.29    1.12
   2  -7   7   12.02    0.82
  -3   7  -7    5.04    0.70
  -3   7  -7    7.08    0.68
  -4   7  -7   13.71    1.16
  -5   7  -7   15.15    1.28
  -5  -6   7   24.27    1.97
  -4  -6   7   43.64    3.01
  -3  -6   7   88.52    5.24
  -3  -6   7   82.58    5.32
  -2  -6   7   59.49    3.75
   1   6  -7    3.33    0.51
  -1  -6   7    3.75    0.53
   0   6  -7   92.70    5.32
   0   6  -7   94.00    5.35
   0  -6   7   89.63    5.17
  -1   6  -7    6.22    0.38
  -1   6  -7    5.48    0.37
  -1   6  -7    6.20    0.60
  -1   6  -7    5.44    0.61
   1  -6   7    5.54    0.46
  -2   6  -7    4.48    0.47
  -2   6  -7    5.42    0.66
   2  -6   7    3.11    0.41
  -3   6  -7   61.74    3.91
  -3   6  -7   68.14    3.81
  -4   6  -7   24.27    1.75
  -5   6  -7   14.33    1.21
  -5  -5   7   30.27    2.23
  -4  -5   7   57.29    4.04
  -4  -5   7   60.60    3.79
  -3  -5   7   80.56    4.95
  -3  -5   7   83.74    5.13
  -2  -5   7  122.08    6.91
  -2  -5   7  120.74    7.05
   1   5  -7   52.21    3.21
  -1  -5   7   54.30    3.24
  -1  -5   7   54.09    3.24
  -1   5  -7   12.68    0.98
  -1   5  -7   12.24    0.92
   1  -5   7   11.82    0.82
  -2   5  -7   49.06    3.04
  -2   5  -7   50.21    2.90
   2  -5   7   49.26    2.90
  -3   5  -7   51.59    2.89
  -3   5  -7   46.66    3.05
  -4   5  -7   33.59    2.25
  -5   5  -7   31.47    2.17
  -5  -4   7   30.72    2.18
  -4  -4   7  112.72    6.30
  -4  -4   7  100.81    6.59
  -3  -4   7   75.97    4.74
  -2  -4   7   23.70    1.76
  -2  -4   7   25.02    1.65
   1   4  -7   21.84    1.45
  -1  -4   7   20.54    1.47
  -1  -4   7   22.60    1.49
   0   4  -7   26.71    1.70
   0  -4   7   25.10    1.61
  -1   4  -7    5.09    0.54
  -1   4  -7    5.59    0.49
   1  -4   7    5.71    0.50
  -2   4  -7   90.83    5.49
  -2   4  -7  100.82    5.33
  -3   4  -7   49.19    3.05
  -4   4  -7   54.92    3.41
  -5   4  -7   17.15    1.38
  -5  -3   7   52.00    3.26
  -4  -3   7   24.92    1.76
  -4  -3   7   25.64    2.11
  -3  -3   7   46.74    3.13
  -3  -3   7   46.71    2.83
  -2  -3   7    4.48    0.63
  -2  -3   7    4.78    0.49
   1   3  -7    5.67    0.52
  -1  -3   7    5.59    0.53
  -1  -3   7    5.32    0.49
  -1  -3   7    5.26    0.55
  -1   3  -7  199.20   10.73
  -1   3  -7  208.79   11.01
   1  -3   7  194.04   10.95
   1  -3   7  198.21   10.74
  -2   3  -7   74.34    4.03
  -2   3  -7   71.93    4.29
  -3   3  -7  108.39    6.85
   3  -3   7  130.77    6.56
  -4   3  -7   45.17    2.90
  -5   3  -7   26.09    1.90
  -5  -2   7   39.43    2.49
  -5  -2   7   39.45    3.03
  -4  -2   7   54.41    3.72
  -4  -2   7   55.84    3.33
  -3  -2   7    9.29    0.98
  -3  -2   7    9.31    0.75
   1   2  -7    0.86    0.21
  -1  -2   7    1.59    0.31
  -1  -2   7    0.97    0.23
  -1  -2   7    1.77    0.30
   0   2  -7  109.08    5.97
   0  -2   7  112.13    5.86
   0  -2   7   98.75    5.92
  -1   2  -7  167.69    9.17
  -1   2  -7  172.18    9.40
   1  -2   7  185.65    9.19
   1  -2   7  153.81    9.33
  -2   2  -7  219.43   12.57
   2  -2   7  236.04   12.29
  -3   2  -7  163.43    9.70
   3  -2   7  181.77    9.42
  -4   2  -7   40.80    2.69
  -5   2  -7   26.50    1.94
  -5  -1   7   32.03    2.55
  -5  -1   7   31.06    1.97
  -4  -1   7   27.09    2.14
  -4  -1   7   27.34    1.72
  -3  -1   7    0.67    0.19
  -3  -1   7    0.57    0.23
  -3  -1   7    0.26    0.21
  -2  -1   7    0.71    0.25
  -2  -1   7    1.05    0.21
  -2  -1   7    0.38    0.17
   1   1  -7   69.72    3.78
  -1  -1   7   64.93    3.81
  -1  -1   7   65.03    3.79
  -1  -1   7   65.96    3.87
   0   1  -7   99.33    5.27
   0  -1   7   95.46    5.17
   0  -1   7   90.02    5.28
   0  -1   7   89.10    5.25
  -1   1  -7  176.38    9.22
  -1   1  -7  179.49    9.44
   1  -1   7  172.10    9.23
   1  -1   7  152.98    9.39
  -2   1  -7  160.62    9.19
   2  -1   7  168.33    8.96
  -3   1  -7   55.82    3.72
   3  -1   7   66.80    3.53
  -4   1  -7   30.43    2.14
  -5   1  -7    9.18    0.97
  -5   0   7   13.91    1.49
  -5   0   7   14.75    0.96
  -4   0   7    0.08    0.12
  -4   0   7    0.11    0.25
  -3   0   7    0.29    0.18
  -3   0   7    0.24    0.20
  -3   0   7    0.54    0.16
  -2   0   7   34.33    2.03
  -2   0   7   31.57    2.17
  -2   0   7   34.03    2.12
   1   0  -7   84.58    4.85
  -1   0   7   86.85    5.02
  -1   0   7   91.36    4.91
  -1   0   7   87.74    4.93
  -1   0   7   85.23    4.97
   0   0  -7  309.77   17.60
   0   0   7  332.96   17.61
   0   0   7  349.32   17.55
   0   0   7  314.88   17.65
   0   0   7  316.79   17.64
  -1   0  -7  179.58    9.93
  -1   0  -7  185.86   10.15
   1   0   7  186.87    9.97
   1   0   7  181.95   10.15
  -2   0  -7  138.22    7.79
   2   0   7  137.66    7.58
  -3   0  -7   32.29    2.20
   3   0   7   32.57    2.00
  -4   0  -7   43.99    3.02
   4   0   7   49.48    2.86
  -5   0  -7    7.80    0.99
  -5   1   7    8.71    1.22
  -4   1   7    3.05    0.65
  -4   1   7    3.44    0.58
  -4   1   7    3.61    0.35
  -3   1   7   17.17    1.28
  -3   1   7   16.44    1.08
  -3   1   7   14.36    1.29
  -2   1   7   86.63    4.99
  -2   1   7   83.88    5.06
  -2   1   7   88.15    4.84
  -2   1   7   82.99    4.92
   1  -1  -7  127.95    7.14
  -1   1   7  133.99    7.26
  -1   1   7  128.13    7.23
  -1   1   7  135.37    7.32
  -1   1   7  122.94    7.19
   0  -1  -7   63.19    3.75
   0   1   7   65.72    3.76
   0   1   7   58.13    3.78
   0   1   7   70.08    3.81
   0   1   7   67.43    3.70
  -1  -1  -7  134.67    7.38
  -1  -1  -7  136.32    7.58
   1   1   7  137.95    7.42
   1   1   7  130.82    7.39
  -2  -1  -7  136.36    7.97
   2   1   7  145.57    7.81
  -3  -1  -7  125.25    7.25
   3   1   7  125.94    7.03
  -4  -1  -7   16.71    1.48
   4   1   7   20.15    1.38
  -5  -1  -7    3.22    0.64
  -5   2   7    2.36    0.65
  -4   2   7    5.72    0.90
  -4   2   7    6.56    0.85
  -4   2   7    6.85    0.50
  -3   2   7   23.84    1.82
  -3   2   7   25.54    1.78
  -3   2   7   26.68    1.58
  -3   2   7   23.65    1.90
  -2   2   7   39.85    2.42
  -2   2   7   39.48    2.50
  -2   2   7   41.03    2.55
   1  -2  -7   47.59    2.72
  -1   2   7   44.50    2.80
  -1   2   7   51.63    2.93
  -1   2   7   42.84    2.80
   0  -2  -7  203.12   11.32
   0   2   7  196.65   11.40
   0   2   7  215.57   11.37
   0   2   7  212.16   11.28
   0   2   7  202.74   11.33
  -1  -2  -7  295.85   16.56
   1   2   7  288.05   16.39
   1   2   7  324.92   16.45
  -2  -2  -7   56.05    3.34
   2   2   7   50.04    2.98
   2   2   7   55.22    3.16
  -3  -2  -7   40.39    2.67
   3   2   7   38.73    2.47
  -4  -2  -7    6.08    0.88
   4   2   7    6.08    0.76
  -5  -2  -7    0.48    0.32
  -5   3   7    1.25    0.48
  -5   3   7    1.38    0.44
  -4   3   7   10.13    1.13
  -4   3   7   11.12    1.37
  -4   3   7   11.29    1.13
  -3   3   7   62.26    3.83
  -3   3   7   55.03    3.62
  -3   3   7   59.97    3.41
  -3   3   7   58.01    3.60
  -2   3   7   63.24    3.70
  -2   3   7   55.64    3.80
  -2   3   7   67.38    3.66
  -2   3   7   58.12    3.66
   1  -3  -7  185.28   10.12
  -1   3   7  176.82   10.26
  -1   3   7  195.64   10.21
  -1   3   7  180.46   10.30
   0  -3  -7  149.89    8.18
   0   3   7  140.89    8.17
   0   3   7  151.85    8.19
   0   3   7  147.05    8.12
   0   3   7  140.98    8.27
  -1  -3  -7  108.97    6.38
   1   3   7  112.88    6.26
   1   3   7  112.72    6.28
  -2  -3  -7  142.76    8.01
   2   3   7  143.99    7.85
   2   3   7  133.92    7.69
  -3  -3  -7   18.08    1.47
   3   3   7   16.21    1.28
  -4  -3  -7    0.69    0.35
   4   3   7    0.81    0.33
  -5  -3  -7    2.42    0.62
  -5   4   7    6.04    0.88
  -5   4   7    5.29    0.93
  -4   4   7   26.90    1.64
  -4   4   7   25.28    2.18
  -4   4   7   29.94    2.05
  -4   4   7   26.83    2.05
  -3   4   7   31.44    2.26
  -3   4   7   32.31    2.44
  -3   4   7   31.58    2.24
  -3   4   7   37.40    2.15
  -2   4   7   70.68    4.32
  -2   4   7   68.58    4.10
  -2   4   7   70.72    4.12
  -2   4   7   66.15    4.10
   1  -4  -7   89.76    4.62
  -1   4   7   68.14    4.61
  -1   4   7   79.91    4.67
  -1   4   7   82.31    4.79
  -1   4   7   82.45    4.81
   0  -4  -7  296.52   15.67
   0   4   7  280.71   15.68
   0   4   7  279.47   15.60
   0   4   7  292.68   15.66
   0   4   7  278.22   15.81
  -1  -4  -7   79.78    4.65
   1   4   7   77.44    4.51
   1   4   7   76.19    4.51
  -2  -4  -7   38.15    2.61
   2   4   7   38.51    2.36
   2   4   7   39.02    2.46
  -3  -4  -7    2.10    0.52
   3   4   7    2.03    0.44
  -4  -4  -7    0.31    0.30
   4   4   7    0.28    0.31
  -5   5   7   15.97    1.70
  -5   5   7   14.81    1.39
  -4   5   7   23.49    1.77
  -4   5   7   22.59    1.78
  -4   5   7   20.57    1.93
  -3   5   7   30.83    2.06
  -3   5   7   27.18    2.23
  -3   5   7   27.91    2.04
  -2   5   7   91.14    5.01
  -2   5   7   81.27    5.19
  -2   5   7   82.12    5.00
  -1   5   7  200.17   10.24
  -1   5   7  166.86   10.15
  -1   5   7  185.56   10.39
   0  -5  -7  106.65    5.90
   0   5   7  103.97    5.95
   0   5   7   95.67    5.81
   0   5   7  100.75    5.84
  -1  -5  -7   64.30    3.83
   1   5   7   59.08    3.66
   1   5   7   58.99    3.68
   1   5   7   62.72    3.76
  -2  -5  -7   12.40    1.14
   2   5   7    9.28    0.85
   2   5   7   10.60    0.95
  -3  -5  -7   -0.25    0.19
   3   5   7    0.00    0.17
  -4  -5  -7   -0.02    0.31
   4   5   7   -0.02    0.25
  -5   6   7    9.50    1.41
  -5   6   7    6.55    1.00
  -4   6   7   30.59    2.27
  -4   6   7   32.55    2.59
  -3   6   7   63.22    4.28
  -3   6   7   68.11    4.00
  -3   6   7   61.97    4.01
  -2   6   7  125.00    7.80
  -2   6   7  135.37    7.56
  -2   6   7  134.51    7.50
  -1   6   7  170.26    9.47
  -1   6   7  153.46    9.17
  -1   6   7  171.87    9.25
   0   6   7   26.11    1.72
   0   6   7   22.94    1.68
   0   6   7   24.43    1.83
  -1  -6  -7   38.84    2.73
   1   6   7   38.49    2.60
   1   6   7   39.83    2.64
   1   6   7   45.32    2.72
  -2  -6  -7    6.22    0.91
   2   6   7    4.42    0.64
   2   6   7    6.40    0.77
  -3  -6  -7    0.00    0.29
   3   6   7    0.23    0.22
  -4  -6  -7    6.86    1.08
   4   6   7    6.84    0.95
  -4   7   7   24.54    1.97
  -4   7   7   26.89    2.32
  -3   7   7   52.95    3.71
  -3   7   7   52.76    3.41
  -2   7   7   92.09    5.22
  -2   7   7   90.96    5.61
  -2   7   7   83.63    5.26
  -1   7   7   23.46    1.70
  -1   7   7   23.14    1.90
  -1   7   7   24.79    1.68
   0   7   7   67.74    4.32
   0   7   7   62.99    4.13
   0   7   7   75.36    4.16
   1   7   7    0.44    0.26
   1   7   7    0.59    0.28
   1   7   7    0.89    0.33
   2   7   7    0.80    0.34
   2   7   7    1.11    0.53
   3   7   7   11.95    1.16
  -4   8   7   24.06    2.05
  -4   8   7   31.50    2.57
  -3   8   7   51.33    3.51
  -3   8   7   58.22    3.94
  -2   8   7   53.96    3.29
  -2   8   7   46.94    3.53
  -1   8   7   29.20    1.96
  -1   8   7   25.53    1.85
  -1   8   7   28.13    2.19
   0   8   7    0.61    0.26
   0   8   7    0.18    0.18
   0   8   7    0.54    0.31
   1   8   7    0.41    0.25
   1   8   7    0.41    0.28
   1   8   7    0.25    0.27
   2   8   7    4.45    0.72
   3   8   7   10.58    1.26
  -4   9   7   22.53    1.96
  -3   9   7   29.60    2.23
  -3   9   7   30.24    2.57
  -2   9   7   20.79    1.66
  -2   9   7   21.45    1.98
  -1   9   7   13.90    1.46
  -1   9   7   14.31    1.23
   0   9   7    0.80    0.38
   0   9   7    1.20    0.39
   1   9   7    0.66    0.36
   1   9   7    1.27    0.39
   1   9   7    0.52    0.37
   2   9   7   15.63    1.47
   2   9   7   18.98    1.63
  -3  10   7   25.31    2.36
  -3  10   7   25.57    2.01
  -2  10   7    7.42    0.98
  -2  10   7    7.71    1.27
  -1  10   7    2.00    0.64
  -1  10   7    1.36    0.41
   0  10   7    4.77    0.89
   0  10   7    4.21    0.71
   1  10   7   15.13    1.31
   1  10   7   11.31    1.42
  -3  11   7    6.26    0.99
  -2  11   7    0.51    0.35
  -1  11   7    5.99    1.12
  -1  11   7    6.01    0.88
   0  11   7    4.47    0.77
   0  11   7    3.89    0.88
   1  11   7    6.13    1.07
   0  14  -8    0.70    0.50
  -1  14  -8    0.99    0.47
  -2  14  -8    1.00    0.52
   2  13  -8   18.41    1.88
   1  13  -8    1.97    0.67
   1  13  -8    2.30    0.53
   0  13  -8    0.23    0.34
  -1  13  -8    7.94    1.17
  -2  13  -8   26.41    2.15
  -3  13  -8   37.96    2.81
   3  12  -8   16.21    1.76
   2  12  -8   11.24    1.51
   1  12  -8    5.39    0.97
   0  12  -8   18.75    1.71
  -1  12  -8   34.35    2.57
  -2  12  -8   58.89    3.88
  -3  12  -8   32.81    2.45
   3  11  -8   17.35    1.81
  -3 -11   8   19.36    1.97
  -2 -11   8    0.50    0.65
   1  11  -8    5.96    0.99
   0  11  -8   16.64    1.53
   0  11  -8   16.76    1.21
  -1  11  -8   34.15    2.48
  -2  11  -8   41.06    2.97
  -2  11  -8   48.59    3.16
  -3  11  -8   41.43    2.83
  -3  11  -8   35.65    2.65
   4  10  -8    9.13    1.38
  -4 -10   8    9.00    1.43
   3  10  -8    0.45    0.35
  -3 -10   8   -0.14    0.38
   2  10  -8   18.01    1.66
  -2 -10   8   15.47    1.65
   1  10  -8   18.89    1.65
  -1 -10   8   15.98    1.63
   0  10  -8   25.51    1.98
  -1  10  -8   80.69    4.79
  -1  10  -8   71.61    4.63
  -2  10  -8   95.96    5.50
  -2  10  -8   82.84    5.31
  -3  10  -8   34.74    2.52
  -3  10  -8   35.55    2.46
  -4  10  -8    9.89    1.07
   4   9  -8    0.87    0.48
  -4  -9   8    1.77    0.60
   3   9  -8    2.58    0.67
  -3  -9   8    3.53    0.83
   2   9  -8   13.42    1.33
  -2  -9   8   11.96    1.33
   1   9  -8   63.38    4.27
  -1  -9   8   66.94    4.38
  -1  -9   8   70.53    4.11
   0   9  -8  138.89    7.82
   0   9  -8  136.07    7.83
   0  -9   8  128.76    7.46
   0  -9   8  134.49    7.94
  -1   9  -8  243.94   13.18
  -1   9  -8  225.30   13.08
  -2   9  -8   85.06    5.24
  -2   9  -8   92.48    5.37
  -3   9  -8   62.75    3.94
  -3   9  -8   61.53    3.84
  -4   9  -8   17.76    1.50
  -4  -8   8   -0.11    0.31
  -3  -8   8   10.08    1.31
  -2  -8   8   42.91    3.00
  -2  -8   8   41.49    2.87
   1   8  -8   37.72    2.65
  -1  -8   8   38.18    2.49
   0   8  -8  123.18    6.73
   0   8  -8  111.27    6.70
   0  -8   8  110.81    6.44
  -1   8  -8  133.20    7.03
  -1   8  -8  118.81    6.91
  -1   8  -8  116.27    6.54
   1  -8   8  116.25    6.60
  -2   8  -8   62.82    3.77
  -2   8  -8   61.91    3.89
  -3   8  -8   17.48    1.32
  -3   8  -8   15.87    1.37
  -4   8  -8    7.67    0.95
  -4  -7   8    4.63    0.84
  -3  -7   8   20.11    1.69
  -3  -7   8   18.08    1.69
  -2  -7   8   26.10    1.97
   1   7  -8  119.12    6.71
  -1  -7   8  113.15    6.66
   0   7  -8  226.29   12.27
   0   7  -8  228.96   12.30
   0  -7   8  206.91   12.05
  -1   7  -8   34.89    2.30
  -1   7  -8   37.56    2.05
  -1   7  -8   38.29    2.41
  -1   7  -8   34.80    2.00
   1  -7   8   34.80    2.12
  -2   7  -8   22.88    1.54
  -2   7  -8   19.05    1.38
   2  -7   8   18.14    1.22
  -3   7  -8    1.99    0.44
  -3   7  -8    2.66    0.43
  -4   7  -8    8.76    0.91
  -5   7  -8    0.67    0.31
  -5  -6   8   -0.07    0.27
  -4  -6   8   14.43    1.34
  -4  -6   8   11.67    1.55
  -3  -6   8   45.18    2.93
  -3  -6   8   39.49    2.96
  -2  -6   8  132.07    7.68
   1   6  -8  179.19    9.62
  -1  -6   8  163.63    9.58
   0   6  -8  185.27    9.67
   0  -6   8  160.58    9.48
  -1   6  -8  149.64    8.11
  -1   6  -8  139.13    8.00
  -1   6  -8  153.14    7.70
   1  -6   8  130.46    7.84
  -2   6  -8   49.73    2.89
  -2   6  -8   45.30    2.99
   2  -6   8   48.76    2.83
  -3   6  -8   52.05    3.50
   3  -6   8   61.27    3.41
  -4   6  -8    5.75    0.77
  -5   6  -8    1.72    0.42
  -5  -5   8    0.29    0.29
  -4  -5   8   15.68    1.39
  -4  -5   8   17.31    1.66
  -3  -5   8   39.18    2.79
  -2  -5   8  109.53    6.20
  -2  -5   8  105.51    6.31
   1   5  -8  232.21   13.07
  -1  -5   8  225.73   13.09
  -1  -5   8  255.73   13.14
   0   5  -8  108.62    6.01
   0  -5   8  101.65    5.89
  -1   5  -8  149.68    8.63
  -1   5  -8  170.31    8.76
   1  -5   8  149.38    8.55
  -2   5  -8   20.01    1.45
  -2   5  -8   19.83    1.29
   2  -5   8   19.53    1.33
  -3   5  -8   30.62    2.09
  -4   5  -8    0.14    0.17
  -5   5  -8    9.05    0.93
  -5  -4   8   16.82    1.40
  -4  -4   8   32.64    2.54
  -4  -4   8   31.70    2.22
  -3  -4   8   84.80    5.25
  -2  -4   8   94.40    5.44
  -2  -4   8   95.26    5.61
   1   4  -8  136.77    7.52
  -1  -4   8  135.75    7.54
  -1  -4   8  130.61    7.56
   0   4  -8  198.65   10.75
   0  -4   8  190.72   10.67
  -1   4  -8    0.70    0.09
  -1   4  -8    0.55    0.17
  -1   4  -8    0.57    0.20
   1  -4   8    0.51    0.18
  -2   4  -8   17.02    1.28
  -2   4  -8   16.74    1.08
   2  -4   8   17.73    1.23
  -3   4  -8    4.34    0.61
  -4   4  -8   11.49    1.06
  -5   4  -8   12.20    1.12
  -5  -3   8   26.58    1.87
  -5  -3   8   25.73    2.30
  -4  -3   8   48.76    3.48
  -4  -3   8   51.02    3.14
  -3  -3   8  120.81    7.44
  -3  -3   8  131.33    7.13
   2   3  -8  233.96   12.44
  -2  -3   8  222.13   12.68
  -2  -3   8  233.07   12.52
  -2  -3   8  220.78   12.53
   1   3  -8  153.05    8.25
  -1  -3   8  148.06    8.21
  -1  -3   8  146.89    8.26
  -1  -3   8  146.34    8.31
   0   3  -8   49.83    2.93
   0  -3   8   50.83    2.91
   0  -3   8   46.04    2.77
  -1   3  -8   14.93    1.08
  -1   3  -8   13.47    0.84
   1  -3   8   13.85    1.04
   1  -3   8   14.86    0.86
  -2   3  -8   29.40    2.05
  -2   3  -8   30.89    1.77
   2  -3   8   32.70    1.74
  -3   3  -8    7.11    0.76
  -4   3  -8   33.66    2.32
  -5   3  -8   14.41    1.27
  -5  -2   8   22.49    2.08
  -5  -2   8   23.80    1.64
  -4  -2   8   79.95    5.08
  -3  -2   8   50.28    3.17
  -3  -2   8   52.01    3.04
  -3  -2   8   49.76    3.33
   2   2  -8  171.31    9.16
  -2  -2   8  162.88    9.23
  -2  -2   8  170.88    9.30
  -2  -2   8  163.51    9.40
   1   2  -8  222.05   12.73
  -1  -2   8  246.88   12.88
  -1  -2   8  227.55   12.78
  -1  -2   8  238.66   12.75
   0   2  -8   44.90    2.55
   0  -2   8   39.21    2.42
   0  -2   8   42.59    2.58
  -1   2  -8   49.49    3.04
  -1   2  -8   57.48    2.90
  -1   2  -8   46.86    2.81
   1  -2   8   49.29    2.83
   1  -2   8   49.37    3.03
  -2   2  -8    7.39    0.73
   2  -2   8    7.80    0.53
  -3   2  -8   10.65    1.00
   3  -2   8   11.80    0.78
  -4   2  -8   24.13    1.81
  -5   2  -8   17.82    1.49
  -5  -1   8   38.33    3.00
  -5  -1   8   40.87    2.45
  -4  -1   8   48.90    3.36
  -3  -1   8  169.53   10.20
  -3  -1   8  185.30   10.04
  -3  -1   8  192.31   10.42
  -2  -1   8  103.14    5.75
  -2  -1   8  101.50    5.94
  -2  -1   8  101.65    5.84
   1   1  -8   17.93    1.21
  -1  -1   8   18.66    1.23
  -1  -1   8   17.80    1.25
  -1  -1   8   18.82    1.32
   0   1  -8   14.04    1.02
   0  -1   8   13.82    1.06
   0  -1   8   14.72    1.05
   0  -1   8   13.95    0.95
  -1   1  -8    1.87    0.36
  -1   1  -8    1.27    0.21
   1  -1   8    0.73    0.24
   1  -1   8    1.49    0.22
  -2   1  -8    1.34    0.32
   2  -1   8    0.41    0.15
  -3   1  -8  101.31    6.18
   3  -1   8  110.58    5.91
  -4   1  -8   48.89    3.18
  -5   1  -8   29.82    2.19
  -5   0   8   55.48    3.96
  -5   0   8   58.86    3.30
  -4   0   8   81.01    4.49
  -4   0   8   78.08    4.98
  -4   0   8   76.98    4.78
  -3   0   8   57.43    3.46
  -3   0   8   55.85    3.25
  -3   0   8   53.93    3.55
  -2   0   8   46.70    2.80
  -2   0   8   43.41    2.61
  -2   0   8   39.78    2.66
   1   0  -8    1.56    0.26
  -1   0   8    1.65    0.31
  -1   0   8    1.40    0.27
  -1   0   8    1.55    0.32
  -1   0   8    1.30    0.31
   0   0  -8    1.00    0.24
   0   0   8    0.74    0.21
   0   0   8    0.73    0.25
   0   0   8    0.79    0.23
   0   0   8    0.99    0.20
  -1   0  -8   19.90    1.19
  -1   0  -8   19.60    1.38
   1   0   8   18.93    1.22
   1   0   8   18.29    1.37
  -2   0  -8  166.53    9.61
   2   0   8  176.06    9.39
  -3   0  -8   84.59    5.15
   3   0   8   88.46    4.91
  -4   0  -8   46.52    3.09
  -5   0  -8   17.84    1.53
  -5   1   8   37.41    2.84
  -4   1   8   43.44    3.12
  -4   1   8   45.96    3.00
  -4   1   8   46.48    2.66
  -3   1   8   33.21    1.97
  -3   1   8   28.13    2.11
  -3   1   8   32.81    2.26
  -2   1   8   37.38    2.51
  -2   1   8   37.60    2.30
  -2   1   8   38.96    2.45
  -2   1   8   34.95    2.34
   1  -1  -8    9.93    0.74
  -1   1   8    8.53    0.80
  -1   1   8   10.76    0.81
  -1   1   8   11.17    0.91
  -1   1   8    9.08    0.80
   0  -1  -8   10.00    0.78
   0   1   8    8.46    0.75
  -1  -1  -8   51.61    3.08
   1   1   8   47.17    3.07
   1   1   8   52.04    2.92
   1   1   8   49.51    2.89
  -2  -1  -8   66.99    4.25
   2   1   8   74.51    4.08
  -3  -1  -8   65.55    4.14
   3   1   8   68.33    3.91
  -4  -1  -8   49.86    3.32
   4   1   8   51.01    3.09
  -5  -1  -8   12.55    1.25
  -5   2   8   20.06    1.83
  -4   2   8   19.74    1.74
  -4   2   8   21.95    1.35
  -4   2   8   20.88    1.67
  -3   2   8   50.74    3.63
  -3   2   8   58.02    3.52
  -3   2   8   56.53    3.58
  -3   2   8   59.20    3.31
  -2   2   8    2.24    0.39
  -2   2   8    2.64    0.52
  -2   2   8    2.59    0.47
  -2   2   8    2.12    0.37
   1  -2  -8    7.20    0.60
  -1   2   8    7.33    0.74
  -1   2   8    5.29    0.63
  -1   2   8    8.16    0.68
  -1   2   8    6.90    0.69
   0  -2  -8   31.13    1.99
   0   2   8   33.21    2.02
   0   2   8   28.93    2.06
   0   2   8   29.82    1.93
   0   2   8   31.63    2.03
  -1  -2  -8   34.79    2.12
   1   2   8   30.91    1.94
   1   2   8   29.07    2.06
   1   2   8   29.99    1.91
  -2  -2  -8   65.44    3.85
   2   2   8   56.69    3.46
   2   2   8   66.44    3.66
  -3  -2  -8   60.22    3.82
   3   2   8   59.97    3.58
  -4  -2  -8   29.13    2.23
   4   2   8   30.40    2.03
  -5  -2  -8   11.32    1.21
  -5   3   8   15.57    1.54
  -5   3   8   15.56    1.42
  -4   3   8   19.90    1.65
  -4   3   8   21.20    1.74
  -4   3   8   20.66    1.31
  -4   3   8   19.43    1.81
  -3   3   8    1.49    0.40
  -3   3   8    1.41    0.43
  -3   3   8    2.98    0.41
  -3   3   8    1.63    0.40
  -2   3   8    3.91    0.56
  -2   3   8    2.20    0.48
  -2   3   8    3.41    0.54
  -2   3   8    3.16    0.49
   1  -3  -8   18.00    1.17
  -1   3   8   17.16    1.22
  -1   3   8   14.15    1.19
  -1   3   8   16.45    1.30
  -1   3   8   16.14    1.28
   0  -3  -8   67.07    3.89
   0   3   8   61.94    3.81
   0   3   8   67.81    3.91
   0   3   8   64.91    3.89
  -1  -3  -8  124.18    7.07
   1   3   8  130.57    6.95
   1   3   8  117.35    7.05
   1   3   8  121.89    6.92
  -2  -3  -8  141.60    8.12
   2   3   8  132.99    7.77
   2   3   8  150.65    7.95
  -3  -3  -8   84.86    5.12
   3   3   8   81.58    4.87
  -4  -3  -8   18.56    1.65
   4   3   8   18.57    1.44
  -5   4   8   18.34    1.59
  -5   4   8   16.40    2.22
  -4   4   8   20.73    1.87
  -4   4   8   21.59    1.68
  -4   4   8   18.69    1.66
  -3   4   8    2.15    0.46
  -3   4   8    1.73    0.43
  -3   4   8    3.03    0.63
  -2   4   8   10.56    0.93
  -2   4   8    9.48    1.29
  -2   4   8    9.49    1.02
  -2   4   8   10.22    0.94
  -1   4   8   73.85    4.18
  -1   4   8   67.61    4.16
  -1   4   8   75.58    4.35
  -1   4   8   65.25    4.26
   0  -4  -8  118.07    6.34
   0   4   8  112.41    6.35
   0   4   8  107.26    6.28
   0   4   8  101.71    6.22
  -1  -4  -8   84.21    5.17
   1   4   8   91.01    5.07
   1   4   8   88.56    5.17
   1   4   8   85.12    5.04
  -2  -4  -8   95.03    5.54
   2   4   8   89.05    5.33
   2   4   8   91.56    5.23
  -3  -4  -8   78.69    4.89
   3   4   8   77.03    4.64
  -4  -4  -8   34.71    2.63
   4   4   8   35.30    2.40
  -5   5   8   15.53    1.48
  -5   5   8   15.93    1.92
  -4   5   8    2.90    0.62
  -4   5   8    1.74    0.52
  -4   5   8    2.84    0.71
  -3   5   8    8.47    1.13
  -3   5   8    7.51    0.85
  -3   5   8    7.39    0.92
  -2   5   8    7.48    1.03
  -2   5   8   10.45    0.93
  -2   5   8    8.52    0.95
  -1   5   8   15.11    1.22
  -1   5   8   16.45    1.24
  -1   5   8   14.86    1.34
   0   5   8    9.54    0.88
   0   5   8   10.47    0.91
   0   5   8    9.65    0.94
  -1  -5  -8  106.78    6.21
   1   5   8  106.43    6.17
   1   5   8  101.85    6.09
   1   5   8  107.63    6.08
  -2  -5  -8  103.06    6.32
   2   5   8  111.43    6.17
   2   5   8  103.65    6.43
  -3  -5  -8   14.90    1.46
   3   5   8   16.69    1.34
  -4  -5  -8   12.51    1.37
   4   5   8   12.35    1.17
  -5   6   8    0.99    0.60
  -5   6   8    0.76    0.48
  -4   6   8    5.89    1.06
  -4   6   8    5.68    0.88
  -3   6   8   10.54    1.40
  -3   6   8    7.92    1.05
  -3   6   8   12.23    1.08
  -2   6   8   35.51    2.33
  -2   6   8   30.77    2.48
  -2   6   8   35.60    2.35
  -1   6   8   47.99    3.00
  -1   6   8   46.58    3.18
  -1   6   8   47.05    2.96
   0   6   8  137.16    7.56
   0   6   8  130.81    7.68
   0   6   8  129.27    7.57
   1   6   8  105.61    5.87
   1   6   8  101.37    5.91
   1   6   8   94.37    5.86
  -2  -6  -8   53.26    3.62
   2   6   8   56.53    3.47
  -3  -6  -8   22.85    1.90
   3   6   8   20.46    1.66
  -4  -6  -8    6.32    1.09
   4   6   8    7.45    0.97
  -4   7   8    2.59    0.77
  -4   7   8    1.94    0.58
  -3   7   8   22.99    2.10
  -3   7   8   24.17    1.86
  -2   7   8   54.11    3.44
  -2   7   8   56.06    3.79
  -2   7   8   55.31    3.50
  -1   7   8   80.06    5.00
  -1   7   8   81.08    4.70
  -1   7   8   75.41    4.71
   0   7   8  152.31    8.83
   0   7   8  134.15    8.61
   0   7   8  168.68    8.65
   1   7   8  133.19    7.87
   1   7   8  139.25    7.86
   1   7   8  137.43    7.91
   2   7   8   44.43    2.94
   3   7   8   17.50    1.51
  -4   8   8   11.55    1.61
  -4   8   8    9.66    1.27
  -3   8   8   19.61    1.85
  -3   8   8   15.64    1.47
  -2   8   8   24.84    2.15
  -2   8   8   24.38    1.86
  -1   8   8   62.89    4.04
  -1   8   8   59.48    3.72
  -1   8   8   55.90    4.04
   0   8   8   55.90    3.97
   0   8   8   59.08    3.84
   0   8   8   68.16    3.81
   1   8   8   38.04    2.67
   1   8   8   37.21    2.58
   1   8   8   37.90    2.63
   2   8   8    4.76    0.87
   2   8   8    4.42    0.73
   3   8   8    3.43    0.71
  -4   9   8    9.66    1.28
  -3   9   8   33.63    2.90
  -3   9   8   37.41    2.61
  -2   9   8   40.97    2.99
  -2   9   8   32.63    2.49
  -1   9   8   56.77    3.90
  -1   9   8   55.02    3.57
   0   9   8   41.40    3.15
   0   9   8   48.58    3.03
   1   9   8    0.68    0.39
   1   9   8    1.20    0.46
   1   9   8    0.66    0.34
   2   9   8    8.79    1.21
   2   9   8    9.31    1.13
  -3  10   8   28.37    2.21
  -2  10   8   32.51    2.43
  -2  10   8   35.65    2.88
  -1  10   8   47.44    3.32
  -1  10   8   55.10    3.77
   0  10   8   22.47    1.81
   0  10   8   23.18    2.03
   1  10   8   21.77    1.92
   1  10   8   22.32    1.81
  -1  11   8   25.10    2.02
  -1  11   8   27.07    2.39
   0  11   8    8.08    1.26
   0  14  -9   32.41    2.68
  -1  14  -9   16.70    1.69
  -2  14  -9    4.99    0.93
   2  13  -9   37.94    3.05
   1  13  -9   33.70    2.77
   1  13  -9   34.86    2.41
   0  13  -9   21.45    1.95
  -1  13  -9   14.10    1.45
  -2  13  -9    0.36    0.35
   3  12  -9   52.68    4.21
   2  12  -9   34.08    2.78
   1  12  -9   39.76    3.01
   0  12  -9   20.42    1.85
  -1  12  -9   22.46    1.90
  -2  12  -9    0.13    0.28
  -3  12  -9    8.78    1.19
   3  11  -9   35.20    2.90
  -3 -11   9   36.66    3.00
   2  11  -9   38.77    3.00
  -2 -11   9   40.03    3.47
   1  11  -9   33.18    2.58
   0  11  -9   29.78    2.32
   0  11  -9   30.24    1.94
  -1  11  -9    1.87    0.52
  -2  11  -9   11.32    1.20
  -2  11  -9    9.76    1.06
  -3  11  -9   14.28    1.40
   4  10  -9   34.80    3.02
  -4 -10   9   44.31    3.23
   3  10  -9   26.60    2.33
  -3 -10   9   27.97    2.41
   2  10  -9   31.67    2.47
  -2 -10   9   29.82    2.49
   1  10  -9    9.01    1.20
  -1 -10   9    9.13    0.94
  -1 -10   9    8.25    1.18
   0  10  -9   12.80    1.26
  -1  10  -9   11.61    1.13
  -1  10  -9    8.00    1.05
  -2  10  -9   16.98    1.50
  -2  10  -9   22.01    1.70
  -3  10  -9   19.63    1.66
  -4  10  -9   37.32    2.67
   4   9  -9   23.05    2.17
  -4  -9   9   26.05    2.24
  -3  -9   9   25.29    2.18
   2   9  -9   12.77    1.54
  -2  -9   9   11.42    1.43
  -2  -9   9   13.16    1.25
   1   9  -9   38.50    2.73
  -1  -9   9   38.29    2.79
  -1  -9   9   36.93    2.51
   0   9  -9   11.63    1.14
   0   9  -9   12.09    1.16
   0  -9   9   11.44    0.93
  -1   9  -9   36.84    2.47
  -1   9  -9   32.38    2.34
  -2   9  -9   34.98    2.37
  -2   9  -9   36.00    2.50
  -3   9  -9   49.85    3.31
  -4   9  -9   22.84    1.83
  -4  -8   9   28.23    2.32
  -3  -8   9   14.53    1.45
  -3  -8   9   13.41    1.43
  -2  -8   9   18.41    1.62
  -2  -8   9   16.68    1.50
  -1  -8   9    3.36    0.58
   0   8  -9   39.98    2.62
   0   8  -9   40.59    2.61
   0  -8   9   35.53    2.37
  -1   8  -9   49.50    3.20
  -1   8  -9   54.63    3.32
   1  -8   9   50.42    2.97
  -2   8  -9   64.05    3.96
  -2   8  -9   68.45    4.13
  -3   8  -9   59.64    3.79
  -4   8  -9   34.12    2.42
  -4  -7   9   11.89    1.57
  -4  -7   9   13.57    1.37
  -3  -7   9    6.61    1.02
  -3  -7   9    7.45    1.12
  -2  -7   9   16.21    1.42
   1   7  -9   38.72    2.55
  -1  -7   9   38.18    2.52
   0   7  -9   37.14    2.40
   0   7  -9   35.98    2.41
   0  -7   9   34.50    2.23
  -1   7  -9   53.72    3.13
  -1   7  -9   64.28    3.62
  -1   7  -9   57.21    3.49
   1  -7   9   57.37    3.32
  -2   7  -9   57.42    3.64
  -2   7  -9   65.19    3.85
   2  -7   9   62.46    3.53
  -3   7  -9   52.10    3.34
  -4   7  -9   21.69    1.70
  -5  -6   9    3.99    0.76
  -4  -6   9    0.11    0.27
  -4  -6   9    0.32    0.37
  -3  -6   9    0.14    0.29
  -2  -6   9    3.04    0.59
   1   6  -9   21.77    1.57
  -1  -6   9   21.83    1.59
   0   6  -9  119.10    6.43
   0  -6   9  104.44    6.26
  -1   6  -9  150.94    8.50
  -1   6  -9  155.17    8.62
   1  -6   9  150.31    8.38
  -2   6  -9   89.55    5.14
  -2   6  -9   90.70    5.34
   2  -6   9   91.42    5.14
  -3   6  -9   37.77    2.50
   3  -6   9   35.92    2.33
  -4   6  -9   22.92    1.76
  -5   6  -9    5.81    0.83
  -5  -5   9    1.90    0.49
  -4  -5   9    3.29    0.63
  -4  -5   9    3.40    0.78
  -3  -5   9   15.54    1.46
  -2  -5   9   15.67    1.34
   1   5  -9  138.32    7.82
  -1  -5   9  129.37    7.84
  -1  -5   9  150.03    7.89
   0   5  -9  144.05    8.26
   0  -5   9  149.95    8.20
  -1   5  -9   57.47    3.45
  -1   5  -9   70.43    3.87
  -1   5  -9   66.08    3.73
   1  -5   9   64.27    3.67
  -2   5  -9   96.02    5.47
  -2   5  -9   91.15    5.22
   2  -5   9   93.02    5.34
  -3   5  -9   75.81    4.58
  -4   5  -9   41.79    2.79
  -5   5  -9    5.99    0.85
  -5  -4   9    4.87    0.74
  -5  -4   9    4.87    1.00
  -4  -4   9    6.12    1.01
  -4  -4   9    5.35    0.77
  -3  -4   9    0.08    0.21
   2   4  -9   40.23    2.46
  -2  -4   9   39.64    2.53
  -2  -4   9   39.31    2.66
   1   4  -9   60.67    3.52
  -1  -4   9   57.65    3.44
  -1  -4   9   63.12    3.57
  -1  -4   9   54.62    3.54
   0   4  -9  144.47    7.91
   0  -4   9  135.15    7.84
   0  -4   9  143.29    7.73
  -1   4  -9  121.43    6.75
   1  -4   9  110.88    6.42
   1  -4   9  124.85    6.66
  -2   4  -9   83.38    4.90
  -2   4  -9   82.18    4.62
   2  -4   9   84.08    4.82
  -3   4  -9   65.37    4.02
  -4   4  -9    5.48    0.78
  -5   4  -9    5.83    0.81
  -5  -3   9    0.72    0.31
  -5  -3   9    0.72    0.45
  -4  -3   9    0.52    0.38
  -3  -3   9   32.29    2.38
   2   3  -9  154.76    8.44
  -2  -3   9  146.87    8.66
  -2  -3   9  154.89    8.52
  -2  -3   9  152.10    8.53
   1   3  -9  269.80   15.43
  -1  -3   9  293.21   15.51
  -1  -3   9  279.78   15.55
  -1  -3   9  289.91   15.42
   0   3  -9   94.44    5.38
   0  -3   9   97.65    5.39
   0  -3   9   90.39    5.22
  -1   3  -9   96.76    6.09
  -1   3  -9  118.74    6.41
   1  -3   9  112.07    6.12
   1  -3   9  124.92    6.39
  -2   3  -9  106.73    6.06
  -2   3  -9  100.15    5.69
  -2   3  -9  109.49    5.69
   2  -3   9  103.57    6.00
   2  -3   9  103.82    5.69
  -3   3  -9   63.92    3.94
  -4   3  -9    3.48    0.60
  -5   3  -9    1.25    0.40
  -5  -2   9    0.84    0.28
  -5  -2   9    1.34    0.56
  -4  -2   9    7.62    1.11
  -3  -2   9   76.32    4.33
  -3  -2   9   66.48    4.41
  -3  -2   9   79.73    4.69
   2   2  -9  127.28    6.66
  -2  -2   9  116.86    6.73
  -2  -2   9  112.18    6.76
  -2  -2   9  120.69    6.95
   1   2  -9  154.05    8.84
  -1  -2   9  167.56    8.86
  -1  -2   9  158.66    8.91
  -1  -2   9  160.46    8.99
   0   2  -9  146.46    8.34
   0  -2   9  153.75    8.36
   0  -2   9  149.98    8.23
  -1   2  -9  174.97    9.50
   1  -2   9  159.64    9.48
   1  -2   9  176.10    9.26
  -2   2  -9  212.77   11.73
   2  -2   9  208.64   11.39
  -3   2  -9    5.82    0.76
   3  -2   9    5.98    0.51
  -4   2  -9    7.68    0.96
  -5   2  -9    0.52    0.31
  -5  -1   9    1.82    0.34
  -5  -1   9    2.00    0.65
  -4  -1   9   26.19    2.13
  -3  -1   9   68.45    4.33
  -3  -1   9   71.45    4.20
  -3  -1   9   67.41    4.00
  -2  -1   9   78.10    4.47
  -2  -1   9   74.50    4.52
  -2  -1   9   78.99    4.66
   1   1  -9   60.77    3.60
  -1  -1   9   65.11    3.77
  -1  -1   9   62.02    3.63
  -1  -1   9   61.60    3.69
   0   1  -9  141.46    7.93
   0  -1   9  145.04    8.01
   0  -1   9  140.57    7.95
   0  -1   9  142.42    7.84
  -1   1  -9  215.94   11.55
   1  -1   9  190.25   11.52
   1  -1   9  218.73   11.33
  -2   1  -9   29.61    2.05
   2  -1   9   30.16    1.79
  -3   1  -9    0.20    0.18
   3  -1   9    0.18    0.15
  -4   1  -9    0.06    0.20
  -5   1  -9    4.30    0.76
  -5   0   9   10.23    1.42
  -5   0   9   10.80    0.80
  -4   0   9   47.39    3.24
  -4   0   9   44.53    3.03
  -3   0   9   56.54    3.63
  -3   0   9   56.60    3.33
  -3   0   9   55.03    3.50
  -2   0   9  256.52   13.82
  -2   0   9  249.41   13.70
  -2   0   9  239.90   13.61
   1   0  -9  142.15    8.21
  -1   0   9  152.56    8.34
  -1   0   9  141.15    8.36
  -1   0   9  158.32    8.28
  -1   0   9  150.64    8.40
   0   0  -9  222.69   11.96
   0   0   9  218.44   11.88
   0   0   9  204.54   11.97
   0   0   9  225.23   11.95
   0   0   9  216.29   12.03
  -1   0  -9   86.13    4.81
   1   0   9   77.54    4.78
   1   0   9   82.39    4.61
  -2   0  -9    7.35    0.78
   2   0   9    7.70    0.62
  -3   0  -9   10.96    1.06
   3   0   9   10.88    0.85
  -4   0  -9    9.51    1.03
  -5   0  -9    8.95    1.12
  -5   1   9   23.67    2.08
  -4   1   9   51.35    3.55
  -4   1   9   53.10    3.27
  -4   1   9   52.32    3.41
  -3   1   9  188.00   10.29
  -3   1   9  185.90   10.49
  -3   1   9  184.67   10.60
  -2   1   9   64.50    3.74
  -2   1   9   60.86    3.57
  -2   1   9   53.69    3.72
   1  -1  -9  123.28    6.79
  -1   1   9  123.91    6.92
  -1   1   9  117.90    6.97
  -1   1   9  133.22    6.88
  -1   1   9  111.22    6.89
   0  -1  -9  151.18    8.42
   0   1   9  156.79    8.43
   0   1   9  152.47    8.35
   0   1   9  143.09    8.43
  -1  -1  -9   19.22    1.40
   1   1   9   16.05    1.36
   1   1   9   18.65    1.23
   1   1   9   20.43    1.27
  -2  -1  -9    0.74    0.26
   2   1   9    1.15    0.25
  -3  -1  -9   10.08    1.02
   3   1   9   10.25    0.85
  -4  -1  -9    4.33    0.74
  -5  -1  -9   10.17    1.27
  -5   2   9   20.66    1.93
  -5   2   9   22.98    1.85
  -4   2   9   49.86    3.14
  -4   2   9   43.25    3.16
  -3   2   9   73.94    4.43
  -3   2   9   72.31    4.22
  -3   2   9   76.77    4.53
  -3   2   9   66.97    4.56
  -2   2   9   66.77    3.76
  -2   2   9   56.68    3.88
  -2   2   9   59.02    3.76
  -2   2   9   65.69    3.87
   1  -2  -9  108.77    6.18
  -1   2   9  114.34    6.38
  -1   2   9  117.57    6.43
  -1   2   9  101.68    6.30
   0  -2  -9   16.33    1.17
   0   2   9   14.29    1.15
   0   2   9   13.42    1.07
   0   2   9   14.65    1.24
   0   2   9   16.60    1.20
  -1  -2  -9   27.99    1.86
   1   2   9   24.79    1.82
   1   2   9   27.08    1.70
   1   2   9   24.24    1.67
  -3  -2  -9    1.40    0.43
   3   2   9    1.72    0.40
  -4  -2  -9   16.08    1.51
   4   2   9   16.99    1.30
  -5   3   9   25.97    2.11
  -5   3   9   27.91    2.28
  -4   3   9   63.57    4.36
  -4   3   9   70.21    4.29
  -4   3   9   61.56    4.14
  -3   3   9   40.29    3.02
  -3   3   9   44.68    2.89
  -3   3   9   45.41    2.94
  -2   3   9   77.69    4.81
  -2   3   9   76.34    4.65
  -2   3   9   76.63    4.83
  -2   3   9   82.32    4.75
   1  -3  -9   20.11    1.38
  -1   3   9   20.41    1.43
  -1   3   9   18.94    1.52
  -1   3   9   19.86    1.52
  -1   3   9   18.18    1.43
   0  -3  -9   20.81    1.46
   0   3   9   17.43    1.43
   0   3   9   18.82    1.40
   0   3   9   23.60    1.53
  -1  -3  -9    0.44    0.25
   1   3   9    0.20    0.16
   1   3   9    0.09    0.14
   1   3   9    0.20    0.19
  -2  -3  -9    1.46    0.42
   2   3   9    1.36    0.33
  -3  -3  -9   23.59    1.92
   3   3   9   24.46    1.70
  -4  -3  -9   29.30    2.34
   4   3   9   30.79    2.09
  -5   4   9   27.73    2.20
  -4   4   9   47.27    3.41
  -4   4   9   45.03    3.14
  -4   4   9   46.76    3.20
  -3   4   9   37.32    2.81
  -3   4   9   36.04    2.60
  -3   4   9   42.02    2.70
  -2   4   9   34.99    2.33
  -2   4   9   34.91    2.49
  -2   4   9   30.41    2.22
  -1   4   9   62.82    3.81
  -1   4   9   60.92    3.92
  -1   4   9   64.02    3.81
   0  -4  -9   10.98    0.99
   0   4   9   12.22    1.01
   0   4   9   11.74    0.96
   0   4   9   10.70    1.01
  -1  -4  -9    0.24    0.21
   1   4   9    0.07    0.15
   1   4   9    0.25    0.16
   1   4   9    0.18    0.23
  -2  -4  -9   27.61    2.09
   2   4   9   28.64    1.94
  -3  -4  -9   25.87    1.96
   3   4   9   20.70    1.65
  -4  -4  -9   27.88    2.22
   4   4   9   23.88    1.86
  -5   5   9   27.18    2.20
  -4   5   9   25.32    1.99
  -4   5   9   24.49    1.96
  -4   5   9   22.63    2.14
  -3   5   9   35.16    2.82
  -3   5   9   40.41    2.68
  -3   5   9   39.31    2.66
  -2   5   9   46.73    3.11
  -2   5   9   43.03    2.85
  -2   5   9   42.33    2.87
  -1   5   9    1.15    0.32
  -1   5   9    1.26    0.35
  -1   5   9    0.88    0.34
   0   5   9    3.97    0.60
   0   5   9    5.35    0.68
   0   5   9    5.25    0.73
   1   5   9   18.59    1.48
   1   5   9   19.28    1.47
   1   5   9   21.37    1.60
  -2  -5  -9   29.29    2.23
   2   5   9   30.02    2.07
  -3  -5  -9   27.70    2.25
   3   5   9   29.45    2.05
  -4  -5  -9   43.91    3.16
   4   5   9   40.36    2.81
  -5   6   9   29.56    2.36
  -4   6   9   21.64    1.84
  -4   6   9   22.63    2.11
  -3   6   9   25.70    1.96
  -3   6   9   26.38    2.24
  -3   6   9   24.71    1.92
  -2   6   9    2.12    0.50
  -2   6   9    2.44    0.49
  -2   6   9    1.22    0.46
  -1   6   9    7.44    0.79
  -1   6   9    7.31    0.89
  -1   6   9    7.33    1.02
   0   6   9    1.02    0.31
   0   6   9    1.05    0.38
   0   6   9    1.05    0.32
   1   6   9   13.55    1.21
   1   6   9   13.51    1.26
   1   6   9   15.46    1.22
   2   6   9   25.59    1.88
   2   6   9   25.33    2.04
   3   6   9   52.21    3.38
   4   6   9   29.26    2.22
  -4   7   9   15.72    1.90
  -4   7   9   10.53    1.35
  -3   7   9    4.44    0.94
  -3   7   9    4.06    0.71
  -2   7   9    0.32    0.27
  -2   7   9    0.20    0.29
  -2   7   9    0.24    0.22
  -1   7   9    2.32    0.48
  -1   7   9    2.64    0.61
  -1   7   9    2.56    0.48
   0   7   9   21.13    1.48
   0   7   9   15.58    1.42
   0   7   9   17.87    1.58
   1   7   9   35.26    2.56
   1   7   9   38.76    2.65
   1   7   9   40.54    2.72
   2   7   9   40.87    2.77
   2   7   9   40.88    2.94
   3   7   9   50.41    3.34
  -4   8   9    6.80    1.05
  -3   8   9    2.50    0.74
  -3   8   9    1.56    0.51
  -2   8   9    9.27    1.11
  -2   8   9    9.49    1.39
  -1   8   9    7.92    1.01
  -1   8   9    9.66    1.29
   0   8   9   34.77    2.23
   0   8   9   28.70    2.21
   0   8   9   30.27    2.38
   1   8   9   29.41    2.20
   1   8   9   26.68    2.08
   1   8   9   30.06    2.21
   2   8   9   97.07    5.61
   2   8   9   86.79    5.68
  -3   9   9    3.54    0.90
  -3   9   9    4.62    0.83
  -2   9   9    1.65    0.59
  -2   9   9    0.98    0.42
  -1   9   9   17.41    1.78
  -1   9   9   20.72    1.63
   0   9   9   37.21    2.76
   0   9   9   35.49    2.56
   1   9   9   53.62    3.44
   1   9   9   51.28    3.40
   1   9   9   46.97    3.42
   2   9   9   49.09    3.44
  -2  10   9   18.76    2.25
  -2  10   9   14.93    1.45
  -1  10   9   43.57    3.20
  -1  10   9   36.90    2.75
   0  10   9   28.07    2.32
   0  10   9   25.83    2.08
   0  14 -10   25.75    2.28
  -1  14 -10   19.95    1.87
  -2  14 -10   32.66    2.59
   2  13 -10    6.28    1.39
   1  13 -10   32.48    2.68
   0  13 -10   32.74    2.62
  -1  13 -10   47.55    3.39
  -2  13 -10   45.68    3.24
   2  12 -10   26.72    2.36
   1  12 -10   38.71    2.97
   0  12 -10   62.09    4.18
  -1  12 -10   65.13    4.26
  -2  12 -10   38.49    2.80
  -2  12 -10   34.68    2.62
  -3  12 -10   19.33    1.80
   3  11 -10   12.89    1.72
  -3 -11  10   15.62    1.96
   2  11 -10   61.90    4.21
  -2 -11  10   56.20    4.86
   1  11 -10   55.72    3.86
   0  11 -10   79.18    5.02
  -1  11 -10   48.82    3.25
  -1  11 -10   42.16    3.06
  -2  11 -10   20.63    1.70
  -2  11 -10   21.08    1.82
  -3  11 -10   14.70    1.44
   4  10 -10   14.68    1.88
  -4 -10  10   17.23    1.82
   3  10 -10   56.56    4.05
  -3 -10  10   58.32    4.11
   2  10 -10   59.72    4.01
  -2 -10  10   55.41    3.79
  -2 -10  10   57.96    4.03
   1  10 -10   86.94    5.37
  -1 -10  10   84.14    5.44
  -1 -10  10   82.79    5.13
   0  10 -10   67.20    4.17
   0  10 -10   61.25    4.13
  -1  10 -10   39.49    2.85
  -1  10 -10   45.33    2.98
  -2  10 -10   11.03    1.14
  -2  10 -10   10.10    1.02
  -3  10 -10    0.69    0.33
  -4  10 -10    4.17    0.76
  -4  -9  10   30.82    2.57
  -3  -9  10   70.73    4.61
  -3  -9  10   66.42    4.58
  -2  -9  10   84.09    5.35
  -2  -9  10   82.30    5.17
   1   9 -10  103.84    6.20
  -1  -9  10   99.22    5.96
   0   9 -10   47.58    3.25
   0   9 -10   51.71    3.27
   0  -9  10   47.61    2.98
  -1   9 -10   32.46    2.38
  -1   9 -10   38.39    2.53
  -2   9 -10   35.98    2.51
  -2   9 -10   41.44    2.73
  -3   9 -10    1.79    0.48
  -4   9 -10    3.18    0.66
  -4  -8  10   41.49    3.09
  -3  -8  10   31.95    2.58
  -3  -8  10   35.31    2.62
  -2  -8  10   58.03    3.79
   1   8 -10   42.53    2.78
  -1  -8  10   39.66    2.70
   0   8 -10   82.01    4.75
   0   8 -10   77.46    4.74
   0  -8  10   73.82    4.51
  -1   8 -10   22.17    1.67
  -1   8 -10   23.20    1.76
   1  -8  10   22.79    1.49
  -2   8 -10    0.90    0.33
  -2   8 -10    0.69    0.27
  -3   8 -10   19.43    1.60
  -4   8 -10   10.96    1.11
  -4  -7  10   45.61    3.37
  -4  -7  10   53.59    3.70
  -3  -7  10   62.11    4.25
  -3  -7  10   66.26    4.22
  -2  -7  10   96.28    5.84
   1   7 -10   56.27    3.54
  -1  -7  10   56.96    3.54
   0   7 -10    0.72    0.27
   0  -7  10    0.31    0.17
  -1   7 -10    2.48    0.48
  -1   7 -10    3.76    0.55
   1  -7  10    2.84    0.40
  -2   7 -10   47.32    3.02
  -2   7 -10   43.42    2.80
   2  -7  10   46.90    2.73
  -3   7 -10   25.00    1.89
  -4   7 -10   18.97    1.57
  -5  -6  10   32.81    3.00
  -4  -6  10   55.14    3.97
  -4  -6  10   57.24    3.74
  -3  -6  10   78.94    5.05
  -2  -6  10   62.55    3.99
   1   6 -10   31.05    2.07
  -1  -6  10   29.43    2.06
   0   6 -10   22.57    1.62
   0  -6  10   21.40    1.52
  -1   6 -10    0.45    0.20
  -1   6 -10    0.17    0.14
   1  -6  10    0.39    0.17
  -2   6 -10   23.30    1.62
  -2   6 -10   28.16    1.89
   2  -6  10   25.21    1.67
  -3   6 -10   17.76    1.49
   3  -6  10   18.77    1.38
  -4   6 -10   16.97    1.46
  -5  -5  10   34.16    2.91
  -5  -5  10   35.67    2.52
  -4  -5  10   21.69    1.98
  -4  -5  10   21.32    1.74
  -3  -5  10   46.97    3.28
  -2  -5  10   11.65    1.13
   1   5 -10    0.25    0.16
  -1  -5  10    0.25    0.18
  -1  -5  10    0.24    0.20
   0   5 -10   31.75    2.04
   0  -5  10   28.23    1.93
  -1   5 -10   45.34    2.76
  -1   5 -10   44.40    2.62
  -1   5 -10   38.03    2.34
   1  -5  10   45.45    2.60
  -2   5 -10    9.88    0.75
  -2   5 -10    9.81    0.94
   2  -5  10   10.43    0.90
  -3   5 -10   28.54    2.14
   3  -5  10   32.01    2.09
  -4   5 -10   17.50    1.48
  -5   5 -10    9.13    1.00
  -5  -4  10   16.53    1.78
  -5  -4  10   16.97    1.43
  -4  -4  10   36.65    2.82
  -3  -4  10   13.02    1.30
  -2  -4  10   15.22    1.32
   1   4 -10   16.22    1.24
  -1  -4  10   18.05    1.31
  -1  -4  10   17.93    1.34
  -1  -4  10   15.88    1.18
   0   4 -10   42.74    2.63
   0  -4  10   42.82    2.45
   0  -4  10   39.50    2.57
  -1   4 -10   53.64    3.41
  -1   4 -10   66.41    3.78
   1  -4  10   66.46    3.69
   1  -4  10   64.72    3.45
  -2   4 -10   81.91    4.58
  -2   4 -10   86.19    4.92
   2  -4  10   79.70    4.82
  -3   4 -10   74.89    4.58
  -4   4 -10   35.15    2.47
  -5   4 -10   25.27    1.95
  -5  -3  10   30.50    2.10
  -5  -3  10   29.23    2.55
  -4  -3  10   44.57    3.25
  -3  -3  10   12.85    1.27
  -2  -3  10    7.87    0.88
  -2  -3  10    8.69    0.79
  -2  -3  10    9.24    0.82
   1   3 -10   13.31    1.04
  -1  -3  10   13.31    1.01
  -1  -3  10   15.40    1.18
  -1  -3  10   12.37    1.06
   0   3 -10   27.32    1.83
   0  -3  10   26.43    1.69
   0  -3  10   29.34    1.87
  -1   3 -10   56.90    3.32
   1  -3  10   53.27    3.04
   1  -3  10   52.35    3.27
  -2   3 -10  164.65    8.92
   2  -3  10  154.43    8.50
   2  -3  10  152.64    8.83
  -3   3 -10   57.22    3.62
  -4   3 -10   33.28    2.37
  -5   3 -10   20.50    1.71
  -5  -2  10   23.46    2.18
  -5  -2  10   24.73    1.71
  -4  -2  10    3.27    0.74
  -3  -2  10   12.40    1.23
  -3  -2  10   12.28    1.10
   2   2 -10   18.14    1.26
  -2  -2  10   19.11    1.52
  -2  -2  10   19.26    1.36
  -2  -2  10   17.53    1.36
   1   2 -10   21.11    1.47
  -1  -2  10   20.98    1.58
  -1  -2  10   22.18    1.47
  -1  -2  10   22.72    1.55
   0   2 -10  144.53    8.05
   0  -2  10  143.66    8.07
   0  -2  10  143.38    7.93
  -1   2 -10  135.42    7.58
   1  -2  10  122.84    7.55
   1  -2  10  142.14    7.34
  -2   2 -10   40.49    2.60
   2  -2  10   40.40    2.27
   2  -2  10   36.35    2.54
  -3   2 -10   22.62    1.73
  -4   2 -10   38.92    2.70
  -5   2 -10   17.83    1.56
  -5  -1  10   11.17    1.55
  -5  -1  10   13.45    1.02
  -4  -1  10    7.58    1.13
  -4  -1  10    6.95    0.94
  -3  -1  10    0.12    0.20
  -3  -1  10    0.04    0.16
  -2  -1  10   13.39    1.08
  -2  -1  10   12.42    1.02
  -2  -1  10   13.55    1.19
   1   1 -10  108.41    6.16
  -1  -1  10  110.92    6.19
  -1  -1  10  115.92    6.29
  -1  -1  10  102.54    6.29
   0   1 -10   80.60    4.78
   0  -1  10   82.35    4.82
   0  -1  10   85.74    4.70
  -1   1 -10  189.39    9.99
   1  -1  10  151.18    9.94
   1  -1  10  194.19    9.77
  -2   1 -10   86.92    5.16
   2  -1  10   80.72    5.12
   2  -1  10   91.02    4.85
  -3   1 -10   97.35    5.98
   3  -1  10  103.55    5.63
  -4   1 -10   34.14    2.47
  -5   1 -10    6.84    0.98
  -5   0  10    7.35    1.23
  -5   0  10    7.90    0.67
  -4   0  10    0.56    0.30
  -4   0  10    1.29    0.49
  -3   0  10    0.16    0.19
  -3   0  10    0.33    0.23
  -2   0  10   38.37    2.50
  -2   0  10   34.08    2.33
  -2   0  10   35.48    2.31
   1   0 -10   73.51    4.41
  -1   0  10   87.86    4.51
  -1   0  10   81.79    4.58
  -1   0  10   67.53    4.53
   0   0 -10  258.29   14.87
   0   0  10  272.21   14.81
   0   0  10  285.04   14.97
  -1   0 -10  138.61    7.41
   1   0  10  114.43    7.38
   1   0  10  135.47    7.19
  -2   0 -10   83.25    4.95
   2   0  10   81.45    4.66
  -3   0 -10   86.48    5.28
   3   0  10   87.19    4.94
  -4   0 -10   38.69    2.74
  -5   0 -10    0.31    0.40
  -5   1  10    3.66    0.88
  -4   1  10    0.17    0.27
  -4   1  10   -0.02    0.20
  -3   1  10   11.47    1.23
  -3   1  10   12.42    1.20
  -2   1  10   48.30    2.86
  -2   1  10   42.54    2.99
  -2   1  10   46.02    2.98
  -2   1  10   42.76    2.85
   1  -1 -10  109.86    6.10
  -1   1  10  110.01    6.25
  -1   1  10  107.62    6.15
  -1   1  10   96.75    6.20
  -1   1  10  117.58    6.34
   0  -1 -10  187.21   10.80
   0   1  10  182.93   10.80
   0   1  10  202.92   10.75
   0   1  10  207.36   10.88
  -1  -1 -10   74.60    4.46
   1   1  10   75.07    4.26
   1   1  10   74.77    4.28
   1   1  10   73.55    4.50
  -2  -1 -10   93.74    5.51
   2   1  10   90.93    5.25
  -3  -1 -10   45.25    3.03
   3   1  10   44.33    2.74
  -4  -1 -10    1.54    0.50
  -5   2  10    0.84    0.47
  -5   2  10    0.66    0.40
  -4   2  10    8.51    1.08
  -4   2  10    8.57    1.18
  -3   2  10   32.82    2.37
  -3   2  10   40.49    2.57
  -3   2  10   29.89    2.50
  -2   2  10   89.07    5.60
  -2   2  10   98.59    5.76
  -2   2  10  101.90    5.86
   1  -2 -10  100.49    6.14
  -1   2  10  110.63    6.32
  -1   2  10  104.65    6.15
  -1   2  10  109.99    6.25
  -1   2  10  113.81    6.34
   0  -2 -10  131.05    7.20
   0   2  10  123.38    7.20
   0   2  10  134.22    7.24
   0   2  10  117.93    7.11
  -1  -2 -10   42.89    2.70
   1   2  10   42.30    2.55
   1   2  10   40.34    2.52
   1   2  10   39.21    2.70
  -2  -2 -10   54.76    3.44
   2   2  10   51.33    3.18
  -3  -2 -10   15.75    1.43
   3   2  10   15.50    1.20
  -4  -2 -10    4.72    0.82
  -5   3  10    6.66    1.05
  -5   3  10    8.44    1.28
  -4   3  10   13.81    1.36
  -4   3  10   10.88    1.32
  -3   3  10   41.63    2.86
  -3   3  10   41.39    2.99
  -3   3  10   40.53    2.78
  -2   3  10   65.37    3.69
  -2   3  10   61.56    3.75
  -2   3  10   49.10    3.70
  -1   3  10  243.66   13.17
  -1   3  10  237.19   13.28
  -1   3  10  229.21   13.09
   0  -3 -10   72.69    4.21
   0   3  10   70.22    4.23
   0   3  10   66.70    4.12
   0   3  10   69.71    4.20
  -1  -3 -10   70.22    4.16
   1   3  10   65.25    3.99
   1   3  10   66.16    4.16
   1   3  10   67.64    4.00
  -2  -3 -10   30.71    2.25
   2   3  10   30.54    2.04
  -3  -3 -10    0.29    0.32
   3   3  10    0.17    0.22
  -4  -3 -10    3.63    0.78
   4   3  10    4.22    0.84
  -5   4  10    0.81    0.45
  -4   4  10   16.07    1.51
  -4   4  10   18.49    1.63
  -4   4  10   15.08    1.66
  -3   4  10   37.32    2.87
  -3   4  10   37.94    2.67
  -3   4  10   40.76    2.76
  -2   4  10  120.96    6.97
  -2   4  10  120.50    7.21
  -2   4  10  119.22    7.05
  -1   4  10   87.92    5.29
  -1   4  10   80.70    5.09
  -1   4  10   90.96    5.17
   0   4  10   17.44    1.31
   0   4  10   15.27    1.31
   0   4  10   14.98    1.23
  -1  -4 -10   70.93    4.24
   1   4  10   65.61    4.06
   1   4  10   67.83    4.23
   1   4  10   66.44    4.07
  -2  -4 -10   38.69    2.71
   2   4  10   36.20    2.69
   2   4  10   39.00    2.49
  -3  -4 -10    2.36    0.64
   3   4  10    3.32    0.55
  -4  -4 -10   -0.03    0.34
   4   4  10   -0.16    0.33
  -5   5  10   11.65    1.56
  -4   5  10   18.71    1.94
  -4   5  10   15.95    1.72
  -4   5  10   15.31    1.50
  -3   5  10   41.64    2.91
  -3   5  10   40.12    2.87
  -3   5  10   44.57    3.18
  -2   5  10   83.51    5.20
  -2   5  10   80.32    4.90
  -2   5  10   79.49    4.96
  -1   5  10    9.32    0.90
  -1   5  10    8.02    0.92
  -1   5  10    8.17    1.07
   0   5  10   73.38    4.56
   0   5  10   79.30    4.59
   0   5  10   75.25    4.67
   1   5  10    7.34    0.89
   1   5  10    7.41    0.96
   1   5  10    7.53    0.88
   2   5  10    0.41    0.33
   2   5  10    0.28    0.23
  -3  -5 -10    0.19    0.48
   3   5  10    0.97    0.37
  -4  -5 -10    8.09    1.27
   4   5  10    9.89    1.11
  -4   6  10   27.18    2.44
  -4   6  10   26.99    2.18
  -3   6  10   86.44    5.26
  -3   6  10   76.55    5.50
  -3   6  10   91.33    5.37
  -2   6  10   50.51    3.27
  -2   6  10   49.28    3.52
  -2   6  10   49.90    3.30
  -1   6  10   49.78    2.97
  -1   6  10   40.90    3.07
  -1   6  10   42.59    2.91
   0   6  10   12.02    1.10
   0   6  10   12.15    1.08
   0   6  10   10.99    1.14
   1   6  10   14.33    1.27
   1   6  10   14.11    1.23
   1   6  10   13.45    1.32
   2   6  10    1.91    0.57
   2   6  10    1.02    0.38
   3   6  10    3.21    0.63
  -4   7  10   29.57    2.32
  -4   7  10   27.22    3.59
  -3   7  10   55.76    4.06
  -3   7  10   55.73    3.70
  -2   7  10   20.75    2.37
  -2   7  10   23.58    2.06
  -2   7  10   23.42    1.81
  -1   7  10   39.73    2.54
  -1   7  10   32.81    2.48
  -1   7  10   37.08    2.76
   0   7  10   29.67    2.25
   0   7  10   30.67    2.08
   0   7  10   25.77    2.06
   1   7  10    2.51    0.56
   1   7  10    2.96    0.58
   1   7  10    1.08    0.45
   2   7  10    0.80    0.44
   2   7  10    0.77    0.34
   3   7  10    5.66    1.09
   3   7  10    6.33    0.92
  -3   8  10   23.23    2.24
  -3   8  10   21.30    1.84
  -2   8  10   14.26    1.34
  -2   8  10   14.40    1.76
  -1   8  10   12.39    1.18
  -1   8  10   11.26    1.46
   0   8  10    0.83    0.35
   0   8  10    0.54    0.32
   0   8  10    1.01    0.44
   1   8  10    3.66    0.68
   1   8  10    3.98    0.79
   1   8  10    4.34    0.86
   2   8  10   10.19    1.24
   2   8  10   11.36    1.28
  -3   9  10   19.33    1.82
  -2   9  10   16.50    2.02
  -2   9  10   16.52    1.50
  -1   9  10    1.77    0.59
   0   9  10    2.74    0.61
   0   9  10    2.64    0.70
   1   9  10    4.07    0.80
   1   9  10    5.06    1.27
   2   9  10   24.46    2.16
  -1  10  10    0.85    0.53
   0  10  10    0.25    0.40
   0  14 -11    1.92    0.66
  -1  14 -11    2.10    0.65
  -2  14 -11   24.44    2.14
   1  13 -11    6.90    1.21
   0  13 -11    5.13    1.01
  -1  13 -11   24.99    2.13
  -2  13 -11   24.07    2.02
   2  12 -11    0.16    0.32
   1  12 -11    0.41    0.35
   0  12 -11    1.16    0.47
  -1  12 -11   31.66    2.42
  -2  12 -11   28.17    2.30
  -2  12 -11   34.37    2.56
  -3  12 -11   26.97    2.27
   3  11 -11    1.02    0.51
  -3 -11  11    1.28    0.63
   2  11 -11    0.10    0.30
   1  11 -11    4.70    0.95
   0  11 -11   29.41    2.32
  -1  11 -11   52.99    3.57
  -1  11 -11   54.15    3.67
  -2  11 -11   34.29    2.52
  -2  11 -11   38.31    2.73
  -3  11 -11   36.46    2.73
  -4 -10  11    1.21    0.69
   3  10 -11   -0.05    0.29
  -3 -10  11   -0.17    0.32
   2  10 -11    8.45    1.22
  -2 -10  11    7.40    1.10
  -2 -10  11    7.88    1.25
   1  10 -11   12.00    1.28
  -1 -10  11   11.10    1.16
   0  10 -11  108.86    6.56
   0  10 -11  107.19    6.54
  -1  10 -11   92.93    5.63
  -1  10 -11   93.29    5.72
  -2  10 -11   76.21    4.72
  -2  10 -11   71.97    4.52
  -3  10 -11   41.27    2.94
  -4  10 -11   15.02    1.88
  -4  -9  11    1.30    0.59
  -3  -9  11    4.89    0.94
  -3  -9  11    7.04    1.14
  -2  -9  11   16.05    1.49
   1   9 -11   88.12    5.51
  -1  -9  11   88.40    5.32
   0   9 -11  117.26    6.91
   0   9 -11  119.75    6.90
   0  -9  11  111.95    6.63
  -1   9 -11   66.73    4.13
  -1   9 -11   62.38    4.00
  -2   9 -11   59.10    3.86
  -2   9 -11   68.15    4.13
  -3   9 -11   26.63    2.09
  -4   9 -11   10.44    1.14
  -4  -8  11    1.99    0.71
  -4  -8  11    1.65    0.58
  -3  -8  11    9.93    1.32
  -3  -8  11   10.75    1.41
  -2  -8  11   45.30    3.14
  -1  -8  11  132.22    7.66
   0   8 -11   59.96    3.81
   0   8 -11   64.70    3.82
   0  -8  11   55.75    3.59
  -1   8 -11   75.10    4.69
  -1   8 -11   84.17    4.85
   1  -8  11   76.43    4.52
  -2   8 -11   42.03    2.79
  -2   8 -11   38.79    2.56
  -3   8 -11   27.08    2.07
  -4   8 -11    8.63    1.10
  -4  -7  11   11.42    1.57
  -4  -7  11   11.49    1.26
  -3  -7  11   29.45    2.37
  -2  -7  11  106.37    6.41
   1   7 -11   65.97    4.18
  -1  -7  11   70.85    4.23
   0   7 -11   52.97    3.33
   0  -7  11   50.76    3.18
  -1   7 -11  119.78    6.84
  -1   7 -11  115.20    6.73
   1  -7  11  116.24    6.60
  -2   7 -11   52.33    3.32
  -2   7 -11   50.01    3.06
   2  -7  11   49.97    3.02
  -3   7 -11   13.17    1.24
  -4   7 -11    0.24    0.24
  -4  -6  11   22.05    2.04
  -4  -6  11   20.78    1.80
  -3  -6  11   61.36    4.13
  -2  -6  11  117.86    7.01
   1   6 -11   80.43    4.86
  -1  -6  11   83.53    4.93
   0   6 -11  245.03   13.44
   0  -6  11  238.49   13.35
  -1   6 -11   37.79    2.44
  -1   6 -11   38.55    2.55
   1  -6  11   38.32    2.40
  -2   6 -11   28.68    2.03
  -2   6 -11   26.82    1.76
   2  -6  11   27.46    1.83
  -3   6 -11    5.93    0.86
   3  -6  11    7.85    0.82
  -4   6 -11    6.33    0.91
  -5  -5  11   14.67    1.41
  -5  -5  11   14.97    1.90
  -4  -5  11   31.94    2.61
  -3  -5  11   90.98    5.70
  -2  -5  11   68.06    4.30
   1   5 -11   72.39    4.32
  -1  -5  11   71.90    4.38
   0   5 -11   81.67    4.62
   0  -5  11   73.12    4.52
  -1   5 -11   70.83    4.21
   1  -5  11   67.86    4.05
  -2   5 -11   10.72    1.02
  -2   5 -11   11.44    0.82
   2  -5  11   10.39    0.95
  -3   5 -11    0.79    0.32
   3  -5  11    0.80    0.32
  -4   5 -11   11.92    1.21
   4  -5  11   14.00    1.26
  -5  -4  11   12.74    1.68
  -5  -4  11   12.56    1.19
  -4  -4  11   32.13    2.60
  -3  -4  11   25.49    2.08
  -2  -4  11   34.56    2.31
  -2  -4  11   35.91    2.50
   1   4 -11  148.44    8.69
  -1  -4  11  151.99    8.62
  -1  -4  11  159.90    8.78
  -1  -4  11  159.66    8.83
   0   4 -11   35.91    2.30
   0  -4  11   32.28    2.10
   0  -4  11   37.37    2.30
  -1   4 -11   10.70    0.94
   1  -4  11    9.15    0.68
   1  -4  11   11.17    0.90
  -2   4 -11    0.57    0.16
  -2   4 -11    1.13    0.34
   2  -4  11    0.53    0.27
  -3   4 -11   11.68    1.12
   3  -4  11   11.39    1.09
  -4   4 -11    2.16    0.53
  -5  -3  11   25.23    2.38
  -5  -3  11   27.97    1.96
  -4  -3  11   39.00    2.98
  -3  -3  11   70.59    4.59
  -3  -3  11   70.88    4.35
  -2  -3  11   77.19    4.92
  -2  -3  11   91.41    5.19
   1   3 -11   85.59    4.92
  -1  -3  11   85.64    5.07
  -1  -3  11   88.21    5.01
  -1  -3  11   79.68    4.87
   0   3 -11   54.48    3.42
   0  -3  11   59.31    3.49
   0  -3  11   56.34    3.28
  -1   3 -11    4.59    0.61
   1  -3  11    4.56    0.40
   1  -3  11    4.46    0.61
  -2   3 -11    1.19    0.35
   2  -3  11    1.38    0.21
   2  -3  11    1.88    0.42
  -3   3 -11   29.43    2.10
   3  -3  11   27.23    2.05
  -4   3 -11    9.75    1.05
  -5  -2  11   28.01    2.50
  -5  -2  11   29.87    2.01
  -4  -2  11   60.73    4.16
  -3  -2  11   42.81    3.03
  -3  -2  11   51.78    3.32
  -2  -2  11  150.38    8.40
  -2  -2  11  138.61    8.18
   1   2 -11   39.21    2.44
  -1  -2  11   38.80    2.42
  -1  -2  11   37.15    2.56
  -1  -2  11   40.58    2.55
   0   2 -11   27.82    1.87
   0  -2  11   28.13    1.77
   0  -2  11   28.50    1.91
  -1   2 -11    9.47    0.88
   1  -2  11    8.88    0.87
   1  -2  11    9.70    0.71
  -2   2 -11   29.28    2.00
   2  -2  11   26.15    1.94
   2  -2  11   26.82    1.65
  -3   2 -11    9.80    1.02
  -4   2 -11   24.17    1.92
  -5  -1  11   31.97    2.10
  -5  -1  11   32.43    2.69
  -4  -1  11   28.17    2.22
  -4  -1  11   22.35    1.91
  -3  -1  11   32.96    2.46
  -3  -1  11   39.98    2.72
  -2  -1  11   43.42    2.82
  -2  -1  11   45.44    3.00
   1   1 -11   16.68    1.22
  -1  -1  11   16.98    1.36
  -1  -1  11   17.77    1.34
  -1  -1  11   16.20    1.22
   0   1 -11   12.72    1.03
  -1   1 -11   35.99    2.27
   1  -1  11   28.15    2.22
   1  -1  11   36.84    2.07
  -2   1 -11   79.02    4.53
   2  -1  11   74.35    4.17
   2  -1  11   67.31    4.46
  -3   1 -11   29.39    2.18
  -4   1 -11   34.48    2.53
  -5   0  11   29.17    2.50
  -4   0  11   25.19    2.13
  -4   0  11   24.55    1.95
  -3   0  11  105.21    6.23
  -3   0  11  104.90    6.37
  -2   0  11    6.68    0.91
  -2   0  11    6.34    0.77
   1   0 -11    2.93    0.43
  -1   0  11    3.25    0.55
  -1   0  11    3.44    0.56
  -1   0  11    2.92    0.45
   0   0 -11    7.91    0.76
   0   0  11    8.20    0.81
   0   0  11    8.39    0.71
  -1   0 -11   42.58    2.64
   1   0  11   36.82    2.64
   1   0  11   40.50    2.43
  -2   0 -11   21.17    1.70
   2   0  11   20.78    1.73
   2   0  11   24.63    1.51
  -3   0 -11   86.27    5.36
   3   0  11   89.04    5.02
  -4   0 -11   34.40    2.55
  -5   1  11   19.47    1.90
  -4   1  11   43.28    3.06
  -4   1  11   38.24    2.84
  -3   1  11   22.03    1.82
  -3   1  11   21.55    1.71
  -2   1  11   19.00    1.50
  -2   1  11   20.45    1.65
  -2   1  11   20.44    1.67
  -1   1  11    1.62    0.41
  -1   1  11    1.83    0.37
  -1   1  11    1.57    0.39
   0  -1 -11   29.49    1.86
   0   1  11   28.80    1.90
   0   1  11   24.92    1.75
   0   1  11   23.64    1.80
  -1  -1 -11   77.24    4.34
   1   1  11   66.20    4.34
   1   1  11   69.15    4.12
  -2  -1 -11   62.90    3.77
   2   1  11   57.76    3.45
   2   1  11   54.57    3.74
  -3  -1 -11   52.29    3.44
   3   1  11   49.80    3.08
  -4  -1 -11   13.61    1.38
  -5   2  11   14.34    1.61
  -5   2  11   14.93    1.61
  -4   2  11   36.19    2.70
  -4   2  11   38.19    2.84
  -3   2  11    5.51    0.90
  -3   2  11    5.46    0.89
  -3   2  11    5.11    0.78
  -2   2  11    1.07    0.37
  -2   2  11    1.21    0.41
  -2   2  11    0.91    0.30
  -1   2  11   35.78    2.46
  -1   2  11   40.21    2.64
  -1   2  11   39.39    2.58
   0  -2 -11   94.74    5.52
   0   2  11   96.31    5.57
   0   2  11   92.88    5.45
   0   2  11   94.45    5.54
  -1  -2 -11   30.88    2.10
   1   2  11   29.48    1.90
   1   2  11   26.87    2.10
   1   2  11   28.64    1.91
  -2  -2 -11  111.08    6.30
   2   2  11  107.12    6.02
   2   2  11   97.12    6.28
  -3  -2 -11   57.58    3.71
   3   2  11   53.20    3.35
  -4  -2 -11   35.29    2.68
  -5   3  11   25.10    2.23
  -5   3  11   24.94    2.12
  -4   3  11    5.53    0.89
  -4   3  11    4.42    0.90
  -3   3  11    0.54    0.32
  -3   3  11    1.01    0.39
  -3   3  11    0.72    0.34
  -2   3  11   11.92    1.18
  -2   3  11   12.79    1.25
  -2   3  11   10.30    1.03
  -1   3  11   40.86    2.58
  -1   3  11   33.01    2.43
  -1   3  11   39.88    2.66
   0   3  11   32.64    2.13
   0   3  11   31.75    2.17
   0   3  11   30.51    2.18
  -1  -3 -11  114.19    6.49
   1   3  11  106.53    6.30
   1   3  11  107.66    6.53
   1   3  11  111.49    6.33
  -2  -3 -11  101.97    6.02
   2   3  11   89.74    5.99
   2   3  11  106.07    5.78
  -3  -3 -11   23.15    1.89
   3   3  11   20.26    1.57
  -4  -3 -11   17.58    1.70
  -4   4  11    0.78    0.42
  -4   4  11    0.68    0.49
  -4   4  11    1.55    0.50
  -3   4  11    2.66    0.63
  -3   4  11    1.91    0.58
  -3   4  11    1.76    0.47
  -2   4  11   11.70    1.18
  -2   4  11   12.24    1.28
  -2   4  11   12.19    1.13
  -1   4  11   17.61    1.58
  -1   4  11   17.30    1.44
  -1   4  11   20.44    1.52
   0   4  11   52.11    3.31
   0   4  11   53.43    3.36
   0   4  11   54.11    3.44
   1   4  11   88.94    5.43
   1   4  11   88.44    5.24
   1   4  11   88.42    5.24
   2   4  11   30.42    2.41
   2   4  11   34.22    2.23
  -3  -4 -11   19.98    1.80
   3   4  11   19.55    1.53
  -4  -4 -11    6.62    1.11
  -4   5  11    0.46    0.43
  -4   5  11    0.02    0.31
  -3   5  11    4.59    0.80
  -3   5  11    5.44    1.01
  -3   5  11    6.26    0.96
  -2   5  11   16.29    1.34
  -2   5  11   12.75    1.32
  -2   5  11   16.11    1.54
  -1   5  11   42.93    3.09
  -1   5  11   45.80    2.95
  -1   5  11   45.08    2.95
   0   5  11   88.06    5.06
   0   5  11   86.09    5.17
   0   5  11   77.57    5.00
   1   5  11   83.93    5.04
   1   5  11   82.79    5.03
   1   5  11   84.01    5.19
   2   5  11   24.24    1.78
   2   5  11   22.45    1.94
   3   5  11   22.87    1.67
   3   5  11   17.97    1.82
  -4   6  11    2.83    0.83
  -4   6  11    2.60    0.69
  -3   6  11    7.09    1.16
  -3   6  11    7.12    1.00
  -2   6  11   21.65    1.72
  -2   6  11   22.70    2.01
  -2   6  11   20.28    1.76
  -1   6  11   47.70    3.38
  -1   6  11   46.06    3.18
  -1   6  11   52.43    3.23
   0   6  11   96.85    5.78
   0   6  11  101.37    5.98
   0   6  11   95.39    5.82
   1   6  11   45.28    3.07
   1   6  11   45.16    3.16
   1   6  11   48.48    3.10
   2   6  11   15.68    1.54
   2   6  11   16.08    1.39
   3   6  11   10.77    1.20
   3   6  11    9.55    1.38
  -3   7  11   18.25    1.92
  -3   7  11   18.58    1.66
  -2   7  11   39.38    2.72
  -2   7  11   37.32    2.99
  -1   7  11   70.63    4.87
  -1   7  11   75.09    4.67
  -1   7  11   78.86    4.65
   0   7  11   66.93    4.30
   0   7  11   57.80    4.09
   0   7  11   71.29    4.13
   1   7  11    0.50    0.33
   1   7  11    0.47    0.38
   2   7  11   20.89    1.90
   2   7  11   21.31    1.74
  -3   8  11   19.91    1.76
  -2   8  11   29.75    2.26
  -2   8  11   29.52    2.57
  -1   8  11   53.18    3.62
  -1   8  11   58.11    3.95
   0   8  11   12.01    1.32
   0   8  11   10.55    1.39
   0   8  11   12.35    1.15
   1   8  11   35.82    2.59
   1   8  11   34.94    2.60
   2   8  11   10.89    1.48
  -2   9  11   44.38    4.06
  -2   9  11   41.01    3.11
  -1   9  11   33.51    2.73
  -1   9  11   32.23    2.44
   0   9  11   11.56    1.35
   0   9  11   12.55    1.58
   0  10  11   11.15    1.56
  -1  14 -12    8.59    1.32
  -2  14 -12    2.21    0.69
   1  13 -12   24.39    2.23
   0  13 -12   16.00    1.66
  -1  13 -12    3.67    0.84
  -2  13 -12    0.66    0.42
  -2  13 -12    0.17    0.37
   2  12 -12   29.42    2.57
   1  12 -12   21.41    2.01
   0  12 -12    5.36    0.95
  -1  12 -12    0.44    0.40
  -1  12 -12   -0.05    0.26
  -2  12 -12    2.73    0.66
  -2  12 -12    2.64    0.70
  -3  12 -12    1.58    0.57
   3  11 -12   38.95    3.21
  -3 -11  12   42.32    3.32
   2  11 -12   13.38    1.69
   1  11 -12   21.54    1.97
   0  11 -12    0.16    0.27
  -1  11 -12    4.93    0.86
  -1  11 -12    4.71    0.84
  -2  11 -12    0.12    0.28
  -2  11 -12    0.49    0.32
  -3  11 -12   23.11    1.99
  -3 -10  12   26.11    2.24
  -3 -10  12   22.65    2.18
   2  10 -12   34.83    2.79
  -2 -10  12   38.04    2.92
  -2 -10  12   35.29    2.67
   1  10 -12    6.91    1.08
  -1 -10  12    7.40    1.11
   0  10 -12    2.72    0.67
   0  10 -12    3.61    0.83
  -1  10 -12    4.25    0.79
  -1  10 -12    4.44    0.74
  -2  10 -12   12.11    1.16
  -2  10 -12   12.99    1.31
  -3  10 -12   33.81    2.57
  -4  -9  12   45.54    3.40
  -4  -9  12   44.08    3.50
  -3  -9  12   19.94    1.95
  -3  -9  12   22.03    1.99
  -2  -9  12   22.19    1.88
  -1  -9  12    5.05    0.78
   0   9 -12    0.77    0.38
   0   9 -12    1.18    0.40
   0  -9  12    0.50    0.25
  -1   9 -12    1.57    0.46
  -1   9 -12    2.16    0.49
  -2   9 -12   53.23    3.44
  -2   9 -12   48.20    3.18
  -3   9 -12   41.80    2.98
  -4   9 -12   33.16    2.53
  -4  -8  12    7.92    1.35
  -4  -8  12   11.03    1.42
  -3  -8  12   14.97    1.55
  -2  -8  12    1.18    0.43
  -1  -8  12    4.70    0.74
   0   8 -12   25.75    1.99
   0   8 -12   28.49    2.02
   0  -8  12   25.02    1.84
  -1   8 -12   59.79    3.80
  -1   8 -12   60.10    3.71
   1  -8  12   57.31    3.54
  -2   8 -12   79.49    4.70
  -2   8 -12   70.23    4.39
  -3   8 -12   40.84    2.90
  -4   8 -12   20.71    1.79
  -4  -7  12    9.29    1.30
  -4  -7  12   11.83    1.61
  -3  -7  12    6.39    1.05
  -2  -7  12   12.72    1.28
  -1  -7  12   26.37    1.95
   0   7 -12   27.06    1.96
   0  -7  12   26.12    1.86
  -1   7 -12  116.25    6.56
  -1   7 -12  104.01    6.39
   1  -7  12  112.41    6.32
  -2   7 -12   80.70    4.67
  -2   7 -12   80.83    4.94
   2  -7  12   79.40    4.65
  -3   7 -12   71.00    4.49
  -4   7 -12   31.84    2.39
  -4  -6  12   14.52    1.66
  -4  -6  12   17.55    1.58
  -3  -6  12    0.32    0.31
  -2  -6  12   11.70    1.21
  -1  -6  12   21.77    1.70
   0   6 -12   58.61    3.68
   0  -6  12   59.56    3.64
  -1   6 -12   90.51    5.53
  -1   6 -12   99.71    5.70
   1  -6  12   97.18    5.54
  -2   6 -12   53.61    3.32
  -2   6 -12   49.42    3.01
   2  -6  12   47.74    3.06
  -3   6 -12   49.62    3.21
   3  -6  12   45.45    3.04
  -4   6 -12   10.61    1.13
  -4  -5  12    1.31    0.53
  -3  -5  12   21.91    1.93
  -2  -5  12   50.58    3.39
   1   5 -12   45.58    2.89
  -1  -5  12   44.90    2.98
   0   5 -12  137.08    7.69
   0  -5  12  131.94    7.43
   0  -5  12  133.96    7.65
  -1   5 -12   90.18    5.33
   1  -5  12   88.62    5.18
  -2   5 -12   66.12    3.88
   2  -5  12   56.19    3.68
  -3   5 -12   25.97    2.03
   3  -5  12   27.50    1.99
  -4   5 -12    4.53    0.79
   4  -5  12    5.35    0.86
  -5  -4  12    5.60    0.87
  -5  -4  12    4.68    1.13
  -4  -4  12    2.79    0.74
  -3  -4  12   42.87    3.11
  -2  -4  12   73.30    4.39
  -2  -4  12   72.92    4.60
   1   4 -12  113.01    6.65
  -1  -4  12  116.42    6.60
  -1  -4  12  119.73    6.83
   0   4 -12  119.44    7.05
   0  -4  12  128.83    7.08
   0  -4  12  121.65    6.87
  -1   4 -12   77.81    4.43
   1  -4  12   71.31    4.07
   1  -4  12   69.65    4.29
  -2   4 -12  151.63    8.03
   2  -4  12  126.23    7.89
  -3   4 -12   21.68    1.71
   3  -4  12   20.13    1.64
  -4   4 -12    9.55    1.16
   4  -4  12    7.76    1.08
  -5  -3  12    0.46    0.45
  -5  -3  12    0.46    0.30
  -4  -3  12   18.50    1.82
  -3  -3  12   26.53    2.07
  -3  -3  12   21.03    1.75
  -2  -3  12   12.15    1.10
  -2  -3  12   14.63    1.33
   1   3 -12   42.50    2.86
  -1  -3  12   49.39    3.09
  -1  -3  12   48.87    2.88
   0   3 -12   69.10    4.32
   0  -3  12   75.02    4.40
   0  -3  12   74.60    4.19
  -1   3 -12  177.89    9.83
   1  -3  12  177.58    9.54
   1  -3  12  167.77    9.77
  -2   3 -12   26.96    1.89
   2  -3  12   22.33    1.80
  -3   3 -12    7.30    0.96
   3  -3  12    7.46    0.97
  -4   3 -12    3.05    0.64
  -5  -2  12    4.87    0.70
  -5  -2  12    2.77    0.82
  -4  -2  12   19.99    1.89
  -3  -2  12   13.24    1.25
  -3  -2  12   15.27    1.47
  -2  -2  12  102.84    6.14
  -2  -2  12   99.69    5.91
   1   2 -12   75.97    4.78
  -1  -2  12   89.63    4.83
  -1  -2  12   83.66    5.01
   0   2 -12   70.70    4.49
   0  -2  12   82.37    4.42
   0  -2  12   77.22    4.58
  -1   2 -12   76.83    4.49
   1  -2  12   79.26    4.24
   1  -2  12   66.73    4.44
  -2   2 -12    4.66    0.74
   2  -2  12    4.63    0.44
   2  -2  12    4.54    0.72
  -3   2 -12   13.35    1.25
   3  -2  12   12.50    1.25
  -4   2 -12    0.82    0.39
  -5  -1  12   15.43    1.71
  -4  -1  12   18.52    1.64
  -4  -1  12   20.24    1.87
  -3  -1  12   81.59    4.96
  -3  -1  12   71.65    4.69
  -2  -1  12   71.01    4.40
  -2  -1  12   75.57    4.64
  -1  -1  12  117.66    6.95
  -1  -1  12  120.32    6.77
   0   1 -12  235.26   12.99
   0  -1  12  233.69   12.86
   0  -1  12  235.23   13.04
  -1   1 -12   47.72    2.84
   1  -1  12   43.23    2.59
   1  -1  12   38.68    2.79
  -2   1 -12   25.71    1.96
   2  -1  12   30.88    1.73
   2  -1  12   22.63    1.93
  -3   1 -12    1.37    0.44
   3  -1  12    0.12    0.28
  -4   1 -12    0.01    0.25
  -5   0  12    8.64    1.35
  -4   0  12   31.50    2.53
  -4   0  12   29.54    2.31
  -3   0  12   56.33    3.79
  -3   0  12   62.62    4.02
  -2   0  12   80.97    4.80
  -2   0  12   70.79    4.53
  -1   0  12   96.19    5.59
  -1   0  12   91.03    5.41
   0   0 -12   74.23    4.35
   0   0  12   70.91    4.26
   0   0  12   74.38    4.41
  -1   0 -12    7.58    0.80
   1   0  12    7.85    0.68
   1   0  12    6.12    0.86
  -2   0 -12    9.68    1.02
   2   0  12   10.38    0.82
   2   0  12    8.83    1.02
  -3   0 -12    0.43    0.31
   3   0  12   -0.04    0.29
  -4   0 -12    8.07    1.14
  -5   1  12   15.81    1.79
  -5   1  12   17.96    1.84
  -4   1  12   47.36    3.36
  -4   1  12   50.78    3.58
  -3   1  12   48.24    3.31
  -3   1  12   45.52    3.12
  -2   1  12   56.46    3.65
  -2   1  12   60.75    3.86
  -1   1  12   67.78    4.19
  -1   1  12   65.21    4.01
  -1   1  12   67.92    4.15
   0  -1 -12   11.60    1.04
   0   1  12   14.03    1.15
   0   1  12   12.18    1.01
   0   1  12   12.10    1.07
  -1  -1 -12   10.07    0.95
   1   1  12    7.44    0.97
   1   1  12    8.45    0.77
  -2  -1 -12    1.28    0.42
   2   1  12    1.58    0.35
  -3  -1 -12   11.52    1.19
   3   1  12   10.25    0.89
   3   1  12    8.34    1.18
  -4  -1 -12   16.81    1.61
  -5   2  12   32.56    2.80
  -5   2  12   32.23    2.73
  -4   2  12   46.48    3.42
  -4   2  12   53.25    3.65
  -3   2  12   49.71    3.37
  -3   2  12   45.32    3.17
  -2   2  12   45.02    2.96
  -2   2  12   42.05    2.72
  -2   2  12   35.79    2.79
  -1   2  12   80.11    4.89
  -1   2  12   83.00    4.81
  -1   2  12   79.22    4.96
   0   2  12    8.84    0.83
   0   2  12    9.87    0.93
   0   2  12    7.89    0.86
  -1  -2 -12    5.49    0.78
   1   2  12    4.45    0.75
   1   2  12    5.26    0.66
   1   2  12    5.02    0.64
  -2  -2 -12   17.00    1.53
   2   2  12   18.98    1.37
   2   2  12   16.70    1.57
  -3  -2 -12   41.73    2.91
   3   2  12   38.21    2.53
   3   2  12   38.94    2.91
  -4  -2 -12   13.53    1.45
  -5   3  12   32.79    2.74
  -4   3  12   27.75    2.28
  -4   3  12   24.10    2.10
  -3   3  12   43.03    3.06
  -3   3  12   43.98    2.94
  -3   3  12   39.06    3.08
  -2   3  12   89.87    5.46
  -2   3  12   79.44    5.30
  -2   3  12   90.38    5.24
  -1   3  12    7.63    0.90
  -1   3  12    8.10    1.04
  -1   3  12    8.14    0.88
   0   3  12    9.93    0.96
   0   3  12    8.17    0.91
   1   3  12   15.67    1.44
   1   3  12   14.40    1.24
   1   3  12   16.78    1.27
  -2  -3 -12   16.02    1.55
   2   3  12   16.92    1.32
   2   3  12   15.44    1.50
  -3  -3 -12   13.84    1.38
   3   3  12   12.71    1.10
   3   3  12    9.52    1.34
  -4  -3 -12   24.50    2.16
  -4   4  12   22.61    1.99
  -4   4  12   17.93    1.78
  -4   4  12   21.02    2.05
  -3   4  12   24.54    2.02
  -3   4  12   26.73    2.28
  -3   4  12   26.96    2.17
  -2   4  12   11.55    1.34
  -2   4  12    8.60    1.05
  -2   4  12    6.96    1.03
  -1   4  12    0.43    0.31
  -1   4  12    0.67    0.28
  -1   4  12    0.37    0.28
   0   4  12    0.64    0.29
   0   4  12    0.47    0.28
   0   4  12    0.45    0.29
   1   4  12   12.07    1.09
   1   4  12   11.93    1.08
   1   4  12   10.91    1.18
   2   4  12   42.32    2.59
   2   4  12   33.56    2.71
   3   4  12   18.59    1.47
   3   4  12   16.52    1.70
  -4   5  12   11.91    1.68
  -4   5  12   11.90    1.46
  -3   5  12   15.51    1.48
  -3   5  12   15.42    1.85
  -3   5  12   16.45    1.58
  -2   5  12   -0.09    0.25
  -2   5  12    0.29    0.25
  -2   5  12    0.21    0.29
  -1   5  12   -0.12    0.21
  -1   5  12    0.13    0.24
  -1   5  12    0.43    0.29
   0   5  12   22.76    1.83
   0   5  12   22.99    1.73
   0   5  12   20.31    1.68
   1   5  12   30.75    2.43
   1   5  12   36.21    2.38
   2   5  12   13.63    1.39
   2   5  12   11.34    1.24
   3   5  12   31.03    2.16
   3   5  12   26.95    2.39
  -3   6  12   10.29    1.32
  -3   6  12   11.34    1.55
  -2   6  12    0.08    0.30
  -2   6  12    0.12    0.22
  -2   6  12    0.10    0.33
  -1   6  12    0.52    0.29
  -1   6  12    0.45    0.31
  -1   6  12    0.00    0.27
   0   6  12   14.20    1.38
   0   6  12   12.83    1.25
   0   6  12   14.47    1.27
   1   6  12   12.22    1.28
   1   6  12   11.88    1.28
   2   6  12   38.02    2.69
   2   6  12   38.97    2.95
   3   6  12   33.62    2.43
  -3   7  12    0.16    0.45
  -3   7  12    0.11    0.32
  -2   7  12    1.98    0.54
  -2   7  12    3.54    0.86
  -1   7  12    8.44    1.21
  -1   7  12    6.68    0.96
  -1   7  12    7.77    1.01
   0   7  12   11.76    1.34
   0   7  12   12.95    1.38
   0   7  12   13.74    1.24
   1   7  12   26.74    2.03
   1   7  12   20.15    1.82
   2   7  12   37.43    2.96
   2   7  12   38.24    2.72
  -2   8  12    4.81    0.85
  -2   8  12    5.59    1.14
  -1   8  12   30.94    2.39
  -1   8  12   32.73    2.64
   0   8  12   30.50    2.50
   0   8  12   32.55    2.30
   0   8  12   30.63    2.36
   1   8  12   41.35    3.06
   1   8  12   45.87    3.14
  -1   9  12   13.43    1.71
   0   9  12   27.23    2.34
  -1  14 -13   36.64    3.08
   1  13 -13   40.74    3.21
   0  13 -13   54.97    3.90
  -1  13 -13   42.27    3.11
  -2  13 -13   18.95    1.89
   2  12 -13   30.16    2.63
   1  12 -13   41.61    3.20
   0  12 -13   41.37    3.08
  -1  12 -13   18.14    2.28
  -1  12 -13   18.22    1.68
  -2  12 -13   15.83    1.62
  -3  12 -13    1.00    0.67
  -3 -11  13   39.05    3.21
   2  11 -13   41.62    3.23
   1  11 -13   32.05    2.59
   0  11 -13   21.33    1.89
  -1  11 -13   15.14    1.51
  -1  11 -13   14.75    1.42
  -2  11 -13   15.90    1.56
  -2  11 -13   15.46    1.65
  -3  11 -13    0.28    0.34
  -3 -10  13   33.04    2.67
  -3 -10  13   30.44    2.68
  -2 -10  13   42.92    3.10
   1  10 -13   47.14    3.38
   0  10 -13   45.84    3.23
  -1  10 -13   54.47    3.41
  -1  10 -13   42.82    3.16
  -2  10 -13    3.35    0.79
  -2  10 -13    4.05    0.81
  -3  10 -13    0.31    0.33
  -4  -9  13   22.58    2.16
  -4  -9  13   24.86    2.35
  -3  -9  13   31.11    2.65
  -3  -9  13   34.38    2.72
  -2  -9  13   38.98    2.88
  -1  -9  13   58.52    3.80
   0   9 -13   41.31    3.05
   0   9 -13   37.59    2.70
   0  -9  13   35.37    2.48
  -1   9 -13   31.34    2.34
  -1   9 -13   35.16    2.51
  -2   9 -13    0.48    0.33
  -3   9 -13    1.92    0.56
  -4   9 -13    0.61    0.51
  -4  -8  13   26.70    2.33
  -4  -8  13   27.95    2.51
  -3  -8  13   49.83    3.61
  -2  -8  13   73.41    4.75
  -1  -8  13   33.58    2.42
   0   8 -13   35.01    2.39
   0  -8  13   30.05    2.20
  -1   8 -13    0.48    0.30
  -1   8 -13    1.09    0.41
   1  -8  13    0.21    0.20
  -2   8 -13    3.53    0.68
  -3   8 -13    9.72    1.23
  -4   8 -13   17.53    1.63
  -4  -7  13   39.73    3.13
  -4  -7  13   36.46    2.87
  -3  -7  13   44.32    3.30
  -2  -7  13   39.94    2.90
  -1  -7  13   17.82    1.51
   0   7 -13   29.49    2.16
   0  -7  13   30.14    2.10
  -1   7 -13   15.96    1.33
  -1   7 -13   18.67    1.50
   1  -7  13   15.79    1.27
  -2   7 -13   13.71    1.31
   2  -7  13   14.78    1.15
  -3   7 -13    9.65    1.19
  -4   7 -13   23.59    1.97
  -4  -6  13   41.83    3.28
  -3  -6  13   44.13    3.26
  -2  -6  13   23.58    1.96
  -1  -6  13   38.92    2.70
   0   6 -13   16.96    1.37
   0  -6  13   15.52    1.32
  -1   6 -13    6.00    0.83
   1  -6  13    4.60    0.66
  -2   6 -13    6.10    0.88
   2  -6  13    6.71    0.72
  -3   6 -13   30.89    2.19
   3  -6  13   24.91    1.97
  -4   6 -13   25.03    2.03
  -4  -5  13   32.59    2.74
  -3  -5  13   16.34    1.63
  -2  -5  13   16.29    1.50
  -1  -5  13   13.08    1.22
  -1  -5  13   13.00    1.05
   0   5 -13   13.70    1.15
   0  -5  13   11.99    0.93
   0  -5  13   12.88    1.13
  -1   5 -13   25.76    1.90
   1  -5  13   27.55    1.82
   1  -5  13   23.97    1.58
  -2   5 -13   41.91    2.73
   2  -5  13   36.53    2.55
  -3   5 -13   49.26    3.25
   3  -5  13   45.85    3.15
  -4   5 -13   21.33    1.82
   4  -5  13   21.17    1.79
  -4  -4  13   14.28    1.61
  -3  -4  13   11.98    1.34
  -2  -4  13   25.39    2.01
  -2  -4  13   23.51    1.76
  -1  -4  13   47.20    2.94
  -1  -4  13   47.85    3.18
   0   4 -13   55.57    3.48
   0  -4  13   55.91    3.49
   0  -4  13   55.83    3.29
  -1   4 -13   59.63    3.58
   1  -4  13   57.49    3.48
   1  -4  13   52.62    3.21
  -2   4 -13   50.01    3.00
   2  -4  13   38.54    2.83
  -3   4 -13   39.61    2.69
   3  -4  13   35.61    2.62
  -4   4 -13   39.40    2.72
   4  -4  13   34.77    2.67
  -4  -3  13   11.96    1.59
  -3  -3  13    8.63    1.02
  -3  -3  13    8.71    1.23
  -2  -3  13    0.80    0.29
  -2  -3  13    0.61    0.33
  -1  -3  13   49.54    3.05
  -1  -3  13   49.08    3.26
   0   3 -13   43.00    2.86
   0  -3  13   44.93    2.73
   0  -3  13   47.90    2.97
  -1   3 -13   34.40    2.31
   1  -3  13   34.45    2.30
   1  -3  13   32.31    2.03
  -2   3 -13   51.77    3.17
   2  -3  13   42.05    3.05
  -3   3 -13   53.29    3.38
   3  -3  13   46.36    3.28
  -4   3 -13   30.49    2.30
   4  -3  13   28.09    2.29
  -5  -2  13    9.98    2.09
  -4  -2  13    5.72    1.08
  -3  -2  13    4.37    0.74
  -3  -2  13    4.95    0.92
  -2  -2  13   27.02    2.03
  -2  -2  13   31.73    2.32
  -1  -2  13   13.85    1.30
  -1  -2  13   16.20    1.20
   0   2 -13   19.64    1.48
   0  -2  13   19.58    1.38
   0  -2  13   21.23    1.58
  -1   2 -13   23.58    1.74
   1  -2  13   21.96    1.71
   1  -2  13   23.64    1.51
  -2   2 -13   61.18    3.84
   2  -2  13   56.63    3.86
   2  -2  13   61.90    3.49
  -3   2 -13   55.44    3.50
   3  -2  13   47.44    3.40
  -4   2 -13   17.58    1.60
   4  -2  13   17.17    1.66
  -5  -1  13    3.52    0.93
  -4  -1  13    1.00    0.44
  -4  -1  13    1.90    0.64
  -3  -1  13    3.70    0.78
  -3  -1  13    3.36    0.64
  -2  -1  13   28.10    2.15
  -2  -1  13   25.41    1.90
  -1  -1  13   52.33    3.42
  -1  -1  13   52.10    3.22
   0   1 -13   55.26    3.58
   0  -1  13   63.21    3.53
   0  -1  13   58.61    3.67
  -1   1 -13   97.29    5.44
   1  -1  13   95.64    5.19
   1  -1  13   79.80    5.39
  -2   1 -13   87.26    5.11
   2  -1  13   75.99    5.10
   2  -1  13   84.98    4.74
  -3   1 -13   69.49    4.27
   3  -1  13   61.65    4.24
  -4   1 -13    7.01    1.03
   4  -1  13    6.21    1.08
  -5   0  13    2.62    0.84
  -4   0  13    0.35    0.37
  -4   0  13    0.16    0.30
  -3   0  13   25.79    2.13
  -3   0  13   23.47    1.90
  -2   0  13   36.65    2.46
  -2   0  13   35.44    2.64
  -1   0  13   26.20    1.79
  -1   0  13   24.41    1.90
   0   0  13   80.78    4.71
   0   0  13   74.29    4.52
  -1   0 -13  135.37    7.46
   1   0  13  135.20    7.24
   1   0  13  114.56    7.46
  -2   0 -13  135.23    7.55
   2   0  13  127.52    7.17
   2   0  13  119.69    7.54
  -3   0 -13   31.82    2.33
   3   0  13   27.12    2.27
  -4   0 -13    0.04    0.30
   4   0  13    0.53    0.42
  -5   1  13    1.04    0.66
  -4   1  13    2.42    0.64
  -4   1  13    3.09    0.83
  -3   1  13   14.09    1.36
  -3   1  13   16.04    1.56
  -2   1  13   14.89    1.25
  -2   1  13   12.77    1.34
  -1   1  13   94.44    5.65
  -1   1  13   96.90    5.53
  -1   1  13   90.89    5.66
   0   1  13   85.42    5.00
   0   1  13   85.28    5.13
  -1  -1 -13   64.88    3.89
   1   1  13   61.90    3.67
   1   1  13   56.03    3.89
  -2  -1 -13   37.80    2.70
   2   1  13   37.16    2.77
   2   1  13   38.86    2.44
  -3  -1 -13   -0.13    0.24
   3   1  13   -0.13    0.28
  -4  -1 -13    7.17    1.11
   4   1  13    5.96    1.08
  -5   2  13    0.61    0.75
  -4   2  13   18.24    1.80
  -4   2  13   23.82    2.09
  -3   2  13   19.45    1.72
  -3   2  13   22.80    1.96
  -2   2  13   67.35    4.56
  -2   2  13   76.66    4.45
  -2   2  13   70.17    4.62
  -1   2  13   75.80    4.54
  -1   2  13   69.07    4.39
  -1   2  13   73.51    4.60
   0   2  13   72.36    4.29
   0   2  13   66.26    4.24
   0   2  13   68.18    4.17
   1   2  13   93.96    5.51
   1   2  13   89.10    5.20
   1   2  13   84.65    5.20
  -2  -2 -13   25.04    1.97
   2   2  13   23.77    1.69
   2   2  13   21.73    1.94
  -3  -2 -13    3.04    0.72
   3   2  13    2.27    0.64
   3   2  13    2.29    0.52
  -4  -2 -13   -0.17    0.32
  -4   3  13   16.01    1.70
  -4   3  13   14.48    1.68
  -3   3  13   37.28    2.66
  -3   3  13   31.01    2.75
  -3   3  13   41.23    2.90
  -2   3  13   86.51    4.88
  -2   3  13   70.48    4.47
  -2   3  13   63.00    4.56
  -1   3  13   50.98    3.42
  -1   3  13   51.22    3.58
  -1   3  13   59.57    3.57
   0   3  13  111.56    6.70
   0   3  13  111.94    6.63
   0   3  13  119.67    6.78
   1   3  13   49.11    3.03
   1   3  13   44.29    3.17
   2   3  13    2.73    0.54
   2   3  13    3.22    0.75
   3   3  13    5.55    1.00
   3   3  13    5.03    0.75
  -4   4  13   21.51    2.01
  -4   4  13   17.87    1.78
  -3   4  13   49.08    3.28
  -3   4  13   43.55    3.45
  -3   4  13   48.23    3.43
  -2   4  13   37.29    2.74
  -2   4  13   32.84    2.58
  -2   4  13   34.06    2.49
  -1   4  13   63.53    3.77
  -1   4  13   51.52    3.61
  -1   4  13   56.57    3.84
   0   4  13   33.27    2.41
   0   4  13   33.34    2.34
   0   4  13   31.90    2.30
   1   4  13    8.00    0.98
   1   4  13    9.11    1.16
   2   4  13    2.49    0.54
   2   4  13    2.68    0.69
   3   4  13    2.32    0.72
   3   4  13    2.29    0.56
  -3   5  13   48.70    3.48
  -3   5  13   54.38    3.87
  -3   5  13   50.13    3.62
  -2   5  13   23.33    2.06
  -2   5  13   25.48    1.89
  -2   5  13   19.30    1.84
  -1   5  13   30.81    2.13
  -1   5  13   25.10    2.19
  -1   5  13   25.70    2.04
   0   5  13   24.60    1.92
   0   5  13   27.92    2.10
   0   5  13   23.82    1.91
   1   5  13    0.14    0.28
   1   5  13   -0.03    0.28
   2   5  13    0.89    0.50
   2   5  13    0.47    0.36
   3   5  13    9.14    1.14
  -3   6  13   15.89    1.72
  -3   6  13   17.73    1.88
  -2   6  13   20.40    1.88
  -2   6  13   23.41    2.11
  -2   6  13   22.45    1.84
  -1   6  13   32.05    2.31
  -1   6  13   28.66    2.46
  -1   6  13   32.27    2.34
   0   6  13    6.06    0.91
   0   6  13    7.28    1.08
   0   6  13    6.97    0.96
   1   6  13    0.36    0.33
   1   6  13    0.07    0.29
   2   6  13    8.86    1.33
   2   6  13    7.36    1.06
  -2   7  13   21.82    2.10
  -2   7  13   19.56    1.76
  -1   7  13    7.76    1.07
  -1   7  13    7.33    1.03
  -1   7  13    7.54    1.23
   0   7  13    0.08    0.35
   0   7  13    0.37    0.33
   0   7  13    0.36    0.33
   1   7  13    0.16    0.32
   1   7  13    0.66    0.45
  -1   8  13    6.67    1.21
   0   8  13   -0.09    0.37
   1   8  13    5.47    0.98
   1  13 -14   -0.06    0.47
   0  13 -14    7.73    1.28
  -1  13 -14   23.12    2.05
  -2  13 -14   20.60    2.02
   2  12 -14    0.50    0.51
   1  12 -14    2.16    0.71
   0  12 -14   31.11    2.53
  -1  12 -14   47.26    3.36
  -2  12 -14   29.95    2.50
  -3 -11  14    2.55    0.82
   2  11 -14    0.48    0.39
   1  11 -14   14.97    1.58
   0  11 -14   57.36    3.95
  -1  11 -14   47.11    3.38
  -1  11 -14   45.86    3.22
  -2  11 -14   37.54    2.86
  -3  11 -14   13.96    1.51
  -3 -10  14    0.47    0.56
  -3 -10  14    0.98    0.55
  -2 -10  14   11.34    1.46
   1  10 -14   52.31    3.68
   0  10 -14   44.46    3.17
  -1  10 -14   35.97    2.63
  -1  10 -14   32.82    2.47
  -2  10 -14   26.37    2.20
  -3  10 -14   14.40    1.50
  -3  -9  14    3.14    0.83
  -2  -9  14   28.05    2.30
  -1  -9  14   28.24    2.18
   0   9 -14   38.74    2.76
   0  -9  14   37.47    2.59
  -1   9 -14   57.17    3.76
  -1   9 -14   59.93    3.92
  -2   9 -14   26.86    2.19
  -3   9 -14   18.74    1.73
  -4  -8  14    1.42    0.65
  -4  -8  14    1.72    0.66
  -3  -8  14   11.96    1.63
  -2  -8  14   45.51    3.27
  -1  -8  14   60.88    3.96
   0  -8  14   98.49    5.87
  -1   8 -14   50.10    3.29
  -1   8 -14   47.99    3.15
   1  -8  14   45.97    3.03
  -2   8 -14   31.35    2.40
  -3   8 -14   25.93    2.13
  -4   8 -14    0.24    0.28
  -4  -7  14    4.78    1.05
  -3  -7  14   34.41    2.79
  -2  -7  14   44.20    3.19
  -1  -7  14  106.35    6.41
   0   7 -14  105.33    6.38
   0  -7  14  109.06    6.35
  -1   7 -14   65.35    3.90
  -1   7 -14   58.47    3.69
   1  -7  14   54.87    3.61
  -2   7 -14   27.50    2.16
   2  -7  14   28.78    1.96
  -3   7 -14    3.82    0.74
  -4   7 -14    0.25    0.31
  -4  -6  14   18.26    1.93
  -3  -6  14   33.17    2.69
  -2  -6  14   64.58    4.29
  -1  -6  14  104.03    6.28
   0   6 -14   35.28    2.45
   0  -6  14   35.01    2.44
  -1   6 -14   11.14    1.13
   1  -6  14   12.75    1.10
  -2   6 -14    8.44    1.09
   2  -6  14    7.36    0.81
  -3   6 -14    8.45    1.12
   3  -6  14    7.74    0.99
  -4   6 -14    0.46    0.33
  -4  -5  14   23.49    2.25
  -3  -5  14   47.71    3.51
  -2  -5  14  119.56    7.25
  -1  -5  14   78.84    4.98
  -1  -5  14   81.18    4.71
   0   5 -14   29.50    2.07
   0  -5  14   29.95    1.87
   0  -5  14   27.30    2.06
  -1   5 -14    2.10    0.51
   1  -5  14    2.13    0.48
  -2   5 -14    1.18    0.40
   2  -5  14    0.79    0.31
  -3   5 -14    3.45    0.68
   3  -5  14    2.95    0.66
  -4   5 -14    7.21    1.05
   4  -5  14    7.35    1.10
  -4  -4  14   42.50    3.36
  -3  -4  14   71.75    4.82
  -2  -4  14  102.68    6.21
  -2  -4  14  110.09    6.57
  -1  -4  14   38.84    2.52
  -1  -4  14   39.46    2.78
   0   4 -14   15.58    1.28
   0  -4  14   14.70    1.28
   0  -4  14   14.48    1.10
  -1   4 -14   54.28    3.38
   1  -4  14   52.95    3.03
   1  -4  14   48.96    3.26
  -2   4 -14    1.68    0.48
   2  -4  14    1.76    0.47
  -3   4 -14    3.27    0.67
   3  -4  14    4.88    0.83
  -4   4 -14   10.04    1.28
   4  -4  14    9.37    1.25
  -4  -3  14   23.96    2.26
  -3  -3  14   47.81    3.40
  -3  -3  14   57.66    3.83
  -2  -3  14   43.98    3.17
  -2  -3  14   44.61    2.92
  -1  -3  14   15.91    1.22
  -1  -3  14   14.18    1.37
   0   3 -14    2.92    0.51
   0  -3  14    2.65    0.43
   0  -3  14    4.01    0.65
  -1   3 -14    4.59    0.71
   1  -3  14    3.96    0.65
   1  -3  14    5.13    0.55
  -2   3 -14   15.32    1.36
   2  -3  14   13.52    1.31
  -3   3 -14   16.16    1.42
   3  -3  14   11.03    1.28
  -4   3 -14   10.44    1.32
   4  -3  14   11.38    1.40
  -4  -2  14   35.39    2.77
  -4  -2  14   27.00    2.32
  -3  -2  14   71.06    4.41
  -3  -2  14   55.15    3.95
  -2  -2  14    7.15    1.08
  -2  -2  14   10.55    1.08
  -1  -2  14    0.29    0.20
  -1  -2  14    0.39    0.26
   0  -2  14    4.28    0.55
   0  -2  14    4.36    0.71
  -1   2 -14   26.01    1.89
   1  -2  14   25.52    1.64
   1  -2  14   23.09    1.84
  -2   2 -14   17.54    1.43
   2  -2  14   12.72    1.35
  -3   2 -14   43.99    2.93
   3  -2  14   36.93    2.86
  -4   2 -14   24.06    1.98
   4  -2  14   21.56    1.98
  -4  -1  14   35.00    2.79
  -4  -1  14   43.18    3.22
  -3  -1  14   26.68    2.17
  -3  -1  14   20.46    1.83
  -2  -1  14   17.62    1.44
  -2  -1  14   17.44    1.64
  -1  -1  14   17.70    1.52
  -1  -1  14   16.97    1.34
   0  -1  14    4.23    0.57
  -1   1 -14    6.73    0.89
   1  -1  14    6.57    0.90
   1  -1  14    8.64    0.73
  -2   1 -14   17.79    1.49
   2  -1  14   14.40    1.49
   2  -1  14   16.49    1.19
  -3   1 -14   11.30    1.22
   3  -1  14    9.96    1.29
  -4   1 -14   12.88    1.37
   4  -1  14   11.73    1.51
  -4   0  14   33.79    2.72
  -4   0  14   26.77    2.32
  -3   0  14    9.13    1.30
  -3   0  14    9.49    1.19
  -2   0  14    2.24    0.47
  -2   0  14    2.37    0.61
  -1   0  14    1.19    0.39
  -1   0  14    1.25    0.35
   0   0  14   21.98    1.52
   0   0  14   19.62    1.63
  -1   0 -14    7.64    1.14
   1   0  14    6.71    0.75
   1   0  14    5.29    0.84
  -2   0 -14   40.86    2.73
   2   0  14   39.22    2.41
   2   0  14   32.90    2.72
  -3   0 -14   24.97    2.00
   3   0  14   21.14    1.95
  -4   0 -14   21.70    1.92
   4   0  14   20.27    2.10
  -4   1  14   17.65    1.83
  -4   1  14   15.43    1.74
  -3   1  14    4.00    0.73
  -3   1  14    5.03    0.97
  -2   1  14    0.24    0.31
  -2   1  14   -0.11    0.18
  -1   1  14   21.96    1.73
  -1   1  14   19.24    1.55
   0   1  14   16.38    1.28
   0   1  14   15.42    1.36
   1   1  14   64.39    3.98
   1   1  14   68.38    4.28
  -2  -1 -14   56.32    4.12
   2   1  14   53.13    3.17
   2   1  14   44.58    3.48
  -3  -1 -14   58.15    3.68
   3   1  14   44.88    3.51
  -4  -1 -14   30.77    2.52
  -4   2  14    2.77    0.72
  -4   2  14    4.31    0.97
  -3   2  14    1.35    0.54
  -3   2  14    0.57    0.34
  -2   2  14    0.04    0.27
  -2   2  14    0.38    0.36
  -2   2  14    0.25    0.24
  -1   2  14    5.90    0.86
  -1   2  14    5.75    0.78
  -1   2  14    5.23    0.87
   0   2  14   36.01    2.53
   0   2  14   37.32    2.46
   0   2  14   35.70    2.53
   1   2  14   69.92    4.17
   1   2  14   66.82    4.39
   2   2  14   39.37    3.09
   2   2  14   44.98    2.79
   3   2  14   26.01    2.24
  -4   3  14    1.84    0.60
  -4   3  14    2.66    0.85
  -3   3  14    0.53    0.37
  -3   3  14    0.50    0.44
  -3   3  14    1.07    0.50
  -2   3  14    7.82    1.13
  -2   3  14    6.51    0.92
  -2   3  14    7.48    1.15
  -1   3  14   20.69    1.86
  -1   3  14   26.58    1.90
  -1   3  14   20.29    1.70
   0   3  14   43.37    2.96
   0   3  14   44.24    3.01
   0   3  14   44.44    2.92
   1   3  14   33.29    2.50
   1   3  14   32.95    2.30
   2   3  14   40.31    3.11
   2   3  14   42.35    2.77
   3   3  14   22.14    2.05
  -4   4  14    0.45    0.53
  -3   4  14    2.76    0.83
  -3   4  14    2.59    0.63
  -3   4  14    1.73    0.67
  -2   4  14   16.47    1.65
  -2   4  14   18.86    1.80
  -2   4  14   19.22    1.61
  -1   4  14   35.65    2.63
  -1   4  14   32.31    2.41
  -1   4  14   33.67    2.46
   0   4  14   89.95    5.27
   0   4  14   82.43    5.18
   0   4  14   83.43    5.29
   1   4  14   63.32    3.97
   1   4  14   62.20    4.14
   2   4  14   31.85    2.19
   2   4  14   26.69    2.41
   3   4  14   15.33    1.40
  -3   5  14   12.81    1.73
  -3   5  14   14.07    1.77
  -3   5  14   11.42    1.43
  -2   5  14   26.73    2.24
  -2   5  14   29.57    2.19
  -2   5  14   25.16    2.32
  -1   5  14   63.75    4.40
  -1   5  14   63.09    4.20
  -1   5  14   69.84    4.26
   0   5  14   54.19    3.79
   0   5  14   57.93    3.71
   0   5  14   58.59    3.73
   1   5  14   14.20    1.36
   1   5  14   15.94    1.51
   2   5  14   33.38    2.35
   2   5  14   29.59    2.58
  -2   6  14   23.44    2.00
  -2   6  14   23.42    2.24
  -2   6  14   26.77    2.19
  -1   6  14   40.92    2.79
  -1   6  14   38.52    2.78
  -1   6  14   35.36    2.92
   0   6  14   10.08    1.24
   0   6  14    9.42    1.28
   0   6  14    9.87    1.08
   1   6  14   25.78    2.05
   1   6  14   25.81    2.13
   2   6  14   11.76    1.62
  -2   7  14   23.90    2.35
  -1   7  14   17.49    1.81
  -1   7  14   15.96    1.56
  -1   7  14   17.20    1.56
   0   7  14   13.80    2.07
   0   7  14   14.48    1.57
   0   7  14   14.52    1.39
   1   7  14   15.04    1.51
   0  13 -15   14.28    1.76
  -1  13 -15    2.20    0.69
   1  12 -15    5.94    1.14
   0  12 -15   -0.03    0.34
  -1  12 -15    0.44    0.39
  -2  12 -15    7.40    1.25
  -3 -11  15    6.64    1.31
   2  11 -15   10.56    1.53
   1  11 -15    2.59    0.72
   0  11 -15    0.59    0.42
  -1  11 -15    3.78    0.78
  -2  11 -15   34.98    2.75
  -3  11 -15   23.37    2.12
  -3 -10  15   18.20    1.94
  -3 -10  15   20.93    2.10
  -2 -10  15    6.95    1.17
   1  10 -15    1.25    0.53
   0  10 -15    0.06    0.24
  -1  10 -15   17.07    1.55
  -2  10 -15   20.20    1.87
  -3  10 -15   22.64    2.03
  -3  -9  15    3.13    0.83
  -2  -9  15    1.89    0.60
  -1  -9  15    3.05    0.69
   0   9 -15    6.54    1.02
   0  -9  15    7.52    0.99
  -1   9 -15   45.21    3.06
  -1   9 -15   39.12    2.86
  -2   9 -15   26.37    2.19
  -3   9 -15   13.70    1.45
  -3  -8  15    2.97    0.82
  -2  -8  15    0.66    0.42
  -1  -8  15    7.60    1.06
   0  -8  15   29.81    2.20
  -1   8 -15   34.11    2.51
  -1   8 -15   41.31    2.75
   1  -8  15   35.52    2.48
  -2   8 -15   49.11    3.44
  -3   8 -15   31.59    2.48
  -4  -7  15    8.16    1.40
  -3  -7  15    3.82    0.92
  -2  -7  15    1.90    0.59
  -1  -7  15    8.54    1.14
   0  -7  15   69.15    4.36
  -1   7 -15   46.25    3.10
  -1   7 -15   41.18    2.89
   1  -7  15   46.46    2.94
  -2   7 -15   35.44    2.67
   2  -7  15   38.36    2.50
  -3   7 -15   36.14    2.72
  -4   7 -15   16.55    1.98
  -4  -6  15    2.59    0.80
  -3  -6  15    6.48    1.14
  -2  -6  15   16.67    1.63
  -1  -6  15   50.50    3.45
   0  -6  15   39.54    2.73
  -1   6 -15   58.98    3.75
   1  -6  15   55.94    3.61
  -2   6 -15   80.30    4.84
   2  -6  15   72.00    4.56
  -3   6 -15   26.49    2.12
   3  -6  15   25.27    1.97
  -4   6 -15    7.57    1.13
  -4  -5  15    2.78    0.83
  -3  -5  15   15.47    1.68
  -2  -5  15   14.42    1.49
  -1  -5  15   63.88    4.20
  -1  -5  15   64.76    3.90
   0  -5  15   61.10    3.81
   0  -5  15   69.46    4.14
  -1   5 -15  106.13    6.32
   1  -5  15  105.37    6.23
  -2   5 -15   39.39    2.66
   2  -5  15   33.66    2.46
  -3   5 -15   11.16    1.20
   3  -5  15    9.16    1.19
  -4   5 -15    3.58    0.77
   4  -5  15    4.04    1.38
  -4  -4  15   13.58    1.82
  -3  -4  15    9.31    1.38
  -2  -4  15   56.11    3.84
  -2  -4  15   53.21    3.48
  -1  -4  15   48.59    3.34
  -1  -4  15   48.06    3.06
   0  -4  15   93.37    5.94
   0  -4  15  106.70    5.75
  -1   4 -15   94.26    5.50
   1  -4  15   87.58    5.41
  -2   4 -15   27.40    2.01
   2  -4  15   22.71    1.87
  -3   4 -15   10.65    1.18
   3  -4  15   11.15    1.36
  -4   4 -15    2.18    0.61
   4  -4  15    0.98    0.57
  -4  -3  15    4.77    1.04
  -3  -3  15   22.88    2.13
  -3  -3  15   23.54    1.88
  -2  -3  15   49.71    3.21
  -2  -3  15   47.78    3.47
  -1  -3  15   86.11    5.06
  -1  -3  15   84.65    5.33
   0  -3  15  138.29    8.02
   0  -3  15  136.81    7.74
  -1   3 -15   32.05    2.21
   1  -3  15   31.03    1.93
   1  -3  15   27.30    2.13
  -2   3 -15   14.83    1.38
   2  -3  15   14.46    1.38
  -3   3 -15    1.59    0.53
   3  -3  15    1.57    0.59
  -4   3 -15   -0.03    0.31
   4  -3  15    0.10    0.37
  -4  -2  15   15.79    1.97
  -4  -2  15   12.06    1.47
  -3  -2  15   39.90    2.93
  -3  -2  15   30.81    2.49
  -2  -2  15   41.81    2.82
  -2  -2  15   41.56    3.08
  -1  -2  15   83.33    5.21
  -1  -2  15   94.41    5.55
   0  -2  15   68.65    4.26
   0  -2  15   65.61    3.99
  -1   2 -15    9.89    1.02
   1  -2  15    9.50    1.03
   1  -2  15   10.10    0.85
  -2   2 -15   -0.03    0.21
   2  -2  15    0.58    0.36
  -3   2 -15    1.25    0.46
   3  -2  15    2.14    0.59
  -4   2 -15    2.35    0.66
   4  -2  15    2.37    0.70
  -4  -1  15   24.73    2.13
  -4  -1  15   27.32    2.48
  -3  -1  15   46.74    3.30
  -3  -1  15   49.77    3.61
  -2  -1  15   72.33    4.50
  -2  -1  15   73.17    4.80
  -1  -1  15   80.65    5.12
  -1  -1  15   83.37    4.90
   0  -1  15    9.00    0.88
   0  -1  15   11.83    1.11
   1  -1  15    4.68    0.77
   1  -1  15    5.64    0.66
  -2   1 -15    6.25    0.93
  -3   1 -15    0.09    0.31
   3  -1  15    0.20    0.39
  -4   1 -15    2.14    0.63
  -4   0  15   21.72    1.97
  -4   0  15   23.25    2.26
  -3   0  15   28.67    2.25
  -3   0  15   29.90    2.52
  -2   0  15   38.45    2.60
  -2   0  15   35.65    2.81
  -1   0  15   50.30    3.38
  -1   0  15   58.17    3.66
   0   0  15   25.89    1.95
   0   0  15   32.75    2.23
   1   0  15    3.38    0.68
   1   0  15    3.62    0.56
   2   0  15    2.97    0.72
   2   0  15    3.91    0.58
  -3   0 -15    3.58    0.79
   3   0  15    4.06    0.87
  -4   0 -15    0.73    0.51
  -4   1  15   13.32    1.60
  -4   1  15   12.58    1.75
  -3   1  15   26.06    2.42
  -3   1  15   32.02    2.32
  -2   1  15   65.25    4.52
  -2   1  15   71.18    4.31
  -1   1  15   10.93    1.04
  -1   1  15   10.41    1.13
   0   1  15    4.48    0.72
   0   1  15    3.10    0.55
   1   1  15    0.08    0.19
   1   1  15   -0.08    0.22
   2   1  15    0.29    0.39
   2   1  15    1.63    0.40
   3   1  15    4.02    0.90
  -4   2  15   32.55    2.81
  -4   2  15   29.72    2.56
  -3   2  15   44.55    3.41
  -3   2  15   45.08    3.21
  -2   2  15   38.87    2.72
  -2   2  15   38.07    2.92
  -1   2  15    9.80    1.06
  -1   2  15    8.95    1.16
  -1   2  15    8.14    1.01
   0   2  15    1.14    0.42
   0   2  15    0.43    0.29
   1   2  15    0.42    0.38
   1   2  15    0.24    0.24
   2   2  15   17.40    1.39
   2   2  15   15.44    1.66
   3   2  15   10.23    1.46
  -4   3  15   26.00    2.47
  -3   3  15   39.76    3.21
  -3   3  15   43.77    3.05
  -2   3  15    8.86    1.13
  -2   3  15    7.77    1.24
  -2   3  15    8.16    1.23
  -1   3  15    0.93    0.36
  -1   3  15    1.69    0.53
  -1   3  15    0.60    0.37
   0   3  15    0.87    0.39
   0   3  15    0.92    0.40
   0   3  15    0.34    0.27
   1   3  15    3.94    0.78
   1   3  15    4.01    0.69
   2   3  15    1.25    0.44
   2   3  15    1.48    0.58
  -4   4  15   20.87    2.15
  -3   4  15   12.45    1.70
  -3   4  15    9.85    1.31
  -3   4  15   10.88    1.59
  -2   4  15    0.23    0.41
  -2   4  15   -0.23    0.31
  -2   4  15    0.33    0.31
  -1   4  15    1.70    0.50
  -1   4  15    1.10    0.49
  -1   4  15    1.49    0.45
   0   4  15    3.46    0.66
   0   4  15    3.04    0.69
   0   4  15    2.14    0.55
   1   4  15    6.56    0.94
   1   4  15    7.52    1.10
   2   4  15   25.23    2.29
   2   4  15   25.89    1.99
  -3   5  15    0.66    0.58
  -2   5  15    1.29    0.47
  -2   5  15    0.90    0.52
  -2   5  15    0.48    0.44
  -1   5  15    1.05    0.42
  -1   5  15    0.83    0.47
  -1   5  15    0.79    0.39
   0   5  15    5.04    0.88
   0   5  15    5.49    0.94
   0   5  15    4.21    0.79
   1   5  15   18.03    1.66
   1   5  15   21.03    1.83
   2   5  15   60.68    3.96
  -2   6  15    0.75    0.49
  -2   6  15    0.54    0.50
  -1   6  15    4.21    0.93
  -1   6  15    4.54    0.86
  -1   6  15    4.18    0.81
   0   6  15   20.70    1.81
   0   6  15   20.75    1.78
   1   6  15   30.70    2.43
   1   6  15   32.79    2.53
  -1   7  15   14.19    1.84
   0   7  15   17.89    1.65
   0  13 -16   25.99    2.51
  -1  13 -16   19.55    1.87
   1  12 -16   26.39    2.39
   0  12 -16   27.88    2.39
  -1  12 -16   24.87    2.13
   2  11 -16   13.15    1.73
   1  11 -16   38.89    3.04
   0  11 -16   30.66    2.50
  -1  11 -16    9.51    1.26
  -2  11 -16    2.57    0.74
  -3 -10  16   24.42    2.32
  -2 -10  16   44.22    3.33
   0  10 -16   17.52    1.66
  -1  10 -16    3.01    0.68
  -2  10 -16    0.00    0.32
  -3  10 -16    1.04    0.52
  -3  -9  16   26.46    2.45
  -2  -9  16   41.79    3.18
  -1  -9  16   26.76    2.19
   0   9 -16   11.99    1.31
   0  -9  16   13.25    1.29
  -1   9 -16    0.71    0.38
  -2   9 -16    2.84    0.71
  -3   9 -16    1.88    0.60
  -3  -8  16   33.75    2.86
  -2  -8  16   11.41    1.53
  -1  -8  16   15.98    1.55
   0  -8  16    0.00    0.23
  -1   8 -16    0.18    0.28
   1  -8  16    0.36    0.28
  -2   8 -16    0.11    0.31
  -3   8 -16   15.21    1.56
  -3  -7  16   16.84    1.83
  -2  -7  16   25.23    2.22
  -1  -7  16    9.27    1.26
   0  -7  16    2.22    0.56
  -1   7 -16    0.93    0.34
  -1   7 -16    1.01    0.48
   1  -7  16    0.97    0.37
  -2   7 -16    4.95    0.86
   2  -7  16    5.41    0.80
  -3   7 -16   18.39    1.74
  -4  -6  16   18.00    3.08
  -3  -6  16   11.65    1.64
  -2  -6  16   23.42    2.09
  -1  -6  16    0.44    0.31
   0  -6  16    0.15    0.24
  -1   6 -16    9.91    1.27
   1  -6  16   10.48    1.06
  -2   6 -16   45.30    3.10
   2  -6  16   41.63    2.87
  -3   6 -16   23.12    1.93
   3  -6  16   19.29    1.70
  -4  -5  16   19.61    2.12
  -3  -5  16   26.46    2.42
  -2  -5  16    2.66    0.71
  -2  -5  16    2.04    0.49
  -1  -5  16    0.84    0.41
  -1  -5  16    0.61    0.29
   0  -5  16   22.89    1.87
   0  -5  16   24.14    1.64
  -1   5 -16   23.21    2.13
   1  -5  16   25.34    1.90
  -2   5 -16   49.78    3.19
   2  -5  16   40.45    2.94
  -3   5 -16   50.73    3.35
   3  -5  16   42.53    3.15
  -4   5 -16   18.14    1.96
  -4  -4  16    9.40    1.55
  -3  -4  16    5.75    1.10
  -3  -4  16    3.79    0.74
  -2  -4  16    2.38    0.66
  -2  -4  16    1.42    0.43
  -1  -4  16    1.74    0.55
  -1  -4  16    1.59    0.42
   0  -4  16    5.74    0.86
   0  -4  16    6.83    0.75
   1  -4  16   48.47    3.21
  -2   4 -16   37.88    2.62
   2  -4  16   32.49    2.48
  -3   4 -16   25.30    2.07
   3  -4  16   23.40    2.03
  -4   4 -16    6.42    1.07
   4  -4  16    8.05    1.28
  -4  -3  16    4.01    1.01
  -3  -3  16    0.42    0.37
  -3  -3  16    0.68    0.37
  -2  -3  16    3.98    0.70
  -2  -3  16    3.74    0.83
  -1  -3  16   32.66    2.51
  -1  -3  16   32.83    2.25
   0  -3  16   36.95    2.52
   0  -3  16   31.37    2.20
   1  -3  16   55.78    3.63
  -2   3 -16   45.21    3.08
   2  -3  16   42.37    3.04
  -3   3 -16   34.88    2.53
   3  -3  16   28.12    2.45
  -4   3 -16   12.03    1.48
  -4  -2  16    0.67    0.53
  -4  -2  16    0.37    0.36
  -3  -2  16    3.61    0.75
  -3  -2  16    2.60    0.76
  -2  -2  16   11.72    1.23
  -2  -2  16   10.24    1.42
  -1  -2  16   11.28    1.07
  -1  -2  16   12.49    1.29
   0  -2  16  100.12    5.77
   0  -2  16   87.29    5.42
   1  -2  16  102.08    5.71
   1  -2  16   96.63    6.00
  -2   2 -16   81.95    5.26
   2  -2  16   76.73    5.03
  -3   2 -16   27.48    2.15
   3  -2  16   21.60    2.07
  -4   2 -16    4.05    0.93
  -4  -1  16    0.13    0.50
  -4  -1  16    0.53    0.40
  -3  -1  16    2.18    0.57
  -3  -1  16    1.37    0.58
  -2  -1  16    6.88    1.12
  -2  -1  16    8.46    1.05
  -1  -1  16   38.03    2.74
  -1  -1  16   47.24    3.10
   0  -1  16   69.58    4.22
   0  -1  16   70.61    4.48
   1  -1  16   38.42    2.38
   1  -1  16   34.30    2.60
   2  -1  16   19.98    1.82
  -3   1 -16    1.98    0.92
   3  -1  16    1.45    0.62
  -4   0  16    4.81    0.94
  -4   0  16    5.30    1.20
  -3   0  16    8.43    1.38
  -3   0  16    8.81    1.19
  -2   0  16   31.05    2.53
  -2   0  16   29.61    2.23
  -1   0  16   72.88    4.74
  -1   0  16   84.33    5.05
   0   0  16   46.10    2.95
   0   0  16   45.25    3.15
   1   0  16   28.41    2.27
   1   0  16   30.74    2.05
   2   0  16    5.35    0.98
   3   0  16    3.22    0.85
  -4   1  16    3.58    1.00
  -3   1  16   12.78    1.74
  -3   1  16   14.04    1.53
  -2   1  16   46.17    3.24
  -2   1  16   50.92    3.58
  -1   1  16   47.40    3.23
  -1   1  16   43.81    3.01
   0   1  16   53.89    3.39
   0   1  16   52.11    3.54
   1   1  16   44.83    2.92
   1   1  16   44.77    3.17
   2   1  16   16.54    1.67
   3   1  16   10.75    2.15
  -4   2  16    1.97    1.11
  -3   2  16   13.98    1.55
  -3   2  16   11.95    1.71
  -2   2  16   32.66    2.65
  -2   2  16   33.06    2.45
  -1   2  16   49.28    3.28
  -1   2  16   43.26    3.08
   0   2  16   39.08    2.61
   0   2  16   36.25    2.69
   1   2  16   11.36    1.25
   1   2  16   10.35    1.16
   2   2  16   11.70    1.52
   2   2  16   10.65    1.19
  -3   3  16   26.87    2.55
  -3   3  16   34.45    2.50
  -2   3  16   31.45    2.63
  -2   3  16   34.57    2.50
  -1   3  16   22.21    1.91
  -1   3  16   25.23    2.06
  -1   3  16   28.16    2.22
   0   3  16   28.49    2.21
   0   3  16   27.71    2.20
   0   3  16   28.36    2.13
   1   3  16    9.57    1.29
   1   3  16    9.42    1.12
   2   3  16    2.28    0.72
   2   3  16    2.98    0.64
  -3   4  16   20.10    2.05
  -2   4  16   36.50    3.09
  -2   4  16   41.75    3.11
  -2   4  16   40.53    2.91
  -1   4  16   45.44    3.14
  -1   4  16   47.68    3.38
  -1   4  16   43.09    3.16
   0   4  16   16.92    1.57
   0   4  16   18.92    1.66
   1   4  16    2.86    0.74
   1   4  16    5.22    0.85
   2   4  16    2.52    0.61
  -3   5  16   20.25    2.98
  -2   5  16   24.21    2.31
  -2   5  16   26.62    2.27
  -2   5  16   22.08    2.75
  -1   5  16   15.39    1.58
  -1   5  16   18.77    1.85
  -1   5  16   20.37    1.74
   0   5  16    4.12    0.80
   0   5  16    2.67    0.68
   1   5  16    0.44    0.45
   1   5  16    0.13    0.34
  -1   6  16    5.83    1.02
  -1   6  16    7.89    1.30
   0   6  16    0.23    0.40
   0  12 -17   36.19    2.89
   1  11 -17   41.48    3.21
   0  11 -17   24.33    2.15
  -3 -10  17    7.74    1.43
  -2 -10  17   21.64    2.08
   0  10 -17   14.43    1.50
  -3  -9  17   18.27    1.99
  -2  -9  17   32.92    2.73
  -1  -9  17   30.66    2.46
   0   9 -17   27.47    2.24
   0  -9  17   29.41    2.69
  -2   9 -17   27.67    2.49
  -3   9 -17    1.96    0.68
  -3  -8  17   30.55    2.74
  -2  -8  17   38.11    3.03
  -1  -8  17   35.69    2.75
   0  -8  17   47.63    3.30
   1  -8  17   49.37    3.30
  -2   8 -17   12.24    1.54
  -3   8 -17    1.07    0.49
  -3  -7  17   24.11    2.34
  -2  -7  17   33.91    2.78
  -1  -7  17   32.82    2.59
   0  -7  17   27.68    2.20
   1  -7  17   10.71    1.11
  -2   7 -17    2.49    0.65
   2  -7  17    2.47    0.61
  -3   7 -17    1.05    0.49
  -3  -6  17   31.73    2.80
  -2  -6  17   27.38    2.39
  -1  -6  17   36.05    2.77
   0  -6  17   24.77    2.02
   1  -6  17   22.44    1.80
  -2   6 -17    0.03    0.27
   2  -6  17    0.29    0.30
  -3   6 -17    1.53    0.57
   3  -6  17    2.40    0.77
  -3  -5  17   39.62    3.26
  -2  -5  17   49.74    3.20
  -2  -5  17   45.17    3.51
  -1  -5  17   42.89    3.04
  -1  -5  17   37.23    2.61
   0  -5  17   33.99    2.49
   0  -5  17   32.08    2.51
   1  -5  17    4.67    0.80
  -2   5 -17   -0.16    0.24
   2  -5  17    0.25    0.32
  -3   5 -17    2.48    0.66
   3  -5  17    3.93    0.80
  -3  -4  17   31.48    2.54
  -3  -4  17   38.59    3.06
  -2  -4  17   33.10    2.46
  -2  -4  17   36.71    2.88
  -1  -4  17   23.20    2.04
  -1  -4  17   23.74    1.78
   0  -4  17   22.19    1.57
   0  -4  17   20.52    1.78
   1  -4  17    1.34    0.45
   2  -4  17    5.48    0.89
  -3   4 -17    7.79    1.15
   3  -4  17    6.41    1.07
  -3  -3  17   19.94    1.85
  -3  -3  17   26.95    2.37
  -2  -3  17   16.07    1.45
  -2  -3  17   16.60    1.73
  -1  -3  17   16.21    1.62
  -1  -3  17   17.45    1.41
   0  -3  17    1.54    0.46
   0  -3  17    1.43    0.38
   1  -3  17    1.22    0.44
   2  -3  17   17.02    1.59
  -3   3 -17   13.01    1.39
   3  -3  17   11.33    1.48
  -3  -2  17   15.92    1.56
  -3  -2  17   18.24    1.93
  -2  -2  17   13.12    1.39
  -2  -2  17   10.37    1.48
  -1  -2  17    4.49    0.86
  -1  -2  17    4.23    0.68
   0  -2  17    6.82    0.83
   0  -2  17    7.17    1.03
   1  -2  17   16.01    1.48
   2  -2  17   10.43    1.33
   3  -2  17   19.62    1.89
  -3  -1  17   10.89    1.36
  -3  -1  17    9.65    1.53
  -2  -1  17    2.92    0.64
  -2  -1  17    3.20    0.80
  -1  -1  17    1.73    0.54
  -1  -1  17    2.46    0.51
   0  -1  17    3.79    0.73
   0  -1  17    2.02    0.45
   1  -1  17   14.96    1.25
   1  -1  17   17.16    1.55
   2  -1  17   20.94    1.90
   3  -1  17   35.34    2.87
  -3   0  17    1.18    0.45
  -3   0  17    1.81    0.72
  -2   0  17    0.43    0.39
  -2   0  17    0.57    0.35
  -1   0  17    0.74    0.33
  -1   0  17    0.37    0.32
   0   0  17   29.01    2.19
   0   0  17   23.60    1.88
   1   0  17   20.68    1.52
   1   0  17   17.49    1.68
   2   0  17   31.42    2.56
  -3   1  17    0.24    0.45
  -3   1  17    0.16    0.34
  -2   1  17    3.17    0.80
  -2   1  17    3.87    0.72
  -1   1  17    7.91    1.16
  -1   1  17    8.72    1.08
   0   1  17   23.38    1.92
   0   1  17   20.63    1.70
   1   1  17   28.57    2.08
   1   1  17   29.33    2.33
   2   1  17   39.61    3.07
  -3   2  17    1.14    0.48
  -3   2  17    1.39    0.69
  -2   2  17    0.06    0.28
  -2   2  17    0.22    0.38
  -1   2  17   11.80    1.30
  -1   2  17   11.23    1.30
   0   2  17   24.94    1.88
   0   2  17   22.46    1.97
   1   2  17   47.39    3.25
   1   2  17   51.68    3.54
   2   2  17   17.14    1.78
  -3   3  17   -0.33    0.39
  -2   3  17    4.38    0.98
  -2   3  17    2.10    0.64
  -1   3  17   21.99    1.89
  -1   3  17   23.86    2.01
   0   3  17   39.77    2.85
   0   3  17   35.32    2.67
   1   3  17   21.23    1.78
   1   3  17   21.42    1.94
  -2   4  17   28.07    2.45
  -2   4  17   28.24    3.28
  -1   4  17   36.30    2.86
  -1   4  17   33.87    2.61
  -1   4  17   35.28    2.70
   0   4  17   34.78    2.62
   0   4  17   36.10    2.72
   1   4  17   24.70    2.06
   1   4  17   27.17    2.64
  -2   5  17   21.23    2.05
  -1   5  17   29.61    2.60
  -1   5  17   31.72    2.50
   0   5  17   34.19    2.71
   0  12 -18    3.06    0.85
   1  11 -18    0.32    0.46
   0  11 -18    6.45    1.18
  -2 -10  18   -0.07    0.45
   0  10 -18   11.85    1.54
  -2  -9  18    1.04    0.60
  -1  -9  18    3.91    0.85
  -3   9 -18   17.58    2.28
  -3  -8  18    1.50    0.72
  -2  -8  18    4.36    1.01
  -1  -8  18   10.66    1.43
   0  -8  18   18.21    1.70
   1  -8  18   25.86    2.13
  -3   8 -18   20.04    1.92
  -3  -7  18    4.97    1.17
  -2  -7  18    9.02    1.40
  -1  -7  18   20.43    1.93
   0  -7  18   39.09    2.90
   1  -7  18   28.25    2.18
   2  -7  18   27.68    2.35
  -3   7 -18   13.12    1.65
  -3  -6  18    1.48    0.68
  -2  -6  18   10.87    1.57
  -1  -6  18   20.93    1.94
   0  -6  18   48.68    3.41
   1  -6  18   34.27    2.52
   2  -6  18   15.77    1.47
  -3   6 -18   12.87    1.62
  -3  -5  18    6.86    1.29
  -2  -5  18   18.07    1.87
  -2  -5  18   15.80    1.47
  -1  -5  18   44.90    3.33
  -1  -5  18   44.79    2.95
   0  -5  18   38.82    2.85
   1  -5  18   33.04    2.48
   2  -5  18   25.42    2.03
   3  -5  18   11.75    1.44
  -3  -4  18    7.88    1.12
  -3  -4  18    9.34    1.54
  -2  -4  18   30.25    2.58
  -2  -4  18   27.19    2.15
  -1  -4  18   75.35    4.70
  -1  -4  18   78.64    5.12
   0  -4  18   45.63    3.19
   0  -4  18   43.79    3.19
   1  -4  18   20.50    1.78
   2  -4  18    5.56    0.93
   3  -4  18    6.22    1.05
  -3  -3  18   33.46    2.94
  -3  -3  18   33.14    2.55
  -2  -3  18   78.88    4.97
  -2  -3  18   79.97    5.40
  -1  -3  18   38.36    2.71
  -1  -3  18   42.15    3.09
   0  -3  18   22.22    1.91
   0  -3  18   22.95    1.68
   1  -3  18   18.43    1.66
   2  -3  18   15.05    1.50
   3  -3  18    0.49    0.47
  -3  -2  18   36.42    2.70
  -3  -2  18   33.63    3.00
  -2  -2  18   48.90    3.53
  -2  -2  18   40.92    3.04
  -1  -2  18   36.70    2.73
  -1  -2  18   30.70    2.33
   0  -2  18   32.26    2.48
   0  -2  18   31.38    2.20
   1  -2  18   10.65    1.19
   2  -2  18    9.30    1.28
  -3  -1  18   29.35    2.37
  -3  -1  18   28.49    2.66
  -2  -1  18   27.27    2.37
  -2  -1  18   22.71    1.96
  -1  -1  18   13.12    1.27
  -1  -1  18   14.92    1.52
   0  -1  18    8.08    0.96
   0  -1  18    8.12    1.18
   1  -1  18   10.40    1.31
   2  -1  18    0.29    0.37
  -3   0  18   31.95    2.85
  -3   0  18   30.85    2.50
  -2   0  18   32.09    2.61
  -2   0  18   25.84    2.18
  -1   0  18   16.12    1.57
  -1   0  18   13.28    1.31
   0   0  18    3.17    0.60
   0   0  18    2.68    0.68
   1   0  18    2.33    0.53
   1   0  18    2.11    0.62
   2   0  18    7.65    1.21
  -3   1  18   23.06    2.33
  -2   1  18   13.68    1.52
  -2   1  18   15.75    1.69
  -1   1  18    6.08    1.05
  -1   1  18    6.65    0.96
   0   1  18   14.37    1.33
   0   1  18   14.53    1.50
   1   1  18    1.97    0.61
   1   1  18    1.64    0.47
  -2   2  18    1.33    0.59
  -2   2  18    2.01    0.59
  -1   2  18   -0.11    0.26
  -1   2  18    0.07    0.36
   0   2  18    0.58    0.37
   0   2  18   -0.03    0.35
   1   2  18    1.82    0.52
   1   2  18    2.59    0.71
  -2   3  18    2.30    0.77
  -1   3  18    4.74    0.86
  -1   3  18    4.02    0.87
   0   3  18    1.07    0.56
   0   3  18    1.50    0.49
   1   3  18   13.39    1.48
  -1   4  18    0.69    0.54
   0  11 -19   20.80    1.97
   0  10 -19    5.13    1.01
  -2  -9  19   21.45    2.18
  -1  -9  19    7.19    1.21
  -2  -8  19   27.49    2.55
  -1  -8  19   16.55    1.75
   0  -8  19   -0.01    0.33
  -2  -7  19    4.87    1.06
  -1  -7  19    0.02    0.33
   0  -7  19    9.60    1.35
   1  -7  19    5.62    0.94
  -2  -6  19    4.94    1.10
  -1  -6  19    6.00    1.10
   0  -6  19   10.35    1.38
   1  -6  19   16.23    1.54
   2  -6  19   17.73    1.63
  -3  -5  19    3.69    1.19
  -2  -5  19   -0.13    0.27
  -2  -5  19   -0.04    0.43
  -1  -5  19    8.81    1.05
  -1  -5  19    8.95    1.36
   0  -5  19    2.16    0.62
   1  -5  19    4.96    0.89
   2  -5  19   22.48    1.92
   3  -5  19    9.18    1.30
  -3  -4  19    1.89    0.60
  -3  -4  19    1.33    0.71
  -2  -4  19    5.60    1.11
  -2  -4  19    4.73    0.81
  -1  -4  19    1.47    0.48
  -1  -4  19    2.22    0.69
   0  -4  19   11.82    1.47
   1  -4  19   26.48    2.20
   2  -4  19   25.79    2.15
  -3  -3  19    0.10    0.45
  -3  -3  19    0.39    0.39
  -2  -3  19    5.11    0.86
  -2  -3  19    2.80    0.84
  -1  -3  19   12.44    1.34
  -1  -3  19   11.41    1.53
   0  -3  19   32.75    2.56
   1  -3  19   61.79    4.16
   2  -3  19   30.09    2.43
  -3  -2  19    2.03    0.62
  -2  -2  19   10.24    1.27
  -2  -2  19   10.14    1.53
  -1  -2  19   45.01    3.21
  -1  -2  19   36.39    2.73
   0  -2  19   45.64    3.01
   0  -2  19   45.77    3.31
   1  -2  19   27.73    2.28
   2  -2  19   19.59    1.87
  -2  -1  19   21.25    1.90
  -2  -1  19   24.82    2.29
  -1  -1  19   21.18    2.00
  -1  -1  19   20.48    1.72
   0  -1  19   38.93    2.95
   0  -1  19   38.87    2.67
   1  -1  19   28.88    2.36
   2  -1  19   14.08    2.24
  -2   0  19   31.48    2.68
  -2   0  19   27.40    2.28
  -1   0  19   35.01    2.59
  -1   0  19   37.48    2.89
   0   0  19   26.00    2.19
   0   0  19   23.55    1.89
   1   0  19   12.37    1.40
  -2   1  19   26.76    2.29
  -2   1  19   32.19    2.68
  -1   1  19   33.75    2.63
  -1   1  19   28.30    2.32
   0   1  19   28.02    2.14
   0   1  19   27.49    2.35
   1   1  19   26.18    2.44
  -1   2  19   16.53    1.62
  -1   2  19   20.25    1.89
   0   2  19   18.00    1.75
   0   2  19   14.95    1.49
   1   2  19    5.74    0.92
   0  10 -20   43.57    4.22
  -2  -9  20   18.63    2.31
  -1  -9  20   29.72    2.58
  -2  -8  20   22.38    2.29
  -1  -8  20   38.01    3.07
   0  -8  20   20.73    1.95
  -2  -7  20   28.71    2.64
  -1  -7  20   35.06    2.90
   0  -7  20   12.00    1.54
   1  -7  20    7.59    1.16
  -2  -6  20   30.16    2.75
  -1  -6  20   16.56    1.78
   0  -6  20    8.52    1.31
   1  -6  20    3.03    0.72
   2  -6  20    0.87    0.53
  -2  -5  20   19.54    2.06
  -2  -5  20   16.83    1.59
  -1  -5  20   12.54    1.72
   0  -5  20    3.91    0.84
   1  -5  20   -0.24    0.30
   2  -5  20    2.14    0.67
  -2  -4  20   16.61    1.55
  -2  -4  20   15.81    2.06
  -1  -4  20    4.75    1.01
  -1  -4  20    4.31    0.78
   0  -4  20    0.50    0.43
   1  -4  20    5.00    0.94
   2  -4  20    0.34    0.43
  -2  -3  20    6.70    1.28
  -2  -3  20    6.41    1.00
  -1  -3  20    3.39    0.86
  -1  -3  20    3.41    0.69
   0  -3  20    2.19    0.66
   1  -3  20    2.51    0.72
  -2  -2  20    5.32    0.93
  -2  -2  20    5.20    1.16
  -1  -2  20    2.15    0.71
  -1  -2  20    2.68    0.61
   0  -2  20    9.36    1.32
   1  -2  20    3.13    0.79
  -2  -1  20    0.59    0.39
  -2  -1  20    0.68    0.60
  -1  -1  20    2.73    0.63
  -1  -1  20    1.46    0.60
   0  -1  20   17.22    1.69
   0  -1  20   13.66    1.35
   1  -1  20   23.98    2.28
  -2   0  20    0.14    0.39
  -1   0  20   13.88    1.71
  -1   0  20   11.47    1.36
   0   0  20    8.51    1.33
   0   0  20   10.88    1.22
  -1   1  20   10.39    1.31
   0   1  20   26.18    2.08
  -1  -9  21    2.46    0.86
  -1  -8  21   13.70    1.88
   0  -8  21   15.93    1.71
  -1  -7  21   22.75    2.23
   0  -7  21   25.96    2.33
   1  -7  21   27.83    2.33
  -1  -6  21   33.14    2.84
   0  -6  21   32.02    2.66
   1  -6  21   28.26    2.37
  -2  -5  21   24.19    2.02
  -1  -5  21   14.95    1.95
   0  -5  21   19.88    1.94
   1  -5  21   15.79    1.62
  -2  -4  21   18.62    1.71
  -1  -4  21   20.95    2.11
   0  -4  21   27.20    2.38
   1  -4  21    5.22    1.00
  -2  -3  21   13.10    1.54
  -1  -3  21   31.83    2.76
  -1  -3  21   30.31    2.34
   0  -3  21   19.31    1.91
  -2  -2  21   21.98    2.01
  -1  -2  21   19.83    1.73
   0  -2  21   11.27    2.00
  -1  -1  21   14.66    1.57
  -1   0  21    2.26    0.66
   0  -8  22    0.33    0.56
   0  -7  22    0.21    0.49
   0   0   0    0.00    0.00
;
_shelx_hkl_checksum              14934
loop_
_space_group_symop_operation_xyz
'x, y, z'
'-x, -y, -z'
loop_
_atom_site_label
_atom_site_type_symbol
_atom_site_fract_x
_atom_site_fract_y
_atom_site_fract_z
_atom_site_U_iso_or_equiv
_atom_site_adp_type
_atom_site_occupancy
_atom_site_site_symmetry_order
_atom_site_calc_flag
_atom_site_refinement_flags_posn
_atom_site_refinement_flags_adp
_atom_site_refinement_flags_occupancy
_atom_site_disorder_assembly
_atom_site_disorder_group
I1 I 0.94874(5) 0.96352(2) 0.15634(2) 0.01387(7) Uani 1 1 d . . . . .
O1 O 1.2673(7) 1.1115(3) 0.2665(2) 0.0196(5) Uani 1 1 d . . . . .
O2 O 0.9763(9) 1.2877(3) 0.2577(2) 0.0286(7) Uani 1 1 d . . . . .
O3 O 0.6281(7) 0.7859(3) 0.07119(18) 0.0184(5) Uani 1 1 d . . . . .
O4 O 0.7522(11) 0.8559(4) -0.0505(2) 0.0428(10) Uani 1 1 d . . . . .
C1 C 0.9252(9) 0.8543(4) 0.2539(2) 0.0158(6) Uani 1 1 d . . . . .
C2 C 0.8012(10) 0.9178(4) 0.3396(3) 0.0190(7) Uani 1 1 d . . . . .
H2 H 0.7227 1.0081 0.3535 0.023 Uiso 1 1 calc R U . . .
C3 C 0.7960(10) 0.8445(4) 0.4043(3) 0.0224(7) Uani 1 1 d . . . . .
H3 H 0.7143 0.8851 0.4638 0.027 Uiso 1 1 calc R U . . .
C4 C 0.9102(11) 0.7120(4) 0.3820(3) 0.0229(8) Uani 1 1 d . . . . .
H4 H 0.9066 0.6627 0.4266 0.027 Uiso 1 1 calc R U . . .
C5 C 1.0289(10) 0.6512(4) 0.2957(3) 0.0225(7) Uani 1 1 d . . . . .
H5 H 1.1017 0.5597 0.2810 0.027 Uiso 1 1 calc R U . . .
C6 C 1.0428(10) 0.7225(4) 0.2301(3) 0.0192(7) Uani 1 1 d . . . . .
H6 H 1.1293 0.6827 0.1712 0.023 Uiso 1 1 calc R U . . .
C7 C 1.1933(9) 1.2412(4) 0.2922(2) 0.0149(6) Uani 1 1 d . . . . .
C8 C 1.4118(9) 1.3415(4) 0.3763(3) 0.0183(7) Uani 1 1 d . . . . .
H8 H 1.5779 1.3957 0.3533 0.022 Uiso 1 1 calc R U . . .
C9 C 0.6078(10) 0.7768(4) -0.0171(3) 0.0176(6) Uani 1 1 d . . . . .
C10 C 0.3812(9) 0.6535(4) -0.0822(2) 0.0193(7) Uani 1 1 d D . . . .
H10A H 0.2531 0.6845 -0.1257 0.023 Uiso 0.65 1 d R U P A 1
H10B H 0.2039 0.6897 -0.1076 0.023 Uiso 0.35 1 d R U P B 2
F1 F 1.5535(7) 1.2696(3) 0.42802(18) 0.0273(5) Uani 1 1 d . . . . .
F2 F 1.2241(7) 1.4310(3) 0.43346(18) 0.0281(6) Uani 1 1 d . . . . .
F3 F 0.1959(17) 0.5931(8) -0.0321(6) 0.0257(14) Uani 0.65 1 d D U P C 1
F4 F 0.563(2) 0.5554(7) -0.1326(5) 0.0335(16) Uani 0.65 1 d D U P C 1
F3' F 0.277(3) 0.5642(14) -0.0379(12) 0.031(3) Uani 0.35 1 d D U P C 2
F4' F 0.547(4) 0.5832(14) -0.1551(8) 0.031(3) Uani 0.35 1 d D U P C 2
loop_
_atom_site_aniso_label
_atom_site_aniso_U_11
_atom_site_aniso_U_22
_atom_site_aniso_U_33
_atom_site_aniso_U_23
_atom_site_aniso_U_13
_atom_site_aniso_U_12
I1 0.01673(12) 0.00868(10) 0.01578(11) 0.00354(7) 0.00185(7) 0.00001(7)
O1 0.0193(13) 0.0087(10) 0.0279(14) 0.0030(9) -0.0024(10) 0.0011(9)
O2 0.0404(18) 0.0170(13) 0.0246(14) 0.0031(11) -0.0115(13) 0.0075(12)
O3 0.0240(14) 0.0147(11) 0.0142(11) 0.0031(9) -0.0002(9) -0.0041(10)
O4 0.069(3) 0.0341(18) 0.0215(15) 0.0126(13) -0.0053(16) -0.0283(18)
C1 0.0193(16) 0.0112(13) 0.0159(14) 0.0040(11) -0.0002(12) -0.0004(12)
C2 0.0242(18) 0.0128(14) 0.0183(16) 0.0025(12) 0.0032(13) 0.0014(13)
C3 0.028(2) 0.0191(17) 0.0187(16) 0.0041(13) 0.0034(14) -0.0009(14)
C4 0.030(2) 0.0180(16) 0.0205(17) 0.0077(13) -0.0006(14) -0.0034(14)
C5 0.027(2) 0.0133(15) 0.0270(19) 0.0074(13) 0.0000(15) 0.0010(14)
C6 0.0276(19) 0.0096(14) 0.0181(16) 0.0012(12) 0.0016(13) 0.0030(13)
C7 0.0193(16) 0.0113(13) 0.0146(14) 0.0045(11) 0.0034(12) 0.0009(12)
C8 0.0202(17) 0.0116(14) 0.0216(16) 0.0039(12) -0.0004(13) -0.0002(12)
C9 0.0236(18) 0.0130(14) 0.0152(15) 0.0037(12) 0.0007(12) -0.0004(12)
C10 0.0199(17) 0.0205(16) 0.0161(15) 0.0048(13) 0.0001(12) -0.0002(13)
F1 0.0355(14) 0.0184(11) 0.0250(12) 0.0057(9) -0.0117(10) 0.0004(10)
F2 0.0287(13) 0.0197(11) 0.0265(12) -0.0056(9) -0.0027(10) 0.0056(10)
F3 0.028(3) 0.025(3) 0.023(2) 0.010(2) -0.002(2) -0.010(2)
F4 0.029(3) 0.017(3) 0.045(4) -0.005(2) 0.007(3) 0.0051(19)
F3' 0.039(7) 0.023(5) 0.031(5) 0.012(4) -0.008(5) -0.009(4)
F4' 0.037(5) 0.021(5) 0.025(5) -0.009(4) 0.003(4) 0.001(4)
loop_
_atom_type_symbol
_atom_type_description
_atom_type_scat_dispersion_real
_atom_type_scat_dispersion_imag
_atom_type_scat_source
C C 0.0033 0.0016 'International Tables Vol C Tables 4.2.6.8 and 6.1.1.4'
H H 0.0000 0.0000 'International Tables Vol C Tables 4.2.6.8 and 6.1.1.4'
O O 0.0106 0.0060 'International Tables Vol C Tables 4.2.6.8 and 6.1.1.4'
F F 0.0171 0.0103 'International Tables Vol C Tables 4.2.6.8 and 6.1.1.4'
I I -0.4742 1.8119 'International Tables Vol C Tables 4.2.6.8 and 6.1.1.4'
loop_
_geom_angle_atom_site_label_1
_geom_angle_atom_site_label_2
_geom_angle_atom_site_label_3
_geom_angle
C1 I1 O1 83.18(12)
C1 I1 O3 82.20(12)
O1 I1 O3 165.37(11)
C7 O1 I1 115.5(2)
C9 O3 I1 112.0(2)
C2 C1 C6 123.4(3)
C2 C1 I1 118.8(3)
C6 C1 I1 117.8(3)
C1 C2 C3 117.7(3)
C4 C3 C2 120.1(4)
C5 C4 C3 120.7(4)
C4 C5 C6 120.7(4)
C1 C6 C5 117.4(3)
O2 C7 O1 127.0(3)
O2 C7 C8 119.1(3)
O1 C7 C8 113.9(3)
F1 C8 F2 107.2(3)
F1 C8 C7 111.1(3)
F2 C8 C7 107.7(3)
O4 C9 O3 125.5(4)
O4 C9 C10 119.5(3)
O3 C9 C10 115.0(3)
F4 C10 F3 108.0(5)
F3' C10 F4' 109.0(9)
F3' C10 C9 112.4(8)
F4 C10 C9 107.7(5)
F3 C10 C9 111.6(5)
F4' C10 C9 107.3(8)
loop_
_geom_bond_atom_site_label_1
_geom_bond_atom_site_label_2
_geom_bond_distance
I1 C1 2.093(4)
I1 O1 2.151(3)
I1 O3 2.155(3)
O1 C7 1.301(4)
O2 C7 1.212(5)
O3 C9 1.294(4)
O4 C9 1.215(5)
C1 C2 1.388(5)
C1 C6 1.391(5)
C2 C3 1.394(6)
C3 C4 1.391(6)
C4 C5 1.382(6)
C5 C6 1.391(6)
C7 C8 1.539(5)
C8 F1 1.355(4)
C8 F2 1.360(4)
C9 C10 1.533(5)
C10 F3' 1.341(9)
C10 F4 1.351(6)
C10 F3 1.355(6)
C10 F4' 1.359(9)
loop_
_geom_torsion_atom_site_label_1
_geom_torsion_atom_site_label_2
_geom_torsion_atom_site_label_3
_geom_torsion_atom_site_label_4
_geom_torsion
C6 C1 C2 C3 0.0(6)
I1 C1 C2 C3 -178.3(3)
C1 C2 C3 C4 -0.5(6)
C2 C3 C4 C5 -0.2(6)
C3 C4 C5 C6 1.3(6)
C2 C1 C6 C5 1.0(6)
I1 C1 C6 C5 179.4(3)
C4 C5 C6 C1 -1.7(6)
I1 O1 C7 O2 -4.1(5)
I1 O1 C7 C8 175.5(2)
O2 C7 C8 F1 156.6(4)
O1 C7 C8 F1 -23.1(5)
O2 C7 C8 F2 39.4(5)
O1 C7 C8 F2 -140.2(3)
I1 O3 C9 O4 1.0(6)
I1 O3 C9 C10 -179.5(2)
O4 C9 C10 F3' 170.7(7)
O3 C9 C10 F3' -8.9(8)
O4 C9 C10 F4 73.4(6)
O3 C9 C10 F4 -106.1(5)
O4 C9 C10 F3 -168.3(5)
O3 C9 C10 F3 12.1(6)
O4 C9 C10 F4' 50.8(8)
O3 C9 C10 F4' -128.7(6)
