#------------------------------------------------------------------------------
#$Date: 2019-11-25 11:00:53 +0200 (Mon, 25 Nov 2019) $
#$Revision: 240720 $
#$URL: file:///home/coder/svn-repositories/cod/cif/4/13/01/4130167.cif $
#------------------------------------------------------------------------------
#
# This file is available in the Crystallography Open Database (COD),
# http://www.crystallography.net/
#
# All data on this site have been placed in the public domain by the
# contributors.
#
data_4130167
loop_
_publ_author_name
'Garza, Victoria J.'
'Krische, Michael J.'
_publ_section_title
;
 Hydroxymethylation beyond Carbonylation: Enantioselective
 Iridium-Catalyzed Reductive Coupling of Formaldehyde with Allylic
 Acetates via Enantiotopic \p-Facial Discrimination.
;
_journal_issue                   11
_journal_name_full               'Journal of the American Chemical Society'
_journal_page_first              3655
_journal_page_last               3658
_journal_paper_doi               10.1021/jacs.6b01078
_journal_volume                  138
_journal_year                    2016
_chemical_absolute_configuration ad
_chemical_formula_moiety         'C11 H11 Br O2'
_chemical_formula_sum            'C11 H11 Br O2'
_chemical_formula_weight         255.11
_space_group_crystal_system      monoclinic
_space_group_IT_number           4
_space_group_name_Hall           'P 2yb'
_space_group_name_H-M_alt        'P 1 21 1'
_atom_sites_solution_hydrogens   geom
_audit_creation_method           SHELXL-2014/7
_cell_angle_alpha                90
_cell_angle_beta                 100.618(10)
_cell_angle_gamma                90
_cell_formula_units_Z            2
_cell_length_a                   8.205(2)
_cell_length_b                   7.412(2)
_cell_length_c                   8.636(3)
_cell_measurement_reflns_used    1837
_cell_measurement_temperature    100(2)
_cell_measurement_theta_max      27.5
_cell_measurement_theta_min      2.40
_cell_volume                     516.2(3)
_computing_cell_refinement       'CrystalClear (Rigaku Inc., 2008)'
_computing_data_collection       'CrystalClear (Rigaku Inc., 2008)'
_computing_data_reduction        'CrystalClear (Rigaku Inc., 2008)'
_computing_molecular_graphics    'XP SHELXTL/PC, Siemens Analytical'
_computing_publication_material  'XP SHELXTL/PC, Siemens Analytical'
_computing_structure_refinement  'SHELXL-2014/7 (Sheldrick, 2015)'
_computing_structure_solution
;

Sir2004.  Burla M.C., Caliandro, R., Camalli M., Carrozzini, B., Cascarano G.L., 
De Caro, L., Giacovazzo C., Polidori G., Spagna R. 
;
_diffrn_ambient_temperature      100(2)
_diffrn_measured_fraction_theta_full 0.998
_diffrn_measured_fraction_theta_max 0.998
_diffrn_measurement_device_type  'Rigaku AFC-12 with Saturn 724+ CCD'
_diffrn_measurement_method       \w-scans
_diffrn_radiation_type           MoK\a
_diffrn_radiation_wavelength     0.71073
_diffrn_reflns_av_R_equivalents  0.0381
_diffrn_reflns_av_unetI/netI     0.0418
_diffrn_reflns_Laue_measured_fraction_full 0.998
_diffrn_reflns_Laue_measured_fraction_max 0.998
_diffrn_reflns_limit_h_max       10
_diffrn_reflns_limit_h_min       -10
_diffrn_reflns_limit_k_max       9
_diffrn_reflns_limit_k_min       -9
_diffrn_reflns_limit_l_max       11
_diffrn_reflns_limit_l_min       -11
_diffrn_reflns_number            7853
_diffrn_reflns_point_group_measured_fraction_full 0.999
_diffrn_reflns_point_group_measured_fraction_max 0.998
_diffrn_reflns_theta_full        25.242
_diffrn_reflns_theta_max         27.410
_diffrn_reflns_theta_min         3.147
_diffrn_source                   'sealed fine focus tube'
_exptl_absorpt_coefficient_mu    3.951
_exptl_absorpt_correction_T_max  1.00
_exptl_absorpt_correction_T_min  0.667
_exptl_absorpt_correction_type   multi-scan
_exptl_absorpt_process_details
;
Abscor. T. Higashi (2001). The Rigaku Corporation, Tokyo, Japan.
;
_exptl_crystal_colour            colorless
_exptl_crystal_density_diffrn    1.641
_exptl_crystal_description       prism
_exptl_crystal_F_000             256
_exptl_crystal_size_max          0.210
_exptl_crystal_size_mid          0.140
_exptl_crystal_size_min          0.070
_refine_diff_density_max         0.560
_refine_diff_density_min         -0.399
_refine_diff_density_rms         0.066
_refine_ls_abs_structure_details
;
 Refined as an inversion twin.
;
_refine_ls_abs_structure_Flack   0.010(11)
_refine_ls_extinction_method     none
_refine_ls_goodness_of_fit_ref   1.047
_refine_ls_hydrogen_treatment    constr
_refine_ls_matrix_type           full
_refine_ls_number_parameters     128
_refine_ls_number_reflns         2332
_refine_ls_number_restraints     1
_refine_ls_restrained_S_all      1.047
_refine_ls_R_factor_all          0.0229
_refine_ls_R_factor_gt           0.0220
_refine_ls_shift/su_max          0.001
_refine_ls_shift/su_mean         0.000
_refine_ls_structure_factor_coef Fsqd
_refine_ls_weighting_details
'w=1/[\s^2^(Fo^2^)+(0.0249P)^2^] where P=(Fo^2^+2Fc^2^)/3'
_refine_ls_weighting_scheme      calc
_refine_ls_wR_factor_gt          0.0531
_refine_ls_wR_factor_ref         0.0535
_reflns_Friedel_coverage         0.858
_reflns_Friedel_fraction_full    1.000
_reflns_Friedel_fraction_max     0.999
_reflns_number_gt                2250
_reflns_number_total             2332
_reflns_threshold_expression     'I > 2\s(I)'
_cod_data_source_file            ja6b01078_si_001.cif
_cod_data_source_block           shelx
_cod_original_sg_symbol_H-M      'P 21'
_cod_database_code               4130167
_shelx_shelxl_version_number     2014/7
_shelx_space_group_comment
;
The symmetry employed for this shelxl refinement is uniquely defined
by the following loop, which should always be used as a source of
symmetry information in preference to the above space-group names.
They are only intended as comments.
;
_shelx_estimated_absorpt_t_min   0.491
_shelx_estimated_absorpt_t_max   0.769
_shelx_res_file
;

    shelx.res created by SHELXL-2014/7


TITL SIR2004 run in space group P 21
CELL  0.71073   8.2052   7.4122   8.6362   90.000  100.618   90.000
ZERR     2.00   0.0024   0.0021   0.0025    0.000    0.010    0.000
LATT  -1
SYMM  - X, 1/2 + Y, - Z
SFAC  C    H    O    BR
UNIT  22 22 4 2
MERG   2
TWIN
FMAP   2
PLAN   10
SIZE     0.070   0.140   0.210
ACTA
BOND   $H
CONF
LIST   4
L.S.  10
TEMP  -173.00
WGHT    0.024900
BASF   0.00955
FVAR       0.68952
C1    1   -0.134258    0.852124    0.949427    11.00000    0.02043    0.01547 =
         0.01727    0.00052    0.00492   -0.00072
C2    1   -0.225597    0.941999    0.800301    11.00000    0.01546    0.01778 =
         0.01709    0.00264    0.00355    0.00095
AFIX  23
H2A   2   -0.244342    1.070158    0.824140    11.00000   -1.20000
H2B   2   -0.335691    0.884242    0.770348    11.00000   -1.20000
AFIX   0
C3    1   -0.137530    0.934318    0.657958    11.00000    0.01577    0.01616 =
         0.01272    0.00138    0.00195    0.00053
AFIX  23
H3A   2   -0.155752    0.815144    0.605885    11.00000   -1.20000
H3B   2   -0.182601    1.028434    0.580465    11.00000   -1.20000
AFIX   0
C4    1    0.047898    0.965396    0.716547    11.00000    0.01698    0.01115 =
         0.01302    0.00002    0.00298   -0.00017
AFIX  13
H4A   2    0.062130    1.079566    0.779283    11.00000   -1.20000
AFIX   0
C5    1    0.111644    0.807837    0.826465    11.00000    0.01908    0.02041 =
         0.01247    0.00237    0.00552    0.00279
AFIX  23
H5A   2    0.102263    0.694783    0.764414    11.00000   -1.20000
H5B   2    0.230473    0.827445    0.870599    11.00000   -1.20000
AFIX   0
C6    1    0.152312    0.978080    0.588479    11.00000    0.01734    0.00923 =
         0.01359    0.00356    0.00357    0.00286
C7    1    0.311960    1.051535    0.626664    11.00000    0.01641    0.01723 =
         0.01465    0.00059   -0.00042    0.00036
AFIX  43
H7A   2    0.350698    1.094943    0.730419    11.00000   -1.20000
AFIX   0
C8    1    0.415548    1.062312    0.515211    11.00000    0.01327    0.01886 =
         0.02274    0.00359    0.00330   -0.00076
AFIX  43
H8A   2    0.523532    1.112579    0.542531    11.00000   -1.20000
AFIX   0
C9    1    0.357667    0.998106    0.363579    11.00000    0.02287    0.01564 =
         0.01994    0.00382    0.00994    0.00684
C10   1    0.198623    0.927551    0.320555    11.00000    0.02447    0.01328 =
         0.01465   -0.00014    0.00588    0.00336
AFIX  43
H10A  2    0.159920    0.886377    0.216078    11.00000   -1.20000
AFIX   0
C11   1    0.096088    0.918091    0.433899    11.00000    0.01633    0.01249 =
         0.01557   -0.00055    0.00252   -0.00085
AFIX  43
H11A  2   -0.012787    0.870410    0.405409    11.00000   -1.20000
AFIX   0
O1    3    0.020690    0.787132    0.956139    11.00000    0.02115    0.02432 =
         0.01279    0.00604    0.00504    0.00596
O2    3   -0.194919    0.838448    1.067113    11.00000    0.02837    0.03134 =
         0.01877    0.00692    0.01138    0.00586
BR1   4    0.501759    0.998439    0.212732    11.00000    0.02686    0.02742 =
         0.02554    0.00493    0.01619    0.00535

HKLF    4

REM  SIR2004 run in space group P 21
REM R1 =  0.0220 for    2250 Fo > 4sig(Fo)  and  0.0229 for all    2332 data
REM    128 parameters refined using      1 restraints

END

WGHT      0.0276      0.0000

REM Highest difference peak  0.560,  deepest hole -0.399,  1-sigma level  0.066
Q1    1   0.3770  0.9935  0.1950  11.00000  0.05    0.56
Q2    1   0.6263  1.0014  0.2400  11.00000  0.05    0.52
Q3    1   0.3788  0.9976  0.3266  11.00000  0.05    0.30
Q4    1   0.1351  0.9892  0.5210  11.00000  0.05    0.30
Q5    1   0.5049  0.9955  0.3359  11.00000  0.05    0.29
Q6    1   0.2618  0.9884  0.3410  11.00000  0.05    0.29
Q7    1   0.3832  0.9943  0.4319  11.00000  0.05    0.29
Q8    1   0.4218  0.9878  0.0833  11.00000  0.05    0.28
Q9    1   0.0861  0.9848  0.6402  11.00000  0.05    0.26
Q10   1   0.2376  0.9984  0.6034  11.00000  0.05    0.26
;
_shelx_res_checksum              65826
_shelx_hkl_file
;
   1   0  -1 216.340 8.93000   1
   1   0  -1 210.160 8.33000   1
  -1   0   1 204.690 8.35000   1
  -1   0   1 204.160 8.54000   1
   1   0  -1 214.630 8.27000   1
   1   0  -1 203.780 8.89000   1
  -1   0   1 208.770 9.10000   1
   0   1   1 684.730 37.0600   1
   0  -1   1 606.340 35.2700   1
   0   1   1 683.790 39.2700   1
   0  -1   1 612.000 35.9900   1
   0   1   1 668.750 37.1700   1
   0   1   1 689.880 39.9300   1
   0   1   1 678.050 37.5900   1
   0  -1   1 633.640 37.7300   1
   0  -1   1 539.960 30.7200   1
   0  -1  -1 611.130 33.6100   1
   0   1  -1 668.120 38.4700   1
   0   1  -1 659.720 38.8000   1
   0   1  -1 629.620 35.2400   1
   0  -1  -1 595.590 34.1300   1
   0  -1  -1 601.420 35.1400   1
   0  -1  -1 606.120 34.0000   1
   0   1  -1 743.190 42.7800   1
   1  -1   0 235.380 9.77000   1
   1  -1   0 257.880 10.9000   1
  -1  -1   0 244.360 11.2500   1
   1  -1   0 233.990 9.18000   1
   1   1   0 242.060 10.8600   1
   1   1   0 233.480 10.2700   1
   1   1   0 263.170 12.3100   1
   1  -1   0 238.690 9.83000   1
   1  -1   0 263.550 11.2200   1
  -1   1   0 228.740 8.81000   1
  -1  -1   0 236.130 10.3000   1
  -1  -1   0 250.890 11.0000   1
  -1  -1   0 249.690 11.4200   1
   1   1   0 236.430 10.8900   1
  -1  -1   0 248.220 11.3600   1
   1   1   0 251.460 10.9200   1
  -1   1   0 237.460 10.5100   1
  -1   1   0 229.120 9.49000   1
  -1   1   0 236.440 9.88000   1
  -1   1   0 237.790 10.3200   1
   1   0   1 1.55000 0.69000   1
   1   0   1 1.75000 0.71000   1
  -1   0  -1 2.05000 0.75000   1
  -1   0  -1 1.24000 0.88000   1
  -1   0  -1 0.80000 0.34000   1
   1   0   1 1.03000 0.40000   1
   1  -1  -1 782.120 47.2900   1
   1  -1  -1 840.770 50.2000   1
   1  -1  -1 822.580 48.8400   1
   1   1  -1 776.220 48.7200   1
   1   1  -1 810.850 50.7700   1
   1   1  -1 759.170 47.0600   1
   1  -1  -1 860.560 52.5900   1
   1  -1  -1 825.670 51.5700   1
   1   1  -1 637.930 41.2200   1
   1  -1  -1 840.700 50.7400   1
   1   1  -1 644.560 42.8700   1
  -1   1   1 755.880 47.4500   1
  -1  -1   1 749.730 46.6000   1
  -1   1   1 751.670 45.3900   1
  -1  -1   1 734.470 46.9300   1
  -1   1   1 778.330 47.7700   1
  -1  -1   1 856.720 53.6700   1
  -1  -1   1 812.390 50.7100   1
   1  -1   1 6004.63 924.900   1
   1  -1   1 6456.44 992.350   1
   1   1   1 5958.45 916.200   1
   1  -1   1 6271.50 960.870   1
   1   1   1 6163.75 951.020   1
   1   1   1 6465.43 995.800   1
   1  -1   1 6141.78 942.640   1
  -1  -1  -1 6120.25 940.810   1
  -1  -1  -1 5346.63 827.190   1
  -1   1  -1 5730.67 879.710   1
  -1  -1  -1 6661.47 1026.36   1
  -1  -1  -1 6286.34 966.760   1
   1   1   1 6288.29 967.800   1
   0   0   2 991.840 66.2600   1
   0   0   2 922.120 60.9200   1
   0   0  -2 854.560 57.3600   1
   0   0  -2 847.290 56.2100   1
   1   0  -2 696.260 44.3300   1
   1   0  -2 799.280 49.9700   1
  -1   0   2 834.070 51.7300   1
  -1   0   2 793.220 51.0000   1
  -1   0   2 751.280 46.8600   1
   1   0  -2 767.530 46.3600   1
   2   0   0 950.040 68.6300   1
  -2   0   0 1123.21 80.7900   1
  -2   0   0 1051.47 76.3100   1
  -2   0   0 976.500 67.6400   1
   2   0   0 1061.36 75.6200   1
   2   0   0 1152.01 81.6000   1
   2   0   0 1019.62 70.9000   1
  -2   0   1 86.9400 3.35000   1
   2   0  -1 90.1900 3.46000   1
  -2   0   1 87.5200 4.69000   1
  -2   0   1 91.5200 3.93000   1
  -2   0   1 94.1300 4.74000   1
   2   0  -1 89.6800 4.20000   1
   2   0  -1 89.1200 3.58000   1
   2   0  -1 74.8600 3.88000   1
   0   2   0 6422.75 1036.25   1
   0  -2   0 6909.15 1114.04   1
   0  -2   0 7203.43 1153.04   1
   0  -2   0 6876.18 1106.25   1
   0   2   0 6179.63 993.510   1
   0   2   0 6658.46 1075.28   1
   0   1  -2 535.470 29.2200   1
   0   1   2 544.030 27.8200   1
   0  -1   2 480.010 26.3100   1
   0   1   2 510.190 28.0400   1
   0  -1   2 458.590 24.9600   1
   0   1   2 531.010 28.7200   1
   0  -1   2 458.400 25.6000   1
   0   1   2 471.310 23.6200   1
   0  -1  -2 416.060 22.9100   1
   0  -1  -2 449.500 24.4200   1
   0   1  -2 490.900 25.9800   1
   0  -1  -2 509.450 27.4600   1
   0   1  -2 563.390 29.9000   1
   0  -1  -2 447.520 25.0900   1
  -1  -1   2 328.160 16.4300   1
   1  -1  -2 336.200 16.3000   1
   1  -1  -2 357.710 15.7200   1
   1   1  -2 343.290 17.6900   1
   1   1  -2 332.070 16.1100   1
   1  -1  -2 355.710 17.0900   1
  -1   1   2 353.180 16.6000   1
  -1   1   2 372.520 19.1700   1
  -1   1   2 339.750 17.1500   1
  -1  -1   2 371.940 18.2800   1
  -1  -1   2 341.400 17.3600   1
  -1   1   2 298.710 13.0800   1
   1  -1  -2 335.950 16.9700   1
   1   1  -2 359.340 17.2800   1
   2   1   0 99.6800 4.80000   1
   2  -1   0 93.8600 3.43000   1
   2   1   0 98.0000 4.68000   1
   2  -1   0 100.690 4.33000   1
   2   1   0 106.870 5.11000   1
   2  -1   0 98.0900 4.41000   1
  -2  -1   0 98.9600 5.37000   1
  -2  -1   0 96.5500 4.60000   1
  -2  -1   0 100.840 5.55000   1
  -2   1   0 101.970 4.75000   1
  -2   1   0 90.2200 3.24000   1
  -2  -1   0 97.9100 5.24000   1
  -2   1   0 95.1800 4.81000   1
   2   1   0 92.5000 4.65000   1
   2   1   0 98.8500 5.22000   1
  -2  -1   0 88.5700 4.06000   1
   1   0   2 2052.45 184.360   1
  -1   0  -2 1671.95 150.560   1
  -1   0  -2 1909.19 169.250   1
  -1   0  -2 1910.20 173.500   1
  -1   0  -2 2036.96 184.030   1
  -2  -1   1 1602.44 137.820   1
  -2   1   1 1478.85 120.460   1
  -2   1   1 1585.95 134.320   1
  -2  -1   1 1721.59 145.750   1
  -2   1   1 1678.77 141.690   1
  -2   1   1 1674.17 140.780   1
  -2  -1   1 1639.82 139.780   1
  -2  -1   1 1557.72 133.400   1
   2   1  -1 1614.11 137.930   1
   2   1  -1 1601.65 135.740   1
   2   1  -1 1649.09 140.470   1
   2  -1  -1 1580.08 128.180   1
   2  -1  -1 1652.43 138.990   1
   2  -1  -1 1716.34 143.670   1
   2  -1  -1 1746.60 147.240   1
   2   1  -1 1424.72 124.340   1
   2   1  -1 1619.51 137.430   1
   2   0   1 91.3400 4.37000   1
  -2   0  -1 94.7900 3.95000   1
   2   0   1 95.1800 4.28000   1
  -2   0  -1 91.8800 3.21000   1
  -2   0  -1 100.710 5.22000   1
   2   0   1 92.8200 3.15000   1
   0  -2  -1 1231.51 90.3500   1
   0   2   1 1168.55 88.6600   1
   0  -2  -1 1242.52 90.9800   1
   0  -2   1 1186.65 87.2300   1
   0  -2   1 1117.37 80.1100   1
   0   2  -1 1145.42 85.1400   1
   0   2  -1 1131.59 84.1800   1
   0  -2  -1 1118.47 83.5000   1
   0   2   1 1169.94 87.1700   1
   0  -2   1 1190.49 89.6700   1
   0  -2  -1 1156.00 82.3300   1
   0   2  -1 1111.40 84.5500   1
   0  -2   1 1211.56 90.9200   1
   0   2   1 1132.08 83.1500   1
  -1   2   0 3836.85 429.250   1
   1  -2   0 3264.25 366.110   1
   1   2   0 3531.36 395.570   1
   1   2   0 3447.55 388.580   1
  -1  -2   0 2976.34 333.290   1
   1  -2   0 3151.48 347.450   1
  -1  -2   0 3163.01 356.270   1
  -1  -2   0 3171.91 357.620   1
  -1  -2   0 3199.69 361.630   1
  -1  -2   0 2972.42 331.170   1
   1   2   0 3881.63 435.790   1
  -1   2   0 2158.68 240.230   1
  -1   2   0 3604.47 403.350   1
   1   2   0 3306.11 364.530   1
   1  -2   0 3167.30 355.370   1
   1  -2   0 2986.00 329.630   1
   1  -2   0 2568.53 288.180   1
   1   2   0 3491.67 388.130   1
  -2   0   2 1552.43 124.740   1
  -2   0   2 1557.32 128.160   1
  -2   0   2 1463.80 115.740   1
  -2   0   2 1422.10 115.820   1
   2   0  -2 1390.07 114.010   1
   2   0  -2 1371.70 111.070   1
   2   0  -2 1505.10 119.890   1
   2   0  -2 1498.90 120.950   1
   1   2  -1 174.240 7.84000   1
   1   2  -1 178.570 7.65000   1
  -1  -2   1 136.830 5.88000   1
  -1   2   1 177.680 8.29000   1
  -1  -2   1 142.050 7.20000   1
  -1  -2   1 133.320 6.70000   1
  -1  -2   1 144.040 6.58000   1
  -1   2   1 175.180 6.74000   1
  -1  -2   1 143.370 6.99000   1
  -1   2   1 131.980 4.95000   1
   1  -2  -1 158.230 6.01000   1
   1  -2  -1 146.400 6.10000   1
   1  -2  -1 145.400 5.70000   1
   1  -2  -1 139.200 5.30000   1
   1  -2  -1 152.180 6.49000   1
   1   2  -1 169.970 8.74000   1
   1   2  -1 165.750 6.44000   1
  -1  -1  -2 409.600 21.0900   1
   1   1   2 356.760 17.9800   1
   1   1   2 359.410 18.7200   1
  -1  -1  -2 422.520 21.1600   1
  -1  -1  -2 427.450 21.3700   1
   1  -1   2 419.820 22.4600   1
   1  -1   2 457.510 22.8500   1
  -1   1  -2 374.570 19.7200   1
   1   1   2 359.360 20.2200   1
   1  -1   2 473.810 23.9600   1
   1   1   2 401.940 21.1900   1
   2   1   1 1437.12 114.670   1
   2   1   1 1496.06 122.370   1
   2   1   1 1675.55 136.700   1
  -2   1  -1 1576.86 128.820   1
  -2  -1  -1 1364.98 110.020   1
   2   1   1 1609.50 130.140   1
  -2   1  -1 1496.07 118.990   1
  -2   1  -1 1377.69 108.910   1
  -2  -1  -1 1276.86 104.690   1
  -2  -1  -1 1402.36 115.520   1
  -2  -1  -1 1475.01 122.430   1
  -2   1  -1 1437.53 111.220   1
   2  -1   1 1483.37 120.740   1
   2  -1   1 1305.32 102.050   1
   1   2   1 1197.91 90.4200   1
   1  -2   1 1140.21 84.5400   1
   1   2   1 1165.93 87.1200   1
   1  -2   1 1222.77 91.8800   1
  -1   2  -1 1130.78 83.7200   1
   1   2   1 1124.23 85.3300   1
   1   2   1 1121.70 81.9800   1
  -1   2  -1 1168.06 86.9900   1
  -1  -2  -1 1114.47 83.4800   1
  -1   2  -1 1215.04 89.6800   1
  -1  -2  -1 1126.50 84.5000   1
  -1  -2  -1 1190.80 89.3400   1
  -1  -2  -1 1203.34 88.1900   1
   1  -2   1 1152.17 83.9700   1
   2  -1  -2 494.490 26.5800   1
   2  -1  -2 540.720 29.8700   1
   2   1  -2 525.030 29.1900   1
  -2   1   2 467.360 24.8500   1
  -2   1   2 498.360 28.6300   1
  -2  -1   2 473.930 26.5800   1
  -2   1   2 531.230 29.0900   1
  -2  -1   2 544.560 30.0500   1
  -2  -1   2 507.270 29.3400   1
  -2  -1   2 509.800 29.3700   1
   2   1  -2 515.840 28.7500   1
   2  -1  -2 539.430 28.8200   1
   2   1  -2 485.980 26.6400   1
   2   1  -2 519.800 29.7900   1
   2  -1  -2 536.270 30.2700   1
   1   0  -3 724.240 44.7400   1
   1   0  -3 631.420 38.9200   1
  -1   0   3 651.520 39.3500   1
  -1   0   3 714.530 44.8300   1
   0   0   3 87.6500 3.55000   1
   0   0   3 90.1600 3.93000   1
   0   0  -3 90.8900 4.78000   1
   0   0   3 96.8300 5.16000   1
   0  -2  -2 2140.63 196.780   1
   0   2  -2 2130.55 202.390   1
   0  -2   2 2078.49 198.960   1
   0   2  -2 2151.98 204.450   1
   0  -2  -2 2066.38 196.840   1
   0   2   2 2029.92 191.100   1
   0  -2   2 2041.70 191.800   1
   0   2   2 2038.43 191.130   1
   0   2   2 2043.65 196.360   1
   0  -2   2 2073.03 196.080   1
   0   2   2 2009.24 184.010   1
   0   2   2 2168.25 205.750   1
   0  -2  -2 2192.98 206.760   1
   0  -2  -2 2084.82 198.800   1
   0   2  -2 2060.33 198.750   1
   1  -2  -2 730.020 44.9000   1
   1  -2  -2 754.250 47.4300   1
  -1   2   2 823.280 50.0400   1
  -1   2   2 866.980 56.9300   1
  -1   2   2 790.700 49.3700   1
  -1  -2   2 755.150 48.7600   1
  -1  -2   2 772.420 50.9200   1
   1   2  -2 793.660 50.5600   1
   1  -2  -2 747.860 46.9500   1
   1   2  -2 810.430 54.8400   1
   1  -2  -2 734.880 45.9100   1
   1  -2  -2 796.940 51.4600   1
  -1  -2   2 705.140 44.8700   1
   1   2  -2 735.610 46.0800   1
   1   2  -2 840.460 54.8500   1
  -2  -2   0 648.690 41.6500   1
  -2   2   0 770.380 45.9000   1
   2  -2   0 657.200 39.7800   1
  -2  -2   0 647.420 40.7900   1
   2   2   0 739.710 44.5400   1
   2  -2   0 655.290 37.5300   1
   2   2   0 765.370 48.7200   1
   2   2   0 712.340 44.8800   1
   2   2   0 740.860 44.8900   1
  -2  -2   0 622.090 38.8600   1
   2  -2   0 673.850 41.9600   1
  -2   2   0 698.610 42.8400   1
   2  -2   0 647.930 38.5800   1
  -2  -2   0 626.460 39.3400   1
  -2  -2   0 639.000 40.0200   1
   2  -2   0 635.100 38.2000   1
   2   2   0 769.630 47.1400   1
  -2   2   0 740.920 42.4900   1
   3   0  -1 415.320 22.1500   1
   3   0  -1 410.040 21.7700   1
   3   0  -1 389.350 19.8500   1
  -3   0   1 379.340 19.1600   1
  -3   0   1 391.440 22.3200   1
  -3   0   1 417.130 23.6200   1
   3   0  -1 406.450 21.0200   1
  -2  -2   1 127.110 6.55000   1
   2   2  -1 136.270 5.86000   1
   2   2  -1 129.970 7.26000   1
   2  -2  -1 125.630 5.31000   1
   2  -2  -1 120.420 5.09000   1
   2  -2  -1 127.620 4.97000   1
   2   2  -1 138.300 6.07000   1
   2   2  -1 135.060 5.38000   1
  -2  -2   1 124.200 6.41000   1
   2  -2  -1 127.220 5.03000   1
  -2  -2   1 129.390 6.26000   1
   2   2  -1 113.090 6.33000   1
  -2  -2   1 122.270 5.53000   1
  -2   2   1 132.200 5.40000   1
  -2   2   1 132.970 5.32000   1
  -2   2   1 140.110 6.16000   1
  -2  -2   1 140.470 6.31000   1
   3   0   0 2379.35 235.340   1
   3   0   0 2280.42 226.240   1
   3   0   0 2221.61 217.330   1
  -3   0   0 2105.11 208.070   1
  -3   0   0 2398.22 239.830   1
  -3   0   0 2291.72 229.000   1
   3   0   0 2161.09 210.180   1
   3   0   0 2304.80 227.890   1
  -2   0  -2 129.910 5.72000   1
  -2   0  -2 136.410 6.71000   1
  -2   0  -2 143.930 7.25000   1
  -2   0  -2 139.720 5.25000   1
   2   0   2 138.580 6.07000   1
   1  -1  -3 624.010 37.1500   1
   1   1  -3 546.550 31.6700   1
   1   1  -3 619.500 37.6100   1
   1  -1  -3 597.200 35.6200   1
   1  -1  -3 597.450 35.1500   1
  -1   1   3 638.220 34.8500   1
  -1   1   3 612.040 37.0600   1
  -1  -1   3 642.960 37.6700   1
  -1  -1   3 600.640 35.0300   1
  -1   1   3 594.650 34.4100   1
  -1  -1   3 607.320 36.9600   1
   1   1  -3 591.730 34.8200   1
   0   1   3 617.800 38.4200   1
   0   1   3 652.730 40.3100   1
   0  -1   3 648.070 39.2200   1
   0   1   3 747.910 44.5000   1
   0  -1   3 602.150 36.2300   1
   0  -1  -3 616.180 37.2500   1
   0   1  -3 618.030 36.8200   1
   0  -1  -3 657.870 40.5100   1
   0  -1  -3 600.100 36.2900   1
   0   1  -3 633.400 39.4800   1
   0  -1   3 648.580 40.2100   1
   0   1   3 688.890 39.7800   1
   2   0  -3 589.320 33.2400   1
  -2   0   3 612.830 35.7000   1
   2   0  -3 600.530 35.7300   1
   2   0  -3 622.730 36.6700   1
  -2   0   3 587.100 34.9200   1
  -2   0   3 625.440 38.6300   1
  -3  -1   1 963.270 66.1300   1
  -3  -1   1 959.930 67.9100   1
  -3  -1   1 988.890 69.8200   1
  -3   1   1 948.300 62.5000   1
   3  -1  -1 935.290 63.8200   1
   3  -1  -1 975.010 67.3100   1
   3   1  -1 872.830 61.6500   1
   3   1  -1 916.560 63.6400   1
  -3   1   1 909.920 64.1100   1
  -3  -1   1 961.240 67.1600   1
   3   1  -1 914.610 63.5800   1
  -3   1   1 895.360 63.4600   1
   3   1  -1 822.010 57.6700   1
   3  -1  -1 906.820 59.3100   1
   3   1  -1 920.480 63.7200   1
   3  -1  -1 946.960 63.6700   1
  -1  -2  -2 749.250 44.0500   1
  -1  -2  -2 774.870 46.0400   1
   1  -2   2 750.590 43.3900   1
   1   2   2 595.000 35.4600   1
   1   2   2 574.680 35.7500   1
   1   2   2 546.920 34.9900   1
  -1  -2  -2 834.070 49.6600   1
   1   2   2 592.830 36.2200   1
   1  -2   2 786.170 47.6000   1
  -1   2  -2 535.200 33.1100   1
  -1   2  -2 545.000 33.2800   1
  -1   2  -2 533.120 32.7000   1
  -1  -2  -2 775.130 44.8500   1
  -1   0  -3 1523.31 130.190   1
   1   0   3 1577.48 132.450   1
   1   0   3 1649.99 137.520   1
  -1   0  -3 1489.74 124.570   1
   3  -1   0 313.450 15.8000   1
   3   1   0 325.660 17.1600   1
   3   1   0 327.940 16.6600   1
   3   1   0 327.760 16.5600   1
   3  -1   0 326.890 16.3000   1
  -3  -1   0 318.180 17.7800   1
  -3  -1   0 336.050 16.8700   1
  -3   1   0 324.360 17.6600   1
  -3   1   0 306.330 14.1600   1
  -3   1   0 341.420 18.3200   1
   3  -1   0 301.550 13.9900   1
   3   1   0 343.030 17.4300   1
  -3  -1   0 325.100 18.0000   1
  -3  -1   0 310.710 15.5300   1
  -3  -1   0 307.180 17.1800   1
   3   1   0 308.580 15.2900   1
   3  -1   0 309.530 14.0100   1
   2   1   2 192.160 8.31000   1
  -2  -1  -2 152.450 7.60000   1
   2   1   2 200.050 9.88000   1
   2   1   2 213.510 9.64000   1
   2  -1   2 153.590 7.26000   1
   2  -1   2 149.010 6.58000   1
   2   1   2 176.030 7.34000   1
  -2   1  -2 203.200 10.0200   1
  -2   1  -2 194.390 7.50000   1
  -2   1  -2 197.190 8.70000   1
   2   2   1 9.25000 0.96000   1
   2   2   1 11.2300 2.04000   1
   2  -2   1 4.32000 1.67000   1
   2  -2   1 3.36000 1.06000   1
   2   2   1 8.71000 1.04000   1
  -2  -2  -1 3.02000 1.28000   1
  -2   2  -1 10.5900 0.95000   1
   2   2   1 12.2500 1.39000   1
  -2  -2  -1 4.11000 1.57000   1
  -2   2  -1 10.7300 0.94000   1
   2   2   1 10.4800 1.31000   1
   3   0  -2 517.210 29.3700   1
   3   0  -2 545.530 31.7300   1
  -3   0   2 573.070 33.2700   1
  -3   0   2 545.530 32.8000   1
  -3   0   2 547.760 33.4100   1
   3   0  -2 554.290 31.2300   1
   3   0  -2 559.270 32.1600   1
  -3   0   2 549.190 30.6700   1
   0  -3   0 -0.0900 0.93000   1
   0  -3   0 0.67000 0.62000   1
   0   3   0 0.48000 0.92000   1
   0   3   0 0.47000 1.39000   1
   0   3   0 0.47000 0.65000   1
   0  -3   0 1.77000 1.26000   1
   2   2  -2 712.720 46.7400   1
   2  -2  -2 744.120 44.6200   1
   2   2  -2 708.180 47.7800   1
   2   2  -2 718.540 45.6500   1
   2  -2  -2 722.000 43.7100   1
   2  -2  -2 798.920 48.4100   1
   2  -2  -2 777.670 46.8000   1
   2  -2  -2 722.850 44.6200   1
  -2  -2   2 638.690 42.3300   1
  -2  -2   2 818.450 51.6000   1
  -2  -2   2 744.730 48.2000   1
  -2   2   2 704.870 44.2100   1
  -2   2   2 701.680 45.6900   1
   2  -2  -2 757.490 48.3600   1
  -2  -2   2 726.950 45.8900   1
   2   2  -2 697.700 43.7400   1
  -3   0  -1 0.10000 1.43000   1
  -3   0  -1 1.05000 0.70000   1
   3   0   1 0.89000 0.82000   1
   3   0   1 -0.1000 0.85000   1
   3   0   1 0.75000 0.42000   1
   3   0   1 0.59000 0.89000   1
   3   0   1 0.39000 0.67000   1
   2   1  -3 269.620 12.5200   1
   2   1  -3 299.350 15.4700   1
   2  -1  -3 295.610 13.6500   1
  -2  -1   3 274.240 14.5300   1
  -2  -1   3 280.080 14.9900   1
  -2  -1   3 284.760 14.0300   1
   2  -1  -3 309.940 15.3200   1
   2  -1  -3 281.270 13.3500   1
   2   1  -3 292.100 14.1300   1
   2  -1  -3 288.350 13.9400   1
  -2  -1   3 272.070 13.3300   1
  -2   1   3 291.650 13.6200   1
  -2   1   3 270.080 12.4000   1
  -2   1   3 307.830 15.8700   1
  -1  -1  -3 1253.00 95.1200   1
  -1  -1  -3 1178.63 91.3500   1
   1  -1   3 1233.87 94.4700   1
   1  -1   3 1234.82 94.8900   1
   1   1   3 1301.64 101.520   1
  -1   1  -3 1321.29 102.270   1
   1   1   3 1272.80 96.3100   1
   1   1   3 1321.44 100.980   1
   1  -1   3 1203.41 93.3000   1
  -1  -1  -3 1079.94 82.1500   1
  -1  -1  -3 1220.01 95.4000   1
   0   3  -1 965.180 67.8700   1
   0  -3  -1 1011.74 70.6400   1
   0   3   1 898.920 59.5000   1
   0  -3   1 1014.49 72.0700   1
   0  -3  -1 1030.59 69.3900   1
   0  -3  -1 990.940 69.3200   1
   0   3  -1 936.630 67.8200   1
   0   3  -1 898.070 63.2500   1
   0  -3  -1 1024.18 72.0200   1
   0   3   1 939.060 68.4400   1
   0  -3   1 996.040 71.1900   1
   0  -3   1 997.800 69.4000   1
   0  -3   1 888.760 59.0000   1
   0   3   1 920.020 64.7300   1
   0   3   1 921.470 64.0500   1
   1  -3   0 291.060 14.2900   1
   1  -3   0 291.330 13.4400   1
   1   3   0 281.030 13.6700   1
   1   3   0 285.430 15.2200   1
   1  -3   0 276.420 13.5900   1
   1   3   0 276.760 12.1400   1
  -1  -3   0 283.360 14.2700   1
  -1   3   0 266.160 14.0800   1
  -1   3   0 291.020 13.8500   1
   1  -3   0 268.340 11.3200   1
   1   3   0 237.770 13.8500   1
  -1  -3   0 264.610 12.8000   1
  -1  -3   0 293.120 14.2700   1
  -1  -3   0 281.290 14.9600   1
  -1   3   0 270.380 12.9900   1
   3   1  -2 567.640 33.5300   1
   3   1  -2 546.670 33.5700   1
   3  -1  -2 597.550 33.7400   1
   3  -1  -2 626.940 37.0000   1
   3  -1  -2 628.950 36.3900   1
   3  -1  -2 612.780 36.4900   1
   3  -1  -2 634.630 36.0300   1
   3   1  -2 594.360 35.5400   1
  -3  -1   2 605.780 35.7700   1
  -3  -1   2 576.040 34.9000   1
  -3   1   2 598.370 36.6700   1
  -3   1   2 581.850 35.0300   1
  -3  -1   2 606.350 37.5800   1
  -3  -1   2 595.670 36.9200   1
  -3   1   2 617.890 34.9400   1
   3   1  -2 561.990 33.7000   1
   3   1   1 1377.74 110.710   1
   3   1   1 1393.17 110.840   1
   3   1   1 1315.14 102.190   1
   3   1   1 1333.91 106.590   1
   3   1   1 1350.14 107.590   1
  -3  -1  -1 1226.82 98.0800   1
   3  -1   1 1303.01 104.260   1
  -3   1  -1 1304.29 105.810   1
  -3   1  -1 1307.90 101.920   1
  -3  -1  -1 1302.38 102.270   1
  -3  -1  -1 1271.34 103.500   1
   3  -1   1 1313.06 104.860   1
  -3   1  -1 1382.09 108.270   1
   1   3  -1 1304.98 104.650   1
   1  -3  -1 1275.41 98.8000   1
  -1  -3   1 1341.89 105.830   1
   1  -3  -1 1214.08 91.5100   1
  -1   3   1 1395.24 111.850   1
  -1   3   1 1325.52 102.970   1
  -1  -3   1 1205.85 97.6700   1
  -1  -3   1 1323.44 106.810   1
  -1  -3   1 1305.85 103.760   1
   1   3  -1 1329.85 105.290   1
   1  -3  -1 1290.23 102.690   1
   1   3  -1 1336.13 101.750   1
   1  -3  -1 1346.95 105.350   1
   1   3  -1 1344.54 109.730   1
  -1   3   1 1322.57 103.580   1
  -1   3   1 1296.73 97.3900   1
  -1  -3   1 1306.20 100.220   1
   1  -2  -3 472.650 25.6200   1
   1  -2  -3 434.670 24.3100   1
  -1   2   3 440.210 22.1300   1
  -1   2   3 439.190 24.3000   1
  -1   2   3 469.390 26.9500   1
   1  -2  -3 437.080 23.6600   1
   1  -2  -3 473.210 24.4600   1
   1  -2  -3 433.190 23.0900   1
  -1  -2   3 451.940 24.8600   1
  -1  -2   3 469.030 25.6000   1
  -1  -2   3 448.730 25.6900   1
   1   2  -3 476.920 25.6500   1
   1   2  -3 476.180 28.9700   1
   1   2  -3 426.220 22.9300   1
   1   2  -3 465.810 26.8700   1
   0   2   3 385.270 18.5500   1
   0  -2  -3 306.280 16.5800   1
   0   2   3 407.030 18.4900   1
   0  -2  -3 286.400 14.7300   1
   0   2   3 390.180 19.3600   1
   0   2   3 352.590 18.9500   1
   0  -2  -3 272.640 14.3000   1
   0  -2  -3 329.710 17.0700   1
   0  -2   3 301.340 16.8600   1
   0  -2   3 315.640 16.7700   1
   0   2  -3 384.460 18.9100   1
   0   2  -3 364.020 19.2200   1
   0   2  -3 379.390 20.8000   1
   0  -2   3 298.300 15.3200   1
  -1  -3  -1 1474.98 126.570   1
  -1   3  -1 1597.67 134.220   1
   1  -3   1 1536.16 131.660   1
   1   3   1 1572.33 135.200   1
   1   3   1 1462.61 126.920   1
   1   3   1 1585.56 130.540   1
   1   3   1 1616.45 136.860   1
   1  -3   1 1614.36 135.810   1
   1  -3   1 1580.46 134.560   1
   1   3   1 1497.49 127.760   1
  -1   3  -1 1511.39 128.770   1
  -1  -3  -1 1581.92 135.370   1
  -1  -3  -1 1594.60 137.190   1
  -1   3  -1 1555.18 132.700   1
  -1  -3  -1 1597.71 134.020   1
  -3  -2   1 135.410 6.33000   1
   3   2  -1 138.140 6.25000   1
   3   2  -1 142.950 7.26000   1
   3   2  -1 128.790 7.17000   1
  -3  -2   1 145.600 7.47000   1
  -3  -2   1 127.790 7.91000   1
  -3  -2   1 142.640 7.58000   1
   3   2  -1 127.890 5.80000   1
  -3   2   1 124.170 5.55000   1
  -3   2   1 141.600 7.00000   1
   3  -2  -1 136.510 6.06000   1
   3  -2  -1 147.870 6.02000   1
   3  -2  -1 140.450 6.00000   1
   3  -2  -1 142.170 5.89000   1
  -3   2   1 127.430 5.96000   1
  -3  -2   0 1549.81 127.580   1
  -3  -2   0 1527.18 125.820   1
   3   2   0 1298.05 106.740   1
  -3  -2   0 1563.18 129.000   1
   3   2   0 1379.46 113.890   1
   3   2   0 1412.79 117.660   1
   3   2   0 1322.97 109.470   1
  -3  -2   0 1485.62 125.090   1
  -3   2   0 1282.04 103.000   1
  -3   2   0 1250.86 98.2100   1
  -3   2   0 1358.66 112.280   1
  -3   2   0 1278.77 99.4400   1
   3  -2   0 1529.48 125.400   1
   3  -2   0 1645.56 133.160   1
   3  -2   0 1525.55 123.390   1
   3  -2   0 1579.13 125.220   1
  -2   2  -2 1189.29 90.0800   1
  -2  -2  -2 1116.39 87.8000   1
   2  -2   2 1201.17 93.8000   1
  -2  -2  -2 1125.11 86.5100   1
   2   2   2 1203.18 91.5200   1
   2   2   2 1276.02 98.7900   1
  -2   2  -2 1212.64 89.6600   1
  -2  -2  -2 1115.61 85.8500   1
   2  -2   2 1113.11 84.1200   1
   2   2   2 1271.98 99.6300   1
   2   2   2 1291.03 98.3300   1
  -3   0   3 2019.55 187.970   1
  -3   0   3 2048.22 196.480   1
  -3   0   3 2134.56 199.870   1
   3   0  -3 2068.69 197.070   1
   3   0  -3 2004.00 186.990   1
   3   0  -3 1976.89 185.990   1
  -3   0   3 1932.86 183.570   1
  -1   0   4 337.930 18.9800   1
  -1   0   4 330.050 15.8800   1
   1   0  -4 341.670 18.5400   1
  -2   0  -3 494.090 28.9600   1
  -2   0  -3 453.800 24.1500   1
  -2   0  -3 500.780 28.9700   1
   2   0   3 483.190 26.9100   1
   0  -3  -2 448.610 22.4800   1
   0  -3  -2 430.370 23.1200   1
   0  -3  -2 419.990 22.7300   1
   0   3   2 426.020 23.7200   1
   0   3   2 466.670 24.7600   1
   0   3   2 420.490 24.7300   1
   0   3   2 446.560 23.0500   1
   0  -3   2 427.760 22.4200   1
   0   3  -2 456.080 25.5100   1
   0  -3   2 371.120 22.2000   1
   0  -3   2 416.660 22.4600   1
   0   3  -2 452.650 26.3400   1
   0  -3   2 429.080 24.2800   1
   0   0  -4 196.810 10.2600   1
   0   0   4 205.010 9.45000   1
   0   0   4 198.660 10.6500   1
   0   0  -4 186.710 8.52000   1
  -1   3   2 241.230 11.1600   1
   1  -3  -2 230.430 10.5300   1
  -1   3   2 238.500 10.1900   1
  -1   3   2 211.220 11.0600   1
   1  -3  -2 196.430 8.46000   1
   1  -3  -2 202.070 9.03000   1
   1  -3  -2 212.680 8.46000   1
  -1   3   2 221.550 9.58000   1
  -1  -3   2 203.820 9.50000   1
   1   3  -2 225.450 9.53000   1
   1   3  -2 234.630 13.2100   1
   1   3  -2 236.190 12.4300   1
  -1  -3   2 193.370 11.2300   1
   2   3   0 29.2400 2.99000   1
   2   3   0 23.0200 2.91000   1
  -2  -3   0 31.8000 2.51000   1
   2   3   0 29.3200 1.88000   1
  -2  -3   0 30.5800 3.27000   1
   2   3   0 28.9200 1.41000   1
   2  -3   0 35.0500 2.27000   1
   2  -3   0 29.9700 1.28000   1
   2  -3   0 30.3900 1.51000   1
   2  -3   0 33.6100 1.67000   1
  -2   3   0 29.9000 2.03000   1
  -2   3   0 28.1300 1.79000   1
   2  -3   0 33.6100 1.69000   1
  -3   0  -2 937.760 66.1600   1
   3   0   2 1020.76 71.7700   1
  -3   0  -2 947.790 68.2100   1
  -3   0  -2 900.440 59.0900   1
   2  -2  -3 728.600 44.5100   1
   2  -2  -3 680.830 41.9800   1
   2  -2  -3 663.030 37.9500   1
   2  -2  -3 729.310 44.7600   1
  -2   2   3 698.180 43.8600   1
   2  -2  -3 689.440 40.4100   1
  -2   2   3 715.710 41.8100   1
  -2   2   3 668.870 43.7400   1
   2   2  -3 710.620 44.2200   1
   2   2  -3 707.040 45.4100   1
  -2  -2   3 598.890 39.5400   1
   2   2  -3 680.010 46.1300   1
  -2  -2   3 681.440 43.1700   1
   2   2  -3 649.670 40.3800   1
  -2  -2   3 643.240 40.9900   1
  -2  -3   1 983.830 71.2700   1
  -2  -3   1 1022.33 72.7500   1
  -2  -3   1 1028.51 70.6500   1
   2   3  -1 853.630 62.5000   1
   2   3  -1 796.540 59.9100   1
   2   3  -1 916.290 63.1000   1
  -2   3   1 942.790 65.9600   1
  -2   3   1 909.270 64.9600   1
  -2   3   1 881.510 60.1800   1
   2  -3  -1 1048.90 72.1600   1
   2  -3  -1 1068.43 73.0700   1
   2  -3  -1 1110.69 74.9000   1
   2  -3  -1 1039.18 68.6100   1
  -2   3   1 826.050 55.1100   1
   2  -3  -1 947.430 65.9500   1
   1   2   3 506.470 31.9500   1
   1   2   3 552.190 31.2600   1
   1   2   3 531.130 32.1900   1
   1   2   3 549.950 35.1400   1
  -1  -2  -3 542.150 31.4100   1
  -1  -2  -3 611.810 36.2000   1
  -1  -2  -3 581.020 32.7700   1
   1  -2   3 558.480 33.9200   1
   1  -2   3 551.480 32.4000   1
   1  -2   3 528.840 30.3200   1
  -1   2  -3 514.070 31.0300   1
  -1   2  -3 510.620 30.4300   1
  -3  -1   3 1730.43 155.970   1
  -3  -1   3 1692.91 156.640   1
  -3   1   3 1743.26 155.650   1
  -3   1   3 1662.41 145.500   1
  -3   1   3 1757.05 154.170   1
   3   1  -3 1687.60 149.820   1
   3   1  -3 1736.13 153.720   1
   3  -1  -3 1707.53 144.730   1
   3  -1  -3 1730.05 152.490   1
   3  -1  -3 1740.30 151.140   1
  -3  -1   3 1673.37 148.010   1
  -3  -1   3 1607.31 144.140   1
  -1  -1   4 603.850 36.9700   1
   1   1  -4 716.250 45.2100   1
   1   1  -4 662.890 40.0000   1
   1  -1  -4 673.760 42.4200   1
  -1   1   4 748.370 43.8600   1
  -1  -1   4 574.570 37.6500   1
  -1   1   4 645.670 37.1000   1
  -1   1   4 690.920 44.2200   1
  -1   1   4 656.210 39.8900   1
  -3   2   2 477.110 26.3800   1
   3  -2  -2 450.550 24.8300   1
  -3   2   2 463.640 25.8000   1
  -3   2   2 454.140 25.7700   1
  -3  -2   2 473.600 31.7500   1
  -3  -2   2 432.830 26.6200   1
   3  -2  -2 457.610 24.8500   1
   3  -2  -2 521.250 25.9200   1
   3  -2  -2 463.660 24.5700   1
   3  -2  -2 442.730 24.0000   1
   3   2  -2 425.780 25.3800   1
   3   2  -2 450.130 24.9300   1
   3   2  -2 450.340 24.6300   1
   3   2  -2 433.950 26.1900   1
   3  -2  -2 426.430 21.3600   1
  -3  -2   2 462.530 26.2800   1
   2   1   3 794.590 53.1100   1
   2   1   3 576.150 38.9700   1
   2  -1   3 833.040 53.5800   1
  -2  -1  -3 957.780 61.1800   1
   2   1   3 793.120 50.7300   1
   2   1   3 772.220 50.1800   1
  -2  -1  -3 903.630 58.4400   1
  -2   1  -3 786.740 52.2900   1
   4   0  -1 133.270 5.92000   1
  -4   0   1 135.290 7.33000   1
  -4   0   1 128.940 7.37000   1
   4   0  -1 125.090 5.61000   1
  -4   0   1 125.350 5.62000   1
   0  -1   4 387.300 20.4500   1
   0   1   4 340.560 19.7600   1
   0   1  -4 386.950 21.7400   1
   0   1   4 386.590 19.2800   1
   0  -1  -4 356.580 19.7200   1
   0  -1   4 391.680 21.4300   1
   0   1   4 387.910 20.2000   1
  -2   0   4 1018.57 76.3000   1
  -2   0   4 1125.15 85.4900   1
   2   0  -4 1206.81 89.8300   1
  -2   0   4 1176.69 88.1700   1
   2   0  -4 1053.02 75.4200   1
   3   2   1 30.3700 2.62000   1
   3   2   1 26.4600 1.69000   1
  -3  -2  -1 23.0200 1.53000   1
  -3  -2  -1 26.1700 2.88000   1
   3   2   1 27.7400 1.84000   1
   3   2   1 27.1500 1.94000   1
  -3  -2  -1 27.6300 2.73000   1
   3  -2   1 26.2700 1.31000   1
   3  -2   1 27.6100 2.29000   1
  -3   2  -1 27.0900 1.33000   1
  -3   2  -1 24.6500 1.46000   1
  -3   2  -1 23.9100 2.40000   1
   3  -2   1 29.6200 1.58000   1
  -3  -1  -2 237.150 10.3400   1
  -3  -1  -2 252.580 13.0200   1
   3   1   2 219.390 9.85000   1
  -3   1  -2 220.480 10.0200   1
   3   1   2 208.080 10.8500   1
  -3   1  -2 214.140 10.3700   1
  -3   1  -2 207.670 11.1000   1
   1   3   2 67.9800 4.49000   1
  -1  -3  -2 57.3100 5.45000   1
   1   3   2 73.8400 4.31000   1
   1   3   2 73.1500 3.35000   1
   1   3   2 70.4200 3.26000   1
  -1   3  -2 66.6100 3.73000   1
  -1   3  -2 72.0800 3.82000   1
  -4   0   0 381.120 20.0900   1
  -4   0   0 409.370 24.0600   1
  -4   0   0 400.240 23.5200   1
   4   0   0 400.110 21.1100   1
   4   0   0 377.530 19.3000   1
   2   3   1 1659.58 141.780   1
   2   3   1 1592.78 138.620   1
   2   3   1 1664.35 146.210   1
   2   3   1 1683.23 146.990   1
  -2  -3  -1 1574.09 135.690   1
  -2  -3  -1 1674.55 149.450   1
   2  -3   1 1526.80 131.560   1
   2  -3   1 1534.24 130.360   1
  -2   3  -1 1588.83 134.930   1
   2  -3   1 1486.20 128.450   1
   2  -3   1 1473.03 125.160   1
  -2   3  -1 1728.38 145.960   1
   2  -3   1 1531.21 133.470   1
  -4   1   1 717.130 42.8100   1
  -4   1   1 719.290 46.8500   1
  -4  -1   1 644.110 42.7500   1
  -4  -1   1 671.580 44.0500   1
   4   1  -1 693.700 44.0900   1
  -4  -1   1 652.890 43.2000   1
   4   1  -1 674.790 42.5200   1
  -4  -1   1 608.410 38.4400   1
  -4   1   1 693.870 45.2000   1
   4  -1  -1 677.580 41.2000   1
   4  -1  -1 633.660 37.7500   1
  -4   0   2 685.390 43.4500   1
  -4   0   2 679.180 40.9200   1
   4   0  -2 691.590 44.3000   1
  -4   0   2 561.500 36.8400   1
   4   0  -2 636.010 38.4100   1
  -2   1   4 2083.13 203.570   1
  -2  -1   4 2334.54 229.990   1
   2   1  -4 2066.15 204.290   1
   2   1  -4 2179.51 213.760   1
   2  -1  -4 2385.83 233.100   1
  -2   1   4 2087.46 206.800   1
  -2  -1   4 2281.56 225.170   1
  -2  -1   4 2240.43 217.800   1
  -2   1   4 2111.53 209.370   1
  -1   0  -4 242.310 11.4700   1
  -1   0  -4 249.240 13.5500   1
   1   0   4 281.990 13.2200   1
   1   0   4 275.930 14.2000   1
  -2  -3   2 223.530 10.4100   1
   2  -3  -2 228.930 10.1600   1
   2   3  -2 208.840 11.7500   1
   2  -3  -2 221.460 9.58000   1
   2  -3  -2 247.810 10.5700   1
   2  -3  -2 246.560 10.6900   1
   2  -3  -2 242.220 10.3900   1
   2   3  -2 208.690 9.41000   1
   2   3  -2 195.440 11.9100   1
  -2   3   2 218.480 11.8700   1
  -2   3   2 216.370 10.1800   1
  -2   3   2 238.870 10.7300   1
  -2  -3   2 239.470 12.7100   1
  -2  -3   2 229.770 12.2900   1
  -4   1   0 211.220 10.8000   1
  -4   1   0 238.760 12.7400   1
  -4   1   0 215.050 9.74000   1
   4   1   0 231.620 12.0200   1
   4  -1   0 233.980 10.6200   1
   4  -1   0 242.190 10.3300   1
  -4  -1   0 247.880 13.5700   1
  -4  -1   0 228.610 12.7600   1
  -4  -1   0 218.180 10.6400   1
  -4  -1   0 243.730 13.4600   1
   4   1   0 224.840 10.5900   1
  -4  -1   2 324.690 18.4700   1
   4  -1  -2 305.340 15.6000   1
  -4  -1   2 297.740 17.1900   1
  -4  -1   2 320.920 16.5000   1
  -4   1   2 356.660 19.4800   1
  -4   1   2 364.430 17.1200   1
  -4   1   2 353.140 19.0800   1
   4  -1  -2 311.460 15.8500   1
   4   1  -2 338.000 19.2300   1
   4  -1  -2 302.990 14.7200   1
   4  -1  -2 312.660 15.5200   1
   4   1  -2 355.880 18.2700   1
  -4  -1   2 314.350 17.0700   1
   1   1   4 173.310 7.09000   1
   1  -1   4 136.580 7.44000   1
   1   1   4 168.430 8.25000   1
   1   1   4 175.700 7.81000   1
   1  -1   4 126.170 7.25000   1
  -1  -1  -4 128.100 7.64000   1
  -1   1  -4 175.220 8.95000   1
  -4   0  -1 752.840 50.8500   1
  -4   0  -1 720.450 47.0400   1
   4   0   1 697.200 41.7100   1
   4   0   1 775.790 49.8800   1
  -3   2   3 656.380 38.9800   1
   3   2  -3 641.800 43.4400   1
   3   2  -3 636.330 40.8200   1
   3   2  -3 665.870 41.5500   1
   3  -2  -3 655.880 38.8400   1
   3  -2  -3 635.200 37.2200   1
   3  -2  -3 702.840 42.4200   1
  -3  -2   3 669.640 42.4500   1
  -3  -2   3 662.780 43.6200   1
  -3  -2   3 640.280 41.1500   1
  -3   2   3 663.890 40.7900   1
  -3   2   3 645.670 40.9300   1
  -1  -3   3 238.050 12.2300   1
  -1  -3   3 248.090 12.1300   1
  -1   3   3 226.790 10.1000   1
  -1   3   3 227.440 12.7800   1
   1  -3  -3 220.130 9.79000   1
   1   3  -3 218.960 12.0100   1
   1   3  -3 202.450 9.26000   1
   1  -3  -3 229.410 11.7500   1
   1  -3  -3 246.390 11.3300   1
   1   3  -3 215.350 12.7900   1
   1  -3  -3 240.020 11.3000   1
  -1   3   3 220.440 10.2000   1
  -1   2   4 246.940 13.5000   1
  -1  -2   4 250.750 12.9500   1
  -1  -2   4 254.970 13.2600   1
  -1   2   4 221.420 9.11000   1
  -1   2   4 258.880 13.4300   1
  -1   2   4 231.600 9.91000   1
  -1   2   4 245.240 10.2900   1
   1  -2  -4 277.260 13.8200   1
   1   2  -4 245.620 11.7000   1
   1   2  -4 245.490 13.3100   1
   1  -2  -4 248.110 11.7600   1
   0  -3   3 551.720 33.1700   1
   0   3  -3 608.060 38.7800   1
   0  -3  -3 528.220 29.2900   1
   0   3   3 679.360 40.3800   1
   0   3  -3 673.840 41.5400   1
   0   3   3 654.240 41.1900   1
   0   3   3 656.480 40.6500   1
   0  -3   3 540.420 34.9400   1
   0   3   3 666.210 39.1900   1
   0  -3  -3 585.030 37.7900   1
   0   4   0 1161.26 87.3600   1
   0  -4   0 1133.61 86.3100   1
   0   4   0 1109.81 86.2600   1
   0  -4   0 1055.48 80.9500   1
   2  -2   3 493.570 29.8700   1
   2   2   3 501.660 30.7800   1
  -2   2  -3 502.640 28.2500   1
  -2  -2  -3 452.280 25.9500   1
  -2   2  -3 508.220 29.2300   1
  -2  -2  -3 491.450 28.1100   1
   2   2   3 465.480 26.5600   1
   2   2   3 487.670 27.3500   1
   2  -2   3 467.090 26.2800   1
   0  -2   4 121.210 6.35000   1
   0   2   4 137.830 5.38000   1
   0  -2  -4 113.170 6.04000   1
   0   2   4 123.250 6.90000   1
   0  -2   4 111.380 6.47000   1
   0   2   4 135.780 6.23000   1
   0   2   4 126.270 6.97000   1
   0   2  -4 136.080 7.46000   1
   3   0  -4 66.0500 2.53000   1
   3   0  -4 76.3100 4.13000   1
  -3   0   4 77.3000 3.97000   1
  -3   0   4 79.8500 4.90000   1
   3   2   2 494.690 30.7800   1
  -3   2  -2 501.310 28.5300   1
   3   2   2 518.310 29.5300   1
   3  -2   2 544.340 33.0300   1
  -3  -2  -2 472.700 27.3900   1
  -3  -2  -2 517.820 31.2200   1
  -3  -2  -2 539.760 32.5700   1
  -3   2  -2 463.790 24.7200   1
  -3   2  -2 506.090 31.0100   1
  -3   2  -2 509.030 28.8500   1
  -4  -1  -1 1119.18 82.0700   1
  -4   1  -1 853.050 61.2200   1
   4   1   1 973.240 67.6500   1
   4   1   1 971.550 70.1600   1
  -4  -1  -1 1092.85 77.0300   1
  -4   1  -1 908.530 67.9200   1
  -3  -3   1 370.450 21.6800   1
  -3  -3   1 378.970 23.5000   1
   3  -3  -1 390.640 20.4300   1
  -3   3   1 445.950 24.1400   1
  -3   3   1 413.860 22.0000   1
  -3  -3   1 402.220 22.3500   1
  -3   3   1 438.400 23.7000   1
   3   3  -1 417.290 24.6900   1
   3   3  -1 430.440 22.5600   1
   3  -3  -1 397.820 21.0300   1
   3   3  -1 386.500 23.1200   1
   3  -3  -1 381.850 20.2500   1
   3  -3  -1 382.970 20.9700   1
   3   3   0 4.34000 1.41000   1
   3   3   0 3.49000 1.63000   1
  -3  -3   0 3.09000 2.13000   1
  -3   3   0 3.34000 1.16000   1
  -3  -3   0 2.79000 1.50000   1
   3  -3   0 3.67000 0.83000   1
   3  -3   0 3.60000 1.37000   1
  -3   3   0 1.32000 0.47000   1
   3  -3   0 2.73000 0.85000   1
   3   3   0 3.64000 0.85000   1
   2   3   2 593.900 39.6100   1
   2   3   2 604.570 38.3700   1
   2  -3   2 650.940 41.6900   1
   2  -3   2 613.400 36.8700   1
  -2  -3  -2 663.230 42.2400   1
   2   3   2 659.990 40.4800   1
  -2   3  -2 592.820 36.1600   1
   2  -3   2 686.180 42.3100   1
  -2   3  -2 605.800 37.2800   1
  -2  -3  -2 641.000 39.4000   1
   0   4   1 174.450 8.15000   1
   0   4   1 174.910 9.61000   1
   0  -4  -1 140.420 6.48000   1
   0   4  -1 172.400 9.27000   1
   0   4  -1 181.660 8.63000   1
   0  -4  -1 143.550 6.63000   1
   0  -4  -1 138.980 7.53000   1
   0  -4   1 140.350 6.53000   1
   0  -4   1 144.540 8.37000   1
   4   0  -3 109.220 5.03000   1
  -4   0   3 108.930 6.72000   1
  -4   0   3 110.680 5.54000   1
  -4   0   3 104.000 5.57000   1
  -4   0   3 112.010 4.72000   1
   4   0  -3 106.180 4.76000   1
  -1  -4   0 864.400 61.5500   1
  -1  -4   0 855.600 58.8600   1
   1  -4   0 871.130 61.1500   1
   1   4   0 849.600 54.6200   1
   1   4   0 930.560 66.9400   1
   1   4   0 907.950 63.6600   1
   1  -4   0 850.340 58.1700   1
  -1   4   0 879.570 59.9200   1
  -1   4   0 909.420 64.0200   1
  -4  -2   1 61.7900 4.36000   1
  -4  -2   1 59.1100 4.41000   1
  -4   2   1 58.8100 4.08000   1
  -4   2   1 56.7300 3.50000   1
   4   2  -1 60.3500 4.21000   1
  -4  -2   1 58.7800 4.26000   1
   4   2  -1 57.7300 3.98000   1
   4  -2  -1 57.2400 2.31000   1
  -3   0  -3 79.9100 4.54000   1
  -3   0  -3 87.8700 5.44000   1
  -3   0  -3 81.1400 3.14000   1
   2   2  -4 424.730 25.3500   1
  -2   2   4 435.370 22.1500   1
   2  -2  -4 449.900 24.5700   1
  -2  -2   4 433.720 25.3300   1
  -2  -2   4 427.030 23.9000   1
  -2  -2   4 433.940 26.0800   1
  -2   2   4 418.300 24.0900   1
   2  -2  -4 477.770 25.4800   1
   2   2  -4 408.650 22.7000   1
  -3   1   4 262.650 13.2600   1
   3   1  -4 264.110 12.9700   1
   3  -1  -4 178.030 8.36000   1
   3  -1  -4 179.430 8.86000   1
   3   1  -4 271.420 11.9000   1
  -3  -1   4 185.860 10.1600   1
  -3   1   4 250.720 10.8500   1
  -3   1   4 261.620 11.5700   1
  -3  -1   4 179.840 10.5300   1
  -3  -1   4 187.880 9.69000   1
  -1  -4   1 68.9400 2.85000   1
   1   4  -1 60.7600 4.87000   1
   1   4  -1 63.5700 2.39000   1
   1  -4  -1 72.9900 3.02000   1
  -1   4   1 62.1900 4.59000   1
  -1  -4   1 75.2500 4.72000   1
  -1  -4   1 72.1900 4.12000   1
  -1   4   1 61.1200 3.41000   1
   1   4  -1 65.0700 4.03000   1
   1  -4  -1 78.0500 3.85000   1
   2   3  -3 349.980 17.1500   1
   2   3  -3 371.190 19.8500   1
   2  -3  -3 337.610 16.8100   1
   2  -3  -3 324.210 15.9700   1
   2  -3  -3 302.330 14.3200   1
   2  -3  -3 279.080 13.9400   1
   2  -3  -3 277.650 12.4500   1
  -2  -3   3 306.900 17.1800   1
  -2  -3   3 307.190 15.8500   1
  -2   3   3 348.680 16.2800   1
  -2   3   3 366.700 18.5900   1
  -2   3   3 364.640 20.1600   1
  -2  -3   3 302.310 17.2400   1
   2   3  -3 352.250 20.5700   1
   4   2   0 437.750 24.9500   1
  -4   2   0 375.530 18.4900   1
   4   2   0 431.750 23.3400   1
  -4  -2   0 382.380 22.9600   1
  -4  -2   0 384.810 22.3500   1
  -4  -2   0 383.190 21.3100   1
  -4   2   0 371.880 18.0800   1
  -4  -2   0 381.720 22.3100   1
   4  -2   0 374.880 18.7800   1
  -4   2   0 422.820 23.5300   1
   1   3   3 1039.64 81.6500   1
   1   3   3 1101.53 81.8300   1
   1   3   3 1131.43 89.2900   1
   1   3   3 1106.27 83.6700   1
   1  -3   3 1187.76 88.6200   1
  -1   3  -3 1067.30 82.1200   1
  -1  -3  -3 1185.49 87.5800   1
  -1   3  -3 1134.85 87.6100   1
  -1  -3  -3 1220.52 93.2000   1
   1  -3   3 1248.70 96.5600   1
   1   3   3 1105.05 86.0100   1
   4   1  -3 556.540 34.5300   1
   4  -1  -3 582.120 34.4400   1
   4  -1  -3 616.250 36.9500   1
   4  -1  -3 622.870 36.7500   1
  -4   1   3 593.460 38.1300   1
  -4  -1   3 606.290 38.2800   1
  -4  -1   3 589.340 36.2900   1
  -4  -1   3 571.220 36.4700   1
  -4   1   3 601.360 35.3800   1
  -4   1   3 617.960 38.0700   1
   4   1  -3 594.770 36.2100   1
  -3   3   2 192.310 8.82000   1
  -3   3   2 172.780 7.89000   1
   3  -3  -2 168.990 7.64000   1
  -3  -3   2 172.240 8.56000   1
  -3  -3   2 186.560 10.2800   1
  -3  -3   2 177.410 9.85000   1
   3   3  -2 187.770 10.8700   1
  -3   3   2 198.180 9.69000   1
   3   3  -2 198.320 8.84000   1
   3   3  -2 191.080 10.5400   1
   3  -3  -2 177.070 7.88000   1
   3  -3  -2 185.740 8.15000   1
  -1  -4  -1 982.550 70.7400   1
   1  -4   1 934.450 66.0500   1
   1  -4   1 899.750 59.2300   1
   1   4   1 902.150 60.2800   1
   1  -4   1 1003.32 71.8100   1
   1   4   1 917.200 66.1700   1
   1   4   1 906.630 67.2400   1
  -1   4  -1 936.860 66.0300   1
  -1  -4  -1 959.110 66.1700   1
  -1   4  -1 867.590 63.0400   1
  -2   0  -4 585.800 36.2200   1
  -2   0  -4 526.960 30.4200   1
  -3  -1  -3 261.700 12.7700   1
  -3  -1  -3 259.070 14.4100   1
  -3   1  -3 307.270 16.9600   1
  -3   1  -3 286.700 12.9100   1
  -3   1  -3 265.970 11.4900   1
  -3   1  -3 307.990 15.9000   1
   3   1   3 308.490 17.0200   1
   3   1   3 302.780 14.5100   1
  -4  -2   2 1079.84 84.6300   1
   4  -2  -2 1233.96 94.1400   1
   4  -2  -2 1181.22 90.9100   1
   4  -2  -2 1151.43 89.9600   1
   4  -2  -2 1120.64 79.6200   1
   4   2  -2 1178.27 91.3100   1
   4   2  -2 1168.75 91.7200   1
  -4   2   2 1226.42 94.5800   1
  -4   2   2 1022.49 73.7200   1
  -4   2   2 1218.90 93.6600   1
  -4  -2   2 1149.33 90.3500   1
  -4  -2   2 1180.01 92.2400   1
  -1   2  -4 386.670 22.2800   1
  -1  -2  -4 400.770 21.1200   1
   1   2   4 371.530 21.2500   1
  -1  -2  -4 380.660 22.3800   1
   1  -2   4 382.810 21.7500   1
   1  -2   4 401.950 22.2700   1
   1   2   4 403.690 22.5200   1
   1   2   4 414.370 22.8000   1
   1   2   4 375.190 19.5700   1
  -1   2  -4 391.660 22.3400   1
   3  -3   1 857.150 56.1000   1
   3   3   1 907.030 64.7100   1
   3   3   1 844.510 58.4200   1
  -3   3  -1 837.330 56.1400   1
   3   3   1 823.390 57.7000   1
  -3   3  -1 811.240 52.8100   1
  -3  -3  -1 847.650 60.7100   1
  -3  -3  -1 787.850 55.5200   1
   3  -3   1 847.470 56.6500   1
   3  -3   1 874.030 59.5800   1
   3  -3   1 911.500 64.1500   1
  -1   0   5 856.020 57.9000   1
  -1   0   5 898.430 64.8400   1
   1   0  -5 912.590 64.7100   1
  -4   0  -2 781.900 54.5900   1
   4   0   2 778.370 52.7800   1
  -2   1  -4 872.710 61.5800   1
  -2   1  -4 750.730 51.3800   1
  -2  -1  -4 977.880 67.4100   1
  -2  -1  -4 864.260 60.3000   1
   2  -1   4 979.210 68.8400   1
   2   1   4 868.990 59.8700   1
  -2  -1  -4 913.210 65.3400   1
   0  -4   2 1032.33 78.0200   1
   0   4   2 943.410 70.3900   1
   0  -4   2 1032.92 72.0300   1
   0  -4  -2 1153.52 84.2500   1
   0   4  -2 953.580 73.1300   1
   0  -4  -2 1089.79 76.2600   1
   0   4  -2 983.460 73.6300   1
   0   0   5 969.440 70.7000   1
   0   0   5 899.040 62.8700   1
   0   0  -5 948.260 69.0400   1
  -1  -4   2 675.700 45.5600   1
   1  -4  -2 740.140 47.2500   1
  -1   4   2 699.810 44.7500   1
   1   4  -2 663.680 40.5500   1
   1  -4  -2 715.190 42.8400   1
  -1  -4   2 619.990 38.2500   1
  -1   4   2 737.930 46.3400   1
   1   4  -2 700.980 48.6200   1
   1  -4  -2 656.500 39.2300   1
   1   4  -2 720.730 47.7200   1
   1  -4  -2 707.040 44.4700   1
  -1   4   2 669.160 39.3800   1
  -1   4   2 782.770 52.4600   1
   2   4   0 1051.67 72.9100   1
  -2   4   0 988.650 71.4200   1
  -2   4   0 952.070 65.6000   1
   2  -4   0 979.960 70.5500   1
   2  -4   0 916.580 63.9300   1
   2  -4   0 971.420 69.8400   1
  -2  -4   0 911.390 68.0000   1
   2   4   0 1016.06 75.5200   1
   2   4   0 1036.93 76.4900   1
  -2  -4   0 877.220 63.5400   1
   2  -4   0 912.880 62.3200   1
   1   1  -5 93.0000 5.85000   1
   1  -1  -5 114.620 5.86000   1
  -1   1   5 87.1500 3.63000   1
  -1  -1   5 111.970 6.60000   1
  -1   1   5 93.6800 6.10000   1
  -1  -1   5 103.970 4.68000   1
  -4  -2  -1 268.170 15.0200   1
  -4   2  -1 232.080 10.9100   1
  -4   2  -1 235.760 10.8300   1
  -4   2  -1 253.780 14.3700   1
  -4  -2  -1 246.010 13.4200   1
   4   2   1 253.730 12.2700   1
  -4  -2  -1 227.830 11.1900   1
   4   2   1 252.750 14.3500   1
   4  -2   1 237.200 10.0400   1
  -2   0   5 580.610 35.0700   1
  -2   0   5 563.150 36.1000   1
   2   0  -5 574.060 35.9100   1
   2  -4  -1 81.8100 3.15000   1
   2  -4  -1 90.6400 3.78000   1
   2  -4  -1 84.9500 4.24000   1
  -2  -4   1 82.8300 4.53000   1
  -2   4   1 76.4600 5.09000   1
   2  -4  -1 81.3100 3.08000   1
   2   4  -1 78.9500 5.58000   1
   2   4  -1 76.2800 5.53000   1
  -2  -4   1 78.4300 5.38000   1
  -2  -4   1 81.7200 3.90000   1
   2   4  -1 74.8400 3.13000   1
  -4  -1  -2 92.0700 3.57000   1
  -4   1  -2 65.6200 3.03000   1
   4   1   2 76.2100 4.91000   1
   4   1   2 66.4000 2.94000   1
  -4   1  -2 66.2900 3.78000   1
  -4   1  -2 71.2900 5.14000   1
  -4  -1  -2 103.030 5.91000   1
   0   1   5 86.5900 5.61000   1
   0   1  -5 84.9300 5.43000   1
   0  -1  -5 84.7600 5.26000   1
   0  -1   5 86.0400 5.66000   1
   0  -1   5 79.3200 4.16000   1
   0   1   5 78.0400 3.70000   1
   0   1   5 74.7800 3.07000   1
   3  -2  -4 448.680 24.5400   1
  -3   2   4 504.960 27.3200   1
  -3  -2   4 440.700 26.1100   1
   3   2  -4 489.380 29.0700   1
  -3   2   4 495.410 28.5100   1
  -3   2   4 494.650 27.2300   1
   3  -2  -4 436.970 23.8900   1
  -3  -2   4 443.960 26.8100   1
  -3  -2   4 442.040 25.6700   1
  -5   0   1 38.5600 3.75000   1
   5   0  -1 41.7600 2.79000   1
  -5   0   1 29.8500 1.65000   1
  -5   0   1 38.0000 3.81000   1
  -2  -1   5 77.8800 4.28000   1
  -2  -1   5 82.6400 5.77000   1
   2  -1  -5 84.2600 5.16000   1
  -2   1   5 115.170 6.62000   1
  -2   1   5 122.160 5.40000   1
   2   1  -5 100.780 3.98000   1
   2   1  -5 116.710 5.90000   1
  -2  -1   5 83.8400 4.97000   1
  -1  -4  -2 417.650 24.5600   1
  -1   4  -2 422.070 24.5000   1
   1   4   2 420.280 24.9800   1
   1   4   2 441.010 23.1100   1
   1  -4   2 390.470 20.4400   1
   1  -4   2 397.470 23.9300   1
  -1  -4  -2 417.480 22.6700   1
  -1   4  -2 424.530 24.0200   1
   1   4   2 423.380 25.0500   1
   2   4   1 346.470 18.7800   1
   2   4   1 358.760 18.3700   1
  -2  -4  -1 350.850 18.8400   1
  -2   4  -1 348.160 18.9500   1
   2  -4   1 375.550 21.1000   1
   2  -4   1 343.780 17.3100   1
   2  -4   1 343.510 17.6000   1
   2   4   1 382.490 22.4700   1
   2   4   1 364.210 21.4300   1
  -2   4  -1 370.930 19.5600   1
  -2  -4  -1 361.030 21.1200   1
  -3  -3   3 876.730 60.3200   1
   3  -3  -3 922.160 60.7900   1
  -3  -3   3 859.200 60.5200   1
   3  -3  -3 826.760 57.3300   1
   3   3  -3 766.440 57.4200   1
  -3  -3   3 834.310 59.6000   1
  -3   3   3 847.050 58.0100   1
  -3   3   3 846.050 60.7100   1
   3  -3  -3 899.750 58.5300   1
   3  -3  -3 825.230 54.7400   1
   3  -3  -3 931.990 61.4100   1
   3   3  -3 849.140 60.6300   1
   4  -2  -3 497.230 28.3800   1
   4  -2  -3 484.040 27.1200   1
  -4   2   3 561.100 33.1900   1
  -4  -2   3 480.370 29.2800   1
   4   2  -3 553.980 34.2700   1
   4   2  -3 571.790 34.3800   1
  -4  -2   3 501.890 30.8100   1
  -4  -2   3 478.990 30.2600   1
  -4   2   3 542.590 29.5400   1
  -4   2   3 595.060 34.9500   1
   4  -2  -3 468.500 25.3000   1
   4  -2  -3 443.520 25.0600   1
   1  -3  -4 652.280 41.9400   1
  -1   3   4 690.320 46.3400   1
  -1   3   4 701.370 44.1700   1
  -1   3   4 639.550 39.3000   1
   1  -3  -4 667.320 41.1100   1
  -1  -3   4 659.460 43.6100   1
   1   3  -4 679.550 45.2100   1
  -1  -3   4 665.510 42.6100   1
   1   3  -4 656.580 45.5300   1
  -4   0   4 356.030 20.9500   1
  -4   0   4 374.910 19.1200   1
  -4   0   4 361.850 19.9500   1
   4   0  -4 337.180 17.0500   1
   4   0  -4 343.330 18.5600   1
  -2  -3  -3 81.3200 4.15000   1
  -2   3  -3 105.720 5.32000   1
  -2   3  -3 88.4100 4.66000   1
   2   3   3 92.6800 5.13000   1
  -2  -3  -3 82.5800 5.34000   1
   2  -3   3 80.7700 5.61000   1
   2   3   3 95.4200 6.31000   1
   2   3   3 97.2500 4.33000   1
  -5   0   0 357.120 19.8800   1
  -5   0   0 416.250 25.4100   1
   5   0   0 408.910 22.0500   1
   5   0   0 395.510 20.8200   1
  -3  -2  -3 180.500 9.78000   1
  -3   2  -3 221.960 11.0500   1
  -3   2  -3 241.580 10.0300   1
  -3  -2  -3 169.480 8.68000   1
   3  -2   3 174.110 10.8400   1
   3   2   3 228.320 12.4000   1
   3   2   3 220.070 10.2200   1
   0   3   4 386.050 20.8400   1
   0  -3  -4 392.790 22.3600   1
   0  -3  -4 414.290 22.9200   1
   0   3   4 404.040 22.3100   1
   0   3   4 370.090 22.3700   1
   0   3  -4 363.300 21.6000   1
   0  -3   4 398.670 21.8100   1
   0  -3   4 390.440 22.8300   1
   0   3  -4 374.110 22.3200   1
  -5   0   2 1041.14 79.5600   1
  -5   0   2 1041.68 80.5500   1
  -5   0   2 1015.18 75.9400   1
   5   0  -2 1045.30 76.0600   1
  -2  -4   2 282.740 16.5200   1
  -2   4   2 300.700 14.8000   1
  -2   4   2 324.120 18.0200   1
  -2   4   2 306.250 13.7200   1
   2  -4  -2 281.200 13.1800   1
   2   4  -2 300.380 14.4300   1
   2   4  -2 330.360 18.6200   1
   2   4  -2 330.140 19.5600   1
   2  -4  -2 297.540 14.9200   1
   2  -4  -2 285.370 13.7800   1
   2  -4  -2 267.430 12.7100   1
  -2   4   2 324.330 15.3500   1
  -2  -4   2 260.510 13.0000   1
  -2  -4   2 287.960 16.4400   1
  -1   0  -5 208.390 11.9300   1
   1   0   5 226.440 12.3900   1
  -5  -1   1 674.520 45.3000   1
  -5   1   1 617.830 38.5000   1
  -5   1   1 671.540 45.3600   1
   5   1  -1 621.900 40.0300   1
  -5  -1   1 676.450 45.6000   1
  -5  -1   1 674.740 45.9700   1
   5   1  -1 644.200 41.6000   1
   5  -1  -1 730.170 44.3200   1
   5  -1  -1 687.120 42.4300   1
  -5   1   1 645.020 44.0200   1
  -3  -3  -2 170.590 8.85000   1
  -3   3  -2 149.950 6.78000   1
  -3   3  -2 163.960 8.07000   1
  -3  -3  -2 173.620 10.0100   1
   3   3   2 161.100 8.30000   1
   3   3   2 170.340 10.4400   1
   3  -3   2 166.260 7.33000   1
   3  -3   2 183.050 9.87000   1
   3  -3   2 170.710 7.46000   1
   2   2   4 358.860 19.6000   1
  -2   2  -4 407.100 22.5000   1
  -2   2  -4 394.760 22.0200   1
  -2  -2  -4 368.370 19.9200   1
   2   2   4 339.710 18.1900   1
   2  -2   4 359.970 21.4900   1
   4   1  -4 289.640 14.9600   1
  -4  -1   4 329.120 16.9000   1
   4   1  -4 297.730 16.7400   1
   4  -1  -4 337.550 15.8500   1
  -4   1   4 285.650 14.3100   1
   4  -1  -4 345.480 17.0700   1
  -4   1   4 302.380 16.1200   1
  -4   1   4 303.140 17.7100   1
  -4  -1   4 350.590 18.8700   1
  -4  -1   4 349.460 19.1200   1
  -4  -3   1 739.640 50.3400   1
   4   3  -1 734.310 50.7100   1
  -4  -3   1 676.020 47.4200   1
   4   3  -1 719.550 49.5400   1
  -4  -3   1 725.550 48.4200   1
  -4   3   1 728.000 47.9900   1
  -4   3   1 706.420 45.8400   1
   4  -3  -1 712.840 46.7000   1
  -4   3   1 712.080 47.3100   1
   4  -3  -1 800.750 52.5900   1
  -5  -1   0 36.8700 3.98000   1
   5  -1   0 37.0500 2.30000   1
   5  -1   0 35.6200 1.59000   1
  -5   1   0 44.1400 4.02000   1
   5   1   0 43.4600 2.96000   1
   5   1   0 40.7800 2.53000   1
  -5   1   0 32.0500 1.58000   1
  -5   1   2 288.850 16.9300   1
   5  -1  -2 273.620 13.2000   1
  -5   1   2 288.910 16.0600   1
  -5   1   2 266.590 12.8000   1
   5  -1  -2 259.250 13.3700   1
   5  -1  -2 263.850 13.4300   1
  -5  -1   2 293.340 16.2400   1
  -5  -1   2 289.780 16.7500   1
  -5  -1   2 289.230 16.9200   1
   5   1  -2 300.020 15.5000   1
   5   1  -2 298.040 16.0600   1
   2  -3  -4 770.900 48.2900   1
  -2   3   4 536.800 31.6700   1
  -2   3   4 661.710 44.9700   1
   2  -3  -4 678.320 40.1000   1
  -2  -3   4 758.410 49.3000   1
  -2  -3   4 675.030 43.7700   1
  -2  -3   4 732.200 46.3000   1
   2   3  -4 632.670 45.0500   1
   2   3  -4 652.390 43.6500   1
   2  -3  -4 700.600 44.4700   1
  -2   3   4 615.260 39.3500   1
   3   0  -5 518.060 29.7500   1
  -3   0   5 635.880 38.7800   1
  -3   0   5 626.020 40.3800   1
  -3   0   5 591.690 33.3400   1
   3   0  -5 611.390 38.0200   1
   1   1   5 45.6300 3.50000   1
  -1  -1  -5 47.0000 3.95000   1
   1  -1   5 48.6400 3.06000   1
   1   1   5 36.4400 1.80000   1
   1  -1   5 51.7100 3.96000   1
  -1   1  -5 40.2700 3.77000   1
   1  -2  -5 982.300 69.0400   1
  -1  -2   5 978.910 67.9800   1
  -1   2   5 912.200 65.2500   1
  -1   2   5 863.380 56.6100   1
  -1   2   5 791.490 51.8800   1
  -1   2   5 838.210 55.2500   1
  -1  -2   5 953.000 67.9900   1
   1   2  -5 864.480 62.7400   1
  -4  -3   0 10.8300 2.39000   1
   4   3   0 10.4000 2.04000   1
   4   3   0 10.1000 1.67000   1
  -4  -3   0 7.36000 1.89000   1
  -4   3   0 11.9700 1.63000   1
  -4   3   0 10.0100 1.25000   1
   4  -3   0 7.03000 0.91000   1
   4  -3   0 6.98000 1.56000   1
  -1   4   3 234.820 11.5600   1
   1  -4  -3 276.970 13.2800   1
  -1   4   3 268.210 13.7500   1
   1  -4  -3 273.840 13.5900   1
  -1   4   3 276.670 13.2900   1
  -1   4   3 269.320 15.9000   1
   1   4  -3 268.250 14.8700   1
   1   4  -3 247.760 12.0700   1
   1   4  -3 263.690 16.3100   1
  -1  -4   3 275.860 13.0800   1
  -1  -4   3 296.560 16.9600   1
   0  -4  -3 162.830 8.10000   1
   0   4   3 185.250 8.45000   1
   0   4   3 180.780 10.6400   1
   0   4   3 190.680 9.43000   1
   0   4  -3 173.140 10.3700   1
   0  -4   3 164.430 9.93000   1
   0   4  -3 187.190 10.1100   1
   0  -4   3 146.340 6.81000   1
  -4   2  -2 883.790 62.2500   1
  -4   2  -2 840.610 60.4100   1
  -4   2  -2 910.480 67.3200   1
  -4  -2  -2 978.350 71.6900   1
  -4  -2  -2 880.400 64.0700   1
   4   2   2 994.790 73.3600   1
   4   2   2 979.490 69.0500   1
   0  -2  -5 602.760 39.6300   1
   0   2   5 675.060 43.2700   1
   0  -2   5 662.940 43.0700   1
   0  -2   5 670.370 42.4400   1
   0   2   5 571.050 33.9500   1
   0   2   5 636.930 40.0200   1
   0   2   5 579.350 38.6100   1
   0   2  -5 605.570 40.0300   1
  -4   3   2 371.570 19.8700   1
   4  -3  -2 340.640 18.2600   1
   4  -3  -2 368.060 19.9500   1
  -4  -3   2 361.280 21.1100   1
  -4  -3   2 354.020 21.0300   1
  -4   3   2 408.540 22.1100   1
   4   3  -2 365.140 21.7000   1
  -4   3   2 372.880 20.5600   1
   4   3  -2 359.710 22.1700   1
  -4  -3   2 373.460 21.1800   1
   1   3   4 271.180 13.3200   1
   1   3   4 293.330 17.0400   1
   1   3   4 285.090 16.4100   1
  -1  -3  -4 275.580 15.0000   1
  -1   3  -4 274.420 15.4200   1
   1  -3   4 284.540 14.9700   1
  -1  -3  -4 278.950 13.4800   1
  -1   3  -4 281.250 15.2800   1
   1   3   4 301.940 15.8300   1
   1  -3   4 286.300 16.7100   1
   3  -1  -5 448.850 24.7300   1
  -3   1   5 363.240 19.7900   1
  -3   1   5 376.000 23.0300   1
   3   1  -5 384.500 22.7800   1
  -3  -1   5 429.910 23.0300   1
  -3  -1   5 426.300 24.4600   1
  -3  -1   5 438.530 25.8700   1
   3   1  -5 358.920 19.5300   1
  -3   0  -4 237.320 11.1600   1
  -3   0  -4 245.090 14.0000   1
  -3   0  -4 271.080 14.5900   1
   5   0   1 29.9600 2.27000   1
  -5   0  -1 30.8300 3.57000   1
   5   0   1 26.2000 1.17000   1
   3   4  -1 37.2600 3.83000   1
  -3  -4   1 24.1800 1.95000   1
  -3  -4   1 29.4800 3.34000   1
  -3  -4   1 28.3700 2.98000   1
   3   4  -1 33.7500 3.09000   1
   3   4  -1 36.3600 1.70000   1
  -3   4   1 38.8500 2.58000   1
  -3   4   1 28.8200 0.98000   1
   3  -4  -1 28.0400 2.16000   1
   3  -4  -1 25.3900 1.48000   1
   3  -4  -1 28.3000 1.55000   1
  -2   2   5 291.260 16.7400   1
  -2  -2   5 331.830 19.1300   1
  -2  -2   5 313.330 17.9400   1
   2  -2  -5 339.150 17.8100   1
   2   2  -5 263.850 16.0700   1
  -2  -2   5 330.660 17.1200   1
   5   0  -3 453.590 25.7800   1
  -5   0   3 444.040 27.3400   1
  -5   0   3 423.770 25.8800   1
   5   0  -3 430.090 24.5700   1
   3   4   0 271.050 15.7800   1
   3   4   0 289.840 17.5800   1
   3   4   0 257.680 13.1700   1
  -3  -4   0 343.470 19.4200   1
  -3  -4   0 354.440 18.3800   1
   3  -4   0 373.830 19.5400   1
   3  -4   0 326.430 14.5500   1
  -3   4   0 267.220 14.3700   1
  -3   4   0 245.110 11.5200   1
   3  -4   0 326.650 15.8900   1
   2   4   2 668.720 43.6500   1
   2   4   2 702.400 48.5000   1
   2   4   2 636.570 42.8200   1
   2  -4   2 774.900 51.8400   1
  -2   4  -2 709.630 46.5400   1
  -2  -4  -2 762.690 51.7700   1
  -2  -4  -2 722.330 46.5300   1
  -2   4  -2 774.400 51.0600   1
   2  -4   2 665.230 43.5000   1
   2   4   2 726.100 50.1700   1
  -4   0  -3 442.720 27.0700   1
  -4   0  -3 409.200 21.0900   1
  -4   0  -3 470.830 27.4700   1
  -3   1  -4 286.560 13.5500   1
  -3   1  -4 339.770 18.3100   1
  -3  -1  -4 271.540 14.2000   1
  -3  -1  -4 290.480 16.9100   1
  -3  -1  -4 294.910 16.5300   1
   3   1   4 349.590 17.5600   1
   5   1   1 335.570 16.3100   1
   5   1   1 360.380 19.8300   1
   5  -1   1 274.890 15.2900   1
  -5  -1  -1 291.640 18.5400   1
  -5   1  -1 303.900 15.9900   1
  -5   1  -1 335.690 19.9800   1
  -5   2   1 174.540 10.1000   1
  -5   2   1 174.400 9.51000   1
  -5  -2   1 164.280 9.78000   1
  -5  -2   1 161.750 9.96000   1
   5   2  -1 172.260 9.29000   1
   5   2  -1 170.550 9.13000   1
   5  -2  -1 157.450 7.06000   1
  -5  -2   1 169.560 10.2000   1
  -4  -3  -1 190.140 10.6800   1
  -4  -3  -1 200.190 11.9800   1
   4   3   1 205.980 10.9600   1
   4   3   1 233.670 13.3500   1
   4  -3   1 207.720 11.7100   1
   4  -3   1 196.990 8.74000   1
  -4   3  -1 200.510 8.65000   1
  -4   3  -1 174.950 7.57000   1
  -4   3  -1 200.530 11.3500   1
   2  -4  -3 350.200 17.8000   1
   2  -4  -3 295.030 13.5600   1
  -2   4   3 374.080 21.9000   1
  -2   4   3 339.980 17.2600   1
   2  -4  -3 325.410 16.5100   1
  -2   4   3 321.060 15.8400   1
   2  -4  -3 300.140 15.1800   1
   2  -4  -3 321.470 16.4700   1
   2   4  -3 344.150 21.5200   1
  -2  -4   3 318.170 18.7100   1
  -2  -4   3 324.880 19.1600   1
   2   4  -3 340.630 19.8900   1
  -2  -4   3 313.080 16.0500   1
   2   4  -3 311.770 15.9100   1
  -5  -1   3 338.470 20.9200   1
  -5  -1   3 350.210 19.9700   1
   5  -1  -3 340.770 18.5200   1
   5  -1  -3 345.660 18.1800   1
  -5   1   3 408.050 23.3500   1
  -5   1   3 426.100 21.9800   1
  -5  -1   3 337.560 20.7000   1
  -5   1   3 408.590 24.1300   1
   5   1  -3 425.050 22.9200   1
   1   4   3 249.110 14.0100   1
   1   4   3 277.340 14.0700   1
   1   4   3 249.960 14.5100   1
   1   4   3 282.990 13.4200   1
  -1  -4  -3 256.930 13.9100   1
  -1  -4  -3 232.940 11.6100   1
   1  -4   3 244.230 14.4200   1
  -1   4  -3 260.440 13.9600   1
  -1   4  -3 264.820 14.0300   1
   1  -4   3 246.920 12.5200   1
  -3  -4   2 510.130 32.3800   1
  -3  -4   2 535.930 33.2700   1
  -3  -4   2 508.300 29.6900   1
   3   4  -2 545.990 34.4800   1
   3   4  -2 530.920 31.3400   1
   3   4  -2 535.640 34.9400   1
   3  -4  -2 555.780 32.6800   1
   3  -4  -2 410.790 21.6000   1
   3  -4  -2 474.330 25.2800   1
   3  -4  -2 528.830 30.3800   1
  -3   4   2 559.230 31.9500   1
  -3   4   2 561.100 34.0800   1
  -3   4   2 479.770 28.6600   1
   3  -4  -2 505.130 28.9400   1
  -4   1  -3 125.210 6.72000   1
  -4  -1  -3 123.640 5.35000   1
  -4  -1  -3 132.840 7.26000   1
   4   1   3 119.430 5.12000   1
   4   1   3 123.170 7.21000   1
  -4   1  -3 120.000 7.15000   1
  -4  -2   4 175.660 9.46000   1
  -4  -2   4 172.160 9.56000   1
  -4   2   4 158.290 8.04000   1
  -4   2   4 159.940 8.98000   1
   4   2  -4 161.980 9.43000   1
  -4  -2   4 177.790 10.1200   1
  -4   2   4 154.430 6.83000   1
   4  -2  -4 178.110 7.97000   1
   4  -2  -4 175.280 7.70000   1
   4  -2  -4 154.020 5.91000   1
   4  -2  -4 137.310 5.45000   1
   0   5   0 -0.9800 1.77000   1
   0   5   0 0.81000 1.11000   1
   0  -5   0 0.39000 0.93000   1
   0  -5   0 0.69000 1.55000   1
   5   2   0 630.890 38.9400   1
   5   2   0 626.780 40.2000   1
   5  -2   0 573.110 33.6900   1
  -5   2   0 593.880 35.6700   1
  -5   2   0 628.770 41.6900   1
  -5  -2   0 603.930 41.1300   1
  -5  -2   0 598.210 40.5500   1
  -5   2   2 426.800 26.0400   1
  -5   2   2 428.260 25.3000   1
  -5  -2   2 409.060 24.5100   1
   5   2  -2 421.770 25.1500   1
   5   2  -2 415.190 24.8800   1
   5  -2  -2 413.940 20.4600   1
  -5  -2   2 405.250 25.1300   1
  -5  -2   2 403.110 25.3900   1
   3   4   1 54.9200 4.20000   1
   3   4   1 48.8000 2.40000   1
   3   4   1 59.9700 4.89000   1
  -3  -4  -1 43.6800 3.11000   1
  -3  -4  -1 46.0100 3.91000   1
   3  -4   1 42.4600 2.18000   1
   3  -4   1 38.9900 2.21000   1
   3  -4   1 48.0200 3.62000   1
  -3   4  -1 57.7000 2.30000   1
  -3   4  -1 54.6500 2.85000   1
   3  -4   1 43.3900 1.89000   1
   3  -3  -4 439.260 22.6500   1
   3  -3  -4 512.160 28.7900   1
   3  -3  -4 516.810 28.5700   1
   3  -3  -4 494.440 26.6900   1
  -3   3   4 449.810 28.1400   1
  -3   3   4 425.800 22.5600   1
  -3   3   4 459.950 26.8500   1
  -3  -3   4 484.460 30.3100   1
  -3  -3   4 494.290 29.4900   1
   3   3  -4 463.580 31.1100   1
   3   3  -4 489.610 30.2900   1
  -3  -3   4 472.590 27.9200   1
   1   2   5 388.560 22.9600   1
   1   2   5 415.570 24.7700   1
   1  -2   5 404.580 24.1800   1
   1   2   5 367.500 19.9300   1
  -1  -2  -5 402.240 24.2700   1
  -1   2  -5 411.530 24.6600   1
   1  -2   5 397.160 23.1000   1
  -2   0  -5 305.200 16.8000   1
  -2   0  -5 253.730 12.9200   1
   0  -5  -1 447.390 25.2000   1
   0   5   1 450.150 28.0900   1
   0  -5   1 427.580 27.1100   1
   0   5   1 453.590 26.8600   1
   0   5  -1 457.760 27.2700   1
   0   5  -1 485.670 30.5900   1
   0  -5  -1 444.330 26.4900   1
   4  -3  -3 390.380 19.0000   1
   4  -3  -3 393.250 21.6200   1
   4  -3  -3 330.660 16.3800   1
   4   3  -3 482.040 28.2800   1
  -4  -3   3 391.460 25.0300   1
  -4  -3   3 349.440 22.4900   1
  -4   3   3 483.090 26.6100   1
  -4   3   3 465.910 25.2100   1
  -4   3   3 546.110 30.2800   1
   4   3  -3 478.410 29.0800   1
  -4  -3   3 382.430 22.5700   1
   4  -3  -3 422.650 22.7200   1
   1   5   0 13.5600 2.53000   1
  -1  -5   0 15.5100 1.61000   1
   1   5   0 20.7700 3.06000   1
   1  -5   0 17.1800 2.17000   1
   1  -5   0 11.9400 1.03000   1
  -1   5   0 14.9800 1.53000   1
  -1   5   0 19.5900 2.80000   1
  -1  -5   0 15.4800 2.64000   1
  -3   3  -3 534.800 31.7400   1
   3   3   3 550.470 34.5300   1
   3  -3   3 574.660 37.9900   1
   3   3   3 550.720 37.2500   1
  -3  -3  -3 580.890 36.0800   1
  -3  -3  -3 602.970 39.5200   1
  -3   3  -3 577.740 36.3500   1
  -3  -2   5 917.080 69.0300   1
  -3   2   5 975.080 67.9500   1
  -3   2   5 982.300 72.3500   1
   3   2  -5 968.450 71.5900   1
   3  -2  -5 924.510 65.9800   1
  -3  -2   5 911.420 66.6500   1
  -3  -2   5 920.790 68.2800   1
  -1   5   1 920.920 68.5800   1
  -1  -5   1 1058.20 80.9300   1
  -1  -5   1 1099.65 81.5600   1
  -1  -5   1 1014.99 71.7900   1
   1  -5  -1 1061.24 79.9700   1
  -1   5   1 996.690 77.5600   1
   1   5  -1 966.330 76.9100   1
   1   5  -1 1028.41 78.5500   1
   1  -5  -1 1111.60 82.6400   1
   2  -1   5 65.3500 4.33000   1
  -2  -1  -5 68.3300 5.29000   1
   2  -1   5 68.8700 5.08000   1
  -2   1  -5 69.0000 3.18000   1
  -2   1  -5 75.1200 4.70000   1
   1   0  -6 0.41000 1.55000   1
  -1   0   6 1.12000 0.96000   1
  -1   0   6 0.53000 2.00000   1
   4   0  -5 800.840 54.0800   1
  -4   0   5 800.220 56.0100   1
  -4   0   5 803.820 54.5400   1
   4   0  -5 716.980 47.1800   1
   1  -5   1 920.130 66.0200   1
   1   5   1 890.380 64.4100   1
   1   5   1 761.040 58.1500   1
  -1  -5  -1 873.440 63.5000   1
  -1   5  -1 869.520 61.1300   1
  -1   5  -1 894.300 64.5300   1
  -1  -5  -1 846.240 58.4500   1
  -2   3  -4 199.430 11.2300   1
   2   3   4 190.600 9.69000   1
   2   3   4 213.220 11.5700   1
  -2   3  -4 211.150 11.3800   1
   2   3   4 199.790 12.6200   1
   2  -3   4 213.300 12.4500   1
   2  -3   4 217.860 11.1200   1
  -2  -3  -4 211.550 10.6400   1
  -2  -3  -4 196.660 10.1900   1
   5   0   2 498.270 30.1000   1
  -5   0  -2 461.990 29.6100   1
   2   0  -6 50.0500 3.63000   1
  -2   0   6 41.6500 2.92000   1
  -2   0   6 45.8600 4.37000   1
  -3   2  -4 223.550 12.2000   1
  -3  -2  -4 197.710 10.5100   1
   3  -2   4 196.010 12.1200   1
   3   2   4 201.850 10.0500   1
   3   2   4 213.950 12.8300   1
  -5   2  -1 64.0100 2.94000   1
  -5   2  -1 70.5800 3.51000   1
  -5  -2  -1 56.3200 3.51000   1
   5   2   1 69.8700 3.98000   1
   5   2   1 74.1200 4.68000   1
  -5  -2  -1 59.3100 4.75000   1
  -5  -2  -1 48.2900 4.00000   1
  -5   2  -1 76.8000 5.06000   1
   5   0  -4 462.820 26.7900   1
  -5   0   4 460.910 29.8800   1
  -5   0   4 485.150 29.5000   1
   5   0  -4 482.290 28.3300   1
  -1   3   5 104.120 5.63000   1
   1  -3  -5 78.4000 5.07000   1
  -1   3   5 101.080 6.67000   1
  -1   3   5 98.4900 4.19000   1
   1   3  -5 99.0800 6.63000   1
   1   3  -5 105.380 7.44000   1
  -1  -3   5 83.4800 5.23000   1
  -1  -3   5 83.4900 5.84000   1
   0   0   6 11.7200 3.03000   1
   0   0   6 13.8100 1.52000   1
   0   0  -6 15.6600 2.67000   1
   1  -1  -6 956.820 70.1300   1
   1   1  -6 885.950 65.6800   1
  -1  -1   6 954.420 67.8400   1
  -1  -1   6 993.080 73.4400   1
  -1   1   6 805.210 58.2000   1
  -1   1   6 900.530 67.0300   1
  -5   2   3 252.430 14.8900   1
  -5   2   3 221.760 10.3700   1
   5   2  -3 253.870 14.0300   1
  -5  -2   3 287.770 15.6300   1
  -5  -2   3 288.230 16.6700   1
  -5  -2   3 295.210 16.6000   1
   5   2  -3 258.850 15.6200   1
   5  -2  -3 281.730 13.8900   1
   5  -2  -3 267.260 11.9700   1
  -5   2   3 264.340 14.2700   1
  -4   1   5 53.9400 3.50000   1
  -4  -1   5 47.4800 3.52000   1
  -4  -1   5 37.8600 3.92000   1
  -4  -1   5 36.9800 3.92000   1
   4  -1  -5 36.3400 2.50000   1
   4   1  -5 44.3000 2.32000   1
   4   1  -5 48.8500 3.37000   1
  -4   1   5 46.1600 4.18000   1
  -3   4   3 418.560 25.7800   1
  -3   4   3 428.640 23.5900   1
  -3   4   3 417.940 23.1200   1
   3   4  -3 417.810 26.0100   1
   3   4  -3 412.560 26.5400   1
   3  -4  -3 399.450 20.7500   1
   3  -4  -3 383.870 21.6400   1
   3  -4  -3 396.860 21.1500   1
   3  -4  -3 399.860 21.5300   1
  -3  -4   3 393.750 24.5300   1
  -3  -4   3 403.870 24.4300   1
   3  -4  -3 401.960 21.7800   1
  -3  -4   3 390.420 21.9400   1
   1   4  -4 81.9000 6.44000   1
   1  -4  -4 76.8000 4.22000   1
   1  -4  -4 79.1800 4.20000   1
   1   4  -4 82.6400 5.85000   1
  -1   4   4 86.6800 4.70000   1
  -1  -4   4 67.4300 3.70000   1
  -1   4   4 80.2300 3.67000   1
  -1  -4   4 75.3000 5.26000   1
  -1   4   4 78.8800 5.95000   1
  -4  -2  -3 581.290 37.3100   1
  -4   2  -3 559.880 35.3200   1
   4  -2   3 698.910 46.0100   1
   4   2   3 535.640 32.5600   1
   4   2   3 585.290 38.3800   1
  -4   2  -3 569.000 38.0900   1
  -4  -2  -3 624.130 40.6100   1
  -4  -3  -2 8.62000 2.00000   1
   4   3   2 0.91000 2.27000   1
   4   3   2 0.92000 1.34000   1
  -4  -3  -2 11.7400 2.06000   1
   4  -3   2 9.50000 2.26000   1
  -4   3  -2 1.07000 1.12000   1
  -2  -4  -3 58.0100 3.96000   1
   2  -4   3 50.9600 2.87000   1
   2  -4   3 59.1000 4.93000   1
   2   4   3 61.5800 5.17000   1
   2   4   3 55.7300 2.97000   1
   2   4   3 64.1600 4.82000   1
  -2   4  -3 59.8400 3.54000   1
  -2   4  -3 63.9600 4.23000   1
  -2  -4  -3 51.4100 3.22000   1
   0  -5   2 87.9500 3.60000   1
   0  -5   2 99.6500 6.66000   1
   0   5  -2 123.960 6.42000   1
   0  -5  -2 100.950 5.56000   1
   0   5  -2 100.580 6.76000   1
   0  -5  -2 93.3000 4.02000   1
   0   5   2 111.180 5.69000   1
   0   5   2 88.2000 3.13000   1
   0   5   2 112.170 7.37000   1
   0   5   2 87.2900 3.23000   1
   0  -3   5 46.4900 3.70000   1
   0  -3   5 47.8400 3.44000   1
   0   3   5 33.6200 3.24000   1
   0   3  -5 34.6900 3.85000   1
   0  -3  -5 51.5900 3.44000   1
   0   3  -5 39.4900 4.29000   1
   0   3   5 31.4300 2.23000   1
   0   3   5 35.5700 3.58000   1
  -5  -1  -2 113.140 5.25000   1
  -5  -1  -2 120.440 8.43000   1
  -5   1  -2 139.200 8.90000   1
  -5   1  -2 140.190 6.95000   1
   5   1   2 128.410 5.20000   1
   5   1   2 137.940 8.06000   1
   0   4  -4 129.000 7.74000   1
   0   4  -4 123.990 8.31000   1
   0  -4  -4 116.640 6.01000   1
   0   4   4 132.670 6.98000   1
   0   4   4 133.880 8.57000   1
   0  -4   4 119.160 5.84000   1
   0  -4   4 118.220 7.87000   1
   0   4   4 134.950 7.75000   1
  -2  -1   6 1305.60 103.000   1
   2   1  -6 1240.80 98.6300   1
   2   1  -6 1401.35 111.060   1
  -2  -1   6 1135.89 87.2200   1
  -2  -1   6 1256.47 100.600   1
  -2   1   6 1334.06 106.230   1
  -2   1   6 1381.74 105.620   1
  -2   1   6 1103.91 80.8800   1
  -2   1   6 875.300 63.6500   1
   2  -1  -6 1342.11 106.320   1
   1   5  -2 46.2700 4.77000   1
  -1  -5   2 54.2600 4.15000   1
  -1  -5   2 60.0400 4.42000   1
  -1   5   2 50.4000 4.94000   1
   1  -5  -2 53.1600 2.26000   1
   1  -5  -2 54.3700 2.22000   1
   1  -5  -2 59.1500 3.36000   1
   1   5  -2 50.1300 3.87000   1
  -1   5   2 44.0000 2.81000   1
  -1  -5   2 55.3600 2.58000   1
   2  -5   0 82.5700 3.19000   1
   2   5   0 97.0400 6.75000   1
   2   5   0 91.8100 6.10000   1
   2   5   0 87.8400 3.60000   1
  -2  -5   0 97.7900 5.22000   1
  -2   5   0 84.6000 4.15000   1
  -2   5   0 98.1500 6.06000   1
   2  -5   0 103.480 5.58000   1
  -2  -5   0 110.200 7.00000   1
   2  -5   0 82.1700 3.61000   1
  -5   1   4 618.610 38.9700   1
  -5   1   4 607.730 39.1400   1
  -5   1   4 611.260 40.6400   1
  -5  -1   4 599.460 39.8000   1
   5  -1  -4 583.260 36.1700   1
   5   1  -4 615.540 39.0000   1
   5  -1  -4 610.590 37.7700   1
  -5  -1   4 619.210 40.9000   1
  -5  -1   4 603.660 37.9600   1
   3   4   2 574.180 37.4500   1
   3   4   2 587.620 40.1700   1
  -3  -4  -2 594.850 37.6900   1
  -3  -4  -2 598.070 40.3500   1
   3  -4   2 635.980 41.4800   1
   3  -4   2 577.620 35.7600   1
  -3   4  -2 578.700 36.0800   1
   3  -4   2 586.230 37.7000   1
  -3   4  -2 583.100 36.5900   1
   0  -1   6 389.780 25.1500   1
   0  -1  -6 379.510 24.0600   1
   0   1   6 393.140 22.8700   1
   0  -1   6 390.950 22.4700   1
   0   1   6 477.460 29.1100   1
   0   1   6 422.310 23.2500   1
   0   1  -6 439.390 26.3000   1
  -2   3   5 308.320 17.1500   1
   2   3  -5 292.230 18.1200   1
   2   3  -5 288.200 19.4500   1
   2  -3  -5 336.740 17.7800   1
  -2  -3   5 325.410 18.5700   1
  -2  -3   5 311.780 17.6000   1
  -2   3   5 293.180 18.4400   1
  -2  -3   5 335.910 20.2700   1
  -2   5   1 297.780 14.9600   1
  -2  -5   1 331.230 19.4600   1
  -2  -5   1 327.780 18.0100   1
  -2  -5   1 308.890 15.2100   1
  -2   5   1 331.410 19.3500   1
   2  -5  -1 262.640 12.0700   1
   2  -5  -1 267.140 13.2900   1
   2   5  -1 321.930 18.6500   1
   2   5  -1 271.120 17.5500   1
   2  -5  -1 324.080 16.7100   1
   2  -5  -1 322.650 17.1500   1
   2   5  -1 299.510 14.5100   1
  -4  -4   1 123.470 6.55000   1
   4   4  -1 112.760 7.34000   1
  -4  -4   1 117.120 8.95000   1
  -4  -4   1 122.430 7.74000   1
   4  -4  -1 131.380 6.77000   1
   4   4  -1 132.670 8.41000   1
  -4   4   1 121.840 6.18000   1
  -2  -4   4 256.280 13.5100   1
  -2   4   4 277.880 14.1000   1
   2  -4  -4 290.510 14.6200   1
  -2   4   4 268.370 13.2700   1
   2  -4  -4 274.030 13.6400   1
  -2   4   4 315.000 18.8200   1
   2   4  -4 278.860 16.8300   1
  -2  -4   4 270.020 15.6300   1
   2   4  -4 281.970 18.0300   1
  -2  -4   4 291.800 17.5200   1
  -6   0   1 123.870 8.65000   1
   6   0  -1 122.600 6.30000   1
   6   0  -1 119.500 5.78000   1
  -6   0   1 120.070 8.68000   1
   2   2   5 192.340 10.8400   1
  -2  -2  -5 221.610 10.9100   1
   2   2   5 186.090 10.8700   1
   2  -2   5 206.220 11.9600   1
  -2  -2  -5 224.840 13.2500   1
  -2   2  -5 195.180 11.9000   1
   2  -2   5 206.700 12.3600   1
  -2   2  -5 217.970 12.2400   1
   5   3  -1 517.020 33.0400   1
   5   3  -1 499.270 32.4600   1
   5  -3  -1 448.740 26.8000   1
   5  -3  -1 543.320 33.2400   1
  -5   3   1 542.340 33.6000   1
  -5  -3   1 527.780 33.2400   1
  -5  -3   1 504.510 32.9800   1
  -5   3   1 512.840 32.1600   1
  -5  -3   1 506.360 32.6200   1
   1  -5   2 113.070 5.05000   1
   1  -5   2 125.310 7.67000   1
  -1  -5  -2 120.400 7.57000   1
  -1  -5  -2 107.480 5.48000   1
  -1   5  -2 146.990 7.43000   1
  -1   5  -2 156.510 8.96000   1
   1   5   2 140.790 7.90000   1
   1   5   2 133.060 5.61000   1
   1   5   2 151.300 5.94000   1
   1   5   2 143.030 9.03000   1
  -4  -4   0 501.510 35.4200   1
  -4   4   0 547.720 33.2500   1
  -4  -4   0 559.480 36.0100   1
   4  -4   0 603.480 38.5700   1
   4   4   0 590.530 39.4300   1
   4   4   0 527.740 34.5600   1
  -3   0   6 40.9000 2.07000   1
   3   0  -6 43.2100 3.36000   1
  -3   0   6 40.7500 3.06000   1
  -3   0   6 44.8300 4.43000   1
  -2  -5  -1 456.740 26.6700   1
  -2  -5  -1 492.600 32.0200   1
   2   5   1 504.700 31.1800   1
  -2   5  -1 486.220 28.4400   1
  -2   5  -1 529.780 31.3700   1
   2  -5   1 494.300 30.3200   1
   2  -5   1 396.080 21.8500   1
   2  -5   1 454.070 26.8100   1
   2   5   1 499.180 31.2200   1
   2   5   1 490.050 27.5800   1
   2  -5   1 432.640 23.1300   1
  -6   0   2 505.460 33.8700   1
  -6   0   2 554.790 36.7200   1
   6   0  -2 511.310 30.2600   1
  -4  -3   4 372.430 21.6000   1
   4   3  -4 422.080 26.2900   1
   4   3  -4 401.530 23.8900   1
   4  -3  -4 321.710 16.2100   1
   4  -3  -4 355.750 18.8300   1
   4  -3  -4 373.920 19.0000   1
   4  -3  -4 351.880 19.1200   1
  -4  -3   4 355.350 21.5300   1
  -4   3   4 412.550 23.2300   1
  -4  -3   4 375.450 23.6500   1
  -4   3   4 453.490 23.8200   1
   1   0   6 0.66000 2.12000   1
   1   0   6 1.91000 1.16000   1
  -1   0  -6 0.78000 1.96000   1
  -5   3   0 57.9100 4.87000   1
  -5  -3   0 58.2400 5.17000   1
  -5  -3   0 60.0400 4.89000   1
   5  -3   0 57.1200 4.41000   1
   5   3   0 54.9900 3.74000   1
   5   3   0 60.0900 4.55000   1
   5  -3   0 53.7900 2.44000   1
   4   4  -2 495.090 32.2900   1
   4   4  -2 477.910 32.0600   1
  -4  -4   2 506.360 32.3100   1
  -4  -4   2 536.580 32.1600   1
  -4   4   2 425.080 25.5700   1
  -4   4   2 476.790 29.6800   1
  -4  -4   2 539.900 35.2300   1
   4  -4  -2 538.370 31.2900   1
  -5   3   2 175.170 9.07000   1
  -5   3   2 188.190 9.97000   1
   5   3  -2 187.160 11.0900   1
  -5  -3   2 154.140 9.69000   1
   5   3  -2 185.980 10.9700   1
   5  -3  -2 152.660 7.84000   1
  -5  -3   2 158.260 10.1300   1
  -5  -3   2 147.290 9.88000   1
  -1   4  -4 146.300 8.37000   1
  -1  -4  -4 157.180 8.09000   1
   1  -4   4 155.930 7.52000   1
   1   4   4 154.060 7.80000   1
   1   4   4 139.660 9.06000   1
  -1  -4  -4 138.740 5.96000   1
   1   4   4 145.850 9.19000   1
   1  -4   4 148.190 9.33000   1
   1   4   4 131.280 5.85000   1
  -1   4  -4 155.190 8.43000   1
   2   5  -2 74.0000 6.02000   1
   2  -5  -2 63.8500 3.08000   1
   2  -5  -2 58.5300 2.63000   1
   2  -5  -2 64.1500 3.55000   1
  -2   5   2 85.0800 5.69000   1
  -2  -5   2 62.7400 4.53000   1
  -2  -5   2 60.2000 3.17000   1
  -2   5   2 77.4100 3.58000   1
  -2   5   2 72.7300 2.80000   1
  -2  -5   2 71.7500 5.52000   1
   2   5  -2 70.2500 2.92000   1
   2   5  -2 76.8300 5.71000   1
   1  -3   5 74.8000 5.19000   1
  -1   3  -5 69.7800 4.87000   1
  -1   3  -5 73.5500 4.73000   1
   1  -3   5 77.1300 5.72000   1
   1   3   5 69.9700 4.72000   1
   1   3   5 66.2300 3.03000   1
   1   3   5 75.7400 5.22000   1
  -1  -3  -5 71.9400 5.47000   1
  -6  -1   1 540.860 36.6300   1
  -6  -1   1 537.800 36.2600   1
   6  -1  -1 506.400 30.0200   1
   6  -1  -1 576.720 33.7600   1
   6   1  -1 559.200 34.4500   1
  -6   1   1 557.600 36.6800   1
   6   1  -1 557.050 34.6100   1
  -6   1   1 476.010 29.6500   1
  -6   1   1 566.770 37.9100   1
   6   0   0 755.500 49.5000   1
   6   0   0 817.310 56.1700   1
  -6   0   0 742.580 55.8200   1
  -4   0  -4 418.630 22.8400   1
  -4   0  -4 477.830 29.3800   1
  -4   0  -4 447.920 28.0000   1
  -1   2   6 9.52000 2.54000   1
  -1   2   6 8.41000 0.82000   1
  -1   2   6 7.97000 0.71000   1
  -1  -2   6 12.9000 1.70000   1
  -1  -2   6 11.8700 2.65000   1
  -1   2   6 8.12000 0.87000   1
  -1   2   6 7.95000 0.93000   1
   1   2  -6 7.58000 2.59000   1
   1  -2  -6 11.6900 2.04000   1
  -4   2   5 701.770 45.2000   1
  -4   2   5 649.940 44.1700   1
   4   2  -5 643.950 43.7600   1
   4  -2  -5 687.250 43.7400   1
   4  -2  -5 645.980 42.7800   1
  -4  -2   5 659.880 45.3900   1
  -4  -2   5 660.070 44.9100   1
  -4  -2   5 649.560 42.4900   1
  -3   1   6 391.390 24.0600   1
   3  -1  -6 382.000 22.2800   1
  -3  -1   6 383.150 23.6700   1
  -3  -1   6 386.420 22.6000   1
  -3  -1   6 346.800 18.9000   1
  -3   1   6 404.790 22.4500   1
   3   1  -6 383.690 22.9900   1
   3   1  -6 331.270 18.4700   1
   6  -1  -2 372.160 20.0600   1
  -6   1   2 391.100 24.8800   1
  -6  -1   2 400.810 25.1800   1
   6   1  -2 392.810 22.3000   1
   6   1  -2 396.200 23.1000   1
  -6   1   2 400.300 24.6200   1
  -6   1   2 370.700 20.9500   1
  -6  -1   2 379.810 24.8400   1
   1   1   6 555.190 37.2400   1
   1  -1   6 572.370 37.7800   1
   1  -1   6 571.460 36.0900   1
  -1   1  -6 518.720 34.7700   1
  -1  -1  -6 565.880 37.5200   1
  -3   0  -5 264.750 13.6400   1
  -3   0  -5 298.710 17.7900   1
   5   2   2 144.480 8.22000   1
   5   2   2 139.480 6.83000   1
  -5  -2  -2 101.990 5.54000   1
  -5  -2  -2 116.710 8.25000   1
  -5   2  -2 136.090 9.01000   1
  -5   2  -2 134.980 6.46000   1
  -3  -3   5 51.2700 3.62000   1
  -3  -3   5 56.3500 4.78000   1
   3  -3  -5 49.1800 2.70000   1
   3   3  -5 38.4300 4.36000   1
   3   3  -5 35.7900 4.15000   1
  -3  -3   5 46.8600 3.34000   1
  -3   3   5 37.7700 3.59000   1
  -2  -2   6 33.0300 2.56000   1
  -2  -2   6 33.3500 3.84000   1
   2   2  -6 34.6500 3.38000   1
  -2  -2   6 36.1000 3.92000   1
   2  -2  -6 35.3700 3.04000   1
  -2   2   6 31.9000 3.73000   1
   5  -2  -4 343.220 16.6600   1
  -5  -2   4 327.940 18.3600   1
  -5   2   4 245.930 12.7500   1
  -5   2   4 281.210 15.6000   1
   5  -2  -4 323.310 16.0000   1
   5  -2  -4 295.080 14.4800   1
   5   2  -4 287.820 17.7600   1
  -5  -2   4 336.330 19.1200   1
  -5   2   4 285.970 16.7000   1
  -5  -2   4 307.690 18.3900   1
   5   2  -4 277.350 16.7900   1
   6   1   0 14.5100 1.51000   1
   6  -1   0 11.0300 1.02000   1
   6  -1   0 10.2100 0.79000   1
   6  -1   0 14.8300 1.66000   1
  -6   1   0 14.2000 3.29000   1
  -6  -1   0 11.5700 2.72000   1
   6   1   0 15.9100 2.15000   1
  -6   1   0 10.9300 1.22000   1
  -4   1  -4 165.250 6.95000   1
  -4   1  -4 224.530 12.2700   1
  -4  -1  -4 187.620 9.14000   1
  -4  -1  -4 213.910 12.6600   1
   4   1   4 201.340 9.31000   1
  -4  -1  -4 193.320 12.0800   1
  -4   1  -4 219.000 13.0800   1
   0  -2   6 7.95000 1.94000   1
   0   2   6 3.61000 2.31000   1
   0   2   6 1.97000 0.70000   1
   0   2   6 2.23000 1.02000   1
   0  -2  -6 5.67000 2.15000   1
   0   2  -6 3.83000 2.20000   1
   0  -2   6 7.10000 1.59000   1
   4   4   1 145.340 8.30000   1
  -4   4  -1 135.680 5.73000   1
  -4   4  -1 141.800 7.07000   1
   4   4   1 166.270 10.4000   1
  -4   4  -1 136.710 5.83000   1
  -4  -4  -1 152.850 8.53000   1
  -4  -4  -1 149.890 8.99000   1
   4  -4   1 149.200 8.97000   1
   4  -4   1 142.010 6.81000   1
  -1   5   3 177.840 10.8900   1
  -1   5   3 170.900 8.32000   1
  -1  -5   3 127.980 6.13000   1
   1  -5  -3 142.550 7.10000   1
  -1  -5   3 139.650 9.54000   1
   1   5  -3 180.010 9.82000   1
   1   5  -3 171.720 10.8900   1
   0  -5   3 366.950 19.6200   1
   0  -5   3 389.470 25.0900   1
   0  -5  -3 381.310 19.9500   1
   0  -5  -3 422.110 24.2800   1
   0   5  -3 410.070 25.4700   1
   0   5  -3 430.370 25.9300   1
   0   5   3 400.970 25.8400   1
   0   5   3 422.720 24.6800   1
  -6   0   3 94.1200 7.12000   1
  -6   0   3 90.2000 6.53000   1
   6   0  -3 86.2300 4.43000   1
  -3  -1  -5 92.1200 6.76000   1
  -3  -1  -5 101.670 6.40000   1
  -3   1  -5 87.6900 5.87000   1
  -3  -4   4 224.360 13.4900   1
  -3  -4   4 219.880 12.4000   1
  -3   4   4 211.170 12.7500   1
   3  -4  -4 215.780 9.65000   1
   3  -4  -4 209.040 10.0700   1
   3  -4  -4 224.900 10.5100   1
   3   4  -4 191.670 12.5000   1
   3   4  -4 207.710 12.2500   1
  -3   4   4 191.320 9.70000   1
  -3  -4   4 213.930 11.0300   1
  -3  -3  -4 350.210 20.0400   1
   3  -3   4 392.350 24.8800   1
   3   3   4 352.900 20.3700   1
  -3   3  -4 374.910 21.8200   1
   3   3   4 385.560 24.9200   1
  -3   3  -4 406.110 22.1600   1
   5   3   1 550.040 33.4100   1
   5   3   1 600.080 39.1700   1
   5  -3   1 481.160 26.9700   1
   5  -3   1 581.610 37.5700   1
  -5  -3  -1 571.390 37.0500   1
  -5   3  -1 458.580 27.2600   1
  -5  -3  -1 525.180 35.6000   1
  -5   3  -1 520.450 34.1800   1
  -5   0  -3 192.450 11.0800   1
  -5   0  -3 192.430 12.4500   1
   3  -5  -1 397.770 22.0500   1
  -3  -5   1 410.420 23.3900   1
   3  -5  -1 462.110 26.7000   1
   3  -5  -1 349.420 18.4200   1
  -3  -5   1 447.300 26.8600   1
  -3  -5   1 385.140 25.0200   1
   3   5  -1 420.390 27.0700   1
   3   5  -1 467.400 29.5000   1
   3   5  -1 415.780 23.3800   1
  -3   5   1 425.250 22.1900   1
  -3   5   1 470.460 27.8400   1
   5   3  -3 364.190 22.1600   1
  -5  -3   3 334.320 21.5200   1
  -5  -3   3 318.830 19.0700   1
  -5  -3   3 335.330 21.2900   1
  -5   3   3 406.330 22.8100   1
   5   3  -3 381.680 23.4700   1
  -5   3   3 376.580 21.2900   1
   5  -3  -3 317.800 17.5800   1
  -3  -5   0 14.7100 2.16000   1
  -3  -5   0 15.4600 3.34000   1
  -3   5   0 21.5300 1.13000   1
   3  -5   0 15.2600 2.19000   1
   3  -5   0 13.0200 1.06000   1
   3   5   0 17.0000 3.37000   1
   3   5   0 23.5100 3.31000   1
   3   5   0 15.8300 1.28000   1
  -3   5   0 20.7900 2.26000   1
  -2   5  -2 188.880 10.6000   1
   2  -5   2 225.620 13.0300   1
   2   5   2 189.180 11.5200   1
  -2  -5  -2 226.080 11.2900   1
   2  -5   2 234.110 10.3900   1
   2   5   2 174.630 11.7100   1
  -2   5  -2 191.440 10.6200   1
  -2  -5  -2 226.520 12.5700   1
   2   5   2 158.410 8.13000   1
   5   0  -5 951.780 72.5700   1
  -5   0   5 1005.47 76.1400   1
  -5   0   5 1001.00 77.5100   1
   5   0  -5 1017.35 75.0900   1
  -4  -4   3 254.650 14.7800   1
  -4   4   3 242.210 13.2300   1
  -4   4   3 253.530 15.0200   1
  -4  -4   3 237.620 14.0900   1
   4  -4  -3 247.820 12.4200   1
   4   4  -3 252.110 15.4400   1
   4   4  -3 241.870 14.9100   1
   4  -4  -3 234.220 11.9100   1
  -4  -4   3 240.620 12.9200   1
  -4  -3  -3 149.400 8.96000   1
   4   3   3 179.800 9.44000   1
   4  -3   3 215.340 12.1200   1
  -4  -3  -3 194.870 10.7500   1
  -4   3  -3 159.020 6.84000   1
  -4   3  -3 174.720 8.98000   1
   4   3   3 184.490 10.9900   1
  -6   0  -1 26.1000 3.82000   1
   6   0   1 20.6100 2.09000   1
   6   0   1 16.4100 0.93000   1
  -6  -1   3 1058.50 83.3700   1
   6  -1  -3 1035.35 75.4300   1
   6   1  -3 985.690 74.7100   1
   6   1  -3 1015.76 79.2800   1
  -6  -1   3 1021.39 80.7100   1
  -6  -1   3 1094.11 83.9700   1
  -6   1   3 1026.63 81.2500   1
  -6   1   3 986.470 77.9500   1
  -3  -4  -3 398.920 25.4200   1
  -3  -4  -3 388.780 22.9900   1
  -3   4  -3 420.320 24.3400   1
  -3   4  -3 469.360 26.6100   1
   3   4   3 452.710 27.6000   1
   3   4   3 448.230 29.2500   1
   3  -4   3 430.890 27.9400   1
  -6  -2   1 22.7700 3.00000   1
  -6  -2   1 22.7000 3.49000   1
   6  -2  -1 17.2300 1.27000   1
   6   2  -1 24.9700 2.84000   1
   6   2  -1 19.1700 2.64000   1
  -6  -2   1 22.6100 3.50000   1
  -6   2   1 20.7100 3.25000   1
  -6   2   1 18.8800 3.44000   1
  -5   1  -3 368.270 22.4400   1
  -5   1  -3 338.480 19.5300   1
  -5  -1  -3 309.150 16.6400   1
  -5  -1  -3 358.450 21.6200   1
   5   1   3 341.620 21.2500   1
   5   1   3 343.060 17.3200   1
   2  -5  -3 226.740 9.95000   1
   2  -5  -3 252.680 12.7300   1
   2  -5  -3 214.960 10.4400   1
   2   5  -3 244.880 15.1400   1
   2  -5  -3 252.590 12.1100   1
   2  -5  -3 201.650 8.63000   1
  -2  -5   3 236.310 11.7600   1
  -2  -5   3 255.450 14.9800   1
  -2  -5   3 254.370 15.3100   1
  -2   5   3 226.730 9.96000   1
  -2   5   3 277.130 13.8500   1
  -2   5   3 271.640 16.3900   1
   2   5  -3 214.490 10.7000   1
   2   5  -3 215.720 15.1400   1
  -1  -5  -3 151.540 8.33000   1
  -1   5  -3 117.030 6.91000   1
  -1  -5  -3 149.710 7.03000   1
  -1   5  -3 123.590 7.61000   1
   1   5   3 129.610 6.36000   1
   1  -5   3 143.240 6.52000   1
   1  -5   3 130.040 8.79000   1
   1   5   3 118.100 8.16000   1
   1   5   3 119.020 8.83000   1
  -3  -2   6 40.2400 2.68000   1
  -3   2   6 45.4500 2.42000   1
   3  -2  -6 45.0000 3.20000   1
  -3   2   6 44.2200 4.40000   1
   3   2  -6 46.5600 4.43000   1
  -3  -2   6 47.5500 4.71000   1
  -3  -2   6 44.0900 3.88000   1
   5  -1  -5 29.6600 2.12000   1
   5   1  -5 26.8500 2.84000   1
  -5  -1   5 33.4700 3.87000   1
  -5  -1   5 30.8100 3.15000   1
  -5  -1   5 34.6300 2.68000   1
  -5   1   5 31.5600 3.83000   1
  -5   1   5 24.2100 2.52000   1
  -4   0   6 47.0900 4.59000   1
  -4   0   6 43.1000 2.21000   1
  -4   0   6 44.7200 3.72000   1
   4   0  -6 42.8000 3.86000   1
  -3  -5   2 181.340 11.2300   1
   3  -5  -2 163.790 7.67000   1
  -3  -5   2 185.050 12.1800   1
   3  -5  -2 180.790 7.72000   1
   3  -5  -2 181.530 8.74000   1
   3  -5  -2 193.780 9.43000   1
   3   5  -2 188.570 12.2200   1
   3   5  -2 204.590 12.7700   1
   3   5  -2 172.970 8.43000   1
  -3   5   2 198.080 11.7800   1
  -3  -5   2 195.220 9.92000   1
  -6   2   2 607.980 39.0700   1
  -6   2   2 595.580 38.8200   1
  -6  -2   2 546.480 36.6200   1
   6   2  -2 596.240 37.5600   1
   6   2  -2 598.200 37.4300   1
   6  -2  -2 554.640 30.7600   1
  -6  -2   2 555.920 36.8300   1
  -6  -2   2 540.550 36.1100   1
  -6   2   2 420.270 23.8700   1
  -2  -4  -4 243.940 12.6700   1
   2  -4   4 230.470 12.2500   1
   2  -4   4 237.860 15.0400   1
   2   4   4 221.500 11.6100   1
   2   4   4 250.810 13.3600   1
   2   4   4 240.750 14.4500   1
  -2   4  -4 249.860 13.6100   1
   2   4   4 237.000 15.2900   1
  -2   4  -4 246.570 13.0500   1
  -2  -4  -4 238.330 13.7300   1
   6   1   1 394.830 23.3600   1
   6  -1   1 363.660 20.3600   1
   6   1   1 385.350 20.3500   1
  -6   1  -1 357.800 23.3200   1
  -6  -1  -1 402.970 26.2400   1
   1  -2   6 5.11000 2.34000   1
  -1  -2  -6 4.29000 2.63000   1
   1   2   6 10.9800 2.69000   1
   1  -2   6 6.77000 2.55000   1
  -1   2  -6 9.32000 2.61000   1
   3   5   1 205.130 10.0300   1
   3   5   1 237.480 14.2900   1
  -3  -5  -1 194.160 12.8000   1
   3   5   1 214.060 12.9500   1
   3  -5   1 202.800 12.1300   1
   3  -5   1 162.140 7.94000   1
   3  -5   1 162.210 7.73000   1
  -3   5  -1 208.130 9.78000   1
  -3  -5  -1 205.890 10.8900   1
  -3   5  -1 234.330 11.7300   1
  -2   0  -6 6.33000 2.47000   1
   2   0   6 5.58000 2.61000   1
  -2   3  -5 78.2900 4.63000   1
  -2  -3  -5 90.4300 6.03000   1
   2  -3   5 98.5100 6.27000   1
   2  -3   5 99.7500 6.79000   1
   2   3   5 74.4500 5.76000   1
   2   3   5 76.8500 5.61000   1
  -2  -3  -5 90.4300 4.69000   1
  -2   3  -5 81.1700 5.42000   1
  -6   2   0 309.380 17.3700   1
   6   2   0 398.310 22.5900   1
   6   2   0 424.750 25.6500   1
   6  -2   0 386.290 19.7800   1
  -6  -2   0 414.400 26.0800   1
  -6   2   0 400.810 25.5600   1
   1   4  -5 544.090 36.2100   1
   1  -4  -5 626.260 38.5900   1
   1  -4  -5 607.570 38.1400   1
   1   4  -5 516.460 37.3300   1
  -1   4   5 541.640 34.2400   1
  -1   4   5 473.610 30.7300   1
  -1   4   5 569.150 39.2900   1
  -1  -4   5 638.400 41.2300   1
  -1  -4   5 619.890 38.2600   1
   4   2   4 327.690 18.3200   1
   4   2   4 340.500 22.2500   1
  -4  -2  -4 353.560 21.1000   1
   4  -2   4 382.840 24.3000   1
  -4   2  -4 358.560 21.1700   1
   4   1  -6 631.770 44.0700   1
  -4  -1   6 768.850 53.0900   1
   4  -1  -6 768.380 51.0700   1
  -4  -1   6 796.250 53.3500   1
  -4   1   6 697.940 49.5700   1
  -4   1   6 701.950 46.7200   1
  -4  -1   6 728.510 51.2900   1
   4   1  -6 696.810 48.5500   1
   4  -4   2 199.670 12.0800   1
  -4  -4  -2 186.050 11.7400   1
   4   4   2 183.450 12.3900   1
   4   4   2 176.850 10.1600   1
  -4   4  -2 170.910 8.39000   1
  -4   4  -2 163.670 8.34000   1
  -4  -4  -2 182.810 10.1600   1
   4  -4   2 170.510 8.40000   1
   0   4  -5 497.650 31.8000   1
   0  -4  -5 484.760 31.2800   1
   0   4  -5 502.020 33.3000   1
   0   4   5 492.290 32.3400   1
   0  -4   5 517.970 33.1400   1
   0  -4   5 523.560 31.7700   1
   0   4   5 524.370 31.8800   1
   0  -4  -5 458.160 28.8700   1
   3  -2   5 289.450 17.4600   1
  -3  -2  -5 250.270 16.1200   1
  -3  -2  -5 262.600 14.3500   1
  -3   2  -5 273.430 14.6000   1
  -3   2  -5 242.030 14.4200   1
   3   2   5 229.990 12.5600   1
   2  -1   6 318.020 19.8900   1
  -2   1  -6 319.530 19.9600   1
  -2  -1  -6 316.070 20.0500   1
   2   1   6 325.860 20.5600   1
   2  -1   6 314.310 18.6100   1
   2   4  -5 259.660 15.7600   1
  -2  -4   5 226.180 12.8900   1
  -2   4   5 278.510 16.9700   1
  -2  -4   5 221.860 13.8100   1
  -2   4   5 280.470 14.3100   1
  -2   4   5 220.450 10.5600   1
   2  -4  -5 220.180 10.7500   1
   2   4  -5 250.840 16.6600   1
  -2  -4   5 249.120 15.0300   1
   2  -4  -5 224.420 12.0600   1
  -6   0   4 21.9000 3.21000   1
   6   0  -4 20.1000 2.50000   1
  -6   0   4 18.2600 3.49000   1
   1  -3  -6 157.580 9.55000   1
  -1  -3   6 158.060 10.4900   1
  -1   3   6 209.080 11.8700   1
  -1  -3   6 158.820 9.82000   1
  -1   3   6 193.660 11.6700   1
  -1   3   6 169.170 7.90000   1
   1   3  -6 201.900 12.1300   1
   1   3  -6 204.070 12.6200   1
   4  -3  -5 78.4500 3.88000   1
  -4  -3   5 95.2500 7.04000   1
   4  -3  -5 76.7100 3.58000   1
   4   3  -5 83.3900 5.77000   1
  -4  -3   5 85.2700 5.87000   1
   4   3  -5 88.9600 7.26000   1
   4  -3  -5 100.870 4.92000   1
  -4   3   5 79.4800 5.56000   1
  -4  -3   5 89.6500 5.57000   1
   6  -2  -3 76.1800 3.04000   1
   6   2  -3 49.8000 4.22000   1
   6   2  -3 50.2900 4.41000   1
  -6  -2   3 75.5500 5.21000   1
  -6   2   3 44.9300 5.11000   1
  -6   2   3 49.1200 4.21000   1
  -6  -2   3 78.3900 6.03000   1
  -6  -2   3 75.6900 4.83000   1
   0   6   0 429.790 28.4300   1
   0  -6   0 500.590 30.7000   1
   0  -6   0 488.700 28.0600   1
   0   6   0 420.370 26.1300   1
  -5   3  -2 306.190 19.6200   1
  -5   3  -2 323.350 17.6600   1
   5   3   2 323.110 20.6800   1
   5   3   2 305.350 16.7900   1
   5  -3   2 342.510 21.6400   1
  -5  -3  -2 324.750 19.7000   1
  -5   3  -2 278.720 15.4100   1
  -5  -3  -2 315.480 20.4600   1
  -1   0   7 896.200 64.2300   1
  -1   0   7 952.610 73.2300   1
   1   0  -7 898.600 68.7300   1
  -2   3   6 1466.56 129.630   1
   2   3  -6 1403.71 131.140   1
   2   3  -6 1424.72 127.640   1
   2  -3  -6 1595.77 139.440   1
  -2  -3   6 1533.69 134.660   1
  -2  -3   6 1457.60 128.780   1
  -2  -3   6 1547.24 138.550   1
  -5  -4   1 52.6300 3.91000   1
  -5   4   1 49.8100 3.67000   1
   5   4  -1 49.8200 4.84000   1
   5   4  -1 55.0900 5.20000   1
   5  -4  -1 56.5200 3.72000   1
  -5  -4   1 58.2100 4.69000   1
  -5  -4   1 54.5200 5.68000   1
  -5   4   1 55.7700 3.83000   1
   5   3  -4 349.270 23.8400   1
   5  -3  -4 374.750 19.0700   1
   5  -3  -4 428.980 22.5300   1
  -5  -3   4 439.480 27.4000   1
   5  -3  -4 393.830 21.7500   1
   5  -3  -4 399.500 20.0000   1
  -5   3   4 346.480 20.9200   1
  -5   3   4 343.860 21.4400   1
   5   3  -4 360.100 22.4900   1
  -5  -3   4 446.460 27.0800   1
  -5  -3   4 418.860 25.2400   1
   5   2   3 37.2900 2.69000   1
   5   2   3 42.0700 3.93000   1
  -5  -2  -3 67.7800 4.95000   1
  -5   2  -3 35.7600 4.64000   1
  -5   2  -3 37.8900 2.95000   1
   0  -3   6 555.960 35.4500   1
   0  -3   6 538.010 34.4300   1
   0   3  -6 521.720 34.1900   1
   0   3  -6 564.660 38.0000   1
   0  -3  -6 530.590 34.9400   1
   0   3   6 503.560 33.7900   1
   0   3   6 510.480 33.4900   1
   0   3   6 451.810 27.3700   1
   0   3   6 572.900 36.7600   1
   6  -1  -4 364.100 19.2100   1
   6  -1  -4 348.530 20.7700   1
   6   1  -4 385.070 22.0300   1
  -6   1   4 359.540 23.1600   1
  -6  -1   4 389.540 24.3400   1
  -6   1   4 377.680 22.9900   1
  -6  -1   4 386.150 23.6900   1
  -6  -1   4 422.060 24.3800   1
  -2   0   7 155.300 10.5900   1
  -2   0   7 164.260 8.75000   1
   2   0  -7 148.760 9.90000   1
   0   6  -1 130.490 9.57000   1
   0  -6   1 137.620 8.99000   1
   0   6  -1 135.460 7.79000   1
   0  -6  -1 136.990 8.12000   1
   0   6   1 135.200 8.91000   1
   0   6   1 132.770 7.45000   1
   0  -6  -1 133.300 6.74000   1
  -5   2   5 323.380 20.3200   1
  -5  -2   5 345.230 20.3600   1
  -5  -2   5 338.380 21.3300   1
  -5  -2   5 349.140 21.0300   1
   5   2  -5 319.150 19.2400   1
   5  -2  -5 366.050 19.3300   1
  -5   2   5 325.490 18.0900   1
   3  -5  -3 138.800 6.35000   1
   3  -5  -3 160.180 6.98000   1
   3  -5  -3 135.710 6.46000   1
  -3   5   3 146.030 9.81000   1
   3  -5  -3 158.030 7.75000   1
   3   5  -3 149.990 10.9600   1
   3  -5  -3 143.330 6.41000   1
   3   5  -3 148.670 10.0100   1
  -3  -5   3 152.920 7.94000   1
  -3  -5   3 155.210 9.89000   1
  -3   5   3 139.690 6.81000   1
  -3  -5   3 150.610 10.0300   1
   1   6   0 476.800 31.9600   1
   1   6   0 505.510 31.2500   1
   1  -6   0 408.580 26.6200   1
  -1  -6   0 411.180 27.6000   1
  -1   6   0 490.340 29.6900   1
  -1   6   0 525.460 33.5400   1
  -1  -6   0 409.060 24.6900   1
  -1  -5   4 427.510 28.5700   1
  -1   5   4 474.430 27.0200   1
  -1   5   4 454.090 30.4500   1
  -1  -5   4 394.570 22.3600   1
  -1   5   4 499.000 29.1600   1
   1   5  -4 464.270 29.1100   1
   1   5  -4 426.030 29.7600   1
   1  -5  -4 405.750 23.6600   1
  -6   2  -1 15.1900 3.39000   1
  -6   2  -1 11.8300 1.12000   1
  -6  -2  -1 24.9800 3.48000   1
   6   2   1 16.1100 1.89000   1
   6   2   1 13.8100 2.58000   1
  -6   2  -1 16.7300 1.74000   1
   4  -4  -4 173.160 8.28000   1
   4  -4  -4 193.360 8.66000   1
   4   4  -4 230.460 12.9900   1
   4   4  -4 209.340 13.9200   1
  -4   4   4 227.440 13.5700   1
  -4   4   4 203.300 10.5700   1
  -4  -4   4 201.280 12.6000   1
  -4  -4   4 200.760 12.9400   1
  -4  -4   4 192.620 11.0600   1
   4  -4  -4 188.220 8.71000   1
   4  -4  -4 208.840 9.74000   1
   6   0   2 128.290 7.45000   1
  -6   0  -2 127.890 9.17000   1
   2   5   3 379.390 23.8500   1
  -2  -5  -3 375.560 21.3800   1
  -2  -5  -3 375.250 23.8300   1
   2  -5   3 334.510 18.7400   1
   2   5   3 339.730 20.5300   1
   2   5   3 429.670 24.2200   1
  -2   5  -3 383.770 22.3200   1
   2   5   3 387.730 25.0600   1
  -2   5  -3 412.420 24.0700   1
   2  -5   3 365.320 23.3100   1
  -5  -4   0 316.710 19.9500   1
  -5   4   0 326.130 18.0400   1
   5  -4   0 353.150 20.4600   1
   5   4   0 320.130 20.7800   1
   5   4   0 315.170 19.4000   1
  -5  -4   0 321.840 20.8900   1
  -1   1   7 174.840 11.9800   1
  -1   1   7 141.090 7.16000   1
  -1  -1   7 183.370 9.66000   1
  -1  -1   7 189.630 12.1500   1
   1  -1  -7 189.670 11.5900   1
   1   1  -7 171.660 11.1000   1
   0   5   4 222.210 11.5100   1
   0   5   4 193.160 12.8600   1
   0  -5   4 201.990 9.64000   1
   0   5   4 196.290 11.8000   1
   0   5  -4 202.920 12.6200   1
   0  -5  -4 205.450 11.0200   1
   0  -5   4 221.410 14.1600   1
   0   5  -4 194.600 13.2700   1
  -5   4   2 461.480 27.4900   1
  -5  -4   2 402.360 29.5200   1
   5   4  -2 493.500 32.5100   1
  -5   4   2 464.030 28.1800   1
   5   4  -2 518.450 33.1700   1
   5  -4  -2 440.540 26.4800   1
  -5  -4   2 442.660 28.2300   1
  -5  -4   2 440.110 29.4600   1
  -5   4   2 502.960 29.8600   1
  -1  -6   1 46.8700 4.79000   1
   1  -6  -1 51.0800 3.21000   1
  -1   6   1 52.6300 5.24000   1
  -1   6   1 52.7600 3.72000   1
  -1  -6   1 50.9500 4.06000   1
   1  -6  -1 54.4000 3.90000   1
   1   6  -1 50.4100 5.65000   1
   1   6  -1 52.9900 4.88000   1
   0   0   7 759.320 52.5000   1
   0   0  -7 763.620 56.0800   1
   0   0   7 779.950 58.1600   1
   1  -4   5 268.120 16.7800   1
   1   4   5 258.470 15.5600   1
  -1  -4  -5 251.490 14.1600   1
  -1   4  -5 263.310 15.2800   1
   1   4   5 283.390 15.7100   1
  -1  -4  -5 256.770 15.8500   1
  -1   4  -5 279.700 16.2600   1
   1  -4   5 279.810 15.1500   1
   1   4   5 218.770 11.1100   1
  -3   5  -2 241.500 13.2800   1
   3  -5   2 260.460 16.1500   1
   3   5   2 247.750 15.6800   1
   3   5   2 252.010 16.3300   1
  -3   5  -2 252.880 13.5200   1
  -3  -5  -2 238.840 13.0200   1
  -3  -5  -2 259.260 16.4800   1
  -2  -1   7 214.360 11.5100   1
  -2  -1   7 232.630 13.5300   1
  -2   1   7 228.350 14.8600   1
  -2  -1   7 229.830 14.8200   1
  -2   1   7 238.460 12.2500   1
   2   1  -7 235.050 14.5500   1
   2  -1  -7 229.270 14.1200   1
  -4   2   6 7.42000 1.36000   1
  -4  -2   6 2.60000 1.84000   1
  -4  -2   6 3.98000 2.35000   1
   4  -2  -6 2.33000 1.34000   1
   4   2  -6 5.39000 2.30000   1
  -4  -2   6 2.36000 2.51000   1
  -4   2   6 5.32000 2.35000   1
  -1   6  -1 28.2000 3.97000   1
  -1  -6  -1 32.5100 2.14000   1
  -1   6  -1 26.0600 3.20000   1
  -1  -6  -1 31.7000 3.89000   1
   1  -6   1 38.6200 4.05000   1
   1   6   1 28.2500 3.66000   1
   1   6   1 27.7600 4.40000   1
   6   1   2 84.4700 6.05000   1
  -6   1  -2 82.6500 6.31000   1
  -6   1  -2 72.1700 4.51000   1
   6   1   2 73.8900 3.30000   1
  -6  -1  -2 83.3200 7.09000   1
  -4   5   1 276.320 15.5400   1
   4   5  -1 269.940 17.6000   1
   4   5  -1 251.630 16.4000   1
  -4  -5   1 244.560 17.5000   1
   4  -5  -1 276.270 15.5600   1
  -4  -5   1 259.040 14.6100   1
  -4  -5   1 261.750 15.4600   1
  -2  -5   4 434.620 24.8800   1
  -2   5   4 431.410 25.0800   1
   2   5  -4 424.940 30.6600   1
  -2  -5   4 468.220 30.6700   1
   2  -5  -4 489.060 28.2900   1
  -2   5   4 440.150 30.1400   1
   2  -5  -4 513.410 29.6700   1
  -2  -5   4 478.930 30.8900   1
   2   5  -4 430.020 28.8400   1
  -3   4   5 776.250 58.2500   1
  -3  -4   5 773.970 54.0200   1
  -3  -4   5 822.790 60.2500   1
  -3  -4   5 777.600 55.7600   1
   3   4  -5 722.330 56.3900   1
   3   4  -5 788.900 58.2500   1
   3  -4  -5 897.030 60.5400   1
   3  -4  -5 710.080 45.6800   1
  -3   4   5 759.090 52.2500   1
   0  -1  -7 22.8000 3.54000   1
   0   1  -7 25.4900 3.71000   1
   0   1   7 19.2400 2.17000   1
   0  -1   7 24.3300 3.79000   1
   0   1   7 23.6500 4.12000   1
   0  -1   7 18.3000 2.20000   1
   2   2   6 31.6300 4.30000   1
  -2  -2  -6 40.9100 4.39000   1
   2  -2   6 34.6000 4.21000   1
   2  -2   6 40.2600 3.70000   1
  -2   2  -6 34.6700 4.30000   1
   6   3  -1 387.770 25.4700   1
   6   3  -1 390.440 24.3000   1
   6  -3  -1 417.860 25.1800   1
  -6  -3   1 419.220 26.4900   1
  -6  -3   1 403.710 26.9200   1
  -6  -3   1 404.540 26.5600   1
  -6   3   1 405.520 25.6300   1
  -4   0  -5 80.3500 5.95000   1
  -4   0  -5 58.1600 2.72000   1
  -4   0  -5 75.6800 5.98000   1
  -4   5   0 24.2800 2.31000   1
  -4  -5   0 32.0000 4.44000   1
  -4  -5   0 24.7900 3.01000   1
   4  -5   0 25.7700 2.89000   1
   4   5   0 26.5100 3.82000   1
   4   5   0 25.7300 4.24000   1
   3   3  -6 487.810 32.2400   1
  -3  -3   6 331.260 20.3400   1
  -3   3   6 487.860 28.6500   1
   3   3  -6 501.230 29.9700   1
   3  -3  -6 378.420 22.0700   1
  -3  -3   6 334.290 21.8900   1
  -3  -3   6 355.380 23.2500   1
  -3   0   7 326.020 17.2900   1
  -3   0   7 346.370 20.3900   1
  -3   0   7 362.930 22.6800   1
   3   0  -7 338.410 20.9400   1
  -6  -3   2 269.410 16.0200   1
  -6  -3   2 281.640 17.5800   1
   6  -3  -2 263.300 14.1600   1
   6   3  -2 237.660 14.4400   1
   6   3  -2 263.930 15.6100   1
  -6   3   2 235.030 14.0400   1
  -6   3   2 247.080 14.9400   1
  -6  -3   2 255.860 15.6200   1
   0  -6   2 294.200 17.9900   1
   0  -6  -2 271.660 13.4300   1
   0   6  -2 251.870 16.8000   1
   0  -6  -2 280.180 15.5400   1
   0   6   2 234.750 15.2700   1
   0   6  -2 226.220 14.3100   1
   0   6   2 221.700 12.9600   1
  -1  -3  -6 392.170 25.9500   1
  -1   3  -6 431.100 28.0200   1
   1  -3   6 427.800 27.2200   1
   1  -3   6 442.910 28.0900   1
   1   3   6 448.630 27.9900   1
   1   3   6 395.370 25.0200   1
  -1   3  -6 407.390 26.8100   1
  -4  -5   2 139.290 7.53000   1
  -4   5   2 160.510 7.96000   1
  -4   5   2 160.210 9.02000   1
   4   5  -2 155.130 10.8200   1
   4   5  -2 165.470 11.3300   1
   4  -5  -2 147.490 7.68000   1
  -4  -5   2 148.070 9.93000   1
  -4  -5   2 130.970 11.4700   1
   1  -5   4 159.230 11.0400   1
   1  -5   4 155.930 8.29000   1
  -1  -5  -4 160.110 9.09000   1
   1   5   4 165.590 11.0000   1
   1   5   4 181.440 8.93000   1
  -1  -5  -4 148.350 6.93000   1
  -1   5  -4 173.950 10.2100   1
  -1   5  -4 162.990 9.79000   1
   1   5   4 171.350 10.9800   1
  -5   0  -4 11.2900 3.04000   1
  -5   0  -4 14.9200 3.27000   1
  -1  -6   2 332.540 20.1700   1
  -1   6   2 359.040 20.5500   1
  -1   6   2 389.190 24.8300   1
   1  -6  -2 342.940 19.6700   1
   1   6  -2 368.550 21.9300   1
   1   6  -2 345.020 22.8500   1
   1  -6  -2 335.090 17.4600   1
   1  -6  -2 301.970 16.2600   1
  -1  -6   2 295.400 15.2100   1
  -1  -6   2 344.470 21.1800   1
   3   4   4 187.690 12.6400   1
   3   4   4 176.640 10.1000   1
  -3   4  -4 188.860 9.77000   1
  -3   4  -4 181.120 9.64000   1
  -3  -4  -4 147.900 8.85000   1
   3  -4   4 151.670 11.3000   1
  -3  -4  -4 154.210 10.0100   1
   5  -4   1 5.89000 2.07000   1
  -5  -4  -1 5.53000 2.09000   1
  -5  -4  -1 3.78000 2.57000   1
  -5   4  -1 4.50000 0.71000   1
   5   4   1 10.5800 2.14000   1
   5   4   1 7.63000 2.79000   1
   5  -4   1 2.81000 0.82000   1
  -5   4  -1 7.05000 1.02000   1
  -2   6   0 335.460 20.7600   1
  -2   6   0 309.310 17.8600   1
   2  -6   0 387.390 22.8500   1
   2   6   0 333.490 22.4000   1
   2   6   0 351.140 22.6800   1
  -2  -6   0 355.520 22.9600   1
  -2  -6   0 350.590 19.9600   1
   6  -3   0 11.9700 2.63000   1
  -6   3   0 9.96000 3.02000   1
  -6  -3   0 11.5700 3.17000   1
  -6  -3   0 10.9200 3.04000   1
   6  -3   0 9.17000 0.82000   1
   6   3   0 7.78000 2.41000   1
   6   3   0 9.40000 1.73000   1
  -4  -3  -4 260.250 16.0700   1
   4   3   4 303.730 16.4100   1
   4  -3   4 285.160 19.6500   1
   4   3   4 323.520 19.7200   1
  -4   3  -4 287.210 14.1600   1
  -4   3  -4 333.230 18.4300   1
  -4   1  -5 111.350 7.51000   1
  -4   1  -5 109.390 5.23000   1
  -4  -1  -5 87.6100 7.57000   1
  -4  -1  -5 94.2700 6.98000   1
   6   2  -4 95.8200 5.67000   1
  -6   2   4 89.2200 6.48000   1
   6   2  -4 99.4200 6.50000   1
  -6  -2   4 60.6700 5.64000   1
  -6  -2   4 67.2600 6.25000   1
  -6  -2   4 62.6600 4.73000   1
  -6   2   4 93.8400 5.52000   1
   5  -4  -3 307.140 16.1500   1
  -5   4   3 234.190 12.6600   1
  -5   4   3 279.010 15.5700   1
  -5  -4   3 261.880 20.6900   1
  -5   4   3 322.930 18.1000   1
  -5  -4   3 288.850 16.7100   1
   5   4  -3 272.190 16.7500   1
  -5  -4   3 274.260 17.6700   1
   5   4  -3 270.540 18.1900   1
   2  -6  -1 17.0000 2.40000   1
   2   6  -1 14.6600 3.52000   1
  -2   6   1 19.7700 3.01000   1
  -2  -6   1 16.9200 3.44000   1
  -2  -6   1 19.0000 2.85000   1
  -2   6   1 20.0700 1.98000   1
   2   6  -1 17.7400 3.33000   1
  -5   0   6 3.42000 2.20000   1
  -5   0   6 2.26000 1.48000   1
   5   0  -6 0.71000 0.44000   1
   5   0  -6 1.50000 1.38000   1
  -3   1   7 30.5200 2.53000   1
  -3  -1   7 26.2700 2.07000   1
  -3  -1   7 25.5700 3.66000   1
  -3   1   7 24.7800 4.12000   1
  -3  -1   7 30.4900 4.13000   1
   3  -1  -7 26.4300 3.04000   1
   3   1  -7 24.5000 3.54000   1
   4   4   3 220.100 14.9900   1
   4   4   3 204.830 11.7300   1
   4  -4   3 251.200 15.6100   1
  -4   4  -3 188.320 9.27000   1
  -4  -4  -3 251.520 15.4400   1
  -4   4  -3 190.740 10.1700   1
  -4  -4  -3 239.330 13.0000   1
  -7   0   1 113.130 8.78000   1
  -7   0   1 116.010 9.21000   1
   7   0  -1 112.130 5.84000   1
   7   0  -1 116.490 6.17000   1
  -3   3  -5 74.5500 4.33000   1
  -3  -3  -5 57.6700 5.74000   1
   3  -3   5 58.3400 5.75000   1
   3   3   5 70.6900 4.41000   1
  -3  -3  -5 49.8900 3.66000   1
  -3   3  -5 70.6400 5.33000   1
  -1   2   7 1113.01 88.8300   1
  -1  -2   7 1125.05 89.5300   1
  -1  -2   7 1046.74 80.5500   1
  -1   2   7 1005.62 76.1200   1
  -1   2   7 922.800 68.0200   1
   1  -2  -7 1053.19 83.7500   1
   1   2  -7 1088.08 86.5600   1
  -5   1  -4 575.800 39.6800   1
  -5  -1  -4 578.690 40.0500   1
  -5  -1  -4 563.030 39.1000   1
  -5   1  -4 585.890 39.6200   1
  -1   0  -7 259.010 17.2000   1
   1   0   7 262.000 14.5200   1
   1   0   7 269.000 16.9100   1
   7   0  -2 696.220 47.0700   1
   7   0  -2 651.900 42.4900   1
  -7   0   2 683.400 49.8300   1
  -7   0   2 677.020 49.5900   1
  -3   0  -6 2.75000 2.44000   1
  -4  -5  -1 375.250 23.1100   1
  -4  -5  -1 384.660 26.9000   1
  -4   5  -1 419.900 24.0800   1
   4  -5   1 409.520 25.5600   1
   4   5   1 393.980 24.5600   1
   4   5   1 439.090 28.5400   1
  -4   5  -1 349.970 18.8600   1
  -1  -6  -2 399.620 24.7400   1
   1  -6   2 392.230 24.5700   1
   1  -6   2 305.570 15.2900   1
   1   6   2 363.780 22.8900   1
   1   6   2 336.400 20.9500   1
  -1  -6  -2 372.070 20.7000   1
  -1   6  -2 349.630 20.6700   1
  -1   6  -2 372.370 23.0600   1
  -6   0   5 155.030 9.70000   1
  -6   0   5 157.510 10.8500   1
   6   0  -5 150.990 7.83000   1
  -2   2   7 209.820 9.61000   1
  -2   2   7 206.720 11.6300   1
  -2  -2   7 129.840 7.36000   1
  -2  -2   7 148.630 9.91000   1
   2   2  -7 201.340 11.3800   1
   2  -2  -7 145.500 9.28000   1
  -2  -2   7 143.480 10.4100   1
  -5   1   6 420.220 25.0600   1
  -5  -1   6 418.180 27.4300   1
   5  -1  -6 401.960 23.5500   1
   5   1  -6 444.720 27.3700   1
  -5   1   6 422.070 27.4500   1
  -5  -1   6 431.180 25.9600   1
  -5  -1   6 410.030 25.8800   1
  -2   6  -1 149.260 8.48000   1
   2   6   1 162.030 10.7800   1
   2   6   1 148.890 10.9400   1
   2  -6   1 162.690 10.5600   1
  -2   6  -1 154.700 9.50000   1
  -2  -6  -1 153.550 11.5800   1
  -2  -6  -1 161.570 8.99000   1
  -6  -3   3 402.510 25.2200   1
   6   3  -3 365.940 23.1000   1
   6   3  -3 322.360 21.2700   1
   6  -3  -3 398.140 22.6700   1
  -6  -3   3 386.690 23.5600   1
  -6   3   3 327.000 20.1600   1
  -6   3   3 342.330 21.4800   1
  -6  -3   3 381.850 24.1500   1
   6   2   2 370.080 20.5300   1
   6   2   2 370.070 23.2500   1
  -6  -2  -2 362.780 24.0700   1
  -6   2  -2 388.770 26.5000   1
  -6   2  -2 368.740 21.7700   1
  -7   1   1 502.970 35.3100   1
   7   1  -1 521.890 32.4800   1
  -7  -1   1 514.430 35.0500   1
   7   1  -1 492.990 30.8200   1
   7  -1  -1 470.300 28.5200   1
   7  -1  -1 525.460 31.2400   1
  -7   1   1 491.690 34.5400   1
  -7  -1   1 524.580 36.7700   1
  -2  -6   2 249.970 15.2800   1
  -2  -6   2 222.470 14.6700   1
  -2  -6   2 238.280 12.3400   1
  -2   6   2 269.740 16.9900   1
   2   6  -2 272.570 17.2400   1
  -2   6   2 255.890 13.2800   1
   2  -6  -2 246.620 13.3400   1
   2   6  -2 230.970 16.3800   1
  -3  -5   4 168.850 9.71000   1
  -3  -5   4 187.400 12.8100   1
  -3  -5   4 183.570 12.4200   1
   3   5  -4 195.040 14.1100   1
   3  -5  -4 185.480 9.13000   1
   3  -5  -4 189.380 9.36000   1
  -3   5   4 201.410 10.1900   1
   3   5  -4 209.180 13.6300   1
  -3   5   4 211.990 13.8100   1
  -1   1  -7 7.96000 2.92000   1
   1  -1   7 9.58000 3.07000   1
   1   1   7 6.38000 2.63000   1
  -1  -1  -7 8.05000 2.43000   1
   1  -1   7 6.56000 1.87000   1
  -7   1   2 1.84000 2.72000   1
   7   1  -2 3.67000 1.61000   1
   7   1  -2 2.53000 1.48000   1
  -7  -1   2 16.0800 2.84000   1
  -7   1   2 1.23000 2.79000   1
   0  -2   7 365.540 22.8600   1
   0   2  -7 320.240 21.6500   1
   0  -2  -7 356.410 22.9700   1
   0   2   7 351.460 23.3000   1
   0  -2   7 356.870 21.0300   1
  -3   1  -6 213.250 13.5600   1
   3  -1   6 212.780 14.0400   1
   3  -1   6 230.950 14.2700   1
  -3  -1  -6 226.740 14.9200   1
   7   0   0 320.960 18.3500   1
   7   0   0 272.340 13.7500   1
  -7   0   0 315.500 21.5100   1
   2   4   5 189.690 12.3500   1
  -2   4  -5 191.990 10.6500   1
   2  -4   5 196.030 13.3000   1
   2   4   5 197.350 11.4300   1
   2   4   5 183.700 11.9800   1
   2  -4   5 195.910 10.6900   1
  -2  -4  -5 193.520 9.90000   1
  -2   4  -5 177.380 10.9300   1
  -5   3  -3 99.0300 6.24000   1
  -5  -3  -3 115.780 7.12000   1
   5   3   3 88.4500 5.01000   1
   5   3   3 91.7600 7.80000   1
   5  -3   3 126.520 8.20000   1
  -6  -1   5 158.620 10.3800   1
  -6  -1   5 148.090 7.99000   1
  -6   1   5 148.030 9.09000   1
   6  -1  -5 138.160 6.83000   1
   6   1  -5 141.170 8.01000   1
  -6   1   5 147.030 10.3400   1
  -6  -1   5 135.120 9.80000   1
  -5   3   5 45.7000 2.94000   1
  -5   3   5 48.4800 4.16000   1
  -5  -3   5 36.3600 4.25000   1
  -5  -3   5 27.8100 3.84000   1
   5  -3  -5 32.2900 2.12000   1
   5   3  -5 43.3100 3.96000   1
   5   3  -5 45.7900 4.72000   1
   4   5  -3 297.060 19.6400   1
   4   5  -3 328.310 21.0300   1
   4  -5  -3 282.780 15.1700   1
  -4  -5   3 271.230 15.7000   1
  -4  -5   3 296.620 19.7000   1
  -4  -5   3 333.200 21.9300   1
  -4   5   3 344.950 18.6100   1
  -4   5   3 328.170 19.9100   1
  -6  -3  -1 249.650 15.9600   1
  -6   3  -1 266.780 17.2400   1
   6   3   1 252.850 13.7100   1
   6   3   1 266.660 17.1400   1
   6  -3   1 261.910 15.8800   1
  -6  -3  -1 239.490 16.2200   1
  -7   0   3 85.6900 6.93000   1
  -7   0   3 86.7500 7.08000   1
   7   0  -3 86.9500 5.18000   1
  -3  -5  -3 317.160 17.7800   1
  -3   5  -3 315.030 17.9600   1
  -3   5  -3 289.380 16.4300   1
   3   5   3 329.830 22.1400   1
   3  -5   3 345.920 21.8100   1
  -3  -5  -3 335.960 20.3900   1
   3   5   3 302.290 19.0500   1
  -7   1   0 4.67000 2.25000   1
   7   1   0 1.02000 1.01000   1
   7  -1   0 0.84000 0.60000   1
  -7  -1   0 3.96000 2.55000   1
   7  -1   0 -0.3100 1.29000   1
   7   1   0 2.88000 1.75000   1
   4   2   5 177.060 9.33000   1
   4  -2   5 140.660 10.6800   1
  -4  -2  -5 141.170 10.4800   1
  -4  -2  -5 141.270 8.83000   1
  -4   2  -5 160.940 7.31000   1
  -4   2  -5 160.860 9.94000   1
  -1   4   6 15.9600 3.53000   1
   1  -4  -6 21.0200 2.48000   1
  -1   4   6 11.0600 2.38000   1
  -1  -4   6 19.8000 2.44000   1
   1   4  -6 14.3900 3.40000   1
   1   4  -6 12.9400 3.92000   1
  -1  -4   6 15.2800 2.88000   1
  -6   0  -3 16.8500 3.50000   1
  -6   0  -3 10.7800 2.41000   1
   4   0  -7 611.590 40.6300   1
  -4   0   7 611.210 40.1800   1
  -4   0   7 599.780 42.0900   1
  -4   0   7 552.340 32.8000   1
   4   4  -5 225.570 13.4000   1
  -4  -4   5 200.820 11.4100   1
  -4   4   5 211.510 11.5700   1
  -4  -4   5 212.510 13.5800   1
  -4  -4   5 222.160 15.0900   1
   4   4  -5 192.820 14.2000   1
   4  -4  -5 209.680 10.2100   1
  -3  -2   7 364.220 20.6300   1
  -3  -2   7 419.680 26.7200   1
  -3  -2   7 398.810 24.8500   1
   3  -2  -7 404.530 24.1200   1
  -3   2   7 356.190 19.8600   1
  -3   2   7 351.830 23.7500   1
   3   2  -7 350.750 23.4000   1
   1   6  -3 76.6700 6.43000   1
  -1  -6   3 84.3600 5.73000   1
  -1   6   3 71.0600 4.29000   1
  -1  -6   3 79.9600 6.00000   1
  -1   6   3 83.7900 6.94000   1
  -1  -6   3 73.8000 3.40000   1
   1  -6  -3 97.9400 6.10000   1
   1  -6  -3 64.8000 2.78000   1
   1   6  -3 73.3700 6.01000   1
   0   6   3 115.140 8.28000   1
   0   6   3 83.9400 3.55000   1
   0  -6   3 90.7300 6.83000   1
   0   6   3 107.060 6.50000   1
   0  -6  -3 109.260 6.64000   1
   0   6  -3 98.9000 7.57000   1
   0  -6  -3 83.0900 3.85000   1
   0   6  -3 105.150 7.23000   1
   0  -6   3 82.2000 3.66000   1
  -4   3   6 267.870 15.5900   1
   4   3  -6 253.960 16.2400   1
   4   3  -6 260.470 18.8000   1
   4  -3  -6 308.500 15.5000   1
  -4  -3   6 282.560 16.1300   1
  -4  -3   6 281.000 16.7600   1
  -4  -3   6 288.420 18.8800   1
  -4   3   6 219.290 11.1400   1
   2   5   4 227.600 15.7800   1
   2   5   4 288.820 16.3200   1
   2  -5   4 250.270 13.7400   1
  -2   5  -4 222.550 13.0400   1
  -2  -5  -4 245.780 14.7600   1
  -2  -5  -4 245.410 13.0700   1
  -2   5  -4 253.020 15.4800   1
   2   5   4 228.620 15.4400   1
   2  -5   4 256.560 16.3800   1
   7   1  -3 88.5700 5.59000   1
   7   1  -3 84.3700 5.06000   1
  -7   1   3 87.8800 7.58000   1
  -7   1   3 86.9800 7.14000   1
   5  -4   2 378.880 26.4800   1
   5   4   2 464.250 28.8200   1
  -5  -4  -2 359.660 25.3500   1
   5   4   2 450.760 26.8000   1
  -5   4  -2 393.510 21.9600   1
  -5   4  -2 391.430 20.6500   1
  -5  -4  -2 346.680 22.8400   1
  -5   2  -4 62.9000 4.75000   1
  -5  -2  -4 38.3000 4.84000   1
   5  -2   4 53.6800 6.39000   1
   5   2   4 68.9200 5.54000   1
   5   2   4 60.7400 3.48000   1
  -2   4   6 38.3800 3.96000   1
  -2   4   6 34.2700 4.74000   1
   2  -4  -6 43.0400 3.24000   1
   2   4  -6 38.5800 4.29000   1
  -2  -4   6 40.7300 4.46000   1
  -2  -4   6 44.2000 3.70000   1
  -2  -4   6 52.8000 5.49000   1
   2   4  -6 43.5600 5.41000   1
   2   3   6 214.690 12.8500   1
   2  -3   6 228.570 14.3700   1
  -2   3  -6 245.030 14.0400   1
  -2  -3  -6 239.860 15.8400   1
   2  -3   6 226.640 14.8400   1
  -2   3  -6 218.370 14.5100   1
   2   3   6 223.410 14.5500   1
   5   4  -4 188.010 13.3700   1
  -5  -4   4 189.570 15.3300   1
  -5  -4   4 202.740 13.3800   1
  -5  -4   4 207.790 11.9000   1
   5  -4  -4 211.860 10.0000   1
   5   4  -4 179.160 12.2400   1
  -5   4   4 182.860 10.1300   1
  -5   4   4 170.940 8.92000   1
   1  -5  -5 180.230 10.3200   1
  -1   5   5 222.600 11.8800   1
  -1   5   5 194.700 13.2100   1
   1  -5  -5 181.750 9.65000   1
  -1  -5   5 198.750 12.5400   1
   1   5  -5 189.850 13.0500   1
  -1  -5   5 177.780 10.2200   1
   1   5  -5 192.680 12.9000   1
   0  -4  -6 2.48000 2.38000   1
   0   4   6 5.70000 2.80000   1
   0   4   6 6.83000 2.26000   1
   0   4  -6 4.16000 2.40000   1
   0  -4   6 4.82000 2.71000   1
   0  -4   6 4.84000 1.90000   1
   0   4  -6 5.93000 2.59000   1
   3   6  -1 89.2300 7.42000   1
  -3   6   1 90.0200 5.94000   1
   3   6  -1 78.7400 6.56000   1
   3  -6  -1 84.5100 5.63000   1
  -3   6   1 72.9000 3.27000   1
  -3  -6   1 88.3900 5.80000   1
  -3  -6   1 97.9100 7.98000   1
   6   1   3 134.360 8.18000   1
   6   1   3 96.9200 4.04000   1
  -6  -1  -3 103.680 8.34000   1
  -6   1  -3 116.430 6.74000   1
  -6   1  -3 133.030 9.50000   1
   4   1  -7 41.7100 3.96000   1
  -4   1   7 43.3300 3.64000   1
  -4   1   7 36.4700 4.95000   1
  -4  -1   7 40.5400 3.12000   1
  -4  -1   7 44.1100 5.02000   1
   4  -1  -7 45.9500 3.57000   1
  -4  -1   7 38.2800 4.72000   1
  -3  -6   0 344.680 20.4400   1
  -3  -6   0 335.670 25.0400   1
   3  -6   0 369.460 22.3000   1
   3   6   0 334.940 22.8300   1
   3   6   0 333.300 23.0900   1
  -3   6   0 350.210 21.7500   1
  -2   6  -2 772.430 54.9300   1
   2  -6   2 783.220 56.3800   1
   2  -6   2 696.640 45.2300   1
  -2  -6  -2 763.110 58.2200   1
  -2   6  -2 780.300 55.4600   1
  -2  -6  -2 692.470 47.8100   1
   2   6   2 660.390 43.8400   1
   2   6   2 760.150 55.5600   1
   2   6   2 779.240 57.7500   1
  -5   2   6 121.040 8.37000   1
  -5  -2   6 112.460 8.55000   1
  -5   2   6 121.250 6.98000   1
   5   2  -6 116.740 7.38000   1
   5  -2  -6 114.320 5.84000   1
  -5  -2   6 116.160 8.19000   1
  -5  -2   6 114.760 8.13000   1
   4   5   2 99.2400 7.67000   1
   4  -5   2 67.4700 6.55000   1
  -4  -5  -2 60.6000 4.52000   1
  -4  -5  -2 60.8700 5.57000   1
  -4   5  -2 75.2900 3.93000   1
  -4   5  -2 85.0000 4.78000   1
   4   5   2 87.4400 6.53000   1
   0   5   5 27.6500 4.17000   1
   0  -5  -5 22.0500 2.63000   1
   0   5   5 25.4700 2.29000   1
   0  -5  -5 17.0100 2.64000   1
   0   5  -5 26.5900 4.10000   1
   0  -5   5 15.3900 1.97000   1
   0  -5   5 19.2700 4.08000   1
   0   5  -5 25.2000 3.11000   1
   7   2  -1 176.060 10.2400   1
   7   2  -1 168.270 9.19000   1
  -7  -2   1 159.920 11.1600   1
  -7  -2   1 184.930 12.3900   1
  -7   2   1 174.980 12.6300   1
   7   0   1 1.25000 1.29000   1
  -7   0  -1 -1.6900 2.20000   1
  -1  -2  -7 316.500 21.4100   1
   1   2   7 362.540 22.6300   1
   1  -2   7 301.980 19.0400   1
   1  -2   7 326.400 21.5300   1
  -1   2  -7 342.760 22.3600   1
  -7   2   2 516.580 35.1900   1
   7  -2  -2 457.520 26.0700   1
  -7   2   2 513.530 34.7200   1
   7   2  -2 522.600 32.9900   1
  -7  -2   2 499.740 33.7500   1
  -7  -2   2 469.870 33.4700   1
   7   2  -2 497.140 31.6300   1
  -7  -2   2 474.720 32.4300   1
  -3   2  -6 0.11000 2.41000   1
   3  -2   6 0.52000 2.36000   1
  -3  -2  -6 2.52000 2.56000   1
   3   2   6 1.24000 2.32000   1
   3  -2   6 3.32000 2.29000   1
  -3   2  -6 2.51000 1.59000   1
  -2  -6   3 234.860 15.4600   1
  -2  -6   3 237.330 15.1300   1
   2   6  -3 237.750 14.7000   1
   2  -6  -3 230.960 12.0600   1
  -2   6   3 248.460 13.1400   1
  -2   6   3 242.090 16.0000   1
   2   6  -3 222.890 15.7600   1
  -2  -6   3 217.690 11.0400   1
  -2   6   3 208.660 9.48000   1
   2  -5  -5 30.3400 2.34000   1
  -2   5   5 20.7200 4.11000   1
  -2   5   5 15.3200 1.83000   1
   2  -5  -5 25.6800 1.94000   1
  -2  -5   5 25.5700 3.90000   1
   2   5  -5 15.6700 4.29000   1
  -2  -5   5 23.4200 2.12000   1
  -2  -5   5 36.7800 4.38000   1
   2   5  -5 21.2400 4.02000   1
  -6   3   4 259.300 13.5800   1
  -6  -3   4 189.950 13.0400   1
  -6   3   4 243.040 14.0400   1
  -6  -3   4 202.140 13.1300   1
  -6  -3   4 194.360 12.0200   1
   6  -3  -4 171.020 9.28000   1
   6   3  -4 259.000 14.8900   1
   6   3  -4 262.320 16.1400   1
  -1   6  -3 90.2900 5.77000   1
   1   6   3 104.510 8.27000   1
   1   6   3 82.0900 3.62000   1
   1   6   3 93.8500 7.10000   1
   1  -6   3 93.2100 4.18000   1
  -1  -6  -3 111.440 5.61000   1
  -1  -6  -3 100.100 7.59000   1
  -1   6  -3 97.5700 7.57000   1
   1  -6   3 115.050 8.22000   1
  -6   2   5 691.320 48.1600   1
  -6   2   5 728.650 49.3200   1
  -6  -2   5 620.380 44.5100   1
  -6  -2   5 599.600 43.4700   1
  -6  -2   5 618.200 43.2100   1
   6  -2  -5 619.000 39.8200   1
   6   2  -5 738.580 50.1200   1
   6   2  -5 720.100 51.8200   1
  -3  -6   2 175.080 12.9400   1
  -3  -6   2 186.530 11.5300   1
  -3  -6   2 181.380 9.45000   1
  -3   6   2 179.860 8.46000   1
   3   6  -2 166.650 12.6500   1
   3  -6  -2 190.040 10.1800   1
   3   6  -2 190.980 13.0900   1
  -3   6   2 185.630 12.1800   1
   2   0   7 210.660 14.2400   1
   2   0   7 185.260 10.8100   1
  -2   0  -7 210.800 13.9000   1
   1   3  -7 80.4800 7.01000   1
   1   3  -7 79.0800 7.06000   1
  -1  -3   7 88.0000 6.66000   1
  -1  -3   7 87.0500 5.80000   1
   1  -3  -7 89.7500 6.59000   1
  -1   3   7 83.0800 7.00000   1
  -7  -1  -1 442.580 30.2800   1
  -7   1  -1 400.410 28.0500   1
   7   1   1 416.660 25.5800   1
   7   1   1 362.120 19.5500   1
   3  -6   1 149.770 10.0300   1
   3   6   1 157.360 10.3200   1
   3   6   1 158.910 10.4900   1
  -3   6  -1 145.960 7.34000   1
  -3  -6  -1 138.860 7.93000   1
  -3  -6  -1 132.790 9.91000   1
  -3   6  -1 161.470 8.93000   1
   7   0  -4 220.750 11.7100   1
  -7   0   4 233.460 15.8100   1
  -7   0   4 213.610 13.9000   1
   7   2   0 381.070 22.2400   1
  -7   2   0 343.280 19.0200   1
   7   2   0 426.190 25.8500   1
  -7   2   0 372.910 25.1400   1
  -7  -2   0 381.600 26.4200   1
  -6  -4   1 41.1600 4.94000   1
  -6  -4   1 36.2800 4.78000   1
   6   4  -1 48.3300 4.03000   1
   6   4  -1 47.3800 5.12000   1
  -6  -4   1 37.0800 4.23000   1
  -6   4   1 43.1200 3.69000   1
   6  -4  -1 31.6000 3.23000   1
   5   5  -1 371.630 26.5800   1
   5   5  -1 399.820 26.6000   1
  -5  -5   1 407.030 27.8200   1
  -5  -5   1 419.400 27.2900   1
   5  -5  -1 442.940 27.3700   1
  -5   5   1 424.520 25.5600   1
  -2  -3   7 0.27000 1.54000   1
   2   3  -7 2.61000 2.37000   1
  -2   3   7 0.59000 2.20000   1
   2  -3  -7 0.70000 1.65000   1
  -2  -3   7 3.87000 2.07000   1
   2   3  -7 3.30000 2.90000   1
  -2  -3   7 -0.2900 2.58000   1
   3  -4  -6 42.0300 2.93000   1
  -3   4   6 46.2000 3.55000   1
  -3  -4   6 40.9500 3.70000   1
  -3  -4   6 34.9500 3.51000   1
  -3  -4   6 39.9900 4.58000   1
   3   4  -6 46.7700 4.41000   1
   3   4  -6 45.5400 5.06000   1
  -2  -1  -7 76.6400 7.06000   1
   2  -1   7 79.6100 6.88000   1
   2  -1   7 72.2300 5.84000   1
   2   1   7 77.1200 7.09000   1
  -2   1  -7 79.1800 6.96000   1
  -6  -4   2 212.510 13.1700   1
   6   4  -2 236.340 15.1600   1
   6   4  -2 245.580 15.0300   1
  -6  -4   2 205.710 14.5500   1
  -6  -4   2 213.540 14.7400   1
  -6   4   2 223.180 12.6900   1
   6  -4  -2 211.340 11.6400   1
  -6   4   2 234.540 13.1600   1
   4  -5  -4 535.540 31.9400   1
   4   5  -4 630.580 43.7700   1
   4  -5  -4 628.980 39.2900   1
   4   5  -4 606.650 45.2400   1
  -4   5   4 643.010 46.1300   1
  -4   5   4 618.190 40.1500   1
  -4  -5   4 586.730 41.9800   1
  -4  -5   4 654.590 45.1800   1
  -4  -5   4 578.150 38.0500   1
  -6   3  -2 13.2600 1.75000   1
  -6   3  -2 13.4900 3.66000   1
  -6  -3  -2 13.3700 3.16000   1
   6  -3   2 9.32000 3.63000   1
   6   3   2 19.1400 3.60000   1
   6   3   2 16.4400 1.81000   1
  -7   2   3 202.980 13.2800   1
   7   2  -3 201.610 12.1300   1
   7   2  -3 184.560 11.1100   1
  -7  -2   3 169.810 12.5000   1
  -7  -2   3 192.850 12.8600   1
  -7   2   3 198.280 12.4900   1
   7  -2  -3 182.950 8.41000   1
  -7  -2   3 184.530 11.6500   1
  -1  -4  -6 17.6900 3.82000   1
   1   4   6 19.8900 3.11000   1
   1   4   6 33.8500 4.00000   1
   1  -4   6 22.0200 3.42000   1
  -1   4  -6 29.1500 3.45000   1
   1  -4   6 21.5600 3.02000   1
  -1   4  -6 24.2700 3.26000   1
  -5  -5   0 10.6600 2.51000   1
   5   5   0 13.6000 3.53000   1
   5   5   0 11.0600 3.06000   1
  -5  -5   0 11.3100 3.38000   1
   5  -5   0 13.1300 2.78000   1
  -5   5   0 7.88000 2.01000   1
   5   5  -2 72.5700 5.87000   1
  -5  -5   2 68.1900 6.01000   1
  -5  -5   2 48.4400 6.95000   1
   5   5  -2 71.6500 6.60000   1
  -5  -5   2 58.5500 4.20000   1
   5  -5  -2 60.3300 3.82000   1
  -5   5   2 67.6200 4.56000   1
   7   1  -4 337.920 20.0400   1
   7   1  -4 329.430 18.1800   1
   7  -1  -4 262.340 14.3900   1
  -7  -1   4 270.100 17.9800   1
  -7  -1   4 250.560 17.5500   1
  -7   1   4 341.090 21.8300   1
  -7   1   4 317.410 19.9100   1
   0   3   7 70.1100 6.18000   1
   0   3  -7 60.0700 5.96000   1
   0   3  -7 65.2700 6.32000   1
   0  -3  -7 61.9600 5.68000   1
   0  -3   7 57.3600 5.79000   1
   0  -3   7 53.7700 4.69000   1
   1   5   5 50.7300 4.37000   1
   1   5   5 44.1100 5.22000   1
   1   5   5 37.5000 4.96000   1
  -1  -5  -5 45.8400 3.34000   1
   1  -5   5 47.9800 3.13000   1
  -1   5  -5 35.0500 4.02000   1
   1  -5   5 46.2300 5.34000   1
  -1   5  -5 34.7700 4.29000   1
  -6  -4   0 352.220 24.1400   1
  -6  -4   0 349.090 24.2100   1
   6   4   0 362.690 22.5600   1
   6   4   0 370.060 23.8600   1
   6  -4   0 385.880 24.1100   1
  -6   4   0 379.290 24.4300   1
  -4   4  -4 241.320 13.9300   1
   4   4   4 263.720 18.5000   1
   4   4   4 235.410 14.1800   1
   4  -4   4 290.250 18.8400   1
  -4  -4  -4 264.650 15.2800   1
   6   2   3 190.650 12.4700   1
   6   2   3 169.260 8.26000   1
  -6   2  -3 178.710 12.8500   1
  -6  -2  -3 149.580 10.7100   1
  -6   2  -3 175.690 9.72000   1
  -4  -2   7 399.100 23.7700   1
   4   2  -7 330.510 22.2800   1
   4  -2  -7 402.680 23.2300   1
  -4  -2   7 402.940 26.1500   1
  -4  -2   7 382.670 24.2000   1
  -4   2   7 325.710 22.1600   1
  -4   2   7 348.690 20.2400   1
   3  -4   5 172.060 9.74000   1
  -3  -4  -5 162.260 8.71000   1
   3  -4   5 184.080 12.6300   1
  -3   4  -5 153.710 10.0800   1
   3   4   5 172.090 11.9100   1
   3   4   5 165.250 10.0000   1
  -3   4  -5 178.520 9.90000   1
  -6   0   6 21.2400 2.81000   1
   6   0  -6 17.2100 2.57000   1
  -6   0   6 17.0100 3.82000   1
  -3   5   5 157.560 9.03000   1
  -3   5   5 170.270 12.3800   1
   3  -5  -5 165.990 8.25000   1
   3  -5  -5 193.350 9.60000   1
  -3  -5   5 180.010 11.4100   1
  -3  -5   5 185.110 12.5700   1
   3   5  -5 159.160 11.5800   1
   3   5  -5 151.240 12.3200   1
  -3  -5   5 164.480 8.89000   1
   1   0  -8 93.7100 7.53000   1
  -1   0   8 91.8400 8.22000   1
  -1   0   8 85.8700 4.76000   1
   2   0  -8 100.360 7.23000   1
  -2   0   8 91.9300 5.59000   1
  -2   0   8 95.7600 8.23000   1
  -4  -3  -5 78.5700 5.30000   1
   4   3   5 83.7400 6.17000   1
   4   3   5 91.5000 6.08000   1
   4  -3   5 91.0100 8.21000   1
  -4   3  -5 90.0200 6.08000   1
  -5   0  -5 284.840 19.1100   1
  -5   0  -5 277.830 18.9900   1
   3   3  -7 29.8200 4.16000   1
  -3  -3   7 22.6400 3.45000   1
   3  -3  -7 30.6500 2.86000   1
  -3  -3   7 27.7500 4.36000   1
  -3  -3   7 25.8700 2.59000   1
  -3   3   7 27.3700 3.58000   1
   3   3  -7 31.5900 5.26000   1
  -3  -6   3 210.640 14.0100   1
  -3  -6   3 202.650 13.1600   1
  -3  -6   3 202.850 10.5000   1
   3  -6  -3 205.750 11.1300   1
   3  -6  -3 194.760 9.33000   1
   3   6  -3 181.000 12.7100   1
   3   6  -3 181.090 12.2100   1
  -3   6   3 200.020 13.5300   1
  -3   6   3 166.180 7.89000   1
  -1   6   4 59.5800 4.19000   1
  -1   6   4 69.9400 6.51000   1
   1  -6  -4 57.8000 4.48000   1
  -1  -6   4 50.1700 2.97000   1
   1   6  -4 56.0800 6.28000   1
   1   6  -4 62.1800 5.22000   1
  -1  -6   4 58.7100 5.26000   1
  -6  -4   3 49.4700 4.41000   1
  -6  -4   3 47.2400 5.55000   1
   6   4  -3 52.4100 4.97000   1
   6   4  -3 59.1800 5.26000   1
  -6  -4   3 64.7700 5.64000   1
   6  -4  -3 50.5900 3.64000   1
  -6   4   3 52.8100 4.47000   1
  -6   4   3 48.0600 3.95000   1
   2   6   3 57.6700 6.10000   1
   2   6   3 69.4700 6.12000   1
  -2   6  -3 60.6900 4.00000   1
  -2   6  -3 71.7400 4.86000   1
  -2  -6  -3 33.6900 5.15000   1
   2  -6   3 33.5800 5.26000   1
  -4   0  -6 8.75000 2.67000   1
   5   0  -7 172.320 10.4500   1
  -5   0   7 175.220 10.2000   1
  -5   0   7 174.730 12.2200   1
   0   6   4 60.5700 4.94000   1
   0  -6  -4 58.0600 4.07000   1
   0   6   4 58.8300 2.87000   1
   0   6   4 55.4300 5.93000   1
   0   6  -4 59.9500 5.96000   1
   0   6  -4 57.0100 5.39000   1
   0  -6   4 62.5600 6.12000   1
   0  -6   4 56.5000 3.19000   1
  -6  -1   6 317.700 18.1700   1
  -6   1   6 295.140 19.7300   1
   6  -1  -6 288.410 15.9400   1
   6   1  -6 305.550 17.7900   1
  -6   1   6 287.420 17.1900   1
  -6  -1   6 304.810 19.6800   1
  -6  -1   6 285.320 18.9400   1
  -7   2  -1 5.88000 3.16000   1
  -7  -2  -1 5.65000 3.10000   1
   7   2   1 4.58000 1.32000   1
   7   2   1 7.06000 2.68000   1
  -7   2  -1 4.28000 1.38000   1
  -5   3  -4 261.610 15.7900   1
  -5  -3  -4 286.640 17.4500   1
   5  -3   4 329.930 20.7400   1
   5   3   4 264.020 14.6700   1
   5   3   4 266.820 18.5600   1
   1   1  -8 126.800 8.94000   1
  -1  -1   8 91.6400 6.11000   1
  -1   1   8 113.180 4.88000   1
  -1   1   8 135.860 9.81000   1
   1  -1  -8 100.540 7.59000   1
  -1  -1   8 96.3200 8.78000   1
   3   5   4 40.2500 4.62000   1
   3  -5   4 29.7700 2.72000   1
   3  -5   4 36.3100 4.15000   1
   3   5   4 40.7500 4.07000   1
  -3   5  -4 42.5100 3.04000   1
  -3   5  -4 39.0400 3.15000   1
  -3  -5  -4 31.9000 3.07000   1
  -3  -5  -4 32.4000 3.83000   1
  -5  -5  -1 157.650 11.1900   1
  -5  -5  -1 162.960 9.80000   1
   5   5   1 140.040 9.73000   1
   5   5   1 145.850 11.7800   1
  -5   5  -1 132.780 7.48000   1
   5  -5   1 190.600 11.7000   1
  -5  -4  -3 53.7200 5.25000   1
  -5   4  -3 60.5000 4.03000   1
   5   4   3 70.3900 6.47000   1
  -5  -4  -3 52.0700 4.58000   1
   5  -4   3 58.3200 6.46000   1
   5   4   3 57.2700 4.20000   1
   3  -6   2 101.760 7.15000   1
   3  -6   2 89.7300 4.09000   1
   3   6   2 76.1000 7.00000   1
   3   6   2 63.4100 6.92000   1
  -3   6  -2 63.8100 4.83000   1
  -3   6  -2 61.5100 4.24000   1
  -3  -6  -2 83.3600 4.84000   1
  -3  -6  -2 103.950 7.92000   1
  -2   1   8 180.170 13.5000   1
   2  -1  -8 211.330 13.0300   1
   2   1  -8 182.060 12.7800   1
  -2   1   8 176.790 9.79000   1
  -2  -1   8 192.820 10.1500   1
  -2  -1   8 213.880 12.6200   1
  -2  -1   8 210.740 13.1800   1
   5   5  -3 254.050 16.9400   1
   5   5  -3 282.490 17.6900   1
  -5  -5   3 220.880 15.5200   1
  -5  -5   3 213.600 12.7700   1
  -5  -5   3 223.590 15.9200   1
  -5   5   3 281.380 15.5300   1
  -5   5   3 286.590 16.8600   1
   5  -5  -3 220.420 11.7500   1
  -5   1  -5 303.450 19.6500   1
  -5  -1  -5 311.780 20.5100   1
  -5  -1  -5 306.240 19.9400   1
   7   0   2 329.350 19.6200   1
  -7   0  -2 312.140 21.9800   1
  -5  -3   6 537.560 37.3600   1
  -5  -3   6 511.100 34.7100   1
   5   3  -6 518.130 35.3400   1
   5  -3  -6 523.480 31.3000   1
  -5  -3   6 498.380 33.5100   1
   5   3  -6 548.020 39.3900   1
  -5   3   6 485.050 30.0700   1
  -5   3   6 514.000 34.7100   1
  -5  -4   5 235.090 15.6800   1
   5   4  -5 322.040 19.4500   1
  -5  -4   5 244.480 17.3400   1
  -5  -4   5 259.900 18.2300   1
  -5   4   5 311.150 17.2400   1
   5   4  -5 319.910 20.8900   1
   0   0  -8 184.680 13.0700   1
   0   0   8 178.090 10.4900   1
   0   0   8 192.160 12.6200   1
   2   2   7 295.800 18.9200   1
   2  -2   7 292.420 19.5400   1
   2  -2   7 271.940 17.9700   1
  -2  -2  -7 299.750 20.2100   1
  -2   2  -7 296.200 19.8200   1
   4  -5   3 136.760 8.97000   1
   4   5   3 100.410 7.75000   1
   4   5   3 119.560 9.39000   1
  -4   5  -3 91.6200 5.75000   1
  -4  -5  -3 125.740 7.01000   1
  -4  -5  -3 119.820 8.02000   1
  -4   5  -3 93.3100 5.43000   1
   6   4   1 3.38000 1.63000   1
  -6  -4  -1 4.40000 2.26000   1
  -6  -4  -1 4.34000 2.72000   1
   6   4   1 1.49000 2.94000   1
   6  -4   1 2.55000 2.33000   1
   0   7   0 -2.4100 2.06000   1
   0  -7   0 0.23000 1.15000   1
   0  -7   0 -1.7000 2.03000   1
   0   7   0 0.66000 1.48000   1
  -4  -1  -6 119.110 9.54000   1
   4  -1   6 122.300 8.98000   1
  -4   1  -6 129.800 8.83000   1
  -7   3   1 250.890 16.2900   1
   7   3  -1 265.540 16.7800   1
   7   3  -1 251.710 14.4400   1
   7  -3  -1 255.500 15.1200   1
  -7  -3   1 257.060 16.5700   1
  -7  -3   1 246.360 16.2600   1
  -7  -3   1 210.970 13.2600   1
   4   6  -1 36.9200 4.92000   1
  -4  -6   1 35.3500 3.63000   1
  -4  -6   1 47.4900 5.48000   1
   4   6  -1 33.3200 4.87000   1
   4  -6  -1 33.8800 3.11000   1
  -4   6   1 24.7300 3.16000   1
  -5   1   7 22.3500 3.89000   1
  -5  -1   7 19.0600 3.05000   1
  -5  -1   7 14.5400 2.00000   1
  -5   1   7 24.2200 2.42000   1
  -5  -1   7 18.3900 3.77000   1
   5  -1  -7 20.1800 2.36000   1
   5   1  -7 26.0400 2.98000   1
   2  -6  -4 129.490 6.60000   1
  -2   6   4 136.510 10.6900   1
   2  -6  -4 139.450 7.53000   1
   2   6  -4 134.710 9.31000   1
  -2  -6   4 134.300 9.01000   1
   2   6  -4 117.400 10.1200   1
  -2  -6   4 134.420 9.21000   1
  -2  -6   4 124.620 6.54000   1
   1  -3   7 46.6500 4.70000   1
  -1  -3  -7 49.9900 5.54000   1
  -1   3  -7 40.4900 4.44000   1
  -1   3  -7 50.0000 4.91000   1
   1   3   7 52.8100 4.96000   1
   1  -3   7 44.2100 5.47000   1
  -7   3   2 87.3500 5.94000   1
   7   3  -2 96.6900 6.96000   1
   7   3  -2 92.7200 6.04000   1
  -7  -3   2 55.9500 6.28000   1
  -7  -3   2 52.8300 5.48000   1
  -7  -3   2 47.1200 5.53000   1
  -7   3   2 91.5500 6.12000   1
  -3   0   8 168.830 12.5100   1
  -3   0   8 167.190 10.0400   1
   3   0  -8 173.270 12.0600   1
  -7  -2   4 61.0300 5.90000   1
  -7   2   4 44.7500 4.31000   1
  -7   2   4 46.3600 4.92000   1
  -7  -2   4 60.8700 4.71000   1
   7   2  -4 51.4300 4.74000   1
  -7  -2   4 55.4100 5.10000   1
   7  -2  -4 54.6600 2.53000   1
   7   2  -4 50.5600 4.89000   1
  -3   3  -6 160.800 9.01000   1
  -3   3  -6 161.380 10.2400   1
  -3  -3  -6 134.120 7.73000   1
  -3  -3  -6 149.850 10.9600   1
   3  -3   6 133.290 10.1400   1
   3   3   6 141.710 8.44000   1
   3   3   6 140.020 10.0200   1
   3  -3   6 145.040 9.41000   1
  -4  -6   0 202.120 11.9800   1
  -4  -6   0 202.950 13.8500   1
   4   6   0 200.350 14.2800   1
   4   6   0 183.510 12.1900   1
  -4   6   0 169.950 10.2100   1
   4  -6   0 203.720 12.0100   1
  -7   1  -2 12.2300 2.01000   1
  -7   1  -2 14.8700 3.87000   1
  -7  -1  -2 15.4100 3.90000   1
   7   1   2 11.6200 2.59000   1
  -6   3   5 119.540 8.29000   1
  -6  -3   5 112.330 8.02000   1
  -6  -3   5 122.090 9.18000   1
  -6  -3   5 116.690 7.77000   1
   6   3  -5 111.740 8.38000   1
   6   3  -5 118.130 9.17000   1
  -6   3   5 107.340 6.85000   1
  -6   0  -4 138.130 9.39000   1
  -6   0  -4 152.350 11.4200   1
   0  -7   1 384.750 25.5000   1
   0  -7  -1 392.420 23.2900   1
   0   7  -1 411.300 26.0400   1
   0   7  -1 417.110 29.1500   1
   0   7   1 394.460 24.5900   1
   0  -7   1 398.940 24.3900   1
   0  -7  -1 411.360 26.9200   1
   0   7   1 429.910 28.6600   1
   0  -1   8 429.810 28.5300   1
   0  -1   8 407.530 24.2100   1
   0   1   8 355.930 21.2300   1
   0  -1  -8 425.610 27.2000   1
   0   1   8 377.770 26.3600   1
   0   1  -8 335.150 23.2300   1
   1   7   0 11.5200 2.61000   1
  -1   7   0 8.83000 1.93000   1
  -1  -7   0 15.5000 3.39000   1
  -1  -7   0 14.2900 1.98000   1
   1  -7   0 12.8700 3.16000   1
   1   7   0 13.8000 3.19000   1
  -1   7   0 12.2900 3.62000   1
  -4   4   6 52.2900 4.33000   1
   4  -4  -6 49.3400 3.32000   1
   4   4  -6 54.6500 6.28000   1
  -4  -4   6 52.0500 5.68000   1
  -4  -4   6 44.3900 4.15000   1
  -4  -4   6 44.3000 4.61000   1
   4   4  -6 57.2800 5.54000   1
  -7   0   5 623.840 44.9900   1
   7   0  -5 601.170 38.9700   1
  -7   0   5 587.430 41.8200   1
  -4  -6   2 206.040 14.6800   1
   4   6  -2 204.710 14.8100   1
  -4  -6   2 220.850 14.2300   1
  -4  -6   2 209.990 11.8800   1
   4   6  -2 215.110 15.1300   1
   4  -6  -2 208.370 11.6000   1
  -4   6   2 224.780 13.7900   1
   1   6   4 58.5500 5.99000   1
   1   6   4 50.4100 5.40000   1
  -1  -6  -4 56.0600 4.30000   1
   1   6   4 57.5100 3.55000   1
  -1   6  -4 54.4300 4.77000   1
  -1   6  -4 51.8500 4.43000   1
   1  -6   4 57.0000 3.32000   1
   1  -6   4 60.3900 6.15000   1
  -3  -1   8 390.240 24.5900   1
  -3  -1   8 398.730 26.7200   1
  -3   1   8 374.350 22.1400   1
  -3   1   8 377.590 25.1500   1
   3   1  -8 363.220 23.7100   1
  -3  -1   8 335.100 19.2200   1
   3  -1  -8 411.820 25.7400   1
  -1   7   1 219.420 16.0900   1
   1  -7  -1 267.260 16.2200   1
  -1   7   1 247.630 14.8700   1
   1   7  -1 222.960 15.1500   1
   1   7  -1 224.560 16.8800   1
   1  -7  -1 258.620 13.6300   1
  -1  -7   1 247.290 14.1000   1
  -1  -7   1 232.960 15.9400   1
   2   4   6 10.5300 2.76000   1
  -2  -4  -6 22.1800 3.20000   1
   2   4   6 15.1700 3.17000   1
  -2   4  -6 13.7800 2.50000   1
   2  -4   6 17.5600 3.34000   1
   2  -4   6 17.7900 3.01000   1
  -2   4  -6 11.2600 2.86000   1
   7  -3   0 12.2200 3.10000   1
  -7  -3   0 8.52000 2.91000   1
  -7   3   0 10.5300 3.19000   1
  -7  -3   0 9.48000 3.57000   1
   7   3   0 14.1100 2.99000   1
   7   3   0 12.2200 1.90000   1
   2   5   5 17.5800 3.44000   1
   2   5   5 22.0900 3.23000   1
   2   5   5 20.2000 3.17000   1
  -2  -5  -5 11.7000 2.45000   1
  -2  -5  -5 12.4400 1.47000   1
  -2   5  -5 14.0800 2.54000   1
   2  -5   5 19.0700 2.06000   1
   2  -5   5 16.1600 3.24000   1
  -2   5  -5 14.3300 2.40000   1
  -6  -1  -4 60.2800 5.52000   1
  -6  -1  -4 63.3900 6.34000   1
  -6   1  -4 67.2900 5.79000   1
  -6   1  -4 64.7800 5.05000   1
  -1   7  -1 307.320 19.0800   1
   1   7   1 332.560 23.9800   1
   1   7   1 315.610 20.7700   1
  -1  -7  -1 380.310 24.5100   1
  -1   7  -1 339.970 23.7100   1
  -1  -7  -1 357.540 20.7700   1
   1  -7   1 363.930 23.2500   1
  -7   3   3 167.890 11.2700   1
   7   3  -3 163.670 11.2000   1
  -7  -3   3 156.500 10.3100   1
  -7   3   3 158.410 9.66000   1
  -7  -3   3 149.790 11.4100   1
   7  -3  -3 155.150 9.38000   1
   7   3  -3 163.610 10.5200   1
  -7  -3   3 154.350 10.9600   1
   7  -1  -5 34.9100 2.79000   1
  -7  -1   5 43.9000 4.91000   1
  -7   1   5 34.2400 3.69000   1
  -7  -1   5 41.4300 4.81000   1
  -7   1   5 36.9000 4.83000   1
   7   1  -5 31.4700 3.10000   1
   3   0   7 300.940 20.4100   1
  -3   0  -7 286.010 19.8000   1
  -6   2   6 27.5900 3.81000   1
  -6   2   6 28.7100 2.72000   1
  -6  -2   6 34.7900 4.04000   1
   6   2  -6 29.5600 3.95000   1
  -6  -2   6 35.8300 3.64000   1
  -6  -2   6 32.9900 4.42000   1
   6  -2  -6 31.2700 2.57000   1
   1   2  -8 44.7300 5.19000   1
   1  -2  -8 31.9800 4.69000   1
  -1   2   8 41.8400 2.85000   1
  -1   2   8 57.5500 5.64000   1
  -1  -2   8 31.7500 4.98000   1
  -1  -2   8 29.9300 3.03000   1
  -2  -2   8 43.0700 3.22000   1
   2   2  -8 49.8900 5.30000   1
  -2  -2   8 50.2200 5.52000   1
   2  -2  -8 45.7000 4.56000   1
  -2  -2   8 48.2300 4.95000   1
  -2   2   8 51.8900 5.76000   1
  -2   2   8 50.3600 3.25000   1
   4   6   1 57.4300 6.16000   1
  -4  -6  -1 67.0800 7.00000   1
   4   6   1 64.6900 6.68000   1
  -4  -6  -1 67.7100 4.70000   1
  -4   6  -1 60.6900 4.29000   1
   4  -6   1 75.3700 5.49000   1
  -6  -4   4 74.4000 6.49000   1
  -6  -4   4 69.6000 6.59000   1
   6  -4  -4 72.7100 3.92000   1
  -6  -4   4 83.3200 5.54000   1
  -6   4   4 59.1200 3.73000   1
   6   4  -4 66.1700 6.09000   1
  -6   4   4 59.0900 4.61000   1
   6   4  -4 65.9800 6.62000   1
  -1   5   6 431.920 24.6200   1
   1  -5  -6 344.430 21.2700   1
   1  -5  -6 291.280 17.7200   1
  -1   5   6 382.910 26.1700   1
  -1  -5   6 329.740 19.6900   1
   1   5  -6 367.660 23.5900   1
   1   5  -6 388.980 27.6400   1
  -1  -5   6 356.430 23.5000   1
   5   2   5 259.980 14.1700   1
   5  -2   5 281.660 19.8100   1
  -5  -2  -5 271.070 18.5400   1
  -5  -2  -5 276.380 18.2200   1
  -5   2  -5 264.250 16.8500   1
   6   3   3 195.140 10.6500   1
   6   3   3 193.380 13.4800   1
   6  -3   3 183.980 13.5200   1
  -6   3  -3 180.640 10.7000   1
  -6  -3  -3 161.370 11.5000   1
  -4  -3   7 2.75000 1.57000   1
  -4   3   7 0.63000 2.36000   1
   4  -3  -7 2.70000 1.39000   1
  -4  -3   7 0.91000 2.31000   1
  -4  -3   7 4.78000 2.39000   1
   4   3  -7 2.25000 2.52000   1
   4   3  -7 4.24000 3.23000   1
  -4   5   5 101.290 5.57000   1
  -4   5   5 107.670 7.60000   1
   4  -5  -5 86.2100 4.36000   1
   4   5  -5 102.800 8.85000   1
   4   5  -5 112.850 8.55000   1
  -4  -5   5 100.460 8.17000   1
  -4  -5   5 85.4600 5.39000   1
  -4  -5   5 99.5200 7.80000   1
  -1   0  -8 -2.2300 2.24000   1
   1   0   8 -0.5600 2.07000   1
   1   0   8 0.82000 1.28000   1
   0  -7   2 78.0900 6.87000   1
   0   7   2 67.3200 5.01000   1
   0   7  -2 75.8800 5.60000   1
   0   7   2 86.0600 7.67000   1
   0  -7   2 80.5600 6.11000   1
   0  -7  -2 72.9200 3.92000   1
   0   7  -2 73.7500 7.53000   1
   0  -7  -2 79.5900 5.60000   1
   4  -2   6 5.84000 2.99000   1
  -4  -2  -6 3.43000 2.87000   1
  -4  -2  -6 3.78000 1.90000   1
  -4   2  -6 3.58000 2.33000   1
  -5  -5  -2 91.3800 7.36000   1
  -5  -5  -2 90.0700 5.91000   1
   5   5   2 85.5800 8.06000   1
   5   5   2 80.8100 5.84000   1
  -5   5  -2 67.4600 3.91000   1
   5  -5   2 103.600 7.88000   1
  -5  -2   7 408.230 27.4000   1
   5  -2  -7 436.260 27.1600   1
   5   2  -7 440.030 29.0500   1
  -5   2   7 464.740 28.3200   1
  -5   2   7 444.200 29.8700   1
  -5  -2   7 397.750 25.6300   1
  -5  -2   7 408.270 28.6800   1
   1  -4  -7 453.830 28.4600   1
  -1   4   7 403.150 26.0800   1
  -1   4   7 386.020 27.0700   1
  -1  -4   7 436.220 27.3700   1
   1   4  -7 385.180 28.9100   1
   1   4  -7 345.810 25.1000   1
  -1  -4   7 439.970 28.8300   1
   3  -1   7 2.94000 2.10000   1
   3   1   7 1.18000 2.74000   1
   3  -1   7 2.83000 2.66000   1
  -3   1  -7 1.77000 2.70000   1
  -3  -1  -7 3.45000 2.71000   1
   3  -6  -4 51.6200 3.41000   1
   3  -6  -4 47.8500 2.97000   1
  -3   6   4 66.2400 3.23000   1
  -3   6   4 78.5800 5.73000   1
   3   6  -4 69.0800 6.96000   1
  -3  -6   4 47.9900 5.75000   1
  -3  -6   4 46.4800 5.60000   1
  -3  -6   4 44.9500 3.02000   1
   3   6  -4 74.0500 6.51000   1
  -2   5   6 170.520 9.94000   1
   2  -5  -6 238.070 12.4200   1
  -2   5   6 159.980 13.0100   1
   2   5  -6 162.550 11.3700   1
  -2  -5   6 201.910 11.0500   1
   2   5  -6 154.350 12.2700   1
  -2  -5   6 243.600 15.4900   1
  -2  -5   6 211.830 13.7800   1
   1   7  -2 18.6200 2.79000   1
   1  -7  -2 3.65000 2.09000   1
  -1  -7   2 5.65000 2.59000   1
  -1   7   2 15.6200 3.65000   1
   1   7  -2 14.2500 3.80000   1
  -1  -7   2 0.89000 2.71000   1
  -1   7   2 16.1300 1.92000   1
  -2  -7   0 7.64000 1.84000   1
   2   7   0 9.51000 3.39000   1
   2   7   0 9.30000 2.79000   1
   2  -7   0 12.4300 2.60000   1
  -2   7   0 8.59000 1.88000   1
  -2   7   0 10.5200 2.84000   1
  -2  -7   0 8.49000 3.15000   1
  -8   0   2 96.1100 8.34000   1
  -8   0   2 97.5600 8.45000   1
   8   0  -2 99.0700 5.47000   1
   8   0  -2 90.8900 5.00000   1
  -5   5   4 25.9400 3.70000   1
   5   5  -4 27.6600 3.95000   1
   5   5  -4 35.7700 5.32000   1
  -5  -5   4 34.1200 4.72000   1
   5  -5  -4 36.6900 2.35000   1
  -5  -5   4 37.7300 3.13000   1
  -5  -5   4 29.6900 5.41000   1
  -5   5   4 30.2300 3.39000   1
   0   5   6 351.600 21.5000   1
   0   5   6 308.610 21.3500   1
   0  -5  -6 283.680 18.3800   1
   0  -5   6 302.700 20.8000   1
   0  -5   6 290.850 17.1700   1
   0   5  -6 322.000 21.5900   1
   0   5  -6 304.040 20.6000   1
   8   0  -1 12.7900 1.64000   1
   8   0  -1 16.1800 1.94000   1
  -8   0   1 14.3600 4.00000   1
  -2   7   1 360.750 24.4600   1
  -2  -7   1 314.520 22.0900   1
  -2   7   1 334.790 19.3900   1
  -2  -7   1 329.220 19.9000   1
   2   7  -1 365.810 24.3100   1
   2   7  -1 325.730 22.6000   1
   2  -7  -1 340.290 20.8600   1
  -7   2  -2 161.490 9.55000   1
   7   2   2 163.670 8.35000   1
   7   2   2 181.420 12.2200   1
  -7  -2  -2 181.700 12.2600   1
  -7   2  -2 192.630 14.1000   1
   2  -4  -7 377.610 24.1000   1
  -2   4   7 462.010 28.7900   1
  -2  -4   7 393.740 27.3300   1
  -2  -4   7 379.780 25.0800   1
  -2  -4   7 384.450 25.1500   1
   2   4  -7 420.230 29.3200   1
   2   4  -7 421.300 27.6600   1
   0   2  -8 115.030 8.50000   1
   0  -2  -8 139.040 9.88000   1
   0   2   8 118.280 8.92000   1
   0  -2   8 148.070 10.2300   1
   0  -2   8 128.670 7.60000   1
   0   2   8 100.300 5.45000   1
   4  -6  -3 118.930 7.11000   1
  -4  -6   3 106.520 6.17000   1
   4   6  -3 146.010 9.84000   1
   4   6  -3 127.520 9.22000   1
  -4  -6   3 112.070 8.82000   1
  -4   6   3 138.240 8.78000   1
  -4  -6   3 116.600 8.79000   1
   4   0  -8 100.580 6.87000   1
  -4   0   8 96.7500 6.51000   1
  -4   0   8 90.9300 7.32000   1
  -6  -4  -2 151.510 11.0500   1
  -6  -4  -2 146.420 10.7000   1
   6   4   2 126.460 10.4600   1
   6   4   2 129.760 7.94000   1
   6  -4   2 160.590 11.5600   1
   1  -1   8 213.630 15.3000   1
   1   1   8 239.310 15.5000   1
   1   1   8 216.800 12.7200   1
  -1  -1  -8 201.380 14.4100   1
  -1   1  -8 227.270 15.5200   1
   1  -1   8 193.250 11.6900   1
  -3  -6  -3 138.390 9.28000   1
   3   6   3 139.980 10.0400   1
  -3   6  -3 134.210 7.92000   1
   3   6   3 125.280 9.46000   1
   3  -6   3 126.580 6.48000   1
   3  -6   3 146.660 10.0900   1
  -3   6  -3 123.950 7.79000   1
  -3  -6  -3 119.390 6.60000   1
   7  -3   1 260.460 16.7300   1
   7   3   1 230.420 12.6000   1
  -7  -3  -1 234.240 16.0400   1
  -7   3  -1 228.060 16.6000   1
   7   3   1 245.820 15.4500   1
   3  -2  -8 117.880 7.68000   1
   3   2  -8 107.120 8.65000   1
  -3   2   8 104.850 5.56000   1
  -3  -2   8 118.600 9.26000   1
  -3   2   8 122.460 9.48000   1
  -3  -2   8 105.980 5.60000   1
  -3  -2   8 120.410 8.25000   1
   0   4   7 232.990 15.1400   1
   0   4   7 274.130 17.3000   1
   0  -4  -7 227.130 15.6300   1
   0  -4   7 225.820 14.9900   1
   0  -4   7 225.600 14.5500   1
   0   4  -7 274.700 17.8200   1
   0   4  -7 254.600 16.8200   1
  -8  -1   2 28.0400 4.93000   1
   8  -1  -2 29.0600 2.44000   1
   8   1  -2 45.6800 3.76000   1
   8   1  -2 41.6000 3.24000   1
  -8  -1   2 36.0000 5.14000   1
  -8   1   2 45.2700 4.83000   1
  -8   1   2 50.2100 5.24000   1
   8   1  -1 278.680 15.2800   1
   8  -1  -1 222.590 12.5300   1
   8   1  -1 302.260 16.7500   1
  -8  -1   1 221.550 17.2900   1
  -8   1   1 291.600 19.7900   1
  -1   7  -2 40.3100 4.29000   1
  -1   7  -2 31.8000 3.11000   1
   1  -7   2 35.9800 4.68000   1
  -1  -7  -2 29.6700 2.40000   1
   1   7   2 32.9000 3.74000   1
   1   7   2 32.6500 5.14000   1
  -1  -7  -2 32.7600 4.51000   1
   6   2   4 24.0900 4.35000   1
   6   2   4 22.3500 1.75000   1
  -6   2  -4 24.6400 3.78000   1
  -6   2  -4 20.0500 2.74000   1
  -2  -7  -1 96.2300 5.63000   1
   2  -7   1 101.210 7.50000   1
   2   7   1 133.390 9.34000   1
  -2   7  -1 128.200 9.02000   1
  -2   7  -1 111.110 5.97000   1
  -2  -7  -1 94.6200 7.91000   1
   2   7   1 125.370 8.76000   1
   8   0  -3 254.830 13.8600   1
  -8   0   3 251.010 17.6800   1
   8   0  -3 257.650 14.9700   1
  -8   0   3 270.740 18.3900   1
  -4   1   8 302.280 16.9700   1
  -4  -1   8 286.310 19.2100   1
  -4   1   8 313.180 20.9200   1
  -4  -1   8 281.470 18.4200   1
   4  -1  -8 292.660 18.1800   1
   4   1  -8 314.030 20.4600   1
  -2  -3  -7 80.7400 7.25000   1
   2  -3   7 62.3600 5.89000   1
  -2   3  -7 81.2600 7.16000   1
   2  -3   7 70.0200 6.76000   1
   2   3   7 82.0000 7.30000   1
  -2   3  -7 75.5500 5.53000   1
   2   6   4 72.3000 4.77000   1
   2   6   4 60.2800 6.37000   1
  -2  -6  -4 55.3900 4.64000   1
   2   6   4 63.2900 6.29000   1
  -2   6  -4 63.6000 4.56000   1
   2  -6   4 53.5900 6.25000   1
  -2   6  -4 65.9300 5.06000   1
   2  -6   4 58.9200 3.78000   1
   8   0   0 250.970 14.1000   1
  -8   0   0 247.880 18.2400   1
   7   2  -5 270.120 16.7900   1
   7  -2  -5 284.080 14.6600   1
  -7  -2   5 305.430 19.8900   1
  -7   2   5 264.170 16.8800   1
  -7  -2   5 341.180 21.1000   1
  -7  -2   5 320.730 21.2200   1
   7   2  -5 285.100 19.6200   1
  -7   2   5 267.600 17.9300   1
  -2  -7   2 81.9100 5.73000   1
  -2   7   2 70.4300 4.29000   1
  -2  -7   2 88.1600 6.60000   1
   2  -7  -2 82.4100 5.16000   1
   2   7  -2 74.7400 7.52000   1
   2   7  -2 75.7500 6.71000   1
   2  -7  -2 73.0200 3.69000   1
  -2   7   2 71.4900 7.07000   1
  -7   3   4 490.850 31.5500   1
  -7   3   4 476.010 32.2300   1
  -7  -3   4 440.820 29.9900   1
   7   3  -4 468.260 31.8200   1
  -7  -3   4 432.430 30.0000   1
   7   3  -4 492.190 32.7600   1
   7  -3  -4 409.480 25.3800   1
  -7  -3   4 430.680 30.1300   1
  -6  -5   1 260.850 17.2800   1
   6  -5  -1 275.690 16.3600   1
  -6   5   1 225.370 12.8900   1
  -6  -5   1 258.150 17.8500   1
   6   5  -1 235.280 16.0800   1
   6   5  -1 253.900 17.2900   1
  -1   6   5 254.600 14.0600   1
   1  -6  -5 285.640 16.6600   1
   1  -6  -5 282.250 16.3100   1
  -1   6   5 241.050 18.0500   1
  -1  -6   5 303.850 20.3300   1
   1   6  -5 274.350 18.6400   1
   1   6  -5 266.040 19.9400   1
  -1  -6   5 285.780 15.6300   1
  -7   0  -3 177.200 13.0300   1
  -7   0  -3 159.310 10.3100   1
   4  -4   5 176.470 12.9100   1
  -4   4  -5 165.690 10.5600   1
   4   4   5 167.310 13.2500   1
   4   4   5 159.680 9.65000   1
  -4  -4  -5 155.230 8.99000   1
   3  -5  -6 407.890 24.3300   1
  -3   5   6 489.850 33.7000   1
  -3   5   6 478.490 28.4500   1
  -3  -5   6 407.850 29.1300   1
   3   5  -6 474.970 31.9200   1
  -3  -5   6 384.180 24.2400   1
   3   5  -6 446.170 32.5800   1
  -3  -5   6 395.140 27.7700   1
   3  -4  -7 184.320 10.7900   1
  -3   4   7 140.530 9.69000   1
   3   4  -7 125.580 10.3500   1
  -3  -4   7 165.850 10.5700   1
  -3  -4   7 158.730 11.6000   1
  -3  -4   7 156.160 9.42000   1
   3   4  -7 127.020 10.6200   1
   8  -1  -3 127.660 6.05000   1
  -8   1   3 99.9400 8.89000   1
  -8   1   3 100.550 8.85000   1
  -8  -1   3 126.700 9.59000   1
  -8  -1   3 142.830 9.68000   1
   8   1  -3 94.5700 6.36000   1
   8   1  -3 98.3700 6.24000   1
   6   5  -2 36.4900 5.20000   1
  -6  -5   2 47.7100 3.79000   1
   6  -5  -2 44.6100 3.45000   1
  -6  -5   2 48.2200 5.43000   1
   6   5  -2 38.6800 5.16000   1
  -6  -5   2 55.4500 5.33000   1
  -6   5   2 34.4100 3.23000   1
   4   6   2 171.910 12.1800   1
   4   6   2 171.740 11.5200   1
  -4  -6  -2 131.840 10.4600   1
  -4  -6  -2 121.000 7.91000   1
   4  -6   2 128.260 9.32000   1
  -4   6  -2 151.550 8.10000   1
   8  -1   0 9.70000 1.96000   1
   8   1   0 9.01000 2.13000   1
  -8  -1   0 7.86000 3.30000   1
  -8   1   0 12.5700 3.91000   1
   0  -6   5 254.510 16.6800   1
   0  -6  -5 224.450 13.0700   1
   0   6  -5 237.930 17.0100   1
   0   6  -5 237.610 15.5200   1
   0  -6   5 227.550 11.9700   1
   0   6   5 258.540 17.8800   1
   0   6   5 239.860 13.3900   1
  -1   5  -6 212.040 14.1000   1
   1  -5   6 246.480 14.0100   1
   1   5   6 258.760 15.6800   1
   1   5   6 209.210 14.5500   1
   1  -5   6 256.020 16.9700   1
  -1  -5  -6 228.070 15.7800   1
  -1   5  -6 229.980 15.2700   1
   3   2   7 128.910 10.8000   1
  -3   2  -7 142.010 11.3600   1
   3  -2   7 164.960 11.5200   1
   3  -2   7 150.450 11.1900   1
  -3  -2  -7 167.960 12.3400   1
  -3   2  -7 159.440 9.82000   1
   5   4   4 27.2800 4.55000   1
   5  -4   4 30.7600 4.77000   1
  -5   4  -4 20.4000 2.46000   1
  -5  -4  -4 25.3000 3.15000   1
   5   4   4 27.3400 2.74000   1
   6   0  -7 612.330 40.8300   1
  -6   0   7 634.180 43.7100   1
  -6   0   7 586.130 42.1300   1
   6   5   0 4.33000 2.63000   1
  -6  -5   0 8.01000 3.05000   1
   6   5   0 4.89000 2.92000   1
  -6  -5   0 5.41000 2.31000   1
   6  -5   0 6.94000 2.19000   1
  -6   5   0 2.90000 1.37000   1
  -4  -5  -4 210.180 13.2200   1
   4   5   4 257.060 16.5800   1
  -4  -5  -4 231.010 15.7000   1
   4  -5   4 251.250 17.7400   1
  -4   5  -4 264.820 15.8600   1
  -4   5  -4 260.920 13.9100   1
   4   5   4 269.620 19.0800   1
  -7   1  -3 73.5100 7.44000   1
   7   1   3 77.6600 6.01000   1
  -7  -1  -3 68.1100 6.95000   1
  -7   1  -3 65.7600 4.96000   1
   2   6  -5 326.210 21.6100   1
  -2   6   5 296.150 16.0500   1
   2  -6  -5 281.500 16.1200   1
  -2  -6   5 285.330 16.4500   1
  -2  -6   5 296.780 20.2200   1
  -2   6   5 324.010 22.1400   1
  -2  -6   5 292.900 19.4300   1
   2   6  -5 289.500 21.9000   1
   2  -6  -5 303.270 17.9600   1
   5   4  -6 48.3000 6.15000   1
  -5  -4   6 60.4100 6.08000   1
  -5   4   6 44.9300 3.95000   1
  -5  -4   6 45.5900 4.57000   1
   5   4  -6 44.7700 4.70000   1
  -5  -4   6 55.1500 4.39000   1
   1   7  -3 104.380 7.33000   1
  -1  -7   3 95.8100 6.95000   1
  -1   7   3 99.6700 8.62000   1
  -1   7   3 97.1300 6.55000   1
  -1  -7   3 88.1700 7.89000   1
   1   7  -3 88.2900 7.74000   1
   1  -7  -3 104.890 6.30000   1
   0  -7  -3 121.050 8.36000   1
   0   7  -3 123.680 8.12000   1
   0   7   3 124.510 8.25000   1
   0  -7   3 112.170 8.92000   1
   0   7   3 116.000 9.88000   1
   0   7  -3 125.200 9.21000   1
  -1  -2  -8 49.1900 5.33000   1
   1  -2   8 44.8300 4.27000   1
   1  -2   8 41.9800 5.76000   1
  -1   2  -8 44.9300 5.64000   1
   1   2   8 45.8700 5.29000   1
   7   4  -1 44.5900 5.13000   1
  -7  -4   1 42.8200 4.70000   1
   7   4  -1 35.3600 4.21000   1
  -7  -4   1 47.6700 5.29000   1
  -7   4   1 31.7500 4.01000   1
   7  -4  -1 42.4300 3.83000   1
   3   5   5 95.4600 8.74000   1
   3   5   5 93.7000 6.19000   1
   3   5   5 97.5600 7.87000   1
  -3  -5  -5 81.5800 4.99000   1
  -3  -5  -5 90.7400 7.25000   1
   3  -5   5 97.5100 8.33000   1
   3  -5   5 94.4100 5.72000   1
  -3   5  -5 94.2000 6.28000   1
  -3   5  -5 96.2900 5.55000   1
   6   3  -6 320.680 22.3900   1
   6   3  -6 304.060 20.0400   1
  -6   3   6 287.520 16.9400   1
  -6   3   6 281.390 18.9800   1
  -6  -3   6 299.020 19.2800   1
  -6  -3   6 302.010 19.9000   1
  -6  -3   6 303.150 19.8200   1
   1  -4   7 309.790 19.8700   1
   1  -4   7 283.120 19.9600   1
   1   4   7 383.890 24.2400   1
  -1  -4  -7 291.190 20.6700   1
  -1   4  -7 325.570 21.3100   1
  -1   4  -7 343.680 22.6000   1
   1   4   7 305.320 19.9000   1
  -1  -3   8 289.120 18.0700   1
  -1  -3   8 312.130 20.9300   1
   1  -3  -8 302.650 19.8100   1
   1   3  -8 258.380 18.5300   1
   1   3  -8 272.240 20.1900   1
  -1   3   8 287.540 20.1300   1
  -7  -4   2 296.760 19.6300   1
  -7   4   2 283.210 17.9900   1
   7   4  -2 290.220 18.3500   1
   7   4  -2 285.200 19.2800   1
   7  -4  -2 278.380 16.6300   1
  -7  -4   2 282.460 19.6400   1
  -7  -4   2 280.000 19.5800   1
   6   1  -7 23.4300 3.57000   1
  -6   1   7 26.1400 2.91000   1
  -6   1   7 25.0300 3.81000   1
   6  -1  -7 25.1300 3.25000   1
  -6  -1   7 25.5000 4.18000   1
  -6  -1   7 27.0900 4.27000   1
  -3   4  -6 11.6500 2.75000   1
  -3  -4  -6 7.35000 3.57000   1
  -3  -4  -6 9.66000 2.01000   1
   3  -4   6 13.6700 3.05000   1
   3  -4   6 11.7300 3.66000   1
   3   4   6 13.1700 2.78000   1
   3   4   6 14.6900 2.87000   1
  -3   4  -6 16.3000 2.31000   1
   8   2  -2 134.370 8.34000   1
  -8  -2   2 104.100 9.09000   1
   8   2  -2 136.290 8.09000   1
  -8  -2   2 108.710 9.65000   1
  -8   2   2 129.720 10.4200   1
  -8   2   2 137.830 9.90000   1
   5  -6  -1 42.2300 3.54000   1
   5   6  -1 46.3200 5.82000   1
  -5  -6   1 42.5000 4.89000   1
  -5  -6   1 41.8300 6.21000   1
  -5   6   1 37.4500 3.46000   1
   5   6  -1 44.1000 4.72000   1
   7   0  -6 0.71000 1.46000   1
  -7   0   6 3.80000 2.23000   1
  -7   0   6 0.59000 1.94000   1
  -2  -3   8 148.990 10.8800   1
  -2  -3   8 155.310 11.5900   1
  -2  -3   8 145.950 8.78000   1
   2  -3  -8 135.850 9.03000   1
  -2   3   8 138.820 10.6300   1
   2   3  -8 111.030 9.81000   1
   2   3  -8 120.310 11.9000   1
  -8   2   1 9.42000 3.72000   1
   8   2  -1 13.2700 1.81000   1
   8   2  -1 13.5000 2.65000   1
  -8  -2   1 6.17000 3.78000   1
  -3   7   1 131.170 8.79000   1
   3   7  -1 123.300 9.37000   1
   3  -7  -1 126.050 8.02000   1
   3   7  -1 118.340 10.0000   1
  -3  -7   1 131.490 10.0800   1
  -3  -7   1 116.840 7.56000   1
   5   3   5 127.190 10.8300   1
  -5   3  -5 136.510 9.02000   1
   5   3   5 135.400 8.19000   1
   5  -3   5 145.170 11.5600   1
  -5  -3  -5 124.180 8.35000   1
   6   4  -5 375.370 25.2400   1
  -6   4   5 369.350 23.3000   1
   6   4  -5 391.050 27.6300   1
  -6  -4   5 374.160 24.3600   1
  -6  -4   5 398.550 27.0800   1
  -6  -4   5 385.080 27.8800   1
   3   7   0 25.0700 4.14000   1
  -3   7   0 23.9900 3.60000   1
   3   7   0 31.0200 5.10000   1
  -3  -7   0 33.8100 3.05000   1
  -3  -7   0 40.3500 5.19000   1
   3  -7   0 31.2300 3.57000   1
  -2   7  -2 31.1000 3.68000   1
  -2  -7  -2 22.4000 2.54000   1
  -2  -7  -2 32.0100 4.40000   1
  -2   7  -2 21.3300 2.95000   1
   2   7   2 26.6700 4.34000   1
   2  -7   2 24.2400 3.68000   1
   2   7   2 22.6400 4.41000   1
   8   0  -4 111.750 5.99000   1
  -8   0   4 124.310 10.1600   1
  -8   0   4 116.630 9.23000   1
   4  -2  -8 46.6200 4.02000   1
  -4  -2   8 40.0500 3.56000   1
  -4  -2   8 43.4200 5.49000   1
  -4  -2   8 45.7000 5.60000   1
   4   2  -8 53.9800 5.50000   1
  -4   2   8 51.2300 5.01000   1
  -2   0  -8 4.85000 3.08000   1
   2   0   8 5.13000 1.98000   1
   2   0   8 5.20000 3.23000   1
   6   5  -3 257.630 18.8300   1
   6   5  -3 255.680 17.9600   1
   6  -5  -3 297.870 16.5900   1
  -6  -5   3 281.910 18.8700   1
  -6  -5   3 271.310 16.5200   1
  -6   5   3 244.260 15.8300   1
  -6  -5   3 270.970 20.1000   1
  -4   6   4 214.230 14.0200   1
  -4  -6   4 187.780 10.5200   1
  -4  -6   4 206.190 13.9800   1
   4   6  -4 175.630 13.4000   1
   4   6  -4 205.520 14.6100   1
   4  -6  -4 209.030 10.9500   1
  -4  -6   4 212.100 13.7700   1
  -4   3  -6 143.180 10.3900   1
   4  -3   6 157.630 10.5500   1
   4  -3   6 167.810 12.5500   1
   4   3   6 136.940 8.16000   1
  -4  -3  -6 142.380 8.63000   1
  -4  -3  -6 151.780 11.9600   1
  -5  -6   0 198.250 13.3800   1
  -5  -6   0 191.140 13.8300   1
  -5   6   0 212.970 12.9300   1
   5   6   0 211.570 14.7100   1
   5   6   0 222.460 14.9600   1
   5  -6   0 196.580 13.1100   1
   5  -3  -7 61.0500 4.02000   1
   5   3  -7 59.6300 5.94000   1
   5   3  -7 64.1500 6.32000   1
  -5   3   7 60.9300 5.33000   1
  -5  -3   7 51.3300 4.61000   1
  -5  -3   7 56.8900 5.78000   1
  -5  -3   7 61.8500 5.17000   1
   8   0   1 63.3000 4.45000   1
  -8   0  -1 60.7100 6.56000   1
   5   6  -2 228.170 16.2200   1
  -5  -6   2 220.920 17.0900   1
  -5   6   2 201.990 12.9100   1
  -5  -6   2 221.620 12.4200   1
  -5  -6   2 232.790 14.7600   1
   5  -6  -2 231.330 13.0800   1
   5   6  -2 219.170 14.8700   1
  -1   6  -5 179.140 11.0700   1
  -1   6  -5 178.690 11.3400   1
   1   6   5 193.450 10.7400   1
   1  -6   5 162.200 9.20000   1
   1   6   5 181.870 13.2600   1
  -1  -6  -5 145.750 9.46000   1
   1   6   5 178.550 11.8500   1
   1  -6   5 166.750 12.7100   1
  -7   4   0 227.810 15.6600   1
  -7  -4   0 245.890 17.3900   1
  -7  -4   0 239.380 16.8500   1
   7  -4   0 273.450 17.0100   1
   7   4   0 237.510 14.6700   1
   7   4   0 244.040 17.1600   1
   5   5   3 124.140 8.22000   1
   5   5   3 144.630 11.3800   1
  -5  -5  -3 121.990 7.92000   1
  -5  -5  -3 123.480 9.99000   1
   5  -5   3 135.210 9.74000   1
   7   1  -6 469.760 31.5000   1
  -7   1   6 510.820 34.5000   1
  -7   1   6 472.940 34.4400   1
  -7  -1   6 538.540 37.2500   1
   7  -1  -6 541.910 34.1200   1
  -7  -1   6 521.410 36.5700   1
  -5   0  -6 11.4200 3.54000   1
  -2   7   3 74.8600 4.69000   1
  -2   7   3 84.0900 7.53000   1
   2   7  -3 76.7900 6.54000   1
  -2  -7   3 81.2800 6.95000   1
  -2  -7   3 78.1500 7.33000   1
   2  -7  -3 76.6100 4.85000   1
   2   7  -3 70.1700 7.46000   1
   7   3   2 5.18000 1.68000   1
   7   3   2 4.51000 2.99000   1
   7  -3   2 7.57000 3.31000   1
  -7  -3  -2 7.76000 3.27000   1
  -7   3  -2 1.45000 3.39000   1
   1   7   3 75.5300 7.28000   1
  -1   7  -3 70.0200 5.19000   1
  -1  -7  -3 69.7000 5.55000   1
   1  -7   3 73.3900 6.73000   1
   1   7   3 63.6000 5.54000   1
  -1   7  -3 78.5400 6.31000   1
  -5  -5   5 14.8200 3.69000   1
  -5   5   5 12.7700 2.11000   1
  -5  -5   5 18.3200 2.33000   1
  -5  -5   5 14.8000 3.63000   1
   5   5  -5 9.70000 4.04000   1
   5   5  -5 13.5100 3.08000   1
  -8   1   4 461.470 33.0800   1
   8   1  -4 450.620 30.1000   1
   8  -1  -4 464.880 27.5000   1
  -8  -1   4 474.360 33.8000   1
  -8  -1   4 494.430 34.4300   1
   8   1  -4 442.450 28.3800   1
  -8   1   4 453.950 32.3700   1
   0   3  -8 166.160 12.5600   1
   0  -3  -8 169.410 11.2900   1
   0   3  -8 174.620 13.6500   1
   0   3   8 184.940 12.5800   1
   0  -3   8 184.750 12.9400   1
   0  -3   8 166.920 10.6200   1
  -8  -2   3 154.190 10.6400   1
  -8  -2   3 152.770 11.8700   1
  -8   2   3 164.240 11.2600   1
  -8   2   3 163.120 11.0100   1
   8   2  -3 161.940 9.66000   1
   8   2  -3 149.920 9.58000   1
  -3  -7   2 44.4100 6.05000   1
   3   7  -2 52.0700 6.34000   1
   3  -7  -2 54.8100 4.03000   1
  -3   7   2 60.2400 5.91000   1
   3   7  -2 62.6600 6.40000   1
  -3  -7   2 51.4300 4.78000   1
  -2  -1  -8 307.750 21.6600   1
  -2   1  -8 305.980 20.6900   1
   2  -1   8 336.980 22.5800   1
   2  -1   8 311.450 19.6400   1
   2   1   8 282.550 17.8400   1
   2   1   8 298.550 21.4700   1
   6   5   1 206.190 12.5300   1
  -6  -5  -1 183.510 12.6400   1
  -6  -5  -1 201.260 14.3200   1
   6  -5   1 212.070 14.5100   1
   6   5   1 219.710 15.7100   1
  -7   4   3 142.370 10.2200   1
  -7   4   3 139.220 9.75000   1
  -7  -4   3 156.190 10.8500   1
  -7  -4   3 166.660 10.9800   1
   7   4  -3 150.920 11.1000   1
   7   4  -3 135.210 10.3900   1
   7  -4  -3 148.090 8.09000   1
  -7  -4   3 167.240 11.0700   1
  -8   2   0 134.070 10.3100   1
   8   2   0 134.220 7.43000   1
   8   2   0 138.320 9.59000   1
  -8  -2   0 158.220 11.7200   1
  -5   0   8 21.3300 4.37000   1
  -5   0   8 24.1200 3.07000   1
   5   0  -8 25.5700 3.19000   1
   8   1   1 198.670 11.4700   1
  -8   1  -1 166.580 10.3300   1
  -8   1  -1 183.940 14.0900   1
  -8  -1  -1 185.410 13.3000   1
  -3  -6   5 262.630 17.1100   1
  -3  -6   5 282.510 18.4300   1
  -3  -6   5 236.770 13.1500   1
   3  -6  -5 264.970 14.1300   1
  -3   6   5 237.720 16.6000   1
   3   6  -5 247.150 17.8300   1
   3   6  -5 233.440 18.3400   1
   3   7   1 189.630 13.3400   1
   3   7   1 191.800 13.1700   1
  -3   7  -1 173.750 10.7000   1
  -3  -7  -1 147.650 8.80000   1
  -3  -7  -1 132.580 10.7400   1
   3  -7   1 163.330 10.9200   1
   3   3  -8 153.790 11.5800   1
   3   3  -8 163.500 14.0800   1
  -3  -3   8 159.090 9.25000   1
  -3  -3   8 193.350 13.0500   1
  -3  -3   8 174.260 11.8700   1
  -3   3   8 171.820 12.6800   1
   3  -3  -8 174.820 10.6600   1
  -6   0  -5 363.240 26.1000   1
  -6   0  -5 395.100 27.0300   1
  -5   1  -6 56.9100 5.63000   1
  -5  -1  -6 64.8200 6.83000   1
  -5  -1  -6 69.9300 5.79000   1
   7   2   3 49.7600 5.68000   1
  -7  -2  -3 68.6800 6.56000   1
  -7   2  -3 46.7200 6.13000   1
  -7   2  -3 43.6100 3.55000   1
   6   4   3 131.630 7.94000   1
   6   4   3 132.950 10.7800   1
  -6  -4  -3 138.810 9.46000   1
   6  -4   3 152.620 11.8200   1
  -4  -4   7 320.350 22.5200   1
  -4  -4   7 323.160 19.9000   1
   4  -4  -7 351.130 19.5800   1
   4   4  -7 308.540 23.6700   1
  -4  -4   7 334.000 21.3600   1
   4   4  -7 290.840 19.4100   1
  -4   4   7 314.360 19.4400   1
   6   3   4 75.9600 4.79000   1
   6  -3   4 86.6100 8.08000   1
  -6  -3  -4 64.2100 6.48000   1
  -6   3  -4 75.0200 5.16000   1
   6   3   4 87.4300 7.73000   1
   4   5  -6 138.500 11.2300   1
   4   5  -6 149.210 10.4400   1
  -4   5   6 139.930 7.80000   1
  -4  -5   6 109.360 9.65000   1
  -4  -5   6 110.500 6.92000   1
  -4  -5   6 114.180 8.94000   1
  -5  -1   8 315.080 20.6000   1
  -5   1   8 307.910 20.7600   1
  -5   1   8 310.420 18.5300   1
  -5  -1   8 318.100 20.3200   1
   5   1  -8 319.980 20.3100   1
   5  -1  -8 318.090 19.4100   1
  -7  -3   5 13.2900 4.17000   1
  -7  -3   5 8.58000 3.28000   1
  -7   3   5 24.5600 3.37000   1
  -7   3   5 18.0500 2.41000   1
   7   3  -5 30.6300 4.28000   1
   7   3  -5 24.4500 3.18000   1
  -7  -3   5 13.6900 3.10000   1
  -4   0  -7 80.1800 6.77000   1
   4   0   7 84.1300 7.54000   1
  -6   1  -5 28.0200 3.42000   1
  -6   1  -5 30.0900 4.44000   1
  -6  -1  -5 16.1100 3.79000   1
  -6  -1  -5 14.0000 3.72000   1
  -6  -2   7 333.370 21.9000   1
  -6  -2   7 338.630 20.5700   1
  -6   2   7 320.050 21.5800   1
  -6  -2   7 353.360 23.2800   1
  -6   2   7 282.650 17.3200   1
   6   2  -7 290.960 19.0500   1
   6  -2  -7 306.030 17.1400   1
  -3  -6  -4 150.200 10.2000   1
   3   6   4 177.860 12.9800   1
   3  -6   4 145.170 7.74000   1
   3  -6   4 161.090 11.5600   1
   3   6   4 189.770 11.1700   1
  -3  -6  -4 143.690 8.68000   1
  -3   6  -4 162.320 9.38000   1
  -3   6  -4 186.460 10.4300   1
   3   6   4 179.310 12.4700   1
  -5  -6  -1 6.06000 3.32000   1
   5  -6   1 4.45000 3.07000   1
   5   6   1 13.2900 3.99000   1
  -5   6  -1 9.42000 1.99000   1
  -5  -6  -1 8.14000 2.57000   1
   5   6   1 10.5500 3.21000   1
   2   5   6 148.350 9.84000   1
  -2  -5  -6 128.550 10.1600   1
  -2   5  -6 142.140 10.3500   1
   2  -5   6 134.800 10.7300   1
  -2   5  -6 160.620 9.65000   1
   2  -5   6 143.670 8.89000   1
   2   5   6 152.010 10.8100   1
  -5  -6   3 189.950 12.1700   1
  -5   6   3 168.400 11.8600   1
   5   6  -3 158.630 12.9600   1
   5   6  -3 178.790 13.6600   1
   5  -6  -3 199.880 11.1800   1
  -5  -6   3 186.860 10.5500   1
  -5  -6   3 183.650 13.9900   1
  -2   0   9 190.460 12.6700   1
   2   0  -9 177.140 13.2400   1
  -2   0   9 183.930 13.9500   1
  -4   6  -3 95.8900 6.19000   1
  -4  -6  -3 98.6600 6.97000   1
   4   6   3 101.120 8.47000   1
   4   6   3 99.3200 7.59000   1
   4  -6   3 115.470 8.98000   1
  -4  -6  -3 103.500 7.78000   1
  -1   0   9 250.770 18.1100   1
   1   0  -9 231.350 16.5500   1
   4  -1   7 0.05000 2.22000   1
   4  -1   7 1.71000 2.28000   1
  -4  -1  -7 -0.6700 2.45000   1
  -4   1  -7 -1.3700 2.45000   1
   4   1   7 -0.8100 2.34000   1
   3   3   7 6.36000 3.04000   1
  -3   3  -7 6.92000 2.60000   1
   3  -3   7 2.80000 2.89000   1
   3  -3   7 5.20000 2.93000   1
  -3  -3  -7 0.06000 3.00000   1
   7   4   1 3.70000 2.66000   1
   7  -4   1 1.83000 2.72000   1
  -7  -4  -1 0.38000 2.69000   1
  -7  -4  -1 0.62000 2.73000   1
  -7   4  -1 0.37000 2.74000   1
   7   4   1 1.56000 1.49000   1
  -7  -2   6 0.37000 2.94000   1
   7   2  -6 3.37000 2.35000   1
   7   2  -6 2.67000 2.53000   1
  -7  -2   6 3.68000 2.67000   1
  -7  -2   6 3.90000 2.03000   1
  -7   2   6 1.60000 2.25000   1
  -7   2   6 1.73000 1.72000   1
  -6   5   4 251.450 14.6600   1
  -6  -5   4 232.150 17.4900   1
   6   5  -4 270.580 17.2600   1
  -6  -5   4 228.340 15.5300   1
  -6  -5   4 231.780 15.0000   1
   6   5  -4 264.800 18.6900   1
  -8   2   4 129.830 10.3200   1
  -8   2   4 112.220 8.24000   1
  -8  -2   4 124.650 9.38000   1
  -8  -2   4 121.510 9.83000   1
   8   2  -4 128.450 8.06000   1
  -8  -2   4 127.760 9.96000   1
   8   2  -4 113.490 8.01000   1
   3   7  -3 90.9600 8.41000   1
  -3  -7   3 96.9400 8.28000   1
  -3   7   3 90.1800 8.52000   1
  -3  -7   3 93.4500 7.63000   1
   3   7  -3 82.1700 7.43000   1
   3  -7  -3 100.970 6.46000   1
  -2  -1   9 109.290 7.76000   1
  -2   1   9 103.190 6.20000   1
  -2   1   9 106.250 9.65000   1
   2  -1  -9 124.050 8.62000   1
   2   1  -9 114.600 8.54000   1
  -2  -1   9 110.150 9.32000   1
  -1  -7   4 225.050 15.2900   1
   1  -7  -4 230.490 13.3300   1
   1   7  -4 224.940 16.8600   1
  -1   7   4 218.740 13.2000   1
   1   7  -4 221.040 15.5500   1
  -1  -7   4 233.480 16.2200   1
  -1   7   4 229.250 16.7200   1
  -2   4  -7 173.650 12.3100   1
   2   4   7 172.800 11.7200   1
  -2  -4  -7 176.970 12.8300   1
   2  -4   7 177.190 12.3900   1
   2   4   7 133.900 9.67000   1
   2  -4   7 185.710 11.9900   1
  -2   4  -7 148.100 10.9200   1
  -2  -2  -8 1.48000 3.22000   1
   2  -2   8 4.70000 2.87000   1
   2  -2   8 4.93000 3.16000   1
   2   2   8 10.9800 3.33000   1
  -2   2  -8 5.15000 3.21000   1
  -1   1   9 94.8900 7.75000   1
  -1  -1   9 82.7000 7.19000   1
  -1  -1   9 67.2100 4.33000   1
   1  -1  -9 84.3400 7.73000   1
   1   1  -9 104.970 8.19000   1
  -1   3  -8 198.600 13.9300   1
  -1  -3  -8 205.400 14.8100   1
  -1   3  -8 208.980 14.5500   1
   1  -3   8 211.200 15.0500   1
   1   3   8 224.340 16.4200   1
   1  -3   8 198.380 13.2200   1
   2   7   3 124.900 9.20000   1
  -2  -7  -3 130.450 8.96000   1
   2   7   3 129.750 10.5700   1
  -2   7  -3 133.030 9.63000   1
  -2   7  -3 113.020 7.18000   1
   2  -7   3 136.480 10.0700   1
  -1  -5   7 20.4300 3.29000   1
  -1  -5   7 24.0300 3.70000   1
  -1   5   7 21.5300 4.29000   1
   1   5  -7 28.0800 4.13000   1
   1  -5  -7 22.3800 3.00000   1
  -1   5   7 18.5900 2.95000   1
   1   5  -7 20.3300 4.37000   1
  -8   2  -1 30.6100 5.54000   1
   8   2   1 38.9800 3.95000   1
  -8  -2  -1 32.8300 5.60000   1
   0   7   4 112.430 9.24000   1
   0   7  -4 121.460 9.43000   1
   0  -7   4 90.4500 8.70000   1
   0   7  -4 115.390 8.59000   1
   0  -7  -4 88.4000 6.26000   1
   0   7   4 105.430 7.15000   1
  -8   0   5 305.030 20.5200   1
   8   0  -5 323.250 18.3100   1
  -8   0   5 317.680 21.7600   1
  -7  -4   4 87.6600 7.14000   1
  -7  -4   4 82.0900 7.13000   1
   7   4  -4 92.7400 6.95000   1
  -7  -4   4 81.4600 7.52000   1
   7   4  -4 95.4200 7.32000   1
  -7   4   4 79.6600 5.17000   1
  -7   4   4 91.9200 6.46000   1
  -8  -3   2 179.720 13.0300   1
  -8  -3   2 175.470 12.4000   1
  -8   3   2 139.330 10.6600   1
   8  -3  -2 178.250 10.4200   1
   8   3  -2 144.760 10.1500   1
   8   3  -2 159.900 10.1400   1
  -8  -3   2 175.720 12.6700   1
  -3   0   9 202.650 12.5000   1
  -3   0   9 203.000 15.4200   1
   3   0  -9 223.180 15.2000   1
   2   6   5 104.990 8.78000   1
   2  -6   5 100.960 6.19000   1
   2   6   5 110.240 7.47000   1
   2  -6   5 105.180 7.98000   1
   2   6   5 93.5700 7.81000   1
  -2   6  -5 93.8500 6.82000   1
  -2  -6  -5 100.120 6.89000   1
  -2   6  -5 95.7800 6.73000   1
   3   7   2 157.250 11.4300   1
   3   7   2 176.610 13.0700   1
  -3   7  -2 171.650 10.7600   1
  -3  -7  -2 149.830 8.68000   1
  -3  -7  -2 173.990 12.6300   1
   3  -7   2 182.060 12.5000   1
  -5   2  -6 8.31000 3.26000   1
   5  -2   6 9.70000 3.80000   1
  -5  -2  -6 10.3300 2.52000   1
  -5  -2  -6 8.48000 3.69000   1
  -8   3   1 382.960 25.6500   1
  -8  -3   1 323.670 23.0600   1
   8   3  -1 370.340 23.6600   1
   8   3  -1 363.900 22.2500   1
   8  -3  -1 340.060 22.8500   1
   2   5  -7 3.47000 3.77000   1
  -2  -5   7 6.82000 2.87000   1
  -2  -5   7 5.88000 2.04000   1
   2  -5  -7 8.33000 1.87000   1
   2   5  -7 4.13000 3.17000   1
  -2   5   7 -0.5000 2.02000   1
  -2   5   7 4.03000 3.09000   1
  -2  -5   7 9.69000 2.97000   1
   0   0   9 27.0300 2.46000   1
   0   0  -9 34.0300 5.01000   1
   0   0   9 39.8100 5.33000   1
  -8   0  -2 200.390 14.8800   1
  -4  -3   8 380.940 26.7500   1
  -4  -3   8 348.320 21.6800   1
  -4   3   8 384.680 25.5300   1
  -4  -3   8 370.280 25.3900   1
   4   3  -8 382.080 26.1200   1
   4   3  -8 405.550 30.4300   1
   4  -3  -8 399.960 24.7000   1
  -7   0  -4 24.8200 3.57000   1
  -7   0  -4 27.7300 4.24000   1
  -6  -5  -2 26.4500 4.00000   1
   6   5   2 40.7200 4.45000   1
   6  -5   2 29.1300 4.65000   1
  -6  -5  -2 21.5700 3.48000   1
   6   5   2 26.2500 3.29000   1
  -5  -2   8 72.2300 6.32000   1
   5  -2  -8 71.3100 4.91000   1
  -5  -2   8 71.0700 6.94000   1
   5   2  -8 85.0800 7.11000   1
  -5   2   8 86.6900 7.50000   1
   4   7  -1 158.750 11.3200   1
  -4  -7   1 141.140 10.6400   1
  -4   7   1 146.610 9.47000   1
   4  -7  -1 142.100 9.08000   1
   4   7  -1 159.390 11.2400   1
  -4  -7   1 136.890 9.21000   1
   2  -7  -4 86.9200 5.03000   1
   2  -7  -4 97.7500 5.60000   1
   2   7  -4 83.4900 8.59000   1
   2   7  -4 86.6900 8.15000   1
  -2   7   4 85.4100 7.60000   1
  -2  -7   4 98.7600 8.39000   1
  -2  -7   4 102.180 7.45000   1
   8   1  -5 25.1000 3.43000   1
  -8   1   5 22.3200 3.51000   1
  -8  -1   5 13.8700 3.64000   1
  -8  -1   5 29.3900 4.33000   1
  -8   1   5 24.4100 4.65000   1
   8   1  -5 22.8800 2.80000   1
  -6   2  -5 116.980 8.52000   1
  -6  -2  -5 140.490 10.6800   1
  -6  -2  -5 122.230 9.35000   1
   6  -2   5 143.820 11.6400   1
   0   5   7 3.97000 3.06000   1
   0  -5   7 9.03000 3.55000   1
   0   5   7 11.3000 2.62000   1
   0   5  -7 8.88000 3.23000   1
   0  -5  -7 8.37000 3.10000   1
   0   5  -7 3.98000 3.51000   1
   0  -5   7 17.2600 2.39000   1
  -3   1   9 144.830 9.13000   1
  -3  -1   9 164.600 12.1500   1
   3  -1  -9 149.310 10.3600   1
   3   1  -9 135.350 9.92000   1
  -3   1   9 141.250 11.6000   1
  -3  -1   9 151.410 10.0500   1
  -4  -7   0 3.36000 2.58000   1
  -4  -7   0 -0.3500 1.66000   1
   4   7   0 2.61000 2.74000   1
   4   7   0 -2.0900 2.55000   1
   4  -7   0 2.43000 2.08000   1
  -4   7   0 0.41000 1.71000   1
   1  -6  -6 19.7200 2.67000   1
  -1   6   6 13.0600 3.83000   1
  -1   6   6 7.87000 1.79000   1
  -1  -6   6 11.5600 1.86000   1
  -1  -6   6 17.5500 3.93000   1
   1   6  -6 9.28000 3.17000   1
   1   6  -6 11.8700 4.15000   1
  -4  -6   5 74.6000 7.60000   1
   4   6  -5 95.0400 8.78000   1
   4   6  -5 102.570 8.14000   1
  -4  -6   5 76.8900 7.52000   1
  -4  -6   5 71.6600 4.77000   1
  -4   6   5 109.120 8.59000   1
   0   1   9 63.8400 7.19000   1
   0  -1  -9 67.9000 6.95000   1
   0   1  -9 59.9500 6.71000   1
   0  -1   9 68.4300 4.60000   1
   0  -1   9 70.2800 7.27000   1
   8  -3  -3 19.7600 2.37000   1
   8   3  -3 19.9300 3.80000   1
  -8   3   3 23.4300 3.21000   1
  -8   3   3 21.2900 3.63000   1
  -8  -3   3 23.7300 3.61000   1
   8   3  -3 21.2900 3.12000   1
  -8  -3   3 13.9300 4.25000   1
  -8  -3   3 17.5200 3.45000   1
   8   1   2 6.59000 2.23000   1
  -8  -1  -2 1.78000 3.39000   1
  -8   1  -2 4.63000 3.50000   1
  -8   1  -2 4.40000 2.26000   1
  -7  -1  -4 32.3700 3.96000   1
  -7  -1  -4 22.0200 4.79000   1
  -7   1  -4 30.3400 3.69000   1
  -7   1  -4 37.6900 5.08000   1
   8   3   0 23.3600 2.32000   1
   8  -3   0 27.7100 3.67000   1
   8   3   0 25.9300 3.54000   1
  -8  -3   0 18.8200 4.56000   1
  -8   3   0 31.6600 5.01000   1
   5   6   2 215.100 15.6300   1
   5   6   2 210.050 13.9200   1
  -5  -6  -2 183.140 13.0400   1
  -5  -6  -2 174.270 12.0800   1
   5  -6   2 208.330 14.6800   1
   4  -2   7 101.930 9.15000   1
   4  -2   7 94.9500 7.61000   1
   4   2   7 98.2700 8.65000   1
  -4  -2  -7 94.3200 8.85000   1
  -4   2  -7 127.930 9.65000   1
  -4  -7   2 109.800 9.43000   1
  -4  -7   2 97.7100 7.11000   1
   4   7  -2 99.6100 9.12000   1
   4   7  -2 94.8400 8.61000   1
   4  -7  -2 105.920 6.54000   1
  -4   7   2 102.640 8.30000   1
  -6  -4   6 40.3600 5.15000   1
   6   4  -6 56.1200 5.71000   1
   6   4  -6 55.8500 6.24000   1
  -6  -4   6 42.7400 5.78000   1
  -6   4   6 50.9300 4.29000   1
  -6  -4   6 45.9700 4.50000   1
   1   7   4 127.730 10.1400   1
   1   7   4 108.640 8.14000   1
   1  -7   4 112.070 8.61000   1
  -1  -7  -4 126.740 8.25000   1
  -1   7  -4 111.170 7.84000   1
  -1   7  -4 129.410 10.0200   1
   1   4  -8 2.33000 2.68000   1
  -1  -4   8 0.12000 2.02000   1
  -1  -4   8 1.35000 2.07000   1
  -1   4   8 1.27000 2.50000   1
   1  -4  -8 1.02000 1.92000   1
   1   4  -8 2.40000 2.62000   1
  -2  -6   6 9.39000 3.12000   1
  -2  -6   6 6.79000 3.16000   1
  -2   6   6 3.12000 2.83000   1
  -2   6   6 4.03000 1.32000   1
   2  -6  -6 6.40000 1.63000   1
   2   6  -6 5.64000 3.13000   1
   2   6  -6 4.21000 3.67000   1
  -2  -6   6 5.21000 1.96000   1
  -5  -6   4 167.900 12.2400   1
  -5  -6   4 164.440 12.0200   1
  -5  -6   4 172.430 9.89000   1
  -5   6   4 163.620 11.1800   1
   5   6  -4 161.980 12.6200   1
   5   6  -4 151.790 12.8100   1
  -2  -4   8 85.0900 7.58000   1
  -2   4   8 87.2000 6.69000   1
   2  -4  -8 78.6500 5.94000   1
   2   4  -8 93.0100 9.37000   1
   2   4  -8 81.5900 6.89000   1
  -2  -4   8 88.8200 6.79000   1
  -2  -4   8 77.9200 6.12000   1
   0   6   6 45.1900 5.41000   1
   0   6  -6 40.5600 5.10000   1
   0   6  -6 34.3100 4.48000   1
   0  -6  -6 38.2700 3.43000   1
   0  -6  -6 41.4200 3.92000   1
   0   6   6 36.3500 3.08000   1
   0  -6   6 38.9200 2.96000   1
   0  -6   6 38.3000 5.53000   1
  -7   3  -3 78.2500 7.98000   1
   7   3   3 87.4200 7.42000   1
  -7  -3  -3 62.7200 6.47000   1
   7  -3   3 73.5800 6.94000   1
   4   5   5 72.3500 7.33000   1
   4   5   5 69.8900 5.25000   1
   4  -5   5 46.8900 6.50000   1
   4  -5   5 45.5600 3.96000   1
  -4   5  -5 52.6500 4.24000   1
   3   0   8 107.730 7.82000   1
   3   0   8 136.900 9.77000   1
  -3   0  -8 128.070 10.2300   1
   5   4   5 101.460 8.41000   1
   5  -4   5 116.250 9.81000   1
  -5  -4  -5 102.720 6.87000   1
  -5   4  -5 89.4600 6.45000   1
   5   4   5 96.1900 6.08000   1
   3  -5  -7 45.7600 3.98000   1
   3   5  -7 40.5800 5.57000   1
   3   5  -7 34.7500 5.59000   1
  -3   5   7 41.6600 3.71000   1
  -3  -5   7 44.5600 3.78000   1
  -3  -5   7 40.1900 5.06000   1
  -3  -5   7 50.6600 5.08000   1
  -2   2   9 174.130 13.0700   1
   2  -2  -9 155.540 10.9200   1
  -2  -2   9 160.800 11.5700   1
  -2  -2   9 159.950 11.4100   1
  -2  -2   9 153.800 9.59000   1
   2   2  -9 157.750 11.9100   1
  -1  -2   9 91.8700 8.32000   1
  -1  -2   9 85.9300 5.64000   1
  -1   2   9 89.2400 7.89000   1
   1   2  -9 76.3400 7.73000   1
   1  -2  -9 102.630 8.45000   1
   0  -8   0 42.7300 4.97000   1
   0  -8   0 44.7400 3.62000   1
   0   8   0 30.4000 4.71000   1
   0   8   0 24.5900 3.45000   1
  -4  -4  -6 13.2400 3.91000   1
   4  -4   6 15.7800 4.22000   1
   4  -4   6 11.8900 3.12000   1
   4   4   6 13.2300 2.81000   1
  -4  -4  -6 13.8000 2.60000   1
  -4   4  -6 14.6500 2.94000   1
  -5  -4   7 284.010 18.5100   1
  -5  -4   7 297.600 19.0400   1
  -5  -4   7 299.920 20.8900   1
  -5   4   7 284.290 18.5200   1
   5   4  -7 291.620 18.9800   1
   5   4  -7 258.790 20.6500   1
   5   5   4 63.5900 5.06000   1
  -5  -5  -4 54.3300 4.76000   1
  -5   5  -4 54.8200 4.28000   1
   5  -5   4 62.2400 6.90000   1
   5   5   4 64.7000 6.52000   1
   7   0  -7 332.370 20.0600   1
  -7   0   7 335.270 23.8400   1
  -7   0   7 335.020 21.8100   1
  -6  -3   7 19.3200 2.87000   1
  -6   3   7 21.1200 3.33000   1
  -6  -3   7 14.3000 3.89000   1
   6   3  -7 19.5800 4.67000   1
   6   3  -7 22.1200 3.34000   1
  -6  -3   7 17.7400 3.57000   1
  -4  -7  -1 152.030 9.57000   1
  -4  -7  -1 164.350 12.6000   1
  -4   7  -1 144.530 9.38000   1
   4   7   1 152.680 11.0500   1
   4   7   1 165.260 13.2100   1
   4  -7   1 177.950 11.1600   1
   3   1   8 95.4300 8.16000   1
   3  -1   8 69.7000 6.08000   1
  -3  -1  -8 69.3400 6.71000   1
   3  -1   8 75.5900 7.60000   1
  -3   1  -8 94.2600 7.43000   1
   7  -4   2 128.220 10.8600   1
   7   4   2 120.580 7.29000   1
   7   4   2 129.230 9.53000   1
  -7  -4  -2 117.700 9.14000   1
  -4   0   9 170.970 10.7400   1
   4   0  -9 171.050 12.1600   1
  -4   0   9 169.680 13.1500   1
   5   5  -6 264.660 19.9200   1
  -5  -5   6 300.320 19.7500   1
   5   5  -6 278.370 19.3600   1
  -5  -5   6 305.350 18.6300   1
  -5  -5   6 334.610 21.1500   1
  -5   5   6 241.080 15.1700   1
   0  -8   1 26.2700 2.73000   1
   0   8   1 23.0300 5.00000   1
   0   8   1 22.3800 3.28000   1
   0   8  -1 25.2600 4.32000   1
   0  -8  -1 25.2500 3.43000   1
   0   8  -1 23.5800 3.15000   1
   0  -8   1 26.6100 4.14000   1
   0   4  -8 18.8200 4.60000   1
   0  -4   8 28.7600 3.63000   1
   0   4  -8 11.6200 4.33000   1
   0  -4  -8 24.3900 3.56000   1
   0  -4   8 28.4400 3.71000   1
   0   4   8 16.2800 4.48000   1
  -1   8   0 268.170 17.7100   1
   1  -8   0 246.600 14.5900   1
  -1   8   0 219.140 13.4600   1
   1   8   0 239.420 18.3300   1
   1   8   0 236.480 15.4000   1
   1  -8   0 239.980 15.8800   1
  -1  -8   0 235.110 15.4600   1
  -1  -8   0 226.700 13.0900   1
  -6   0   8 67.0400 6.80000   1
  -6   0   8 65.5100 5.30000   1
   6   0  -8 63.5600 4.92000   1
  -7  -5   1 147.380 11.8600   1
  -7  -5   1 145.880 10.5400   1
   7   5  -1 160.550 10.3500   1
   7   5  -1 156.560 11.1600   1
   7  -5  -1 167.390 10.4600   1
  -3  -7   4 277.270 19.3100   1
  -3  -7   4 283.770 19.5400   1
   3   7  -4 307.320 21.4800   1
   3  -7  -4 264.680 15.1300   1
  -3   7   4 307.850 20.3900   1
   3   7  -4 290.160 21.3800   1
  -7   1   7 22.4300 3.13000   1
  -7   1   7 18.5500 4.57000   1
  -7  -1   7 24.6300 3.76000   1
   7   1  -7 20.4500 2.90000   1
   7  -1  -7 25.0100 2.88000   1
  -7  -1   7 23.3300 3.84000   1
   1   0   9 174.680 13.3000   1
   1   0   9 148.460 9.09000   1
  -1   0  -9 155.440 12.4700   1
   1   5   7 22.3900 3.48000   1
   1  -5   7 20.4100 2.90000   1
   1  -5   7 14.4700 4.21000   1
  -1  -5  -7 14.2700 3.26000   1
  -1   5  -7 18.3500 4.08000   1
  -1   5  -7 25.0500 3.76000   1
   1   5   7 19.4600 3.65000   1
   8   2  -5 273.240 17.3000   1
  -8  -2   5 292.510 20.7500   1
   8   2  -5 278.680 18.8500   1
  -8   2   5 275.460 18.6200   1
  -8   2   5 278.650 20.1600   1
  -8  -2   5 307.330 19.6000   1
  -8  -2   5 297.550 20.6200   1
   7   5  -2 169.110 10.9000   1
   7   5  -2 166.780 12.1000   1
  -7  -5   2 135.160 11.3300   1
  -7  -5   2 133.150 11.0600   1
  -7  -5   2 145.140 9.96000   1
   7  -5  -2 149.980 9.07000   1
  -3  -4   8 1.89000 1.84000   1
  -3  -4   8 0.86000 3.00000   1
  -3  -4   8 2.51000 2.61000   1
  -3   4   8 2.38000 2.65000   1
   3   4  -8 -0.5200 3.64000   1
   3   4  -8 3.81000 2.76000   1
   3  -4  -8 3.54000 1.79000   1
   1   8  -1 26.9700 3.62000   1
   1  -8  -1 29.8200 3.86000   1
  -1  -8   1 25.4500 2.81000   1
   1   8  -1 17.9900 4.75000   1
  -1   8   1 22.1800 2.59000   1
  -1  -8   1 26.0900 4.39000   1
  -3  -5  -6 87.5000 8.22000   1
   3  -5   6 100.710 8.76000   1
   3  -5   6 95.6000 6.57000   1
   3   5   6 101.630 7.09000   1
   3   5   6 94.9900 7.04000   1
  -3   5  -6 90.7600 6.91000   1
   3  -2  -9 187.120 13.2200   1
  -3  -2   9 194.920 14.5600   1
  -3  -2   9 188.390 13.0600   1
   3   2  -9 208.750 13.7600   1
  -3   2   9 215.240 14.8600   1
  -6  -6   1 6.21000 2.89000   1
  -6  -6   1 5.94000 3.89000   1
   6  -6  -1 12.7900 2.43000   1
   6   6  -1 16.1600 3.82000   1
   6   6  -1 13.7700 3.38000   1
  -6   6   1 14.6400 2.01000   1
   7   3  -6 228.030 14.7400   1
   7   3  -6 229.140 16.4900   1
  -7  -3   6 253.140 17.5000   1
  -7  -3   6 250.450 15.5800   1
  -7  -3   6 232.950 15.7000   1
  -7   3   6 224.960 14.5300   1
  -7   3   6 205.110 13.3000   1
   6   5  -5 8.23000 3.57000   1
   6   5  -5 9.27000 4.02000   1
  -6   5   5 9.32000 2.27000   1
  -6  -5   5 7.19000 3.99000   1
  -6  -5   5 23.3400 2.59000   1
  -6  -5   5 15.3500 3.75000   1
   4  -1  -9 41.7000 4.54000   1
  -4  -1   9 45.6800 4.95000   1
  -4   1   9 54.2500 5.58000   1
  -4   1   9 50.7400 3.55000   1
  -4  -1   9 51.7800 6.09000   1
   4   1  -9 56.9600 5.25000   1
   6   4   4 51.6500 6.21000   1
   6  -4   4 53.6800 6.73000   1
  -6  -4  -4 43.5500 4.56000   1
  -6   4  -4 42.4800 3.93000   1
   6   4   4 49.2100 4.30000   1
  -3  -6   6 87.4800 7.45000   1
  -3  -6   6 90.0000 6.27000   1
  -3  -6   6 98.0200 8.59000   1
  -3   6   6 101.970 9.06000   1
   3   6  -6 95.8900 8.55000   1
   3   6  -6 97.2000 9.64000   1
   0  -2   9 195.940 11.8800   1
   0  -2  -9 193.310 14.3900   1
   0   2  -9 191.710 14.5000   1
   0  -2   9 207.520 14.9500   1
   0   2   9 202.090 14.7900   1
  -8  -3   4 127.850 10.4600   1
  -8  -3   4 134.580 10.2300   1
  -8   3   4 129.180 10.0200   1
  -8   3   4 127.450 8.85000   1
   8   3  -4 123.060 9.45000   1
   8   3  -4 128.680 8.98000   1
  -8  -3   4 141.040 10.3900   1
  -4  -7   3 61.0900 6.39000   1
   4  -7  -3 55.2900 3.79000   1
  -4   7   3 78.0000 6.72000   1
   4   7  -3 82.1700 6.73000   1
   4   7  -3 68.4700 7.03000   1
  -4  -7   3 58.7400 6.10000   1
  -8  -2  -2 153.330 11.7200   1
  -8   2  -2 159.680 13.6000   1
   8   2   2 164.140 10.9800   1
   7   2   4 136.450 10.8800   1
  -7   2  -4 125.080 8.23000   1
  -7  -2  -4 130.520 10.6400   1
  -7   2  -4 119.260 9.80000   1
  -1  -8  -1 3.55000 2.32000   1
  -1   8  -1 5.57000 3.32000   1
   1  -8   1 3.61000 1.74000   1
   1  -8   1 4.60000 2.74000   1
   1   8   1 6.95000 3.42000   1
   1   8   1 1.36000 2.32000   1
  -1   8  -1 4.58000 1.72000   1
  -1  -8  -1 2.02000 1.60000   1
  -6  -6   2 113.140 7.88000   1
   6  -6  -2 129.100 7.89000   1
   6   6  -2 162.830 11.8500   1
  -6  -6   2 137.630 10.6800   1
  -6   6   2 159.530 9.35000   1
   6   6  -2 170.700 11.7000   1
  -6  -6   2 125.220 11.9000   1
   2  -3   8 216.500 14.5100   1
   2  -3   8 202.660 13.8400   1
  -2  -3  -8 202.680 14.8500   1
  -2   3  -8 202.450 13.5500   1
  -2   3  -8 196.490 14.2500   1
   2   3   8 216.090 15.8300   1
   6   1  -8 402.820 26.6600   1
  -6  -1   8 438.880 29.5200   1
   6  -1  -8 434.820 27.2000   1
  -6   1   8 391.990 28.0600   1
  -6   1   8 398.000 26.3100   1
  -6  -1   8 416.360 28.7800   1
   1   6   6 2.23000 2.09000   1
   1   6   6 2.65000 2.84000   1
   1  -6   6 3.17000 2.59000   1
  -1  -6  -6 1.96000 2.05000   1
  -1  -6  -6 2.17000 1.58000   1
  -1   6  -6 2.80000 2.41000   1
  -1   6  -6 3.93000 2.54000   1
   1  -6   6 1.96000 1.43000   1
  -7  -4   5 186.320 12.8900   1
   7   4  -5 196.390 13.5500   1
   7   4  -5 192.210 13.3000   1
  -7  -4   5 189.320 12.5700   1
  -7  -4   5 189.970 14.3900   1
  -7   4   5 184.780 11.8000   1
   3   7   3 335.910 24.4400   1
   3   7   3 293.150 21.0300   1
  -3   7  -3 336.900 21.4100   1
  -3  -7  -3 331.310 22.3000   1
   3  -7   3 342.660 22.6400   1
   9   0  -2 143.140 8.38000   1
  -9   0   2 129.350 11.4100   1
  -9   0   2 142.200 10.4900   1
  -8   3  -1 197.930 14.6900   1
  -8  -3  -1 198.410 15.4600   1
   8  -3   1 205.640 15.4400   1
   8   3   1 207.850 13.9400   1
  -1  -1  -9 31.1500 4.65000   1
   1   1   9 20.4300 2.31000   1
   1  -1   9 20.0800 2.87000   1
  -1   1  -9 22.4400 4.71000   1
   1  -1   9 27.3700 4.21000   1
   1   1   9 36.5500 5.26000   1
   7   5   0 25.1900 3.19000   1
   7   5   0 25.7200 4.00000   1
   7  -5   0 22.8800 3.28000   1
  -7  -5   0 17.9600 4.39000   1
  -7  -5   0 17.5000 3.97000   1
   6   6   0 269.330 18.8700   1
   6   6   0 251.600 17.6600   1
  -6  -6   0 230.290 17.1600   1
  -6  -6   0 234.900 15.9100   1
   6  -6   0 269.040 16.8300   1
   5   3   6 61.3100 4.64000   1
  -5   3  -6 64.5900 5.86000   1
  -5  -3  -6 68.0000 5.29000   1
   5  -3   6 70.4300 7.12000   1
  -5  -3  -6 71.7300 7.35000   1
   4   6   4 38.2300 6.61000   1
   4   6   4 42.3100 5.47000   1
   4  -6   4 60.3400 6.54000   1
   4  -6   4 55.8600 3.54000   1
  -4  -6  -4 58.0500 4.56000   1
  -4  -6  -4 63.9400 6.15000   1
  -9   0   1 2.96000 2.31000   1
   9   0  -1 -0.4300 1.17000   1
  -2   7  -4 53.0500 5.29000   1
   2  -7   4 72.5600 6.49000   1
  -2  -7  -4 61.4500 5.09000   1
  -2   7  -4 58.2500 5.31000   1
   2   7   4 44.7200 6.09000   1
   2   7   4 47.0800 5.69000   1
  -7  -5   3 43.8900 4.36000   1
  -7   5   3 47.7900 3.95000   1
   7  -5  -3 47.2600 3.99000   1
  -7  -5   3 51.4600 5.94000   1
  -7   5   3 38.7700 3.57000   1
   7   5  -3 58.2200 5.93000   1
  -7  -5   3 51.8700 6.04000   1
   7   5  -3 51.3200 5.02000   1
   0  -8   2 92.4300 7.73000   1
   0   8   2 79.7900 5.93000   1
   0  -8   2 94.9000 6.01000   1
   0   8   2 86.3100 8.86000   1
   0   8  -2 85.0200 7.48000   1
   0   8  -2 75.5100 6.24000   1
   0  -8  -2 84.6500 6.10000   1
   5  -3  -8 193.990 11.0100   1
  -5   3   8 231.640 15.4400   1
  -5  -3   8 195.400 13.6000   1
  -5  -3   8 207.030 15.3800   1
  -5  -3   8 193.440 13.2300   1
   5   3  -8 214.000 13.8600   1
   5   3  -8 217.270 16.1100   1
  -3   6  -5 165.780 9.83000   1
  -3  -6  -5 155.720 10.3900   1
  -3   6  -5 146.170 9.37000   1
   3  -6   5 164.500 11.3800   1
   3   6   5 142.910 10.4700   1
   3   6   5 154.510 12.4400   1
   3   6   5 168.360 11.0600   1
   3  -6   5 151.750 8.55000   1
  -9   1   2 131.640 11.1100   1
   9   1  -2 123.720 7.83000   1
  -9  -1   2 145.750 10.9700   1
  -9  -1   2 145.500 11.7800   1
  -9   1   2 126.100 10.8400   1
  -3  -4  -7 69.2600 7.55000   1
  -3   4  -7 77.0700 7.32000   1
   3  -4   7 78.2200 6.72000   1
   3   4   7 85.3800 7.21000   1
   3   4   7 67.7500 5.50000   1
   3  -4   7 73.5400 6.15000   1
  -9   0   3 114.430 10.0200   1
  -9   0   3 114.150 9.98000   1
   9   0  -3 114.230 5.96000   1
   9   0  -3 108.480 7.34000   1
  -1   8   2 214.730 16.5200   1
  -1   8   2 204.110 12.0900   1
   1   8  -2 212.290 16.2600   1
  -1  -8   2 217.990 15.3800   1
   1  -8  -2 209.340 13.1300   1
   1   8  -2 209.510 14.9400   1
  -1  -8   2 208.160 12.7700   1
   8   0  -6 1.74000 1.85000   1
  -8   0   6 1.78000 2.50000   1
  -8   0   6 2.22000 2.23000   1
  -6  -3  -5 20.3500 3.61000   1
   6  -3   5 24.2200 5.29000   1
  -6   3  -5 30.3600 3.40000   1
   2   8   0 179.730 14.3300   1
   2  -8   0 174.930 12.3300   1
  -2   8   0 196.340 14.2800   1
   2   8   0 189.920 13.4800   1
  -2  -8   0 162.770 9.83000   1
  -2  -8   0 167.410 12.6600   1
  -1  -7   5 87.2400 7.55000   1
  -1   7   5 70.4200 7.66000   1
   1   7  -5 81.5600 6.75000   1
   1   7  -5 75.6300 7.84000   1
   1  -7  -5 72.7000 5.25000   1
  -1  -7   5 83.3500 7.78000   1
   1  -7  -5 70.1400 4.71000   1
   3  -2   8 72.5700 7.00000   1
   3   2   8 65.4700 7.05000   1
  -3  -2  -8 63.9700 7.04000   1
  -3   2  -8 61.1100 7.14000   1
   3  -2   8 64.7100 5.67000   1
   9   1  -1 225.240 13.3300   1
  -9   1   1 223.210 17.3700   1
  -9  -1   1 228.560 18.0500   1
  -2  -8   1 22.9100 3.14000   1
  -2   8   1 39.7100 5.16000   1
   2   8  -1 33.9000 5.18000   1
   2   8  -1 33.9500 4.66000   1
   2  -8  -1 20.7500 3.14000   1
  -2  -8   1 18.8400 4.72000   1
  -6  -5  -3 65.7400 5.76000   1
  -6  -5  -3 60.2700 6.15000   1
   6   5   3 68.3100 5.84000   1
   6  -5   3 74.7900 6.79000   1
   6   5   3 73.8300 7.44000   1
   4   5  -7 25.7000 3.90000   1
  -4  -5   7 21.3800 3.02000   1
  -4  -5   7 22.2600 4.86000   1
  -4  -5   7 24.2300 3.49000   1
  -4   5   7 27.1800 2.97000   1
   4   5  -7 27.6000 5.51000   1
  -4   7  -2 67.2700 4.77000   1
   4   7   2 75.2200 7.02000   1
   4  -7   2 67.0600 6.57000   1
   4   7   2 66.0100 6.50000   1
  -4  -7  -2 52.5100 4.24000   1
  -4  -7  -2 58.4200 5.81000   1
   6   6  -3 110.580 8.66000   1
   6   6  -3 117.880 9.58000   1
  -6   6   3 125.000 8.56000   1
  -6  -6   3 110.760 10.0700   1
  -6  -6   3 111.730 8.87000   1
  -6  -6   3 110.530 7.04000   1
   6  -6  -3 105.680 6.19000   1
  -1   4  -8 82.6000 7.46000   1
   1  -4   8 99.6200 7.44000   1
   1   4   8 90.3500 8.57000   1
   1  -4   8 84.9300 7.68000   1
  -1   4  -8 85.4900 8.09000   1
  -1  -4  -8 99.2400 8.54000   1
  -8   0  -3 21.5400 4.93000   1
  -8   0  -3 22.0200 3.26000   1
   0   7   5 6.32000 3.46000   1
   0   7  -5 5.95000 2.95000   1
   0   7   5 9.32000 2.86000   1
   0  -7   5 5.62000 3.52000   1
   0   7  -5 9.16000 2.55000   1
   0  -7  -5 4.12000 1.79000   1
   4   3   7 2.98000 3.18000   1
   4  -3   7 5.74000 3.13000   1
  -4  -3  -7 5.13000 3.54000   1
  -4   3  -7 5.08000 3.06000   1
   4  -3   7 5.19000 3.20000   1
   7   2  -7 384.530 27.4500   1
   7   2  -7 387.020 25.2500   1
  -7  -2   7 332.200 23.9800   1
  -7   2   7 355.650 25.3100   1
  -7   2   7 346.210 22.4200   1
  -7  -2   7 366.870 26.2000   1
  -9  -1   3 126.940 9.27000   1
  -9   1   3 116.560 9.54000   1
  -9   1   3 122.470 10.6200   1
   9   1  -3 116.930 7.30000   1
   9   1  -3 127.870 7.36000   1
  -9  -1   3 122.610 10.5100   1
   8   1  -6 308.720 18.8200   1
  -8   1   6 314.540 20.5100   1
  -8  -1   6 278.670 19.3400   1
  -8  -1   6 301.990 21.0200   1
  -8   1   6 290.370 20.9400   1
  -8   4   2 114.250 8.29000   1
  -8  -4   2 86.4700 7.96000   1
  -8  -4   2 89.7600 8.70000   1
  -8  -4   2 104.150 8.28000   1
   8  -4  -2 84.5300 6.24000   1
   8   4  -2 119.810 9.07000   1
   8   4  -2 111.600 7.59000   1
   5   6   3 73.5100 7.08000   1
   5  -6   3 73.9100 7.83000   1
  -5  -6  -3 70.0600 6.46000   1
  -5  -6  -3 72.3900 5.30000   1
  -9   0   0 76.3400 8.74000   1
   9   0   0 80.9800 5.86000   1
  -8  -4   1 50.5000 6.65000   1
  -8   4   1 61.1400 6.36000   1
   8   4  -1 66.5400 5.68000   1
   8   4  -1 64.5500 4.73000   1
  -8  -4   1 51.7300 6.35000   1
   8  -4  -1 52.0600 4.97000   1
   2   7  -5 54.6600 6.30000   1
   2   7  -5 54.3300 6.63000   1
  -2  -7   5 42.9400 5.84000   1
  -2  -7   5 46.9300 6.06000   1
  -2   7   5 48.0400 6.29000   1
  -1   8  -2 188.870 12.7500   1
  -1   8  -2 149.010 10.0700   1
  -1  -8  -2 168.950 12.1800   1
   1   8   2 174.000 11.3300   1
   1   8   2 176.750 13.9500   1
   1  -8   2 156.380 10.9600   1
  -6   0  -6 26.6200 4.04000   1
   4  -2  -9 187.750 12.2400   1
   4   2  -9 205.740 14.5900   1
  -4  -2   9 195.830 14.4500   1
  -4   2   9 204.940 15.0500   1
  -4  -2   9 196.470 14.3400   1
  -2  -8  -1 32.1800 3.39000   1
   2   8   1 36.3300 4.61000   1
   2   8   1 35.8400 5.45000   1
  -2  -8  -1 37.1300 4.85000   1
  -2   8  -1 41.8500 4.58000   1
   2  -8   1 33.1400 4.99000   1
  -5  -6   5 139.790 8.59000   1
  -5   6   5 162.770 12.1500   1
  -5  -6   5 150.160 12.2000   1
  -5  -6   5 139.780 11.2800   1
   5   6  -5 158.650 11.2300   1
   5   6  -5 162.310 11.6900   1
   2   3  -9 46.8300 5.13000   1
  -2  -3   9 50.4400 5.51000   1
   2  -3  -9 45.9300 4.73000   1
  -2  -3   9 42.2700 3.87000   1
  -2  -3   9 45.4100 5.98000   1
   2   3  -9 52.0000 7.21000   1
  -2   3   9 45.6500 6.20000   1
  -5   0  -7 84.8200 8.25000   1
  -4  -4   8 56.6200 5.06000   1
  -4  -4   8 77.2200 7.75000   1
  -4  -4   8 70.0300 6.55000   1
   4   4  -8 79.1800 8.91000   1
   4  -4  -8 69.9300 5.42000   1
   4   4  -8 82.5600 7.19000   1
  -4   4   8 80.7700 6.09000   1
  -1  -3   9 141.030 9.49000   1
   1   3  -9 167.640 13.9600   1
   1   3  -9 150.770 11.6700   1
  -1  -3   9 148.880 11.2100   1
  -1   3   9 175.820 13.3400   1
   1  -3  -9 155.240 11.7300   1
   6   6   1 -1.4400 3.17000   1
   6   6   1 1.40000 2.03000   1
  -6  -6  -1 1.56000 2.27000   1
  -6  -6  -1 3.13000 1.95000   1
   6  -6   1 -0.4000 2.15000   1
   6  -2  -8 21.3600 2.29000   1
   6   2  -8 21.5200 3.45000   1
  -6  -2   8 17.2500 3.64000   1
  -6   2   8 20.2300 3.79000   1
  -6  -2   8 26.0100 4.12000   1
  -8   1  -3 120.790 8.25000   1
  -8   1  -3 153.680 11.4300   1
  -8  -1  -3 143.970 11.6200   1
   8   1   3 142.220 10.6500   1
   7   5   1 181.560 11.0900   1
   7   5   1 180.580 12.3900   1
   7  -5   1 195.450 13.7400   1
  -7  -5  -1 161.560 11.7900   1
  -7  -5  -1 148.250 11.4700   1
  -2   8   2 45.0400 5.22000   1
  -2  -8   2 42.0300 5.44000   1
   2   8  -2 45.0600 5.42000   1
   2  -8  -2 41.6600 3.89000   1
  -2  -8   2 40.0300 4.05000   1
   2   8  -2 38.4000 4.76000   1
   1  -2   9 55.6200 6.13000   1
   1  -2   9 49.4400 4.52000   1
   1   2   9 36.5500 6.34000   1
  -1   2  -9 26.1300 5.74000   1
  -1  -2  -9 49.9400 6.01000   1
  -5  -7   1 258.950 17.3100   1
   5   7  -1 256.970 19.2100   1
   5  -7  -1 257.320 16.0700   1
   5   7  -1 246.900 17.2200   1
  -5   7   1 234.760 15.1300   1
  -5  -7   1 242.920 19.4600   1
  -9   1   0 18.2700 4.23000   1
  -9  -1   0 16.3400 4.97000   1
   9   1   0 28.4900 3.03000   1
  -6  -1  -6 126.910 9.59000   1
  -6  -1  -6 117.540 9.53000   1
  -6   1  -6 125.600 9.89000   1
  -5   0   9 468.300 31.5700   1
  -5   0   9 441.690 31.8900   1
   5   0  -9 434.530 30.4500   1
  -8   4   3 122.500 9.26000   1
  -8  -4   3 118.500 10.2000   1
   8  -4  -3 116.000 7.85000   1
   8   4  -3 137.980 9.39000   1
   8   4  -3 138.070 10.3400   1
  -8  -4   3 133.110 10.0900   1
  -8  -4   3 117.820 9.15000   1
  -8   4   3 128.000 8.85000   1
  -5   1  -7 2.64000 2.46000   1
  -5  -1  -7 -1.1300 2.68000   1
   5  -1   7 -1.1900 2.63000   1
   4   6  -6 6.62000 3.75000   1
  -4  -6   6 7.45000 3.32000   1
   4   6  -6 6.04000 3.41000   1
  -4   6   6 3.43000 3.38000   1
  -4  -6   6 3.79000 2.72000   1
  -2   5  -7 4.39000 2.97000   1
   2   5   7 3.34000 3.05000   1
  -2  -5  -7 4.03000 2.85000   1
  -2   5  -7 8.44000 2.35000   1
   2   5   7 1.03000 2.58000   1
   2  -5   7 4.04000 3.12000   1
   2  -5   7 6.30000 2.63000   1
  -9   0   4 33.3200 4.73000   1
  -9   0   4 37.2700 5.55000   1
   9   0  -4 39.1800 4.36000   1
  -4  -7   4 204.330 14.3300   1
   4   7  -4 179.940 14.2900   1
   4   7  -4 156.530 13.5800   1
  -4  -7   4 208.740 15.3100   1
  -4   7   4 173.730 12.6600   1
  -8  -4   0 150.440 12.3900   1
   8   4   0 179.370 12.3100   1
   8  -4   0 168.120 12.3600   1
  -8   4   0 154.110 12.5100   1
   8   4   0 160.610 9.73000   1
  -8  -4   0 169.290 12.8300   1
  -5  -7   0 10.3800 2.65000   1
  -5  -7   0 11.0700 3.59000   1
   5  -7   0 13.0700 3.16000   1
  -5   7   0 10.1900 2.91000   1
   5   7   0 11.6000 4.17000   1
   5   7   0 12.2700 3.77000   1
   9   2  -2 99.3300 6.47000   1
  -9   2   2 115.380 9.93000   1
   9   2  -2 106.980 7.25000   1
  -9  -2   2 122.980 8.89000   1
  -9  -2   2 118.770 9.28000   1
  -5   7   2 31.1700 3.80000   1
   5   7  -2 37.8300 4.84000   1
   5   7  -2 32.0800 5.00000   1
  -5  -7   2 12.8800 5.47000   1
   5  -7  -2 17.3300 2.53000   1
  -5  -7   2 13.3300 3.29000   1
  -8  -3   5 30.9300 3.89000   1
   8   3  -5 31.9200 4.13000   1
  -8  -3   5 21.0300 5.13000   1
  -8   3   5 27.5900 4.33000   1
  -8   3   5 29.9200 4.75000   1
  -8  -3   5 25.8600 4.03000   1
   8   3  -5 32.7700 3.85000   1
   7   5  -4 139.310 10.0600   1
  -7  -5   4 99.5200 8.90000   1
  -7  -5   4 106.040 7.88000   1
  -7  -5   4 119.040 9.17000   1
   7   5  -4 137.390 9.47000   1
  -7   5   4 125.190 7.94000   1
  -2   6  -6 2.04000 2.05000   1
  -2  -6  -6 -2.0400 2.58000   1
   2   6   6 4.00000 1.86000   1
   2  -6   6 -0.2300 1.89000   1
   2   6   6 2.46000 2.32000   1
  -2   6  -6 3.70000 1.90000   1
   2  -6   6 -0.5500 2.44000   1
   3   3  -9 56.0400 8.08000   1
   3  -3  -9 65.4400 5.15000   1
  -3  -3   9 62.1600 6.19000   1
   3   3  -9 58.4500 6.35000   1
  -3   3   9 53.5300 6.79000   1
  -3  -3   9 52.0600 3.86000   1
  -3  -3   9 65.7600 6.13000   1
  -1   7  -5 8.03000 2.52000   1
  -1  -7  -5 7.46000 2.04000   1
   1  -7   5 8.35000 3.44000   1
   1   7   5 7.28000 3.56000   1
   1   7   5 6.83000 3.16000   1
  -1   7  -5 3.59000 2.77000   1
  -7  -4  -3 18.7000 3.46000   1
   7  -4   3 14.3000 4.07000   1
   7   4   3 15.6500 4.19000   1
   2   0   9 18.9100 2.89000   1
  -2   0  -9 22.5700 4.36000   1
   2   0   9 16.8200 4.62000   1
  -9   2   1 16.6000 3.64000   1
  -9  -2   1 12.8000 3.67000   1
   9   2  -1 14.4300 2.65000   1
  -5   1   9 99.6500 8.46000   1
   5  -1  -9 110.640 7.64000   1
   5   1  -9 115.400 8.10000   1
  -5  -1   9 91.5300 7.65000   1
  -5  -1   9 111.990 8.73000   1
   0   3   9 4.58000 3.44000   1
   0   3  -9 3.27000 3.10000   1
   0   3  -9 4.12000 2.78000   1
   0  -3   9 2.87000 2.06000   1
   0  -3   9 0.89000 3.10000   1
   0  -3  -9 1.17000 2.91000   1
  -7   0  -5 9.97000 3.85000   1
  -7   0  -5 13.7900 3.57000   1
  -1   8   3 61.2000 6.17000   1
   1   8  -3 62.1000 5.69000   1
   1  -8  -3 55.5700 4.69000   1
  -1  -8   3 65.6500 6.39000   1
  -1  -8   3 59.6800 5.70000   1
  -1   8   3 52.7200 4.00000   1
   1   8  -3 63.9100 7.34000   1
   8  -3   2 15.7200 3.69000   1
  -8  -3  -2 12.3900 4.30000   1
  -8   3  -2 14.1600 4.52000   1
   8   3   2 17.1600 3.45000   1
   0   8  -3 38.4400 4.28000   1
   0  -8   3 44.0300 4.81000   1
   0   8   3 39.7600 5.98000   1
   0  -8   3 38.6700 4.60000   1
   0   8   3 37.9700 3.84000   1
   0  -8  -3 38.7300 4.75000   1
   0   8  -3 41.5900 5.92000   1
   7  -3   4 73.7700 6.86000   1
  -7  -3  -4 52.4500 5.59000   1
   7   3   4 68.9500 6.39000   1
  -9  -1   4 208.210 15.1500   1
  -9   1   4 204.800 15.3900   1
   9   1  -4 207.420 11.9800   1
  -9  -1   4 209.290 15.6700   1
  -9   1   4 205.520 14.5600   1
   9   1  -4 190.130 12.2900   1
  -3   7   5 7.44000 3.97000   1
  -3  -7   5 16.3300 3.25000   1
  -3  -7   5 11.5200 3.35000   1
   3   7  -5 9.38000 4.15000   1
   3   7  -5 7.09000 3.77000   1
   9   2  -3 119.070 7.87000   1
  -9   2   3 121.090 9.30000   1
  -9  -2   3 112.200 9.60000   1
   9   2  -3 123.380 8.58000   1
  -9  -2   3 101.490 9.77000   1
  -9   2   3 127.750 10.1500   1
   8   2  -6 8.42000 2.36000   1
  -8  -2   6 6.23000 2.08000   1
  -8  -2   6 5.67000 3.27000   1
   8   2  -6 8.70000 2.94000   1
  -8   2   6 10.6700 2.96000   1
  -8   2   6 5.88000 2.37000   1
  -8  -2   6 7.03000 3.66000   1
   6   4  -7 233.560 17.4600   1
  -6  -4   7 193.350 14.1800   1
  -6  -4   7 207.940 13.9500   1
  -6   4   7 227.420 14.4000   1
   6   4  -7 244.780 16.3200   1
  -6  -4   7 203.660 15.5500   1
   2   1   9 20.7100 2.78000   1
   2   1   9 26.7900 5.08000   1
  -2   1  -9 26.5700 5.00000   1
   2  -1   9 32.0500 4.36000   1
  -2  -1  -9 27.6400 4.73000   1
   2  -1   9 25.4300 3.36000   1
   3  -8  -1 21.3000 2.76000   1
   3   8  -1 12.5400 4.09000   1
  -3  -8   1 18.8900 2.72000   1
  -3   8   1 7.58000 3.26000   1
   3   8  -1 7.65000 3.62000   1
  -3  -8   1 16.8600 3.52000   1
   6   6  -4 29.6100 4.01000   1
   6   6  -4 19.3200 3.67000   1
  -6  -6   4 9.58000 3.35000   1
  -6  -6   4 6.72000 4.91000   1
  -6  -6   4 13.9700 2.45000   1
   3   8   0 85.8500 7.71000   1
  -3  -8   0 98.1000 6.32000   1
  -3   8   0 82.7700 7.40000   1
   3   8   0 82.5400 8.67000   1
   3  -8   0 116.600 7.86000   1
  -3  -8   0 103.840 9.48000   1
  -2  -8  -2 449.830 32.1300   1
  -2   8  -2 457.720 33.3900   1
   2  -8   2 459.750 33.0000   1
   2   8   2 414.530 31.6300   1
   2   8   2 423.510 29.9500   1
   4   0   8 2.11000 2.19000   1
  -4   0  -8 3.29000 3.02000   1
   4   0   8 2.30000 3.06000   1
  -7   1  -5 12.2200 2.99000   1
  -7  -1  -5 19.5400 4.36000   1
  -7   1  -5 12.9500 3.56000   1
  -7  -1  -5 17.0000 4.13000   1
   9   0   1 2.47000 2.11000   1
  -9   0  -1 -1.4000 3.26000   1
   8   2   3 27.1200 4.15000   1
  -8  -2  -3 36.2300 4.79000   1
  -8   2  -3 25.5800 5.36000   1
   1   6  -7 103.230 10.2100   1
   1  -6  -7 104.420 7.53000   1
  -1  -6   7 97.1100 6.43000   1
  -1  -6   7 112.200 9.58000   1
  -1   6   7 96.0400 8.16000   1
   1   6  -7 95.7700 8.99000   1
  -6  -5   6 215.220 15.5000   1
  -6  -5   6 204.250 13.1200   1
  -6   5   6 213.820 13.4000   1
   6   5  -6 245.270 17.6900   1
   6   5  -6 236.440 16.2100   1
  -6  -5   6 221.780 16.3400   1
  -1   5   8 53.2700 5.86000   1
  -1  -5   8 93.3600 6.45000   1
   1   5  -8 56.5900 7.29000   1
  -1  -5   8 102.420 7.24000   1
   1  -5  -8 96.0500 7.06000   1
   1   5  -8 64.8400 6.56000   1
   3  -7   4 43.4100 5.83000   1
  -3   7  -4 64.8900 5.58000   1
  -3  -7  -4 44.7100 4.80000   1
   3   7   4 56.1500 6.40000   1
   3   7   4 51.5900 6.60000   1
  -5  -7  -1 55.1300 5.72000   1
   5   7   1 68.1500 6.97000   1
   5   7   1 64.7200 6.10000   1
   5  -7   1 55.8700 5.30000   1
  -5  -7  -1 53.8800 5.29000   1
  -7  -4   6 3.38000 3.01000   1
   7   4  -6 11.4500 3.25000   1
   7   4  -6 4.09000 3.47000   1
  -7   4   6 3.06000 2.69000   1
  -7  -4   6 7.94000 2.56000   1
  -7  -4   6 7.62000 2.96000   1
  -9   2   0 184.390 13.8100   1
  -9  -2   0 171.790 14.0800   1
   9   2   0 188.140 11.9500   1
   2   5  -8 175.000 15.6900   1
  -2   5   8 215.320 14.3100   1
  -2  -5   8 190.740 13.3800   1
   2  -5  -8 201.800 12.4800   1
  -2  -5   8 206.050 15.7800   1
  -2  -5   8 188.930 12.3000   1
   2   5  -8 166.350 12.7800   1
   2  -8  -3 84.6000 5.68000   1
   2   8  -3 71.6300 8.71000   1
   2   8  -3 94.6400 8.38000   1
  -2   8   3 89.2800 8.43000   1
  -2  -8   3 82.4400 7.18000   1
  -2  -8   3 86.2000 7.98000   1
   3  -3   8 94.6600 7.70000   1
   3  -3   8 87.6700 8.26000   1
  -3   3  -8 102.980 8.22000   1
   3   3   8 94.0600 8.87000   1
  -3  -3  -8 87.2900 8.89000   1
  -6   2  -6 53.4400 5.64000   1
  -6  -2  -6 61.5500 7.07000   1
  -6  -2  -6 54.6100 5.27000   1
   6  -2   6 60.9200 6.64000   1
   5  -7  -3 198.650 11.4300   1
   5   7  -3 214.010 16.3500   1
  -5   7   3 215.800 14.1700   1
   5   7  -3 210.470 15.9000   1
  -5  -7   3 198.040 16.6400   1
  -5  -7   3 190.890 13.4200   1
   5   5   5 49.8900 6.86000   1
   5   5   5 46.8500 4.19000   1
   5  -5   5 57.7900 6.70000   1
  -5  -5  -5 47.8700 3.73000   1
  -5   5  -5 37.4400 4.31000   1
   1  -8   3 33.4800 4.47000   1
   1   8   3 13.3200 3.86000   1
   1   8   3 21.4800 3.35000   1
  -1   8  -3 16.0500 2.80000   1
  -1   8  -3 16.5500 3.80000   1
  -1  -8  -3 25.1300 3.80000   1
  -2  -6   7 177.350 12.0900   1
   2  -6  -7 148.280 9.32000   1
  -2  -6   7 152.190 9.17000   1
   2   6  -7 181.950 13.6900   1
  -2  -6   7 155.510 11.5200   1
  -2   6   7 152.370 11.4500   1
   2   6  -7 168.800 11.9000   1
   4   1   8 84.9100 8.65000   1
   4  -1   8 86.0100 8.32000   1
  -4   1  -8 83.4900 8.83000   1
  -4  -1  -8 92.6900 8.73000   1
   4  -1   8 101.680 8.48000   1
   8   4  -4 17.0500 4.16000   1
  -8  -4   4 23.5000 4.54000   1
   8   4  -4 16.2800 3.34000   1
  -8  -4   4 23.0400 3.56000   1
  -8  -4   4 22.3300 3.40000   1
  -8   4   4 16.7100 3.19000   1
  -8   4   4 13.7500 2.58000   1
  -5  -2  -7 92.4700 9.41000   1
   5  -2   7 102.820 9.74000   1
  -5   2  -7 107.200 9.21000   1
  -9   1  -1 71.7700 8.03000   1
  -9  -1  -1 63.4200 7.61000   1
   9   1   1 61.8500 5.11000   1
  -3  -8   2 84.4100 8.07000   1
   3   8  -2 94.7900 8.78000   1
   3  -8  -2 88.4800 6.36000   1
   3   8  -2 83.9300 8.73000   1
  -3   8   2 93.8700 7.29000   1
  -3  -8   2 75.1700 6.08000   1
   2  -4   8 7.28000 3.58000   1
  -2   4  -8 8.71000 3.83000   1
  -2  -4  -8 8.82000 3.65000   1
   2   4   8 10.5300 3.77000   1
   2  -4   8 9.82000 3.03000   1
  -4  -7  -3 31.7100 4.43000   1
   4  -7   3 38.5400 5.14000   1
   4   7   3 52.3500 6.33000   1
   4   7   3 41.0500 5.02000   1
   6   6   2 24.0600 3.81000   1
  -6  -6  -2 20.3400 4.40000   1
   6  -6   2 17.9000 4.56000   1
  -6  -6  -2 20.5100 3.29000   1
   6   6   2 22.6800 5.16000   1
  -4  -5  -6 109.500 9.41000   1
   4  -5   6 110.770 10.0400   1
   4  -5   6 103.090 7.05000   1
  -4   5  -6 101.570 7.77000   1
   4   5   6 100.980 7.26000   1
   4   5   6 94.7900 7.47000   1
  -5   5   7 9.11000 2.35000   1
  -5  -5   7 11.0500 2.77000   1
  -5  -5   7 8.12000 2.39000   1
   5   5  -7 11.0900 3.44000   1
  -5  -5   7 13.2300 3.29000   1
   5   5  -7 9.77000 4.25000   1
  -8  -4  -1 12.2300 4.42000   1
   8   4   1 19.9900 2.31000   1
   8   4   1 21.6000 3.74000   1
  -8   4  -1 16.0400 4.02000   1
   8  -4   1 18.5600 3.75000   1
   3   8   1 35.8700 5.72000   1
   3  -8   1 33.9100 4.76000   1
  -3  -8  -1 29.7600 5.38000   1
  -3  -8  -1 30.6900 2.93000   1
   3   8   1 38.4100 4.83000   1
  -7  -3   7 -0.2300 2.14000   1
  -7   3   7 0.54000 2.44000   1
  -7  -3   7 1.05000 1.61000   1
  -7  -3   7 0.82000 2.36000   1
   7   3  -7 0.41000 2.02000   1
   7   3  -7 0.90000 2.82000   1
   0  -6  -7 123.990 8.69000   1
   0   6   7 145.770 11.7100   1
   0  -6   7 149.000 11.7600   1
   0   6  -7 138.330 10.2500   1
   0  -6   7 123.380 7.92000   1
   0   6  -7 160.640 11.7900   1
   5  -4   6 1.74000 2.79000   1
   5   4   6 0.58000 1.36000   1
  -5  -4  -6 0.07000 2.82000   1
  -5  -4  -6 -0.7300 1.58000   1
  -5   4  -6 0.14000 1.79000   1
   5   2  -9 231.080 16.7100   1
  -5  -2   9 248.840 16.4900   1
  -5   2   9 227.710 17.3100   1
  -5  -2   9 253.560 17.8100   1
   5  -2  -9 249.190 15.2300   1
   7   5   2 4.97000 3.07000   1
  -7  -5  -2 3.39000 2.86000   1
   7  -5   2 1.31000 2.98000   1
  -7  -5  -2 -0.9600 2.24000   1
   7   5   2 4.31000 2.42000   1
  -7   0   8 27.7400 4.92000   1
   7   0  -8 27.8900 3.17000   1
  -7   0   8 25.8500 3.75000   1
   4   3  -9 104.030 8.76000   1
   4   3  -9 98.8500 10.9900   1
  -4   3   9 107.280 7.98000   1
  -4  -3   9 87.4200 8.56000   1
  -4  -3   9 94.1500 8.50000   1
   4  -3  -9 85.2500 6.46000   1
   2   0 -10 138.220 10.8800   1
  -2   0  10 133.760 11.4300   1
  -2   0  10 113.310 8.03000   1
   0   5  -8 282.250 20.2600   1
   0   5  -8 303.480 22.6000   1
   0  -5  -8 273.920 19.1100   1
   0   5   8 340.480 22.8600   1
   0   5   8 304.570 22.0400   1
   0  -5   8 305.420 20.1300   1
   9   2  -4 64.8400 5.48000   1
   9   2  -4 53.6600 4.97000   1
  -9  -2   4 45.0600 6.12000   1
  -9  -2   4 42.1400 6.54000   1
  -9   2   4 63.4200 6.07000   1
  -9   2   4 54.8400 5.65000   1
   6   3  -8 236.730 16.5600   1
   6   3  -8 241.170 18.5300   1
  -6  -3   8 226.980 15.8800   1
  -6   3   8 227.490 15.2200   1
  -6  -3   8 213.740 15.4500   1
  -5  -4   8 33.4400 5.24000   1
  -5  -4   8 29.2500 4.46000   1
  -5  -4   8 26.9300 3.38000   1
   5   4  -8 36.4200 5.95000   1
  -5   4   8 35.7600 4.57000   1
   5   4  -8 27.4300 4.21000   1
   1   0 -10 38.0100 5.45000   1
  -1   0  10 34.7100 5.96000   1
  -9   0   5 195.750 14.9000   1
  -9   0   5 177.710 13.9900   1
  -1   3  -9 16.8800 4.00000   1
   1  -3   9 19.4500 3.89000   1
   1   3   9 18.2500 4.72000   1
   1  -3   9 17.7000 3.47000   1
  -1  -3  -9 22.4500 4.30000   1
  -1   3  -9 19.1700 3.72000   1
  -3   5   8 167.370 10.9200   1
  -3  -5   8 146.780 10.1500   1
  -3  -5   8 152.170 10.4300   1
  -3  -5   8 158.200 11.7800   1
   3   5  -8 150.510 12.4400   1
   3   5  -8 164.340 12.3000   1
   3  -5  -8 144.620 9.15000   1
  -6  -4  -5 121.550 9.88000   1
   6  -4   5 140.520 12.5500   1
   6   4   5 163.070 12.5500   1
   2   7   5 24.1800 4.14000   1
  -2   7  -5 27.9000 3.73000   1
   2   7   5 21.2300 4.92000   1
   2  -7   5 34.3400 4.30000   1
  -2   7  -5 22.2500 3.28000   1
  -2  -7  -5 27.9900 3.37000   1
  -2   2  -9 64.4400 7.37000   1
   2  -2   9 56.9000 5.64000   1
  -2  -2  -9 59.9700 6.88000   1
   2   2   9 70.6700 7.59000   1
   2  -2   9 69.4500 7.37000   1
   4   6   5 65.1100 6.12000   1
   4  -6   5 75.0100 5.68000   1
  -4   6  -5 65.0000 4.73000   1
   4   6   5 67.6200 6.68000   1
   4   6   5 75.5000 7.50000   1
   4  -6   5 87.1900 7.94000   1
  -4  -6  -5 78.1100 6.95000   1
  -7   1   8 242.020 15.6800   1
  -7  -1   8 244.390 16.8900   1
  -7  -1   8 229.900 16.7200   1
   7  -1  -8 227.470 13.4000   1
   7   1  -8 267.050 16.4900   1
   6  -5   4 56.5500 6.09000   1
  -6  -5  -4 55.4100 5.03000   1
   6   5   4 56.7400 6.56000   1
   6   5   4 50.3200 4.35000   1
  -2  -1  10 52.7300 6.30000   1
  -2   1  10 50.6600 6.20000   1
   2   1 -10 51.2300 5.46000   1
   2  -1 -10 49.7900 5.50000   1
  -2  -1  10 47.8800 4.70000   1
   3   6  -7 176.450 15.4600   1
  -3   6   7 194.340 14.8700   1
  -3  -6   7 189.100 13.3800   1
  -3  -6   7 174.690 12.4400   1
   3   6  -7 191.480 14.2200   1
  -3  -6   7 160.890 9.95000   1
  -7   2  -5 145.030 9.80000   1
  -7  -2  -5 123.530 10.9200   1
  -7  -2  -5 129.830 11.2100   1
   7  -2   5 134.730 12.1500   1
  -8   0   7 291.650 20.8800   1
  -8   0   7 297.780 20.1700   1
   8   0  -7 289.600 17.4400   1
   3   0 -10 88.0300 7.26000   1
  -3   0  10 90.3100 9.02000   1
  -3   0  10 78.7800 5.97000   1
  -7  -5   5 37.0000 4.14000   1
  -7   5   5 48.2100 4.14000   1
  -7  -5   5 34.6000 4.87000   1
  -7  -5   5 34.2000 5.47000   1
   7   5  -5 55.2300 5.79000   1
   7   5  -5 53.0300 5.37000   1
  -1   1  10 83.6700 7.94000   1
   1  -1 -10 79.4900 8.18000   1
  -1  -1  10 81.9100 8.23000   1
   1   1 -10 86.8400 8.24000   1
  -9  -3   2 38.9600 5.60000   1
  -9   3   2 39.5100 5.25000   1
   9   3  -2 32.9500 3.48000   1
   9   3  -2 34.9800 3.98000   1
   9  -3  -2 43.8600 3.89000   1
   4  -4   7 64.1900 6.15000   1
   4   4   7 79.9400 5.65000   1
   4   4   7 83.1200 7.56000   1
  -4  -4  -7 67.8700 8.02000   1
   4  -4   7 78.8900 8.12000   1
  -4   4  -7 104.280 8.13000   1
  -9  -1   5 19.7100 4.01000   1
  -9  -1   5 13.2200 4.23000   1
   9   1  -5 16.3600 2.44000   1
   9   1  -5 13.7800 3.59000   1
  -9   1   5 24.0300 3.95000   1
  -9   1   5 13.0400 3.36000   1
   5   6   4 90.2200 7.98000   1
   5   6   4 79.6400 6.29000   1
   5  -6   4 75.7000 8.05000   1
  -5  -6  -4 61.2000 4.97000   1
  -5  -6  -4 78.8400 6.97000   1
  -1  -7   6 105.170 8.62000   1
  -1   7   6 109.530 8.68000   1
  -1  -7   6 101.440 9.22000   1
   1   7  -6 109.370 9.15000   1
   1   7  -6 111.800 10.3600   1
   1  -7  -6 88.1300 6.40000   1
  -9   3   1 68.3600 6.55000   1
   9   3  -1 74.8300 6.65000   1
   9  -3  -1 54.4200 5.30000   1
  -9  -3   1 54.7900 6.70000   1
   4   7  -5 247.180 18.4700   1
  -4  -7   5 246.680 17.9900   1
  -4  -7   5 243.010 18.2300   1
   4   7  -5 230.410 18.5500   1
  -4   7   5 265.370 19.4100   1
  -5  -6   6 17.1100 2.50000   1
  -5  -6   6 18.1200 4.15000   1
   5   6  -6 19.5900 3.63000   1
   5   6  -6 17.1800 3.99000   1
  -5  -6   6 12.7100 3.49000   1
  -8   0  -4 9.67000 3.31000   1
  -8   0  -4 5.84000 3.01000   1
   4  -2   8 16.2800 4.30000   1
   4   2   8 20.6800 4.05000   1
   4  -2   8 16.3400 3.80000   1
  -4  -2  -8 19.3300 4.43000   1
  -4   2  -8 19.1600 4.69000   1
  -3  -8   3 39.6400 5.14000   1
  -3  -8   3 40.4000 5.32000   1
   3  -8  -3 44.4600 3.74000   1
   3   8  -3 43.0800 6.30000   1
   3   8  -3 46.2400 6.24000   1
  -3   8   3 43.7500 5.44000   1
  -2  -4   9 78.9600 6.37000   1
  -2   4   9 108.930 7.90000   1
   2  -4  -9 79.8000 7.32000   1
   2   4  -9 96.6900 8.65000   1
  -2  -4   9 69.2400 7.74000   1
   2   4  -9 104.430 9.52000   1
  -2  -4   9 78.8700 7.19000   1
   9   2   1 7.49000 2.93000   1
  -9  -2  -1 9.35000 3.77000   1
  -9   2  -1 7.59000 3.58000   1
  -1   8   4 24.9600 4.70000   1
   1   8  -4 25.3700 4.33000   1
   1   8  -4 14.8200 3.51000   1
   1  -8  -4 18.9800 2.64000   1
  -1  -8   4 22.2600 3.54000   1
  -1  -8   4 19.9800 4.45000   1
  -8  -1   7 9.66000 3.19000   1
  -8  -1   7 10.0400 3.53000   1
  -8   1   7 13.1000 2.84000   1
  -8   1   7 16.2400 3.89000   1
   8   1  -7 11.3800 2.42000   1
   1   4  -9 109.450 10.1500   1
   1   4  -9 128.290 10.4800   1
   1  -4  -9 103.850 8.32000   1
  -1  -4   9 112.290 8.88000   1
  -1  -4   9 110.670 8.34000   1
  -1   4   9 145.600 10.2000   1
   3   1 -10 108.180 8.42000   1
   3  -1 -10 106.310 8.58000   1
  -3  -1  10 110.560 9.74000   1
  -3   1  10 104.680 10.4300   1
  -3  -1  10 109.410 8.33000   1
  -2  -8  -3 7.57000 2.79000   1
   2  -8   3 9.56000 3.51000   1
   2   8   3 11.7500 3.12000   1
   2   8   3 12.1900 4.07000   1
  -2   8  -3 15.1900 3.82000   1
   7   6  -1 8.76000 3.13000   1
   7   6  -1 6.63000 2.81000   1
   7  -6  -1 4.73000 2.11000   1
  -7  -6   1 7.16000 3.19000   1
  -7  -6   1 6.34000 3.53000   1
  -5  -7  -2 7.52000 3.39000   1
   5   7   2 8.38000 3.53000   1
  -5  -7  -2 7.95000 2.18000   1
   5   7   2 9.99000 4.06000   1
   5  -7   2 11.4000 3.37000   1
   3  -5   7 8.47000 2.71000   1
  -3  -5  -7 7.98000 3.74000   1
   3   5   7 11.0900 3.05000   1
   3   5   7 13.0400 2.75000   1
  -3   5  -7 14.6600 3.11000   1
   3  -5   7 10.2800 3.37000   1
   0   8   4 27.4900 3.65000   1
   0   8   4 34.8500 5.43000   1
   0  -8   4 36.8800 4.42000   1
   0  -8   4 31.8700 4.33000   1
   0  -8  -4 30.5200 3.35000   1
   0   8  -4 38.1500 4.89000   1
   0   8  -4 29.5500 3.92000   1
  -6   0   9 95.5800 6.95000   1
   6   0  -9 99.4200 7.07000   1
  -6   0   9 91.8700 7.85000   1
   0   0 -10 26.5400 4.27000   1
   0   0  10 31.9500 5.58000   1
   1   6   7 157.170 12.4800   1
   1  -6   7 151.080 9.45000   1
   1  -6   7 162.340 12.8700   1
  -1   6  -7 161.930 12.0300   1
  -1  -6  -7 146.130 11.4500   1
  -1   6  -7 156.140 11.1700   1
   2   7  -6 77.3700 8.89000   1
  -2  -7   6 89.9700 8.45000   1
  -2  -7   6 85.1000 7.38000   1
  -2   7   6 88.3900 8.84000   1
   2   7  -6 84.7500 8.28000   1
   9  -3  -3 92.3400 6.19000   1
   9   3  -3 98.7000 7.14000   1
   9   3  -3 96.7600 7.33000   1
  -9   3   3 94.9000 7.89000   1
  -9   3   3 90.2600 7.73000   1
  -9  -3   3 114.210 8.91000   1
  -9  -3   3 128.130 8.70000   1
   7   6  -2 87.9500 7.94000   1
   7  -6  -2 86.1300 5.83000   1
  -7  -6   2 95.0600 8.15000   1
   7   6  -2 89.8100 8.20000   1
  -7  -6   2 90.2700 7.78000   1
  -8   3   6 362.660 25.1100   1
   8   3  -6 348.310 25.0500   1
   8   3  -6 335.390 22.3600   1
  -8  -3   6 334.870 22.9500   1
  -8  -3   6 351.730 25.9600   1
  -8  -3   6 314.540 21.7500   1
   3   6   6 14.7300 3.46000   1
   3   6   6 21.7900 2.93000   1
   3   6   6 13.7800 3.42000   1
  -3   6  -6 15.3300 2.96000   1
   3  -6   6 18.6500 2.54000   1
   3  -6   6 20.9000 4.30000   1
  -5   7   4 59.0100 6.41000   1
  -5  -7   4 49.6900 6.82000   1
   5   7  -4 55.5700 6.61000   1
  -5  -7   4 50.5200 5.36000   1
   5   7  -4 57.6100 6.04000   1
  -3   8  -2 86.4700 6.76000   1
   3   8   2 88.4400 8.31000   1
   3   8   2 88.0000 7.44000   1
   3  -8   2 57.1200 7.05000   1
   0   7  -6 258.650 18.5500   1
   0   7   6 248.590 19.0000   1
   0  -7   6 271.740 20.2400   1
   0   7  -6 249.180 18.1900   1
   0  -7  -6 257.650 17.2600   1
  -6  -6   5 120.260 9.47000   1
  -6  -6   5 100.000 7.09000   1
   6   6  -5 130.570 9.24000   1
   6   6  -5 125.070 10.6000   1
  -6  -6   5 99.9100 9.00000   1
  -8   1  -4 18.2400 3.33000   1
  -8   1  -4 37.4200 5.09000   1
  -8  -1  -4 31.5600 4.06000   1
  -8  -1  -4 33.0300 4.50000   1
  -9   0  -2 71.8900 5.44000   1
  -9   0  -2 88.2200 8.35000   1
   1   5   8 94.0100 7.60000   1
   1   5   8 90.4600 8.20000   1
   1  -5   8 72.7900 6.23000   1
   1  -5   8 66.8900 7.45000   1
  -1   5  -8 85.0600 7.47000   1
  -1   5  -8 90.1500 7.89000   1
  -1  -5  -8 64.0700 7.36000   1
  -8   3  -3 66.8500 8.54000   1
  -8  -3  -3 82.6500 8.30000   1
   8  -3   3 92.5800 8.59000   1
   8   3   3 71.1100 6.79000   1
  -4   8   1 37.0700 4.30000   1
  -4  -8   1 40.5800 4.34000   1
   4   8  -1 37.1600 5.18000   1
  -4  -8   1 31.3700 4.78000   1
   4   8  -1 33.9500 5.50000   1
   4  -8  -1 36.9300 4.14000   1
   6   1  -9 73.9400 6.19000   1
   6  -1  -9 79.0100 5.79000   1
  -6  -1   9 85.0600 7.79000   1
  -6  -1   9 87.1400 7.07000   1
  -6   1   9 82.2000 8.25000   1
  -2   8   4 22.4200 5.15000   1
   2   8  -4 24.6500 4.06000   1
   2   8  -4 20.4000 4.38000   1
  -2  -8   4 26.3800 4.13000   1
  -2  -8   4 29.5300 3.94000   1
   0  -1 -10 117.530 10.2200   1
   0   1  10 123.470 10.8700   1
   0   1 -10 97.1000 9.44000   1
   0  -1  10 125.510 10.3400   1
  -8  -4   5 171.640 12.2800   1
  -8   4   5 156.890 10.8600   1
  -8  -4   5 170.250 11.9400   1
  -8  -4   5 157.340 12.0700   1
   8   4  -5 149.960 11.0500   1
   8   4  -5 167.810 11.9500   1
   3   0   9 130.300 10.4900   1
  -3   0  -9 141.070 11.8000   1
   3   0   9 136.910 9.94000   1
   8   5  -2 22.6800 4.69000   1
   8   5  -2 14.5600 3.46000   1
   8  -5  -2 36.5300 3.16000   1
  -8  -5   2 39.2100 4.32000   1
  -8  -5   2 35.9100 4.29000   1
  -8   5   2 17.7300 3.29000   1
  -3   4   9 138.200 9.94000   1
  -3  -4   9 141.510 10.8300   1
  -3  -4   9 137.690 11.6000   1
  -3  -4   9 118.300 8.02000   1
   3  -4  -9 137.030 9.11000   1
   3   4  -9 108.860 9.11000   1
   3   4  -9 133.110 12.9200   1
   7   6   0 120.300 9.73000   1
   7   6   0 137.740 10.1900   1
   7  -6   0 138.000 10.0200   1
  -7  -6   0 129.310 9.54000   1
  -7  -6   0 116.980 9.71000   1
  -9   3   0 2.05000 2.87000   1
  -9  -3   0 3.71000 2.59000   1
   9  -3   0 2.80000 2.82000   1
   9   3   0 1.65000 2.66000   1
   8   5  -1 175.780 11.4100   1
   8   5  -1 160.180 10.8600   1
  -8  -5   1 127.650 11.6600   1
  -8  -5   1 130.540 11.2000   1
   8  -5  -1 143.640 9.65000   1
  -6   3  -6 134.750 10.2000   1
  -6  -3  -6 142.600 10.1800   1
  -6  -3  -6 151.220 11.9100   1
   6  -3   6 166.890 12.8900   1
  -4  -8   0 86.9800 6.44000   1
   4  -8   0 105.120 8.05000   1
   4   8   0 106.040 9.77000   1
   4   8   0 107.770 9.22000   1
  -4   8   0 100.310 7.47000   1
  -4  -8   0 83.4100 7.98000   1
  -7  -2   8 38.6700 4.51000   1
  -7   2   8 37.6400 4.89000   1
  -7  -2   8 38.2100 5.40000   1
   7   2  -8 31.8500 4.02000   1
  -2   2  10 94.5900 9.13000   1
  -2  -2  10 121.160 9.61000   1
  -2  -2  10 116.650 9.35000   1
   2   2 -10 93.4700 7.83000   1
   2  -2 -10 114.660 9.64000   1
   0  -4   9 142.600 10.7900   1
   0   4   9 109.760 10.7000   1
   0  -4   9 137.990 9.54000   1
   0  -4  -9 126.770 9.33000   1
   0   4  -9 91.7500 9.65000   1
   0   4  -9 95.2700 10.4000   1
   9   1   2 54.5200 4.96000   1
  -9  -1  -2 46.4300 6.39000   1
  -9   1  -2 46.9200 7.07000   1
  -5   3  -7 7.77000 3.27000   1
  -5  -3  -7 2.97000 3.47000   1
   5  -3   7 5.46000 3.27000   1
   5  -3   7 2.65000 3.11000   1
  -5  -3  -7 7.94000 2.47000   1
   8  -4   2 102.560 9.59000   1
  -8  -4  -2 86.5200 8.84000   1
   8   4   2 104.720 9.25000   1
   4   5  -8 92.9800 9.37000   1
   4   5  -8 97.7400 9.09000   1
  -4   5   8 109.940 8.20000   1
  -4  -5   8 111.190 7.46000   1
  -4  -5   8 104.610 7.75000   1
  -4  -5   8 108.960 9.06000   1
  -7  -4  -4 93.4200 7.97000   1
   7  -4   4 97.9000 9.57000   1
   7   4   4 66.9800 7.93000   1
  -4   0  10 160.510 10.2600   1
  -4   0  10 153.160 11.9700   1
   4   0 -10 162.610 11.4300   1
   7   6  -3 56.5400 5.44000   1
   7   6  -3 42.0600 5.24000   1
  -7  -6   3 54.2900 6.54000   1
  -7  -6   3 61.4900 5.67000   1
  -7  -6   3 48.6500 4.41000   1
   1  -2 -10 21.5100 4.76000   1
  -1   2  10 21.5300 5.38000   1
   1   2 -10 22.8200 4.60000   1
  -1  -2  10 25.6600 4.90000   1
   9   2  -5 255.570 17.2900   1
  -9   2   5 263.490 18.4500   1
  -9   2   5 256.820 17.9400   1
  -9  -2   5 232.510 17.2700   1
  -9  -2   5 233.640 16.5900   1
   9   2  -5 256.150 16.7200   1
   4   8  -2 140.570 11.9200   1
   4  -8  -2 143.720 8.82000   1
   4   8  -2 122.210 10.1200   1
  -4  -8   2 123.150 8.83000   1
  -4  -8   2 133.980 10.3600   1
  -4   8   2 132.870 9.73000   1
   1   8   4 24.5400 4.71000   1
   1   8   4 21.9800 3.67000   1
   1  -8   4 23.5100 4.56000   1
  -1  -8  -4 19.7800 3.13000   1
  -1   8  -4 32.9500 4.74000   1
  -1   8  -4 24.4800 3.21000   1
  -3   1  -9 7.19000 3.88000   1
  -3  -1  -9 6.90000 3.55000   1
   3  -1   9 4.19000 3.53000   1
   3   1   9 6.41000 3.20000   1
   3   1   9 6.58000 2.18000   1
   3  -1   9 6.77000 3.08000   1
  -6  -7   1 117.560 10.1500   1
  -6  -7   1 135.300 10.3300   1
   6  -7  -1 138.310 9.08000   1
   6   7  -1 127.490 11.4900   1
   6   7  -1 127.320 9.95000   1
   5   3  -9 105.230 8.90000   1
  -5  -3   9 103.910 8.13000   1
  -5   3   9 99.2300 8.11000   1
   5   3  -9 112.640 11.1500   1
   5  -3  -9 96.0200 6.37000   1
  -5  -3   9 101.620 8.21000   1
   6   6   3 64.6400 6.85000   1
   6   6   3 65.9200 6.28000   1
   6  -6   3 65.6200 7.35000   1
  -6  -6  -3 58.7300 7.01000   1
  -6  -6  -3 55.3500 5.16000   1
   4   6  -7 121.850 9.94000   1
  -4  -6   7 169.720 12.4100   1
  -4  -6   7 148.860 9.03000   1
  -4  -6   7 162.120 11.1900   1
   4   6  -7 123.840 11.3700   1
   3   7  -6 96.7000 9.03000   1
  -3  -7   6 83.1200 8.53000   1
  -3  -7   6 87.9900 7.85000   1
  -3   7   6 100.370 9.43000   1
   3   7  -6 97.4400 9.16000   1
  -8  -5   3 137.900 11.0400   1
  -8   5   3 118.960 8.42000   1
   8   5  -3 153.080 11.2000   1
  -8  -5   3 135.290 9.41000   1
   8   5  -3 154.990 11.3100   1
  -8  -5   3 132.270 11.4200   1
   8   2  -7 260.380 19.3200   1
  -8  -2   7 262.330 18.0900   1
   8   2  -7 245.200 15.8800   1
  -8   2   7 255.450 18.9800   1
  -8  -2   7 278.010 19.4200   1
   6   7  -2 16.3300 4.75000   1
   6  -7  -2 21.6900 3.36000   1
  -6  -7   2 21.9900 4.24000   1
  -6  -7   2 18.0000 4.82000   1
  -6   7   2 16.3100 2.81000   1
   6   7  -2 20.7300 4.55000   1
   4  -1 -10 169.310 11.6600   1
   4   1 -10 177.840 12.2900   1
  -4  -1  10 170.660 12.2000   1
  -4  -1  10 160.480 11.5700   1
  -4   1  10 165.150 13.6400   1
  -9   3   4 144.930 10.8900   1
  -9  -3   4 167.780 12.4600   1
  -9  -3   4 139.450 12.2900   1
   9   3  -4 155.460 10.6900   1
   9   3  -4 156.620 11.1200   1
  -9  -3   4 152.190 11.7300   1
  -9   3   4 148.170 10.5000   1
  -3  -2  10 83.7600 7.47000   1
  -3   2  10 105.320 9.81000   1
   3   2 -10 100.440 8.76000   1
   3  -2 -10 90.2000 8.18000   1
  -3  -2  10 82.3400 8.88000   1
  -8  -5   0 17.9000 3.17000   1
   8  -5   0 10.3300 2.79000   1
   8   5   0 8.93000 3.40000   1
   8   5   0 6.41000 2.48000   1
  -8  -5   0 10.1500 3.45000   1
  -1   7  -6 56.6800 6.05000   1
  -1   7  -6 60.3400 5.77000   1
  -1  -7  -6 47.1900 4.88000   1
   1   7   6 54.5200 6.65000   1
   1  -7   6 57.1300 6.75000   1
  -6  -7   0 7.83000 3.20000   1
  -6  -7   0 3.09000 2.74000   1
   6   7   0 8.69000 2.64000   1
   6   7   0 2.40000 3.50000   1
   6  -7   0 1.20000 2.57000   1
   4   7   4 59.3100 6.93000   1
   4   7   4 47.6100 5.79000   1
  -4  -7  -4 41.3100 4.91000   1
   4  -7   4 43.6900 5.80000   1
  -4   8  -1 9.18000 2.62000   1
  -4  -8  -1 11.4700 3.27000   1
  -4  -8  -1 8.13000 2.19000   1
   4  -8   1 15.9200 3.00000   1
   4   8   1 12.1800 3.70000   1
   4   8   1 11.7900 3.47000   1
   7  -5   3 48.9800 6.49000   1
  -7  -5  -3 40.8300 5.00000   1
   7   5   3 54.2700 6.51000   1
   7   5   3 46.1700 4.78000   1
  -2   3  -9 49.6300 6.49000   1
  -2  -3  -9 38.7800 5.68000   1
   2   3   9 49.1000 6.50000   1
   2  -3   9 34.7600 4.83000   1
   2  -3   9 41.1400 5.38000   1
   3   4   8 9.79000 3.75000   1
   3  -4   8 6.60000 3.22000   1
  -3  -4  -8 8.75000 3.80000   1
   3  -4   8 12.1400 2.97000   1
  -3   4  -8 5.82000 3.21000   1
  -8  -2  -4 1.53000 2.83000   1
  -8   2  -4 11.9500 3.65000   1
   7  -3   5 1.81000 2.52000   1
  -7  -3  -5 0.65000 1.91000   1
  -7  -3  -5 -3.1300 2.54000   1
  -9   0   6 75.6300 7.09000   1
  -9   0   6 70.3000 6.46000   1
  -1   0 -10 187.320 15.1400   1
   1   0  10 203.570 15.1400   1
  -3  -7  -5 17.8200 3.24000   1
   3   7   5 16.3300 4.25000   1
   3  -7   5 16.9900 4.38000   1
   3   7   5 19.4700 4.77000   1
  -6   0  -7 70.7800 7.10000   1
  -6  -2   9 180.190 13.6600   1
  -6  -2   9 188.690 13.9700   1
  -6   2   9 202.600 13.8400   1
   6   2  -9 207.020 13.4100   1
   6  -2  -9 168.380 10.6100   1
  -7  -6  -1 2.96000 2.66000   1
   7   6   1 4.21000 2.28000   1
   7   6   1 1.85000 2.59000   1
   7  -6   1 5.12000 2.55000   1
  -7  -6  -1 1.94000 3.01000   1
   0  -2 -10 119.480 10.4400   1
   0   2 -10 129.530 11.0200   1
   0   2  10 134.380 12.1100   1
   0  -2  10 113.200 9.84000   1
  -3  -8   4 64.4100 6.24000   1
  -3  -8   4 65.8500 6.74000   1
   3   8  -4 68.5900 8.08000   1
  -3   8   4 81.9900 7.26000   1
   3   8  -4 85.7500 8.37000   1
  -7  -4   7 240.950 16.6500   1
  -7  -4   7 240.940 17.1100   1
   7   4  -7 235.830 17.2700   1
   7   4  -7 248.410 16.6200   1
  -7  -4   7 229.340 15.4700   1
  -7   4   7 250.380 16.2600   1
   6   5  -7 8.48000 2.93000   1
   6   5  -7 6.77000 2.62000   1
  -6  -5   7 1.11000 2.15000   1
  -6  -5   7 5.68000 3.21000   1
  -6  -5   7 2.59000 3.33000   1
  -6   5   7 1.89000 1.96000   1
  -4  -4   9 108.090 9.94000   1
  -4  -4   9 96.5100 8.56000   1
   4  -4  -9 92.8900 6.58000   1
   4   4  -9 107.560 10.1600   1
   4   4  -9 115.210 9.31000   1
  -4   4   9 124.120 9.80000   1
  -4  -4   9 98.7500 7.90000   1
   4  -3   8 27.4000 4.11000   1
   4  -3   8 29.4800 4.25000   1
  -4  -3  -8 29.6700 5.34000   1
   4   3   8 29.8600 5.08000   1
  -4   3  -8 18.4100 4.41000   1
   9   2   2 103.210 7.94000   1
  -9  -2  -2 94.1100 9.78000   1
  -9   2  -2 101.800 9.51000   1
  -4   8   3 96.2900 8.36000   1
   4   8  -3 80.5900 8.59000   1
   4   8  -3 104.790 8.60000   1
  -4  -8   3 79.3300 8.35000   1
  -4  -8   3 78.9800 7.49000   1
  -9   3  -1 80.3900 8.15000   1
  -9  -3  -1 76.0300 8.60000   1
   9   3   1 81.6900 6.77000   1
   9  -3   1 91.5800 8.68000   1
  -2  -6  -7 59.7000 6.43000   1
   2   6   7 59.1100 5.77000   1
   2  -6   7 55.8000 6.08000   1
  -2   6  -7 64.0900 5.84000   1
   2  -6   7 53.2800 4.52000   1
  -9   1   6 192.750 15.1300   1
   9   1  -6 187.220 11.3700   1
   9   1  -6 188.630 13.8100   1
  -9  -1   6 188.230 13.4000   1
  -9   1   6 195.070 13.4700   1
  -9  -1   6 197.880 15.2600   1
  -6   7   3 13.1800 3.11000   1
  -6  -7   3 27.5500 5.47000   1
   6   7  -3 17.2000 3.84000   1
   6   7  -3 16.8000 3.74000   1
   0   9   0 -2.1100 2.99000   1
   0  -9   0 2.91000 2.33000   1
   0   9   0 -0.1700 1.60000   1
  -6  -4   8 31.1100 5.15000   1
  -6  -4   8 27.9100 4.11000   1
   6   4  -8 29.0300 5.51000   1
  -6   4   8 37.0200 4.26000   1
  -6  -4   8 29.4300 4.51000   1
   6   4  -8 30.3600 4.74000   1
  -1  -1 -10 30.5700 5.31000   1
   1   1  10 43.5800 6.07000   1
   1  -1  10 32.6700 5.49000   1
  -1   1 -10 34.2300 5.52000   1
  -3  -8  -3 54.6400 6.44000   1
  -3   8  -3 66.0400 5.79000   1
   3   8   3 59.5800 7.21000   1
   3   8   3 66.3200 7.20000   1
   3  -8   3 59.8000 6.61000   1
   6  -1   7 5.73000 3.00000   1
  -6  -1  -7 3.21000 2.98000   1
  -6   1  -7 1.62000 3.10000   1
  -7   0  -6 26.7100 4.70000   1
  -7   0  -6 15.2200 3.84000   1
  -1   4  -9 134.830 10.4500   1
   1  -4   9 127.600 9.74000   1
   1  -4   9 117.650 10.0400   1
   1   4   9 154.540 12.1600   1
  -1   4  -9 135.180 10.5400   1
  -1  -4  -9 125.480 10.9800   1
   7   6  -4 89.8500 8.03000   1
   7   6  -4 88.7500 7.69000   1
  -7  -6   4 104.300 9.93000   1
  -7  -6   4 100.840 6.83000   1
  -7  -6   4 87.9100 8.38000   1
   3  -2   9 137.810 10.0700   1
  -3   2  -9 138.830 12.3000   1
  -3  -2  -9 131.780 11.6600   1
   3  -2   9 149.720 11.0900   1
   3   2   9 140.220 12.0200   1
   5  -7   3 83.3100 7.10000   1
  -5  -7  -3 81.4700 6.92000   1
   5   7   3 71.9400 7.36000   1
   5   7   3 74.4200 8.60000   1
  -7  -5   6 195.640 15.1500   1
  -7   5   6 193.920 12.8500   1
  -7  -5   6 180.520 14.3700   1
  -7  -5   6 161.050 11.0800   1
   7   5  -6 200.020 15.3400   1
   7   5  -6 194.860 14.0500   1
 -10   0   2 30.3100 4.98000   1
   5   0   8 0.42000 2.78000   1
   5   0   8 -0.2400 2.81000   1
  -5   0  -8 -2.2400 2.82000   1
   0   9   1 169.750 14.0400   1
   0   9  -1 168.350 14.3600   1
   0  -9  -1 146.820 11.3500   1
   0  -9   1 144.170 9.14000   1
   0   9  -1 147.330 10.1100   1
   0  -9   1 165.190 12.1500   1
   0   9   1 155.900 11.3900   1
  -5  -7   5 11.6900 4.22000   1
  -5   7   5 29.0300 3.94000   1
   5   7  -5 22.6100 4.69000   1
   5   7  -5 22.0100 4.63000   1
  -5  -7   5 16.8000 4.31000   1
  -8   5   4 80.0300 5.99000   1
   8   5  -4 85.2300 6.81000   1
  -8  -5   4 69.1900 6.07000   1
  -8  -5   4 64.6400 6.57000   1
   8   5  -4 95.1400 8.34000   1
  -8  -5   4 79.1300 7.80000   1
   1   9   0 5.98000 3.56000   1
   1  -9   0 5.27000 2.43000   1
   1   9   0 4.87000 2.42000   1
  -1   9   0 5.67000 3.72000   1
  -1  -9   0 0.88000 2.57000   1
  -2  -5  -8 141.610 11.3200   1
   2   5   8 116.720 9.86000   1
   2   5   8 140.490 11.6800   1
   2  -5   8 137.290 9.76000   1
   2  -5   8 125.890 9.94000   1
  -2   5  -8 119.450 10.4300   1
   4   2 -10 193.720 15.3300   1
  -4  -2  10 211.130 15.1100   1
  -4  -2  10 205.590 14.9300   1
  -4   2  10 217.480 16.6600   1
   4  -2 -10 228.850 15.2400   1
  -2  -8  -4 32.1800 3.92000   1
  -2   8  -4 30.0200 4.14000   1
   2  -8   4 26.1100 4.84000   1
   2   8   4 26.8900 5.28000   1
   2   8   4 32.9000 4.44000   1
  -6  -7  -1 86.2300 7.06000   1
   6  -7   1 87.4500 7.21000   1
   6   7   1 103.980 9.62000   1
   6   7   1 104.770 8.99000   1
  -6  -7  -1 93.4100 8.59000   1
  -9   4   2 47.4700 5.70000   1
  -9  -4   2 65.8400 6.36000   1
   9  -4  -2 57.9100 4.68000   1
   9   4  -2 50.0100 5.23000   1
   9   4  -2 52.3700 4.66000   1
  -9  -4   2 66.4600 6.78000   1
   8  -5   1 113.870 8.58000   1
  -8  -5  -1 105.030 9.36000   1
  -8  -5  -1 95.0900 7.69000   1
   8   5   1 97.2300 6.68000   1
   8   5   1 100.390 8.35000   1
  -7  -1  -6 87.1600 8.29000   1
  -7  -1  -6 76.8100 7.11000   1
  -7   1  -6 67.4700 6.47000   1
 -10   0   1 16.9600 4.83000   1
   1   9  -1 128.130 9.29000   1
   1  -9  -1 123.820 8.78000   1
  -1  -9   1 126.640 10.1000   1
  -1   9   1 143.550 12.3800   1
  -1  -9   1 106.540 7.32000   1
   1   9  -1 129.970 11.8500   1
  -1   8   5 114.210 11.3300   1
   1   8  -5 104.790 10.7400   1
  -1  -8   5 135.160 9.47000   1
  -1  -8   5 127.480 9.66000   1
   1   8  -5 112.800 8.98000   1
   5  -5   6 97.0900 7.28000   1
   5   5   6 89.3400 6.61000   1
   5  -5   6 123.640 10.7200   1
 -10   0   3 178.770 14.5400   1
 -10   0   3 179.770 14.7200   1
   9   4  -1 4.39000 2.76000   1
   9  -4  -1 8.88000 2.57000   1
  -9   4   1 2.20000 2.81000   1
  -9  -4   1 4.51000 2.87000   1
   5   0 -10 46.2300 5.49000   1
  -5   0  10 47.6300 5.57000   1
 -10  -1   2 10.0100 4.21000   1
 -10   1   2 14.6200 4.51000   1
   7   3  -8 252.870 17.8000   1
  -7  -3   8 261.950 18.6000   1
  -7   3   8 250.460 17.8200   1
  -7  -3   8 259.600 17.8200   1
   7   3  -8 270.170 20.7000   1
  -2  -3  10 49.6100 5.93000   1
  -2   3  10 65.4600 7.58000   1
   2   3 -10 63.0100 7.30000   1
   2   3 -10 57.3300 6.59000   1
   2  -3 -10 56.1700 6.45000   1
  -2  -3  10 49.4400 6.10000   1
  -5  -1  -8 39.6400 5.34000   1
   5  -1   8 36.8200 5.46000   1
   5  -1   8 32.7800 5.08000   1
   5   1   8 44.9500 5.97000   1
  -5   1  -8 44.8200 5.36000   1
  -4  -7   6 127.530 11.1100   1
   4   7  -6 127.350 9.98000   1
   4   7  -6 123.740 11.8800   1
  -4  -7   6 127.830 10.1200   1
  -4   7   6 135.790 10.1800   1
   1   9   1 62.6900 6.30000   1
   1  -9   1 80.3500 6.50000   1
   1  -9   1 77.7600 5.19000   1
  -1   9  -1 68.6000 7.26000   1
  -1  -9  -1 84.5900 6.70000   1
   1   9   1 70.5400 8.45000   1
   4  -8   2 64.3800 6.34000   1
   4   8   2 47.2200 6.51000   1
   4   8   2 52.3700 6.70000   1
  -4  -8  -2 43.7900 6.19000   1
   0   8  -5 84.3000 7.30000   1
   0   8  -5 91.3300 9.20000   1
   0   8   5 82.8900 6.67000   1
   0   8   5 93.0000 8.01000   1
   0  -8   5 94.6800 8.48000   1
  -5   5   8 188.300 12.1800   1
   5   5  -8 182.640 12.8600   1
  -5  -5   8 141.860 10.5800   1
  -5  -5   8 150.590 12.0800   1
  -5  -5   8 141.170 10.7200   1
   5   5  -8 178.110 15.1200   1
  -1  -3  10 37.9800 5.31000   1
  -1   3  10 39.6200 5.75000   1
   1  -3 -10 49.0000 5.78000   1
   1   3 -10 51.0600 6.40000   1
   1   3 -10 49.1200 6.09000   1
  -9   3   5 32.5900 4.76000   1
  -9  -3   5 26.9200 3.83000   1
  -9  -3   5 16.4300 5.00000   1
  -9   3   5 19.0600 3.53000   1
   9   3  -5 24.1400 3.85000   1
   9   3  -5 24.5300 3.60000   1
  -9  -3   5 21.8200 4.47000   1
  -6  -6   6 11.1400 3.80000   1
  -6  -6   6 11.2300 2.51000   1
  -6  -6   6 18.8300 4.18000   1
   6   6  -6 17.2600 4.42000   1
   6   6  -6 14.9600 3.92000   1
  -9   0  -3 3.45000 2.71000   1
  -9   0  -3 1.27000 2.01000   1
 -10   1   1 166.820 13.5800   1
  10   1  -1 181.230 10.9300   1
 -10  -1   1 172.560 14.8800   1
  -1   6   8 34.5700 5.00000   1
   1  -6  -8 22.4900 3.22000   1
   1   6  -8 32.5900 5.89000   1
  -1  -6   8 18.7000 4.09000   1
  -1  -6   8 19.3200 3.04000   1
   1   6  -8 26.2700 4.26000   1
   9   4  -3 68.0600 5.73000   1
   9   4  -3 62.1200 5.20000   1
  -9  -4   3 41.9600 5.08000   1
  -9  -4   3 44.2900 5.56000   1
  -9   4   3 55.5800 5.54000   1
  -9  -4   3 43.6100 5.63000   1
   8   4  -6 16.5400 3.99000   1
   8   4  -6 12.2100 3.23000   1
  -8  -4   6 10.7300 3.61000   1
  -8  -4   6 10.2700 3.60000   1
  -8  -4   6 9.46000 2.84000   1
  -8   4   6 9.17000 3.01000   1
  -6  -5  -5 36.7800 4.01000   1
   6   5   5 64.0100 7.20000   1
   6  -5   5 48.2300 6.43000   1
  -2  -7  -6 77.5600 6.18000   1
  -2   7  -6 76.5400 6.50000   1
  -2   7  -6 87.9200 6.83000   1
   2  -7   6 94.6900 8.69000   1
   2   7   6 86.2600 8.23000   1
  -2   6   8 17.4300 3.43000   1
   2  -6  -8 27.0200 3.00000   1
  -2  -6   8 34.4300 5.31000   1
  -2  -6   8 30.3100 4.03000   1
  -2  -6   8 23.6600 3.01000   1
   2   6  -8 17.7700 4.78000   1
   2   6  -8 14.4700 5.94000   1
 -10  -1   3 37.9800 4.94000   1
 -10  -1   3 36.4700 6.19000   1
 -10   1   3 42.5900 5.39000   1
 -10   1   3 52.2200 6.25000   1
   2   8  -5 144.830 13.1700   1
   2   8  -5 154.810 11.3900   1
  -2  -8   5 149.720 11.8200   1
  -2  -8   5 141.140 12.1900   1
  -2   8   5 157.440 11.9400   1
   5   6   5 38.1300 4.10000   1
   5  -6   5 38.5800 5.59000   1
   5   6   5 46.0100 6.30000   1
   5  -6   5 23.3800 2.96000   1
  -5   1  10 82.0800 8.18000   1
   5   1 -10 77.2900 6.80000   1
  -5  -1  10 71.9400 6.88000   1
   5  -1 -10 79.4300 6.33000   1
  -5  -1  10 78.1100 7.55000   1
  -8   3   7 4.46000 2.89000   1
  -8  -3   7 -2.4100 2.84000   1
   8   3  -7 3.91000 2.79000   1
  -8  -3   7 2.25000 2.93000   1
   8   3  -7 4.27000 2.25000   1
   9   2  -6 47.1400 5.55000   1
   9   2  -6 46.5400 4.49000   1
  -9  -2   6 60.7700 6.75000   1
  -9  -2   6 57.9000 6.21000   1
  -9   2   6 39.3000 4.68000   1
  -9   2   6 49.8800 5.71000   1
  -8   0   8 71.6800 7.68000   1
  -8   0   8 61.6100 6.14000   1
   8   0  -8 67.8700 4.91000   1
   3  -3 -10 74.9600 6.62000   1
   3   3 -10 72.0600 6.89000   1
   3   3 -10 81.7600 9.85000   1
  -3  -3  10 82.4600 7.52000   1
  -3  -3  10 81.5900 8.27000   1
  -3   3  10 79.7600 7.68000   1
   8   4   3 9.99000 4.10000   1
   8  -4   3 13.8900 3.94000   1
  -8  -4  -3 11.6500 3.96000   1
   0   9  -2 13.0600 3.22000   1
   0   9   2 17.1300 5.34000   1
   0   9  -2 19.9900 5.13000   1
   0  -9   2 25.4700 3.57000   1
   0  -9   2 28.0500 3.90000   1
   0  -9  -2 31.5300 4.14000   1
  -1   2 -10 33.0300 6.06000   1
   1  -2  10 56.7500 5.62000   1
   1  -2  10 49.8400 4.54000   1
   1   2  10 30.2200 5.55000   1
  -1  -2 -10 49.1000 6.37000   1
   4  -6   6 19.4900 2.65000   1
   4  -6   6 25.4200 4.84000   1
   4   6   6 19.4200 4.08000   1
   4   6   6 12.3700 2.88000   1
   4   6   6 22.1100 5.19000   1
   5   6  -7 161.410 11.9600   1
  -5  -6   7 127.610 8.73000   1
  -5  -6   7 131.370 11.7700   1
   5   6  -7 156.980 13.5700   1
  -5  -6   7 128.970 10.1200   1
  -4   5  -7 3.66000 2.38000   1
   4   5   7 3.42000 2.46000   1
   4  -5   7 5.09000 2.30000   1
  -4  -5  -7 3.35000 2.90000   1
   4   5   7 1.79000 2.47000   1
   4  -5   7 10.8200 3.64000   1
  -6   2  -7 50.7800 5.80000   1
   6  -2   7 65.1000 6.91000   1
  -6  -2  -7 57.5400 6.56000   1
  -9  -1  -3 46.9000 4.79000   1
  -9   1  -3 47.3200 6.90000   1
  -9  -1  -3 47.0400 5.63000   1
  -1  -9   2 15.5700 2.80000   1
  -1  -9   2 16.9300 4.09000   1
   1  -9  -2 14.2400 3.17000   1
   1   9  -2 27.2900 3.64000   1
   1   9  -2 18.2700 4.04000   1
  -1   9   2 21.4800 4.33000   1
  -2  -9   0 15.1100 3.47000   1
  -2   9   0 20.9200 4.63000   1
   2   9   0 12.4600 4.92000   1
   2  -9   0 19.8300 3.20000   1
   2   9   0 15.1000 4.27000   1
  -5  -8   1 24.0700 3.55000   1
  -5   8   1 12.7800 3.19000   1
  -5  -8   1 31.4700 4.69000   1
   5   8  -1 19.8000 4.82000   1
   5   8  -1 18.7300 5.14000   1
   5  -8  -1 28.3400 3.27000   1
   9   4   0 118.860 9.20000   1
   9  -4   0 126.790 9.25000   1
  -9  -4   0 116.280 9.53000   1
  -9   4   0 110.840 9.43000   1
 -10   0   0 104.070 10.7800   1
  -6  -4  -6 29.2100 5.00000   1
   6  -4   6 39.1100 5.48000   1
  -6  -4  -6 31.8000 3.80000   1
  -6   7   4 41.9200 5.01000   1
   6   7  -4 48.5600 6.24000   1
   6   7  -4 50.2100 6.58000   1
  -6  -7   4 50.5100 7.55000   1
  -6  -7   4 51.3200 5.96000   1
  -7   0   9 207.110 13.9200   1
  -7   0   9 189.760 14.2300   1
   7   0  -9 190.350 12.1600   1
  -2  -9   1 82.8800 7.53000   1
  -2   9   1 65.2600 7.07000   1
   2   9  -1 68.7300 8.35000   1
   2   9  -1 74.4800 7.42000   1
   2  -9  -1 71.2400 6.08000   1
  -2  -9   1 61.3300 4.99000   1
   7   6   2 64.6400 6.66000   1
   7   6   2 68.0600 6.01000   1
   7  -6   2 76.2600 7.64000   1
  -7  -6  -2 60.9700 6.16000   1
  -7  -6  -2 62.2500 7.30000   1
   8  -3   4 17.3100 3.94000   1
  -8  -3  -4 11.5800 3.35000   1
   8   3   4 9.35000 3.53000   1
   0   6   8 35.7300 5.83000   1
   0  -6  -8 48.3000 5.55000   1
   0  -6   8 48.9800 4.09000   1
   0  -6   8 54.2000 6.51000   1
   0   6  -8 41.0500 6.18000   1
   0   6  -8 36.3700 5.95000   1
  -2   5   9 16.9300 3.60000   1
  -2  -5   9 16.0000 4.85000   1
  -2  -5   9 15.7300 3.85000   1
   2  -5  -9 14.9300 3.33000   1
  -2  -5   9 14.5800 3.30000   1
   2   5  -9 12.4400 4.44000   1
   2   5  -9 19.2800 4.41000   1
  -5   4  -7 69.4300 6.38000   1
  -5  -4  -7 68.4100 8.37000   1
   5  -4   7 77.8800 8.42000   1
   5  -4   7 59.8600 5.92000   1
   5   4   7 65.3600 6.89000   1
 -10   0   4 51.9000 5.97000   1
 -10   0   4 55.4400 7.01000   1
  -8  -1   8 177.920 14.0500   1
  -8  -1   8 155.750 12.5000   1
   8   1  -8 165.630 10.8600   1
  -8   1   8 175.090 13.5400   1
   1   5  -9 48.4100 6.56000   1
  -1  -5   9 48.2100 5.45000   1
  -1   5   9 55.2500 5.82000   1
  -1  -5   9 50.0500 5.20000   1
   1   5  -9 52.3600 7.33000   1
   1  -5  -9 48.7400 4.94000   1
  -8   0  -5 163.270 12.2500   1
  -8   0  -5 162.170 13.3500   1
  -4   8   4 52.6700 6.46000   1
  -4  -8   4 51.9000 6.64000   1
  -4  -8   4 50.1200 5.31000   1
   4   8  -4 37.8600 6.50000   1
   4   8  -4 51.4900 6.75000   1
   5   8   0 93.7700 8.34000   1
   5   8   0 95.6400 9.03000   1
   5  -8   0 78.2300 6.61000   1
  -5  -8   0 83.6800 8.69000   1
  -5   8   0 74.5400 5.96000   1
  -5  -8   0 70.5400 6.01000   1
  -1   7   7 37.4000 5.39000   1
   1  -7  -7 27.8800 3.46000   1
   1   7  -7 33.1400 5.11000   1
  -1  -7   7 37.6500 5.65000   1
  -1  -7   7 41.7900 4.99000   1
   1   7  -7 26.8000 5.39000   1
   6   3  -9 16.6900 5.05000   1
  -6  -3   9 16.4300 4.29000   1
  -6  -3   9 18.5500 4.08000   1
  -6   3   9 13.1200 4.29000   1
   6   3  -9 25.6600 3.91000   1
  -5  -8   2 46.1000 4.69000   1
   5  -8  -2 42.2000 4.06000   1
  -5   8   2 47.6400 4.64000   1
  -5  -8   2 43.1500 7.21000   1
   5   8  -2 48.1300 5.84000   1
   5   8  -2 45.3000 6.48000   1
   0   3 -10 61.0700 6.77000   1
   0  -3 -10 61.5000 7.16000   1
   0   3 -10 64.3300 7.33000   1
   0  -3  10 60.9600 6.54000   1
   0   3  10 66.9400 7.96000   1
   0  -3  10 58.8400 5.31000   1
  -7   2  -6 3.24000 2.69000   1
  -7  -2  -6 3.47000 3.18000   1
   7  -2   6 1.84000 3.62000   1
  -7  -2  -6 1.08000 2.86000   1
  -3  -6   8 11.7300 3.72000   1
   3   6  -8 18.3200 4.32000   1
   3   6  -8 24.8300 5.19000   1
  -3  -6   8 11.4700 2.50000   1
  -3  -6   8 14.0400 4.50000   1
   1   8   5 87.4100 8.79000   1
   1   8   5 85.0100 7.33000   1
  -1   8  -5 84.5300 7.27000   1
  -1   8  -5 97.8000 8.04000   1
   1  -8   5 89.9300 8.58000   1
  -1  -8  -5 65.6800 5.55000   1
  10   1   0 -0.0200 1.56000   1
 -10  -1   0 -2.7000 2.88000   1
 -10   1   0 4.44000 2.84000   1
   1   9   2 27.0100 3.30000   1
  -1   9  -2 17.5200 4.47000   1
  -1  -9  -2 8.35000 2.91000   1
   1  -9   2 6.49000 2.40000   1
   1  -9   2 11.0900 3.10000   1
   1   9   2 8.08000 3.82000   1
  -7   1   9 57.9300 6.61000   1
   7   1  -9 55.8100 5.55000   1
   7  -1  -9 42.9200 3.76000   1
  -7  -1   9 53.8500 6.12000   1
  -7  -1   9 45.5000 5.33000   1
  -2   0 -10 2.08000 3.31000   1
   2   0  10 3.47000 2.99000   1
  -5  -4   9 152.940 11.0900   1
   5   4  -9 161.220 15.1700   1
  -5   4   9 174.830 12.8900   1
  -5  -4   9 153.880 12.2700   1
   5   4  -9 154.570 11.2800   1
  -2   7   7 14.8500 3.67000   1
   2   7  -7 14.6600 3.51000   1
   2   7  -7 10.4000 4.05000   1
  -2  -7   7 10.3500 4.02000   1
  -2  -7   7 10.1700 3.99000   1
  10   2  -2 20.6800 3.29000   1
 -10  -2   2 28.0800 4.55000   1
 -10   2   2 30.0400 4.98000   1
   6   6   4 86.6500 9.39000   1
   6  -6   4 102.520 9.47000   1
  -6  -6  -4 77.6300 6.24000   1
   6   6   4 77.7300 6.34000   1
  -2   9  -1 78.9900 6.93000   1
   2  -9   1 61.4600 6.73000   1
   2   9   1 66.3000 7.83000   1
   2   9   1 77.7900 6.94000   1
  -2  -9  -1 60.1300 6.39000   1
   5   2   8 2.98000 3.02000   1
  -5  -2  -8 3.15000 3.19000   1
   5  -2   8 4.02000 2.94000   1
   5  -2   8 1.75000 2.82000   1
  -5   2  -8 -0.4500 2.67000   1
  -9   3  -2 18.3500 5.19000   1
  -9  -3  -2 20.3500 4.19000   1
   9   3   2 18.1600 3.67000   1
   9  -3   2 16.6000 4.10000   1
 -10  -1   4 83.5000 7.73000   1
 -10  -1   4 96.0200 9.54000   1
 -10   1   4 107.860 9.64000   1
 -10   1   4 107.060 9.93000   1
   4   0   9 49.5000 5.98000   1
  -4   0  -9 52.9600 6.04000   1
   4   0   9 47.9000 5.86000   1
  -8   1  -5 7.17000 2.68000   1
  -8  -1  -5 9.35000 3.73000   1
  -8   1  -5 5.38000 3.86000   1
  -8  -1  -5 8.06000 3.02000   1
   9   4  -4 68.5600 6.04000   1
  -9   4   4 68.9300 6.68000   1
  -9  -4   4 48.7300 5.92000   1
  -9  -4   4 58.0000 6.41000   1
  -9  -4   4 68.3500 6.60000   1
   9   4  -4 68.1600 5.98000   1
   6  -7   2 7.80000 3.38000   1
   6   7   2 4.32000 3.96000   1
   6   7   2 7.11000 2.65000   1
  -6  -7  -2 2.04000 3.22000   1
  -6  -7  -2 5.44000 2.24000   1
  -7  -6   5 107.680 8.10000   1
   7   6  -5 97.6400 8.25000   1
   7   6  -5 115.380 10.4000   1
  -7  -6   5 99.9800 9.41000   1
  -7  -6   5 108.780 9.31000   1
  -3  -8   5 123.050 9.26000   1
  -3   8   5 113.890 10.9000   1
   3   8  -5 118.610 10.6200   1
   3   8  -5 100.010 10.7900   1
  -3  -8   5 123.090 10.8500   1
   2   9  -2 4.81000 3.77000   1
  -2  -9   2 14.6800 3.67000   1
  -2  -9   2 11.5500 2.90000   1
  -2   9   2 4.96000 3.97000   1
   2   9  -2 3.83000 4.01000   1
   2  -9  -2 10.3200 2.54000   1
 -10  -2   1 15.9200 4.07000   1
  10   2  -1 14.9300 3.35000   1
 -10   2   1 13.8900 4.56000   1
  -8  -5   5 9.26000 3.61000   1
  -8  -5   5 4.12000 2.79000   1
  -8   5   5 5.45000 2.28000   1
   8   5  -5 4.87000 2.96000   1
   8   5  -5 9.98000 3.69000   1
  -8  -5   5 9.50000 2.93000   1
   3  -3   9 30.0000 4.63000   1
  -3  -3  -9 38.7400 5.48000   1
   3  -3   9 32.5100 4.36000   1
   3   3   9 21.5600 5.60000   1
  -3   3  -9 33.8100 5.58000   1
   0   7   7 -0.1400 2.74000   1
   0   7  -7 2.69000 2.64000   1
   0   7  -7 5.28000 3.06000   1
   0  -7  -7 4.65000 2.10000   1
   0  -7   7 3.26000 2.93000   1
   3   5  -9 46.1700 7.58000   1
  -3  -5   9 46.6900 5.54000   1
  -3  -5   9 46.4900 4.78000   1
  -3  -5   9 52.1100 6.92000   1
  -3   5   9 60.5200 6.22000   1
   3   5  -9 48.2100 6.24000   1
   3  -5  -9 49.0600 4.35000   1
 -10   2   3 122.460 10.3800   1
 -10  -2   3 98.7600 8.59000   1
 -10  -2   3 109.240 10.1400   1
 -10   2   3 107.160 10.0000   1
  10   2  -3 106.080 7.16000   1
  -2   4  -9 32.4500 5.12000   1
  -2  -4  -9 33.2600 5.66000   1
   2   4   9 35.7000 5.39000   1
   2  -4   9 45.5600 5.49000   1
   2  -4   9 39.2600 5.37000   1
  -2   1 -10 95.5500 9.55000   1
   2   1  10 99.2100 10.3800   1
   2  -1  10 93.0700 7.26000   1
   2  -1  10 106.700 9.84000   1
  -2  -1 -10 96.0500 9.48000   1
  -5   2  10 14.7200 3.98000   1
   5  -2 -10 5.74000 2.53000   1
   5   2 -10 12.1700 3.84000   1
  -5  -2  10 7.52000 3.75000   1
  -5  -2  10 14.6300 3.21000   1
   0  -5   9 11.2900 3.54000   1
   0   5  -9 11.2500 3.38000   1
   0   5  -9 15.6700 3.31000   1
   0  -5  -9 0.75000 2.66000   1
   0   5   9 9.17000 3.92000   1
   0  -5   9 2.77000 2.66000   1
  -7  -4  -5 36.9700 4.71000   1
   7   4   5 39.9700 6.46000   1
   7  -4   5 45.9400 6.68000   1
   8  -5   2 18.1000 4.69000   1
   8   5   2 14.5500 3.81000   1
  -8  -5  -2 18.2100 3.72000   1
   7   5   4 75.0000 7.80000   1
   7  -5   4 66.6900 7.33000   1
  -7  -5  -4 64.6300 6.25000   1
   4   1   9 35.9700 4.97000   1
  -4  -1  -9 29.9300 5.63000   1
  -4   1  -9 32.0600 5.19000   1
   4  -1   9 30.1300 4.47000   1
   4  -1   9 34.6200 4.75000   1
   4   1   9 29.3900 4.04000   1
   4   3 -10 132.200 12.6800   1
  -4  -3  10 143.760 11.7400   1
  -4  -3  10 140.470 10.7600   1
  -4   3  10 135.420 10.8400   1
   4   3 -10 124.160 10.8300   1
   4  -3 -10 138.470 10.2400   1
  -9   0   7 105.440 9.81000   1
  -9   0   7 106.480 9.34000   1
   3  -6   7 65.6900 6.83000   1
   3  -6   7 55.3100 4.60000   1
   3   6   7 50.5800 6.12000   1
  -3   6  -7 47.2200 5.27000   1
  -3  -6  -7 65.4700 6.93000   1
  -9   2  -3 10.1300 4.45000   1
   9   2   3 15.0400 3.23000   1
  -9  -2  -3 7.08000 3.33000   1
  -3  -8  -4 31.2400 4.00000   1
   3   8   4 34.1800 5.43000   1
   3   8   4 25.7700 5.52000   1
   3  -8   4 35.7300 4.57000   1
   5   8   1 10.7200 3.29000   1
   5   8   1 9.64000 3.73000   1
   5  -8   1 11.6400 3.41000   1
  -5  -8  -1 6.03000 2.16000   1
  -5  -8  -1 8.57000 3.65000   1
   4   7   5 38.8700 5.73000   1
   4   7   5 43.8400 4.78000   1
  -4  -7  -5 36.5800 4.47000   1
   4  -7   5 33.6600 5.44000   1
   5   8  -3 58.4500 6.38000   1
  -5  -8   3 62.6900 8.00000   1
  -5   8   3 50.5600 5.45000   1
  -5  -8   3 53.1400 5.91000   1
   5   8  -3 56.1700 6.01000   1
  -3   7   7 2.00000 3.07000   1
  -3  -7   7 2.25000 3.07000   1
   3   7  -7 0.57000 3.16000   1
  -3  -7   7 2.79000 3.07000   1
   3   7  -7 2.83000 3.77000   1
   4   4   8 26.0900 4.52000   1
   4  -4   8 30.1900 4.15000   1
   4  -4   8 33.9600 5.39000   1
  -4   4  -8 28.3900 5.38000   1
  -4  -4  -8 32.6700 5.40000   1
   1  -9  -3 10.1400 2.51000   1
  -1  -9   3 16.4400 3.87000   1
  -1  -9   3 16.0100 3.39000   1
   1   9  -3 12.9100 3.33000   1
   1   9  -3 16.0600 4.76000   1
  -1   9   3 18.0200 4.55000   1
   9   4   1 -0.4800 2.18000   1
   9  -4   1 -2.2300 2.66000   1
  -9  -4  -1 2.27000 2.81000   1
  -9   4  -1 0.04000 2.94000   1
   0   9  -3 52.5400 5.29000   1
   0   9  -3 56.8500 6.25000   1
   0  -9  -3 57.2500 5.22000   1
   0   9   3 56.0800 6.42000   1
   0  -9   3 59.7000 4.97000   1
   0  -9   3 59.5500 5.83000   1
   4   8   3 57.2800 7.17000   1
  -4  -8  -3 80.1200 7.26000   1
   4  -8   3 85.8200 7.17000   1
   4   8   3 74.5200 7.19000   1
  -8  -2   8 39.1400 5.67000   1
  -8  -2   8 27.3900 4.86000   1
   8   2  -8 31.5200 3.76000   1
  -8   2   8 26.5500 4.48000   1
   8   2  -8 32.9300 5.66000   1
  -1   6  -8 27.9300 4.62000   1
  -1   6  -8 31.3600 5.54000   1
  -1  -6  -8 41.5400 4.47000   1
   1   6   8 32.9200 5.40000   1
   1  -6   8 36.6900 4.93000   1
   1  -6   8 27.8600 3.47000   1
  -9  -1   7 28.3900 4.52000   1
  -9   1   7 20.6800 5.13000   1
  -9   1   7 22.6100 4.71000   1
   9   1  -7 29.4100 3.10000   1
   9   1  -7 31.0500 4.91000   1
  -9  -1   7 28.1500 4.73000   1
 -10   0  -1 1.88000 3.17000   1
   5   7   4 44.4300 7.16000   1
   5   7   4 53.8400 5.99000   1
   5  -7   4 55.5100 5.66000   1
  -5  -7  -4 54.1100 5.44000   1
  -8  -6   2 41.4700 6.16000   1
  -8  -6   2 39.8600 5.22000   1
   8   6  -2 51.4300 5.91000   1
   8   6  -2 45.8400 4.84000   1
  -8  -6   1 15.8500 4.48000   1
  -8  -6   1 17.0500 4.33000   1
   8   6  -1 29.7500 4.43000   1
   8   6  -1 18.6000 3.93000   1
   8  -6  -1 13.9900 2.99000   1
  10   2   0 37.7200 4.15000   1
 -10   2   0 42.8900 6.59000   1
 -10  -2   0 36.2200 5.16000   1
   3   9  -1 64.3300 6.29000   1
   3   9  -1 54.6600 5.94000   1
  -3   9   1 61.8000 6.72000   1
  -3  -9   1 45.1800 4.23000   1
  -3  -9   1 52.4300 6.61000   1
   3  -9  -1 41.3100 4.44000   1
   3  -5   8 54.0900 5.93000   1
  -3  -5  -8 46.3300 5.78000   1
  -3   5  -8 60.3000 6.81000   1
   3   5   8 56.3500 5.22000   1
   3   5   8 72.5300 6.51000   1
   3  -5   8 50.4900 5.07000   1
   7   2  -9 91.3500 7.11000   1
  -7  -2   9 75.6100 7.08000   1
  -7   2   9 86.7300 7.66000   1
  -7  -2   9 92.8400 8.41000   1
   3  -9   0 1.58000 2.38000   1
   3   9   0 3.97000 2.97000   1
   3   9   0 1.99000 2.94000   1
  -3   9   0 0.62000 2.36000   1
  -3  -9   0 -0.9100 2.49000   1
  -2  -9  -2 17.8200 3.67000   1
   2   9   2 18.7100 3.92000   1
   2  -9   2 19.9200 3.76000   1
  -2   9  -2 26.5900 4.28000   1
  -5  -7   6 75.6900 7.59000   1
   5   7  -6 61.2500 8.52000   1
   5   7  -6 67.4300 7.59000   1
  -5  -7   6 70.8800 7.03000   1
  -5   7   6 84.0700 8.02000   1
 -10   0   5 130.280 10.2100   1
 -10   0   5 118.570 9.69000   1
 -10   2   4 38.7600 5.50000   1
 -10   2   4 58.1800 6.52000   1
 -10  -2   4 40.9500 6.28000   1
  10   2  -4 42.4400 4.12000   1
 -10  -2   4 53.2800 5.91000   1
  -4  -6   8 26.2400 3.83000   1
   4   6  -8 24.7700 5.60000   1
  -4  -6   8 21.2100 5.07000   1
  -4  -6   8 19.5800 2.89000   1
   4   6  -8 21.4600 4.01000   1
  -9  -3   6 145.420 11.1700   1
   9   3  -6 161.760 10.9400   1
  -9  -3   6 161.350 13.3700   1
  -9   3   6 149.290 12.3700   1
   9   3  -6 152.630 11.8000   1
   6   0 -10 50.8300 5.47000   1
  -6   0  10 47.3800 6.50000   1
  -8  -2  -5 77.8400 7.57000   1
   8  -2   5 91.3300 9.17000   1
  -8  -2  -5 74.5000 8.18000   1
  -1  -3 -10 46.9400 6.46000   1
   1  -3  10 45.2700 4.99000   1
   1   3  10 61.1400 6.74000   1
   1  -3  10 55.9700 6.93000   1
  -1   3 -10 56.5900 7.04000   1
   7   7  -1 52.1000 6.12000   1
   7   7  -1 49.8200 5.70000   1
  -7  -7   1 44.3600 6.43000   1
  -7  -7   1 47.4400 5.16000   1
   7  -7  -1 46.1300 4.34000   1
  -2   0  11 32.4200 6.35000   1
   2   0 -11 38.3400 5.78000   1
 -10   1  -1 102.940 10.5400   1
 -10  -1  -1 127.130 11.0600   1
  10   1   1 101.610 7.36000   1
  -6  -3  -7 1.42000 2.10000   1
  -6   3  -7 2.97000 2.46000   1
  -6  -3  -7 1.02000 3.28000   1
   6  -3   7 4.52000 3.18000   1
  -7  -5   7 8.10000 3.04000   1
  -7  -5   7 3.52000 2.26000   1
   7   5  -7 7.07000 2.63000   1
   7   5  -7 7.14000 3.05000   1
  -7   5   7 2.66000 2.20000   1
  -7  -5   7 1.50000 3.23000   1
  -1  -7  -7 2.88000 2.63000   1
   1   7   7 0.15000 3.16000   1
   1  -7   7 2.65000 2.65000   1
  -1   7  -7 3.68000 2.43000   1
  -1   7  -7 -0.0500 3.06000   1
   7   7  -2 66.4500 7.11000   1
   7   7  -2 68.0900 7.29000   1
  -7  -7   2 61.1000 6.11000   1
  -7  -7   2 58.4600 7.23000   1
   3   7   6 37.2200 5.22000   1
   3   7   6 37.3600 5.25000   1
   3  -7   6 19.3800 5.20000   1
  -2   8  -5 38.7500 4.72000   1
   2  -8   5 31.0700 5.29000   1
   2   8   5 38.8100 5.23000   1
   2   8   5 47.9600 5.15000   1
  -2  -8  -5 33.2000 3.89000   1
  -2  -9   3 42.1300 4.46000   1
   2   9  -3 44.2800 6.78000   1
   2  -9  -3 48.1200 4.07000   1
   2   9  -3 47.5800 6.11000   1
  -2   9   3 43.0600 6.55000   1
  -2  -9   3 43.4500 4.98000   1
  -2   2 -10 74.0500 7.96000   1
  -2  -2 -10 59.8900 7.06000   1
   2  -2  10 53.8200 6.24000   1
   2  -2  10 60.2800 7.64000   1
   2   2  10 76.2100 8.58000   1
  -1   9  -3 20.3300 4.30000   1
  -1  -9  -3 12.7900 3.26000   1
   1   9   3 19.6300 4.11000   1
   1   9   3 26.3800 3.64000   1
   1  -9   3 18.8200 3.21000   1
   1  -9   3 27.0700 4.16000   1
  -6  -7   5 6.63000 4.03000   1
  -6  -7   5 8.22000 2.84000   1
   6   7  -5 2.57000 2.89000   1
   6   7  -5 3.54000 3.39000   1
   7   4  -8 5.26000 3.26000   1
   7   4  -8 7.28000 2.79000   1
  -7  -4   8 5.38000 3.68000   1
  -7  -4   8 6.32000 3.08000   1
  -7   4   8 6.10000 2.61000   1
   4   5  -9 55.1600 5.97000   1
  -4   5   9 74.0100 6.12000   1
  -4  -5   9 60.7500 5.37000   1
  -4  -5   9 66.8300 6.94000   1
  -4  -5   9 67.5000 6.10000   1
   4   5  -9 55.0200 7.47000   1
   2   4 -10 34.0900 4.86000   1
   2  -4 -10 36.5100 4.51000   1
  -2   4  10 36.1200 5.31000   1
   2   4 -10 35.0400 5.95000   1
  -2  -4  10 36.4800 5.24000   1
  -2  -4  10 38.7700 4.95000   1
  10   1  -5 57.2300 5.10000   1
 -10  -1   5 68.5600 6.46000   1
 -10  -1   5 74.0000 7.93000   1
 -10   1   5 80.5100 7.84000   1
 -10   1   5 68.2400 6.76000   1
   8   6  -3 50.5700 6.35000   1
   8   6  -3 49.4100 6.15000   1
  -8  -6   3 46.1900 5.13000   1
  -8  -6   3 51.7000 5.70000   1
  -8  -6   3 54.0200 6.41000   1
  -1   0  11 7.46000 3.37000   1
   1   0 -11 5.06000 3.58000   1
  -3  -9   2 48.8700 4.44000   1
  -3  -9   2 48.1900 5.95000   1
   3   9  -2 50.0200 5.81000   1
   3  -9  -2 46.9600 4.39000   1
  -3   9   2 46.4100 5.66000   1
   3   9  -2 52.0200 6.84000   1
   6  -1 -10 68.7600 5.64000   1
  -6   1  10 77.8400 7.74000   1
  -6  -1  10 65.2400 7.15000   1
   6   1 -10 71.5900 6.85000   1
  -6  -1  10 61.3200 6.03000   1
   4   2   9 14.9200 4.93000   1
   4  -2   9 27.1000 3.79000   1
  -4   2  -9 17.9800 4.35000   1
  -4  -2  -9 20.0400 4.77000   1
   4  -2   9 16.7900 4.50000   1
  -6   5   8 169.820 11.9800   1
  -6  -5   8 182.770 12.8100   1
   6   5  -8 199.710 15.8000   1
   6   5  -8 195.730 14.4200   1
  -6  -5   8 181.840 13.6400   1
  -6  -5   8 153.640 12.4300   1
   8   6   0 99.2500 7.84000   1
  -8  -6   0 110.190 9.71000   1
  -8  -6   0 102.120 10.0400   1
   8   6   0 118.760 10.5300   1
   8  -6   0 125.570 8.68000   1
  -3   0  11 19.4700 4.44000   1
   3   0 -11 17.1900 4.01000   1
   2  -1 -11 131.590 11.2600   1
   2   1 -11 123.990 9.76000   1
  -2  -1  11 109.630 8.72000   1
  -2  -1  11 130.130 11.0900   1
  -2   1  11 129.470 11.0200   1
   1  -4 -10 53.2200 5.49000   1
   1   4 -10 55.8600 6.73000   1
   1   4 -10 52.5400 6.64000   1
  -1   4  10 62.7700 6.47000   1
  -1  -4  10 53.7200 6.32000   1
  -1  -4  10 43.6700 4.81000   1
   9   4  -5 230.860 16.5800   1
  -9  -4   5 214.020 16.0500   1
  -9  -4   5 219.320 15.6500   1
  -9   4   5 206.400 14.5200   1
   9   4  -5 234.140 15.9600   1
  -9  -4   5 201.490 14.5100   1
   3  -9   1 62.9800 6.70000   1
  -3  -9  -1 66.4600 7.05000   1
  -3   9  -1 40.4200 5.80000   1
   3   9   1 68.9200 7.46000   1
   3   9   1 49.4000 5.94000   1
  -7  -3  -6 37.1800 5.25000   1
  -7  -3  -6 35.5700 6.10000   1
   7  -3   6 42.2900 6.71000   1
   1  -5   9 4.80000 3.54000   1
   1  -5   9 8.46000 3.32000   1
   1   5   9 8.80000 3.52000   1
  -1   5  -9 9.00000 3.86000   1
  -1  -5  -9 8.05000 3.09000   1
   7   7   0 7.98000 2.94000   1
  -7  -7   0 14.1100 3.79000   1
  -7  -7   0 9.73000 2.91000   1
   7   7   0 5.81000 3.55000   1
   7  -7   0 10.6400 2.57000   1
   7   6   3 7.09000 2.41000   1
   7  -6   3 9.82000 3.95000   1
   7   6   3 9.27000 3.72000   1
  -7  -6  -3 5.71000 2.82000   1
   1   8  -6 3.49000 2.64000   1
   1   8  -6 1.65000 3.66000   1
  -1  -8   6 3.90000 3.08000   1
  -1   8   6 3.25000 3.12000   1
  -1  -8   6 3.89000 2.78000   1
 -10  -3   2 17.0300 4.69000   1
 -10   3   2 33.1700 4.28000   1
  10   3  -2 28.3400 3.61000   1
  10  -3  -2 13.7700 3.16000   1
   4   8  -5 19.7400 4.22000   1
  -4  -8   5 21.1700 4.24000   1
  -4  -8   5 14.7800 4.72000   1
   4   8  -5 19.2500 4.91000   1
  -4   8   5 21.6200 4.80000   1
   5  -3   8 43.5200 6.74000   1
  -5  -3  -8 50.7700 6.50000   1
  -5   3  -8 48.2600 6.61000   1
   5   3   8 40.4900 6.38000   1
   5  -3   8 45.9600 6.18000   1
   1  -1 -11 73.5600 7.69000   1
   1   1 -11 76.3400 6.74000   1
  -1   1  11 67.4000 8.28000   1
  -1  -1  11 64.4200 6.86000   1
  -1  -1  11 69.2400 7.03000   1
   8   4  -7 194.520 14.3200   1
  -8   4   7 182.730 14.0600   1
  -8  -4   7 197.520 15.4900   1
   8   4  -7 185.220 15.1500   1
  -8  -4   7 204.270 13.4400   1
  -3  -4  10 134.770 10.8200   1
  -3  -4  10 117.730 10.0800   1
   3   4 -10 107.490 9.86000   1
   3  -4 -10 125.580 9.74000   1
   3   4 -10 125.960 11.8800   1
  -3   4  10 132.040 10.3800   1
   7   7  -3 92.1400 7.86000   1
   7   7  -3 100.470 8.60000   1
  -7  -7   3 80.0400 7.47000   1
  -7  -7   3 69.6700 7.64000   1
   3  -1 -11 165.680 13.2400   1
   3   1 -11 148.710 11.2900   1
  -3   1  11 169.730 14.0600   1
  -3  -1  11 142.350 10.8300   1
  -3  -1  11 163.380 12.3400   1
   5  -8   2 61.6900 7.01000   1
  -5  -8  -2 56.4000 5.99000   1
   5   8   2 66.4200 6.87000   1
   5   8   2 55.3000 7.09000   1
   9   5  -2 68.3000 7.34000   1
  -9  -5   2 78.1300 7.10000   1
  -9   5   2 54.2400 5.91000   1
  -9  -5   2 82.5500 7.90000   1
   9   5  -2 62.9200 5.56000   1
   9   2  -7 121.250 7.98000   1
  -9   2   7 135.360 11.1100   1
  -9  -2   7 114.540 9.91000   1
  -9  -2   7 121.510 9.45000   1
   9   2  -7 121.870 9.60000   1
  -9   0  -4 57.1500 7.10000   1
  -9   0  -4 46.6700 4.78000   1
 -10  -3   1 126.850 9.83000   1
  10  -3  -1 134.500 9.48000   1
  10   3  -1 119.050 8.57000   1
 -10   3   1 104.570 10.0600   1
  -2   8   6 12.3200 4.60000   1
  -2  -8   6 14.1100 3.50000   1
   2   8  -6 18.7400 4.17000   1
  -2  -8   6 12.0700 3.71000   1
   2   8  -6 15.6000 4.26000   1
  -6  -6   7 134.830 9.78000   1
   6   6  -7 165.270 11.9600   1
   6   6  -7 158.160 12.1700   1
  -6  -6   7 135.440 12.6800   1
  -6  -6   7 157.080 12.3200   1
  -5  -8   4 63.2400 6.75000   1
  -5   8   4 54.5600 5.73000   1
  -5  -8   4 58.9100 7.99000   1
   5   8  -4 54.8300 6.63000   1
   5   8  -4 61.2000 7.45000   1
   0   8   6 32.3800 5.39000   1
   0  -8  -6 30.7800 3.47000   1
   0   8  -6 32.5600 5.30000   1
   0  -8   6 36.6300 5.43000   1
 -10  -3   3 83.4300 8.09000   1
  10   3  -3 97.4200 6.93000   1
 -10  -3   3 74.1400 7.48000   1
 -10   3   3 89.6500 7.64000   1
   9   5  -1 66.6700 6.66000   1
   9   5  -1 52.5200 4.57000   1
  -9  -5   1 48.2500 6.31000   1
  -9  -5   1 40.1600 6.46000   1
   9  -5  -1 45.0900 4.73000   1
  -5  -3  10 48.0700 6.03000   1
  -5   3  10 73.3300 6.62000   1
   5   3 -10 62.9700 8.91000   1
   5   3 -10 68.9300 6.97000   1
  -5  -3  10 59.8700 5.99000   1
   6   7   3 48.0500 6.46000   1
  -6  -7  -3 43.4500 6.21000   1
   6  -7   3 51.4500 5.83000   1
   6   7   3 55.6900 5.31000   1
  -4  -7   7 8.15000 3.75000   1
   4   7  -7 9.85000 4.63000   1
  -4   7   7 17.0600 4.23000   1
  -4  -7   7 10.1800 3.93000   1
   8   4   4 57.5500 7.12000   1
   8  -4   4 51.3800 7.43000   1
   6   4  -9 113.710 11.2500   1
  -6   4   9 111.720 8.96000   1
;
_shelx_hkl_checksum              55546
loop_
_space_group_symop_operation_xyz
'x, y, z'
'-x, y+1/2, -z'
loop_
_atom_site_label
_atom_site_type_symbol
_atom_site_fract_x
_atom_site_fract_y
_atom_site_fract_z
_atom_site_U_iso_or_equiv
_atom_site_adp_type
_atom_site_occupancy
_atom_site_site_symmetry_order
_atom_site_calc_flag
_atom_site_refinement_flags_posn
_atom_site_refinement_flags_adp
C1 C -0.1343(4) 0.8521(4) 0.9494(4) 0.0175(6) Uani 1 1 d . .
C2 C -0.2256(4) 0.9420(4) 0.8003(3) 0.0167(6) Uani 1 1 d . .
H2A H -0.2443 1.0702 0.8241 0.020 Uiso 1 1 calc R U
H2B H -0.3357 0.8842 0.7703 0.020 Uiso 1 1 calc R U
C3 C -0.1375(4) 0.9343(4) 0.6580(3) 0.0150(6) Uani 1 1 d . .
H3A H -0.1558 0.8151 0.6059 0.018 Uiso 1 1 calc R U
H3B H -0.1826 1.0284 0.5805 0.018 Uiso 1 1 calc R U
C4 C 0.0479(4) 0.9654(3) 0.7165(3) 0.0137(6) Uani 1 1 d . .
H4A H 0.0621 1.0796 0.7793 0.016 Uiso 1 1 calc R U
C5 C 0.1116(4) 0.8078(4) 0.8265(3) 0.0170(6) Uani 1 1 d . .
H5A H 0.1023 0.6948 0.7644 0.020 Uiso 1 1 calc R U
H5B H 0.2305 0.8274 0.8706 0.020 Uiso 1 1 calc R U
C6 C 0.1523(3) 0.9781(5) 0.5885(3) 0.0133(6) Uani 1 1 d . .
C7 C 0.3120(4) 1.0515(3) 0.6267(3) 0.0165(6) Uani 1 1 d . .
H7A H 0.3507 1.0949 0.7304 0.020 Uiso 1 1 calc R U
C8 C 0.4155(4) 1.0623(4) 0.5152(4) 0.0183(6) Uani 1 1 d . .
H8A H 0.5235 1.1126 0.5425 0.022 Uiso 1 1 calc R U
C9 C 0.3577(3) 0.9981(6) 0.3636(3) 0.0187(5) Uani 1 1 d . .
C10 C 0.1986(4) 0.9276(4) 0.3206(4) 0.0172(6) Uani 1 1 d . .
H10A H 0.1599 0.8864 0.2161 0.021 Uiso 1 1 calc R U
C11 C 0.0961(4) 0.9181(4) 0.4339(3) 0.0149(5) Uani 1 1 d . .
H11A H -0.0128 0.8704 0.4054 0.018 Uiso 1 1 calc R U
O1 O 0.0207(3) 0.7871(3) 0.9561(2) 0.0192(4) Uani 1 1 d . .
O2 O -0.1949(3) 0.8384(3) 1.0671(3) 0.0253(5) Uani 1 1 d . .
Br1 Br 0.50176(3) 0.99844(7) 0.21273(3) 0.02516(10) Uani 1 1 d . .
loop_
_atom_site_aniso_label
_atom_site_aniso_U_11
_atom_site_aniso_U_22
_atom_site_aniso_U_33
_atom_site_aniso_U_23
_atom_site_aniso_U_13
_atom_site_aniso_U_12
C1 0.0204(15) 0.0155(13) 0.0173(14) 0.0005(11) 0.0049(12) -0.0007(11)
C2 0.0155(15) 0.0178(12) 0.0171(14) 0.0026(10) 0.0036(12) 0.0009(10)
C3 0.0158(15) 0.0162(11) 0.0127(13) 0.0014(10) 0.0019(11) 0.0005(10)
C4 0.0170(12) 0.0111(18) 0.0130(12) 0.0000(9) 0.0030(10) -0.0002(10)
C5 0.0191(15) 0.0204(14) 0.0125(13) 0.0024(11) 0.0055(12) 0.0028(12)
C6 0.0173(12) 0.0092(15) 0.0136(11) 0.0036(11) 0.0036(10) 0.0029(12)
C7 0.0164(14) 0.0172(13) 0.0147(14) 0.0006(9) -0.0004(11) 0.0004(10)
C8 0.0133(14) 0.0189(12) 0.0227(15) 0.0036(10) 0.0033(12) -0.0008(10)
C9 0.0229(13) 0.0156(10) 0.0199(12) 0.0038(18) 0.0099(10) 0.0068(18)
C10 0.0245(16) 0.0133(11) 0.0147(13) -0.0001(10) 0.0059(12) 0.0034(11)
C11 0.0163(15) 0.0125(12) 0.0156(13) -0.0006(10) 0.0025(11) -0.0008(11)
O1 0.0211(11) 0.0243(11) 0.0128(10) 0.0060(8) 0.0050(9) 0.0060(9)
O2 0.0284(12) 0.0313(12) 0.0188(12) 0.0069(9) 0.0114(10) 0.0059(10)
Br1 0.02686(17) 0.02742(15) 0.02554(16) 0.00493(16) 0.01619(11) 0.00535(17)
loop_
_atom_type_symbol
_atom_type_description
_atom_type_scat_dispersion_real
_atom_type_scat_dispersion_imag
_atom_type_scat_source
C C 0.0033 0.0016 'International Tables Vol C Tables 4.2.6.8 and 6.1.1.4'
H H 0.0000 0.0000 'International Tables Vol C Tables 4.2.6.8 and 6.1.1.4'
O O 0.0106 0.0060 'International Tables Vol C Tables 4.2.6.8 and 6.1.1.4'
Br Br -0.2901 2.4595 'International Tables Vol C Tables 4.2.6.8 and 6.1.1.4'
loop_
_geom_angle_atom_site_label_1
_geom_angle_atom_site_label_2
_geom_angle_atom_site_label_3
_geom_angle
O2 C1 O1 117.5(3)
O2 C1 C2 122.1(3)
O1 C1 C2 120.4(2)
C1 C2 C3 115.5(2)
C1 C2 H2A 108.4
C3 C2 H2A 108.4
C1 C2 H2B 108.4
C3 C2 H2B 108.4
H2A C2 H2B 107.5
C4 C3 C2 108.4(2)
C4 C3 H3A 110.0
C2 C3 H3A 110.0
C4 C3 H3B 110.0
C2 C3 H3B 110.0
H3A C3 H3B 108.4
C6 C4 C3 115.3(2)
C6 C4 C5 108.9(2)
C3 C4 C5 107.1(2)
C6 C4 H4A 108.4
C3 C4 H4A 108.4
C5 C4 H4A 108.4
O1 C5 C4 112.9(2)
O1 C5 H5A 109.0
C4 C5 H5A 109.0
O1 C5 H5B 109.0
C4 C5 H5B 109.0
H5A C5 H5B 107.8
C11 C6 C7 118.5(2)
C11 C6 C4 122.8(2)
C7 C6 C4 118.7(2)
C8 C7 C6 121.4(3)
C8 C7 H7A 119.3
C6 C7 H7A 119.3
C9 C8 C7 118.9(3)
C9 C8 H8A 120.6
C7 C8 H8A 120.6
C10 C9 C8 121.4(2)
C10 C9 Br1 119.0(2)
C8 C9 Br1 119.6(2)
C9 C10 C11 119.0(3)
C9 C10 H10A 120.5
C11 C10 H10A 120.5
C6 C11 C10 120.9(3)
C6 C11 H11A 119.6
C10 C11 H11A 119.6
C1 O1 C5 122.6(2)
loop_
_geom_bond_atom_site_label_1
_geom_bond_atom_site_label_2
_geom_bond_distance
C1 O2 1.215(4)
C1 O1 1.351(4)
C1 C2 1.519(4)
C2 C3 1.538(4)
C2 H2A 0.9900
C2 H2B 0.9900
C3 C4 1.530(4)
C3 H3A 0.9900
C3 H3B 0.9900
C4 C6 1.522(4)
C4 C5 1.535(4)
C4 H4A 1.0000
C5 O1 1.464(3)
C5 H5A 0.9900
C5 H5B 0.9900
C6 C11 1.402(4)
C6 C7 1.401(4)
C7 C8 1.399(4)
C7 H7A 0.9500
C8 C9 1.392(4)
C8 H8A 0.9500
C9 C10 1.391(4)
C9 Br1 1.914(2)
C10 C11 1.405(4)
C10 H10A 0.9500
C11 H11A 0.9500
loop_
_geom_torsion_atom_site_label_1
_geom_torsion_atom_site_label_2
_geom_torsion_atom_site_label_3
_geom_torsion_atom_site_label_4
_geom_torsion
O2 C1 C2 C3 -175.2(3)
O1 C1 C2 C3 6.1(4)
C1 C2 C3 C4 -40.1(3)
C2 C3 C4 C6 -175.0(2)
C2 C3 C4 C5 63.7(3)
C6 C4 C5 O1 178.8(2)
C3 C4 C5 O1 -55.9(3)
C3 C4 C6 C11 -16.8(4)
C5 C4 C6 C11 103.6(3)
C3 C4 C6 C7 163.7(3)
C5 C4 C6 C7 -75.9(3)
C11 C6 C7 C8 -1.3(4)
C4 C6 C7 C8 178.2(2)
C6 C7 C8 C9 -0.1(4)
C7 C8 C9 C10 1.4(5)
C7 C8 C9 Br1 -176.4(2)
C8 C9 C10 C11 -1.2(5)
Br1 C9 C10 C11 176.5(2)
C7 C6 C11 C10 1.4(4)
C4 C6 C11 C10 -178.1(3)
C9 C10 C11 C6 -0.2(4)
O2 C1 O1 C5 -175.3(3)
C2 C1 O1 C5 3.5(4)
C4 C5 O1 C1 22.3(4)
