#------------------------------------------------------------------------------
#$Date: 2019-11-25 13:28:37 +0200 (Mon, 25 Nov 2019) $
#$Revision: 240973 $
#$URL: file:///home/coder/svn-repositories/cod/cif/4/13/05/4130569.cif $
#------------------------------------------------------------------------------
#
# This file is available in the Crystallography Open Database (COD),
# http://www.crystallography.net/
#
# All data on this site have been placed in the public domain by the
# contributors.
#
data_4130569
loop_
_publ_author_name
'Xiao, Kai-Jiong'
'Chu, Ling'
'Chen, Gang'
'Yu, Jin-Quan'
_publ_section_title
;
 Kinetic Resolution of Benzylamines via Palladium(II)-Catalyzed C-H
 Cross-Coupling.
;
_journal_issue                   24
_journal_name_full               'Journal of the American Chemical Society'
_journal_page_first              7796
_journal_page_last               7800
_journal_paper_doi               10.1021/jacs.6b04660
_journal_volume                  138
_journal_year                    2016
_chemical_absolute_configuration ad
_chemical_formula_moiety         'C23 H22 N2 O6 S'
_chemical_formula_sum            'C23 H22 N2 O6 S'
_chemical_formula_weight         454.48
_space_group_crystal_system      triclinic
_space_group_IT_number           1
_space_group_name_Hall           'P 1'
_space_group_name_H-M_alt        'P 1'
_atom_sites_solution_hydrogens   mixed
_atom_sites_solution_primary     direct
_audit_creation_date             2015-08-12
_audit_creation_method
;
Olex2 1.2
(compiled 2015.01.26 svn.r3150 for OlexSys, GUI svn.r4998)
;
_cell_angle_alpha                115.4260(10)
_cell_angle_beta                 93.8290(10)
_cell_angle_gamma                100.8960(10)
_cell_formula_units_Z            1
_cell_length_a                   6.2719(2)
_cell_length_b                   9.7785(3)
_cell_length_c                   10.0673(4)
_cell_measurement_reflns_used    9947
_cell_measurement_temperature    100
_cell_measurement_theta_max      30.13
_cell_measurement_theta_min      2.27
_cell_volume                     539.90(3)
_computing_cell_refinement       'SAINT v8.34A (Bruker, 2013)'
_computing_data_collection       'APEX2 v2013.6-2 (Bruker, 2013)'
_computing_data_reduction        'SAINT v8.34A (Bruker, 2013)'
_computing_molecular_graphics    'Olex2 (Dolomanov et al., 2009)'
_computing_publication_material  'Olex2 (Dolomanov et al., 2009)'
_computing_structure_refinement  'XL (Sheldrick, 2008)'
_computing_structure_solution    'SIR2004 (Burla et al., 2007)'
_diffrn_ambient_temperature      100.0
_diffrn_detector                 'Bruker APEX-II CCD'
_diffrn_detector_area_resol_mean 7.9
_diffrn_detector_type            'CCD Area Detector'
_diffrn_measured_fraction_theta_full 1.000
_diffrn_measured_fraction_theta_max 0.969
_diffrn_measurement_device       'Kappa Four-Circle Diffractometer'
_diffrn_measurement_device_type  'Bruker APEX II Ultra'
_diffrn_measurement_method       '\w and \f scans'
_diffrn_radiation_monochromator  'Double Bounce Multilayer Mirrors'
_diffrn_radiation_probe          x-ray
_diffrn_radiation_type           MoK\a
_diffrn_radiation_wavelength     0.71073
_diffrn_reflns_av_R_equivalents  0.0230
_diffrn_reflns_av_unetI/netI     0.0253
_diffrn_reflns_Laue_measured_fraction_full 1.000
_diffrn_reflns_Laue_measured_fraction_max 0.969
_diffrn_reflns_limit_h_max       8
_diffrn_reflns_limit_h_min       -8
_diffrn_reflns_limit_k_max       13
_diffrn_reflns_limit_k_min       -13
_diffrn_reflns_limit_l_max       13
_diffrn_reflns_limit_l_min       -13
_diffrn_reflns_number            22323
_diffrn_reflns_point_group_measured_fraction_full 0.986
_diffrn_reflns_point_group_measured_fraction_max 0.920
_diffrn_reflns_theta_full        25.242
_diffrn_reflns_theta_max         29.126
_diffrn_reflns_theta_min         2.272
_diffrn_source                   'Micro Focus Rotating Anode'
_diffrn_source_type              'Bruker TXS'
_diffrn_standards_number         0
_exptl_absorpt_coefficient_mu    0.193
_exptl_absorpt_correction_T_max  0.7461
_exptl_absorpt_correction_T_min  0.7146
_exptl_absorpt_correction_type   multi-scan
_exptl_absorpt_process_details
;
SADABS-2014/4 (Bruker,2014/4) was used for absorption correction.
wR2(int) was 0.1135 before and 0.0334 after correction.
The Ratio of minimum to maximum transmission is 0.9578.
The \l/2 correction factor is 0.00150.
;
_exptl_crystal_colour            colourless
_exptl_crystal_colour_primary    colourless
_exptl_crystal_density_diffrn    1.398
_exptl_crystal_description       needle
_exptl_crystal_F_000             238
_exptl_crystal_size_max          0.35
_exptl_crystal_size_mid          0.15
_exptl_crystal_size_min          0.15
_refine_diff_density_max         0.302
_refine_diff_density_min         -0.206
_refine_diff_density_rms         0.039
_refine_ls_abs_structure_details
;
 Flack x determined using 2281 quotients [(I+)-(I-)]/[(I+)+(I-)]
 (Parsons, Flack and Wagner, Acta Cryst. B69 (2013) 249-259).
;
_refine_ls_abs_structure_Flack   0.042(16)
_refine_ls_extinction_method     none
_refine_ls_goodness_of_fit_ref   1.037
_refine_ls_hydrogen_treatment    mixed
_refine_ls_matrix_type           full
_refine_ls_number_parameters     296
_refine_ls_number_reflns         5365
_refine_ls_number_restraints     4
_refine_ls_restrained_S_all      1.038
_refine_ls_R_factor_all          0.0326
_refine_ls_R_factor_gt           0.0299
_refine_ls_shift/su_max          0.000
_refine_ls_shift/su_mean         0.000
_refine_ls_structure_factor_coef Fsqd
_refine_ls_weighting_details
'w=1/[\s^2^(Fo^2^)+(0.0413P)^2^+0.0637P] where P=(Fo^2^+2Fc^2^)/3'
_refine_ls_weighting_scheme      calc
_refine_ls_wR_factor_gt          0.0704
_refine_ls_wR_factor_ref         0.0719
_reflns_Friedel_coverage         0.898
_reflns_Friedel_fraction_full    0.971
_reflns_Friedel_fraction_max     0.871
_reflns_number_gt                5101
_reflns_number_total             5365
_reflns_threshold_expression     'I > 2\s(I)'
_cod_data_source_file            ja6b04660_si_002.cif
_cod_data_source_block           yu44_0m
_cod_depositor_comments
;
The following automatic conversions were performed:

data item '_diffrn_radiation_probe' value 'X-ray' was changed to
'x-ray' in accordance with the
/home/saulius/struct/COD-crude-data/automatic-downloads/DataCite-retrospective/ACS/depositions/lib/dictionaries/cif_core.dic
dictionary named 'cif_core.dic' version 2.4.2 last updated on
2011-04-26.

Automatic conversion script
Id: cif_fix_values 6909 2019-04-08 15:41:33Z antanas 
;
_cod_database_code               4130569
_shelx_space_group_comment
;
The symmetry employed for this shelxl refinement is uniquely defined
by the following loop, which should always be used as a source of
symmetry information in preference to the above space-group names.
They are only intended as comments.
;
_olex2_refinement_description
;
1. Fixed Uiso
 At 1.2 times of:
  All C(H) groups
 At 1.5 times of:
  All C(H,H,H) groups
2. Restrained distances
 N2-H2
 0.95 with sigma of 0.02
3.a Ternary CH refined with riding coordinates:
 C7(H7)
3.b Aromatic/amide H refined with riding coordinates:
 C2(H2A), C3(H3), C5(H5), C6(H6), C11(H11), C12(H12), C13(H13), C17(H17),
 C18(H18), C20(H20), C21(H21)
3.c Idealised Me refined as rotating group:
 C8(H8A,H8B,H8C), C15(H15A,H15B,H15C), C23(H23A,H23B,H23C)
;
_shelx_res_file
;
    yu44_0m.res created by SHELXL-2014/7

TITL Yu44_0m in P1
CELL 0.71073 6.2719 9.7785 10.0673 115.426 93.829 100.896
ZERR 1 0.0002 0.0003 0.0004 0.001 0.001 0.001
LATT -1
SFAC C H N O S
UNIT 23 22 2 6 1
EQIV $1 +X,-1+Y,+Z
DFIX 0.95 N2 H2

L.S. 10
PLAN  -10 0 0
TEMP -173.15
HTAB N2 O6_$1
HTAB
BOND $H
CONF
MORE -1
fmap 2
acta
REM <olex2.extras>
REM <HklSrc "%.\\Yu44_0m.hkl">
REM </olex2.extras>

WGHT    0.041300    0.063700
FVAR       0.38574
S1    5    0.754311    0.586000    0.632310    11.00000    0.01612    0.01908 =
         0.01970    0.01061    0.00005    0.00106
O1    4    0.110550    1.059647    0.949833    11.00000    0.09124    0.06189 =
         0.05331    0.00671   -0.00286    0.06087
O2    4    0.038826    0.904693    1.051311    11.00000    0.04937    0.05186 =
         0.07295    0.00485    0.02651    0.02259
O3    4    0.882494    0.677161    0.573068    11.00000    0.02507    0.03218 =
         0.03415    0.02107    0.00336   -0.00442
O4    4    0.859676    0.532370    0.725425    11.00000    0.01973    0.02972 =
         0.02444    0.01493   -0.00023    0.00704
O5    4    0.076117    1.085345    0.611981    11.00000    0.02706    0.01978 =
         0.03458    0.01015    0.01652    0.01152
O6    4    0.395032    1.245293    0.629441    11.00000    0.03539    0.01691 =
         0.02801    0.01076    0.01085    0.00599
N1    3    0.133717    0.947687    0.969203    11.00000    0.04141    0.03750 =
         0.04018   -0.00866   -0.01341    0.02225
N2    3    0.598288    0.431737    0.495320    11.00000    0.01854    0.01627 =
         0.01566    0.00872    0.00416    0.00438
H2    2    0.542473    0.366012    0.526662    11.00000    0.01097
C1    1    0.294384    0.861660    0.888037    11.00000    0.03093    0.02678 =
         0.02415   -0.00369   -0.00928    0.01412
C2    1    0.308372    0.727274    0.897984    11.00000    0.02170    0.02513 =
         0.02676    0.00182   -0.00110    0.00357
AFIX  43
H2A   2    0.223123    0.693286    0.957536    11.00000   -1.20000
AFIX   0
C3    1    0.450766    0.643238    0.818351    11.00000    0.02190    0.01732 =
         0.02351    0.00535   -0.00019    0.00440
AFIX  43
H3    2    0.462142    0.548854    0.820894    11.00000   -1.20000
AFIX   0
C4    1    0.576481    0.697704    0.734977    11.00000    0.02413    0.01466 =
         0.01594    0.00324   -0.00489    0.00413
C5    1    0.561335    0.834864    0.727853    11.00000    0.05186    0.01976 =
         0.02081    0.00892   -0.00218    0.01043
AFIX  43
H5    2    0.648957    0.871278    0.670800    11.00000   -1.20000
AFIX   0
C6    1    0.415608    0.917405    0.805797    11.00000    0.06491    0.02341 =
         0.02377    0.00410   -0.00887    0.02317
AFIX  43
H6    2    0.400437    1.010597    0.802076    11.00000   -1.20000
AFIX   0
C7    1    0.450766    0.452661    0.387263    11.00000    0.01604    0.01827 =
         0.01478    0.00756    0.00205    0.00426
AFIX  13
H7    2    0.426107    0.559933    0.439891    11.00000   -1.20000
AFIX   0
C8    1    0.226580    0.337180    0.348594    11.00000    0.01761    0.02492 =
         0.02506    0.01234    0.00312    0.00203
AFIX 137
H8A   2    0.247479    0.231048    0.312602    11.00000   -1.50000
H8B   2    0.132167    0.343223    0.270679    11.00000   -1.50000
H8C   2    0.156865    0.363491    0.437796    11.00000   -1.50000
AFIX   0
C9    1    0.556701    0.444562    0.252975    11.00000    0.01667    0.01931 =
         0.01367    0.00702    0.00187    0.00543
C10   1    0.649376    0.319558    0.169898    11.00000    0.02099    0.01980 =
         0.01667    0.00802    0.00195    0.00700
C11   1    0.751782    0.320754    0.051726    11.00000    0.03095    0.02593 =
         0.02022    0.00960    0.00864    0.01475
AFIX  43
H11   2    0.812831    0.235910   -0.004791    11.00000   -1.20000
AFIX   0
C12   1    0.766644    0.443367    0.014640    11.00000    0.03742    0.03449 =
         0.02146    0.01675    0.01517    0.01908
AFIX  43
H12   2    0.837688    0.442393   -0.066090    11.00000   -1.20000
AFIX   0
C13   1    0.677648    0.566099    0.095787    11.00000    0.03416    0.02750 =
         0.02177    0.01579    0.01010    0.01601
AFIX  43
H13   2    0.690109    0.651017    0.071933    11.00000   -1.20000
AFIX   0
C14   1    0.568961    0.567299    0.213079    11.00000    0.01934    0.02086 =
         0.01656    0.00859    0.00347    0.00934
C15   1    0.650071    0.183378    0.204480    11.00000    0.02431    0.01758 =
         0.02140    0.00765    0.00442    0.00767
AFIX 137
H15A  2    0.708533    0.105418    0.126677    11.00000   -1.50000
H15B  2    0.499358    0.136206    0.207865    11.00000   -1.50000
H15C  2    0.742771    0.220407    0.301269    11.00000   -1.50000
AFIX   0
C16   1    0.480093    0.706698    0.295863    11.00000    0.02187    0.02021 =
         0.01538    0.01032    0.00473    0.00977
C17   1    0.264280    0.693976    0.326480    11.00000    0.01880    0.01815 =
         0.02019    0.00983    0.00209    0.00433
AFIX  43
H17   2    0.165131    0.594025    0.286104    11.00000   -1.20000
AFIX   0
C18   1    0.193654    0.825241    0.414847    11.00000    0.01759    0.02142 =
         0.02379    0.01378    0.00616    0.00765
AFIX  43
H18   2    0.048497    0.814593    0.437279    11.00000   -1.20000
AFIX   0
C19   1    0.335578    0.972710    0.470716    11.00000    0.02275    0.01923 =
         0.01850    0.01245    0.00685    0.00903
C20   1    0.545073    0.987836    0.432426    11.00000    0.02066    0.01853 =
         0.02656    0.01425    0.00472    0.00498
AFIX  43
H20   2    0.639460    1.088560    0.465708    11.00000   -1.20000
AFIX   0
C21   1    0.616178    0.855823    0.345632    11.00000    0.01957    0.02574 =
         0.02519    0.01611    0.00938    0.00950
AFIX  43
H21   2    0.759171    0.867117    0.319801    11.00000   -1.20000
AFIX   0
C22   1    0.275195    1.115125    0.576833    11.00000    0.02513    0.01787 =
         0.02043    0.01282    0.00663    0.00812
C23   1    0.014397    1.219759    0.722118    11.00000    0.03840    0.02526 =
         0.03432    0.00859    0.01924    0.01694
AFIX 137
H23A  2    0.119618    1.265478    0.815255    11.00000   -1.50000
H23B  2   -0.133640    1.187124    0.740578    11.00000   -1.50000
H23C  2    0.015527    1.297465    0.684914    11.00000   -1.50000
AFIX   0
HKLF 4

REM  Yu44_0m in P1
REM R1 =  0.0299 for    5101 Fo > 4sig(Fo)  and  0.0326 for all    5365 data
REM    296 parameters refined using      4 restraints

END

WGHT      0.0413      0.0637

REM Instructions for potential hydrogen bonds
HTAB N2 O6_$1
EQIV $2 x-1, y+1, z
HTAB C23 O4_$2

REM Highest difference peak  0.302,  deepest hole -0.206,  1-sigma level  0.039
Q1    1   0.6550  0.6410  0.6786  11.00000  0.05    0.30
Q2    1   0.5194  0.4476  0.3260  11.00000  0.05    0.23
Q3    1   0.3148  1.0388  0.5355  11.00000  0.05    0.23
Q4    1   0.2911  0.8993  0.4801  11.00000  0.05    0.22
Q5    1   0.6813  0.5035  0.5608  11.00000  0.05    0.20
Q6    1   0.5416  0.6410  0.2736  11.00000  0.05    0.19
Q7    1   0.8507  0.5789  0.5684  11.00000  0.05    0.18
Q8    1   0.3598  1.1835  0.6383  11.00000  0.05    0.17
Q9    1   0.4382  0.9794  0.4518  11.00000  0.05    0.17
Q10   1   0.2581  0.7692  0.3928  11.00000  0.05    0.17
;
_shelx_res_checksum              52875
_shelx_hkl_file
;
  -1   0   0  169.19    2.91
  -1   0   0  170.85    2.93
  -1   0   0  165.62    2.87
  -1   0   0  168.01    2.89
  -1   0   0  168.74    3.06
  -1   0   0  166.76    2.89
  -1   0   0  170.41    3.05
   1   0   0  163.18    2.90
   1   0   0  159.22    2.90
   1   0   0  167.49    3.15
   1   0   0  164.32    2.83
   1   0   0  166.18    2.92
   1   0   0  164.85    2.90
   1   0   0  163.51    2.87
  -2   0   0   59.11    1.32
  -2   0   0   61.78    1.20
  -2   0   0   61.08    1.36
  -2   0   0   61.34    1.27
  -2   0   0   59.80    1.37
  -2   0   0   60.41    1.20
  -2   0   0   60.66    1.33
   2   0   0   59.48    1.37
   2   0   0   60.05    1.34
   2   0   0   60.67    1.34
   2   0   0   56.40    1.33
   2   0   0   60.73    1.22
   2   0   0   58.83    1.30
  -3   0   0    2.69    0.30
  -3   0   0    2.45    0.21
  -3   0   0    2.31    0.23
  -3   0   0    2.12    0.28
  -3   0   0    2.80    0.27
  -3   0   0    2.17    0.18
  -3   0   0    1.94    0.29
   3   0   0    2.03    0.30
   3   0   0    2.13    0.29
   3   0   0    1.96    0.27
   3   0   0    2.15    0.20
   3   0   0    2.64    0.28
   3   0   0    2.24    0.25
  -4   0   0   18.22    0.59
  -4   0   0   16.81    0.79
  -4   0   0   18.53    0.77
  -4   0   0   18.27    0.70
  -4   0   0   19.49    0.79
  -4   0   0   16.18    0.79
  -4   0   0   17.61    0.64
   4   0   0   17.45    0.65
   4   0   0   17.66    0.79
   4   0   0   18.13    0.84
   4   0   0   20.26    0.85
   4   0   0   18.48    0.77
   4   0   0   20.17    0.84
  -5   0   0    0.18    0.11
  -5   0   0    0.22    0.15
  -5   0   0   -0.01    0.13
  -5   0   0   -0.12    0.14
  -5   0   0    0.43    0.23
  -5   0   0    0.06    0.21
   5   0   0    0.14    0.20
   5   0   0    0.10    0.17
   5   0   0    0.16    0.21
  -6   0   0   15.33    0.85
  -6   0   0   15.26    0.76
  -6   0   0   14.53    0.75
  -6   0   0   15.11    0.94
  -6   0   0   13.71    0.57
   6   0   0   15.14    0.93
   6   0   0   15.55    0.93
   6   0   0   16.12    0.87
  -7   0   0   11.05    0.71
  -7   0   0   12.80    0.96
   7   0   0   10.98    0.90
   7   0   0   11.41    0.91
   7   0   0   10.40    0.78
  -8   0   0    0.77    0.32
  -8   0   0    0.47    0.31
  -8   0   0    0.59    0.46
   8   0   0    0.80    0.38
   8   0   0    0.84    0.46
   8  -1   0    0.88    0.48
   8  -1   0    0.64    0.39
   8  -1   0    0.81    0.40
  -8   1   0    0.60    0.40
  -8   1   0    0.86    0.36
  -8   1   0    0.34    0.26
  -8   1   0    0.59    0.27
   7  -1   0   12.68    0.94
   7  -1   0   12.49    0.89
   7  -1   0   14.28    0.98
  -7   1   0   13.40    0.80
  -7   1   0   14.46    0.97
  -7   1   0   12.49    0.69
   6  -1   0   10.07    0.74
   6  -1   0   10.18    0.74
   6  -1   0    8.48    0.70
  -6   1   0    7.60    0.56
  -6   1   0    8.71    0.55
  -6   1   0    8.41    0.70
  -6   1   0    8.50    0.40
  -6   1   0    9.20    0.63
   5  -1   0    0.72    0.25
   5  -1   0    0.72    0.26
   5  -1   0    0.87    0.29
  -5   1   0    0.46    0.20
  -5   1   0    0.63    0.13
  -5   1   0    0.75    0.22
  -5   1   0    0.82    0.20
  -5   1   0    0.46    0.24
  -5   1   0    0.79    0.23
   4  -1   0   37.68    1.21
   4  -1   0   38.43    1.05
   4  -1   0   39.26    1.25
   4  -1   0   40.46    1.07
   4  -1   0   40.51    1.24
   4  -1   0   40.20    1.24
   4  -1   0   40.30    1.17
  -4   1   0   40.70    0.92
  -4   1   0   39.49    1.15
  -4   1   0   38.15    1.23
  -4   1   0   39.91    1.07
  -4   1   0   38.93    1.08
  -4   1   0   39.62    1.16
  -4   1   0   41.06    1.23
   3  -1   0   83.34    1.89
   3  -1   0   85.94    1.88
   3  -1   0   86.44    1.83
   3  -1   0   86.67    1.92
   3  -1   0   87.17    1.90
   3  -1   0   83.97    1.73
   3  -1   0   85.14    1.71
   3  -1   0   87.81    1.72
  -3   1   0   87.01    1.61
  -3   1   0   82.95    1.90
  -3   1   0   86.06    1.81
  -3   1   0   85.39    1.74
  -3   1   0   86.43    1.88
  -3   1   0   84.80    1.77
   2  -1   0  110.32    2.02
   2  -1   0  114.05    1.97
   2  -1   0  108.48    2.05
   2  -1   0  108.39    2.11
   2  -1   0  106.68    2.09
   2  -1   0  112.22    2.10
   2  -1   0  112.03    2.13
  -2   1   0  111.67    2.05
  -2   1   0  111.31    1.92
  -2   1   0  109.17    2.05
  -2   1   0  110.32    2.10
  -2   1   0  100.04    2.05
  -2   1   0  109.63    2.00
  -2   1   0  108.40    2.12
   1  -1   0  298.21    5.20
   1  -1   0  298.24    5.09
   1  -1   0  295.39    5.57
   1  -1   0  296.28    5.54
   1  -1   0  301.13    5.15
   1  -1   0  298.51    5.10
   1  -1   0  305.64    5.01
   1  -1   0  296.09    5.11
  -1   1   0  300.30    5.05
  -1   1   0  302.15    5.51
  -1   1   0  300.39    5.19
  -1   1   0  300.51    5.01
  -1   1   0  304.24    5.50
  -1   1   0  297.52    5.37
  -1   1   0  307.11    5.20
  -1   1   0  297.71    5.12
   0  -1   0   74.10    1.26
   0  -1   0   75.15    1.27
   0  -1   0   73.74    1.25
   0  -1   0   75.28    1.27
   0  -1   0   73.89    1.24
   0  -1   0   72.98    1.33
   0  -1   0   75.64    1.34
   0  -1   0   74.95    1.26
   0  -1   0   75.97    1.33
   0   1   0   73.79    1.26
   0   1   0   63.08    1.30
   0   1   0   64.22    1.24
   0   1   0   72.77    1.26
   0   1   0   75.23    1.33
  -1  -1   0  594.97   10.83
  -1  -1   0  604.60   10.95
  -1  -1   0  605.39   10.49
  -1  -1   0  614.13   10.79
  -1  -1   0  615.14   11.02
  -1  -1   0  604.27   10.48
  -1  -1   0  607.80   11.19
   1   1   0  615.54   10.83
   1   1   0  587.79   10.85
   1   1   0  602.08   10.56
   1   1   0  593.47   10.96
   1   1   0  588.61   10.87
   1   1   0  595.11   10.70
  -2  -1   0   27.37    0.77
  -2  -1   0   25.96    0.68
  -2  -1   0   27.70    0.84
  -2  -1   0   26.69    0.62
  -2  -1   0   26.33    0.81
  -2  -1   0   27.10    0.82
  -2  -1   0   27.48    0.63
  -2  -1   0   27.60    0.81
   2   1   0   27.53    0.81
   2   1   0   27.84    0.85
   2   1   0   27.44    0.82
   2   1   0   27.73    0.70
   2   1   0   26.67    0.78
   2   1   0   28.07    0.81
  -3  -1   0   16.40    0.73
  -3  -1   0   17.36    0.44
  -3  -1   0   17.60    0.54
  -3  -1   0   17.60    0.70
  -3  -1   0   17.24    0.65
  -3  -1   0   16.52    0.59
  -3  -1   0   19.03    0.76
  -3  -1   0   16.10    0.69
   3   1   0   16.88    0.67
   3   1   0   17.62    0.73
   3   1   0   20.32    0.77
   3   1   0   17.22    0.71
   3   1   0   16.90    0.75
   3   1   0   16.16    0.58
  -4  -1   0    2.00    0.26
  -4  -1   0    2.30    0.38
  -4  -1   0    2.38    0.39
  -4  -1   0    2.14    0.26
  -4  -1   0    2.67    0.38
  -4  -1   0    2.14    0.30
  -4  -1   0    2.45    0.37
   4   1   0    2.17    0.33
   4   1   0    2.60    0.39
   4   1   0    2.14    0.29
   4   1   0    2.11    0.36
   4   1   0    1.33    0.30
   4   1   0    2.24    0.37
  -5  -1   0   12.73    0.80
  -5  -1   0   12.11    0.80
  -5  -1   0   13.17    0.69
  -5  -1   0   12.89    0.60
  -5  -1   0   12.68    0.58
  -5  -1   0   13.67    0.76
   5   1   0   13.00    0.67
   5   1   0   14.51    0.85
   5   1   0   12.73    0.79
   5   1   0   12.30    0.77
  -6  -1   0    5.66    0.51
  -6  -1   0    5.40    0.46
  -6  -1   0    5.96    0.66
  -6  -1   0    4.82    0.62
   6   1   0    6.36    0.64
   6   1   0    4.72    0.49
   6   1   0    5.47    0.70
  -7  -1   0   13.15    0.81
  -7  -1   0   10.76    0.91
  -7  -1   0   13.12    0.77
   7   1   0   12.67    0.82
   7   1   0   13.50    0.99
   7   1   0   13.51    1.00
  -8  -1   0    3.31    0.53
  -8  -1   0    3.47    0.73
   8  -2   0    2.70    0.59
   8  -2   0    3.32    0.63
   8  -2   0    3.41    0.66
  -8   2   0    3.23    0.43
  -8   2   0    2.92    0.50
  -8   2   0    4.18    0.62
  -8   2   0    3.04    0.63
   7  -2   0    1.55    0.43
   7  -2   0    1.71    0.44
   7  -2   0    1.53    0.43
  -7   2   0    1.62    0.34
  -7   2   0    1.85    0.31
  -7   2   0    1.60    0.39
  -7   2   0    1.60    0.44
   6  -2   0    5.64    0.58
   6  -2   0    6.34    0.59
   6  -2   0    6.04    0.60
  -6   2   0    5.69    0.42
  -6   2   0    5.10    0.48
  -6   2   0    5.67    0.46
  -6   2   0    6.60    0.61
  -6   2   0    5.69    0.48
  -6   2   0    5.27    0.32
   5  -2   0    1.05    0.27
   5  -2   0    1.06    0.29
   5  -2   0    1.26    0.31
   5  -2   0    0.96    0.21
  -5   2   0    1.28    0.30
  -5   2   0    1.64    0.28
  -5   2   0    1.21    0.23
  -5   2   0    1.00    0.20
  -5   2   0    1.53    0.24
  -5   2   0    1.40    0.26
  -5   2   0    1.32    0.18
   4  -2   0    5.50    0.41
   4  -2   0    5.31    0.33
   4  -2   0    5.64    0.34
   4  -2   0    5.25    0.44
   4  -2   0    5.42    0.20
   4  -2   0    5.65    0.33
   4  -2   0    5.15    0.41
   4  -2   0    6.01    0.43
   4  -2   0    5.41    0.37
  -4   2   0    5.42    0.37
  -4   2   0    5.71    0.37
  -4   2   0    6.14    0.35
  -4   2   0    6.10    0.27
  -4   2   0    5.49    0.30
  -4   2   0    4.87    0.37
  -4   2   0    5.04    0.40
  -4   2   0    5.17    0.30
   3  -2   0   33.82    0.88
   3  -2   0   33.75    0.75
   3  -2   0   34.31    0.87
   3  -2   0   33.55    0.92
   3  -2   0   32.46    0.93
   3  -2   0   34.03    0.92
   3  -2   0   32.71    0.78
   3  -2   0   31.70    0.92
   3  -2   0   33.77    1.03
  -3   2   0   33.55    0.75
  -3   2   0   33.31    0.89
  -3   2   0   32.47    0.86
  -3   2   0   34.23    0.91
  -3   2   0   33.57    0.80
  -3   2   0   32.31    0.75
  -3   2   0   32.58    0.81
  -3   2   0   31.16    0.92
   2  -2   0   29.68    0.67
   2  -2   0   30.58    0.74
   2  -2   0   30.99    0.88
   2  -2   0   30.91    0.66
   2  -2   0   30.00    0.70
   2  -2   0   30.89    0.74
   2  -2   0   30.38    0.73
   2  -2   0   30.85    0.69
   2  -2   0   31.33    0.75
  -2   2   0   31.17    0.73
  -2   2   0   31.16    0.69
  -2   2   0   30.69    0.77
  -2   2   0   31.34    0.75
  -2   2   0   30.35    0.69
  -2   2   0   30.98    0.69
  -2   2   0   30.37    0.59
   1  -2   0   86.80    1.48
   1  -2   0   83.55    1.69
   1  -2   0   86.97    1.61
   1  -2   0   88.37    1.60
   1  -2   0   85.56    1.46
   1  -2   0   86.30    1.47
   1  -2   0   85.84    1.59
   1  -2   0   87.04    1.67
  -1   2   0   84.28    1.72
  -1   2   0   88.47    1.61
  -1   2   0   84.95    1.47
  -1   2   0   84.71    1.49
  -1   2   0   86.92    1.62
   0  -2   0   12.13    0.32
   0  -2   0   11.85    0.33
   0  -2   0   11.93    0.34
   0  -2   0   12.51    0.41
   0  -2   0   12.20    0.33
   0  -2   0   12.24    0.34
   0  -2   0   12.97    0.32
   0  -2   0   12.00    0.30
   0  -2   0   12.76    0.43
   0   2   0   11.98    0.27
   0   2   0   11.89    0.35
   0   2   0   12.07    0.32
   0   2   0   12.43    0.35
   0   2   0   11.57    0.30
   0   2   0   11.85    0.29
   0   2   0   11.59    0.40
   0   2   0   12.67    0.33
  -1  -2   0   30.71    0.70
  -1  -2   0   30.36    0.81
  -1  -2   0   30.78    0.81
  -1  -2   0   31.22    0.79
  -1  -2   0   29.71    0.76
  -1  -2   0   31.03    0.78
  -1  -2   0   30.71    0.79
   1   2   0   31.25    0.80
   1   2   0   31.52    0.77
   1   2   0   30.73    0.78
   1   2   0   30.79    0.83
   1   2   0   30.90    0.71
   1   2   0   30.43    0.81
   1   2   0   30.03    0.76
  -2  -2   0   29.41    0.90
  -2  -2   0   31.59    0.95
  -2  -2   0   30.24    0.94
  -2  -2   0   30.72    0.93
  -2  -2   0   29.67    0.79
  -2  -2   0   30.28    0.87
  -2  -2   0   30.42    0.78
   2   2   0   30.07    0.68
   2   2   0   29.55    0.87
   2   2   0   31.23    0.80
   2   2   0   30.95    0.93
   2   2   0   30.63    0.89
   2   2   0   30.94    0.91
   2   2   0   32.12    0.98
  -3  -2   0   41.46    1.06
  -3  -2   0   42.05    1.27
  -3  -2   0   39.14    1.25
  -3  -2   0   42.64    1.25
  -3  -2   0   41.92    1.19
  -3  -2   0   42.26    0.96
  -3  -2   0   40.33    0.99
  -3  -2   0   43.47    1.31
   3   2   0   41.85    1.32
   3   2   0   42.92    1.28
   3   2   0   39.57    1.06
   3   2   0   42.23    1.25
   3   2   0   41.14    1.22
   3   2   0   41.79    1.00
   3   2   0   41.81    1.23
  -4  -2   0   16.34    0.51
  -4  -2   0   16.56    0.79
  -4  -2   0   14.82    0.83
  -4  -2   0   15.24    0.72
  -4  -2   0   15.56    0.68
  -4  -2   0   15.58    0.82
  -4  -2   0   15.49    0.57
   4   2   0   15.78    0.79
   4   2   0   15.86    0.62
   4   2   0   15.06    0.78
   4   2   0   16.16    0.84
   4   2   0   16.92    0.90
  -5  -2   0   32.86    1.35
  -5  -2   0   30.49    1.14
  -5  -2   0   28.83    1.27
  -5  -2   0   29.84    0.94
  -5  -2   0   29.86    1.22
  -5  -2   0   28.40    1.02
   5   2   0   29.89    1.29
   5   2   0   29.10    1.00
   5   2   0   31.19    1.26
   5   2   0   30.51    1.24
  -6  -2   0    3.03    0.40
  -6  -2   0    2.33    0.50
  -6  -2   0    2.38    0.55
  -6  -2   0    2.11    0.39
   6   2   0    2.20    0.52
   6   2   0    2.91    0.54
   6   2   0    2.12    0.37
  -7  -2   0    1.05    0.44
  -7  -2   0    1.04    0.38
  -7  -2   0    1.10    0.31
   7   2   0    0.07    0.31
   8  -3   0    3.12    0.65
   8  -3   0    4.01    0.67
   8  -3   0    2.80    0.60
  -8   3   0    3.04    0.55
  -8   3   0    2.91    0.48
  -8   3   0    2.52    0.55
   7  -3   0    2.96    0.54
   7  -3   0    3.23    0.56
  -7   3   0    2.41    0.30
  -7   3   0    2.64    0.51
  -7   3   0    2.42    0.39
  -7   3   0    2.71    0.47
   6  -3   0    4.63    0.49
   6  -3   0    5.97    0.56
   6  -3   0    5.44    0.44
   6  -3   0    6.32    0.58
  -6   3   0    5.78    0.52
  -6   3   0    4.34    0.31
  -6   3   0    5.73    0.52
  -6   3   0    5.07    0.52
  -6   3   0    5.25    0.34
  -6   3   0    5.49    0.44
  -6   3   0    5.84    0.40
   5  -3   0    1.74    0.32
   5  -3   0    1.49    0.15
   5  -3   0    1.60    0.32
   5  -3   0    2.19    0.36
   5  -3   0    1.66    0.30
   5  -3   0    1.98    0.27
  -5   3   0    1.74    0.21
  -5   3   0    1.75    0.27
  -5   3   0    1.68    0.19
  -5   3   0    1.96    0.34
  -5   3   0    1.12    0.27
  -5   3   0    1.57    0.22
  -5   3   0    1.16    0.22
   4  -3   0   11.60    0.56
   4  -3   0   11.90    0.46
   4  -3   0   11.84    0.44
   4  -3   0   12.90    0.59
   4  -3   0   11.48    0.51
   4  -3   0   11.48    0.56
   4  -3   0   11.62    0.53
   4  -3   0   12.17    0.68
  -4   3   0   12.14    0.44
  -4   3   0   12.35    0.40
  -4   3   0   13.16    0.52
  -4   3   0   12.06    0.57
  -4   3   0   12.88    0.59
  -4   3   0   12.46    0.50
  -4   3   0   12.64    0.38
  -4   3   0   12.33    0.51
   3  -3   0   86.97    1.83
   3  -3   0   88.26    1.76
   3  -3   0   88.63    1.80
   3  -3   0   89.31    1.83
   3  -3   0   86.97    1.78
   3  -3   0   88.83    1.80
   3  -3   0   86.53    1.80
   3  -3   0   87.93    2.06
   3  -3   0   86.63    1.68
  -3   3   0   87.02    1.81
  -3   3   0   88.49    1.70
  -3   3   0   88.97    1.74
  -3   3   0   89.05    1.70
  -3   3   0   87.60    1.88
  -3   3   0   87.40    1.82
   2  -3   0   25.65    0.69
   2  -3   0   25.87    0.73
   2  -3   0   26.20    0.67
   2  -3   0   25.40    0.81
   2  -3   0   26.28    0.60
   2  -3   0   25.65    0.53
   2  -3   0   25.70    0.55
   2  -3   0   26.13    0.58
   2  -3   0   25.73    0.64
   2  -3   0   26.30    0.60
  -2   3   0   25.76    0.69
  -2   3   0   25.45    0.50
  -2   3   0   25.53    0.48
  -2   3   0   25.16    0.60
  -2   3   0   24.29    0.69
  -2   3   0   25.77    0.72
  -2   3   0   24.42    0.84
   1  -3   0   54.29    0.95
   1  -3   0   53.33    1.17
   1  -3   0   54.99    1.25
   1  -3   0   54.20    0.95
   1  -3   0   54.83    1.11
   1  -3   0   54.22    1.22
   1  -3   0   53.04    1.23
   1  -3   0   54.43    1.18
   1  -3   0   55.51    0.96
  -1   3   0   53.91    0.97
  -1   3   0   52.53    1.25
  -1   3   0   52.94    0.96
  -1   3   0   54.42    1.23
  -1   3   0   53.37    1.13
   0  -3   0   43.93    0.93
   0  -3   0   44.87    0.90
   0  -3   0   44.51    0.93
   0  -3   0   43.55    1.09
   0  -3   0   42.20    0.92
   0  -3   0   43.32    0.91
   0  -3   0   44.68    0.88
   0  -3   0   44.67    0.94
   0  -3   0   43.86    0.92
   0  -3   0   42.20    1.07
   0   3   0   43.57    0.93
   0   3   0   43.97    0.84
   0   3   0   43.20    0.81
   0   3   0   43.92    0.98
   0   3   0   43.48    0.96
   0   3   0   44.27    0.87
   0   3   0   43.95    1.08
   0   3   0   43.56    0.92
  -1  -3   0   37.35    0.86
  -1  -3   0   37.36    0.97
  -1  -3   0   37.65    0.98
  -1  -3   0   36.52    0.99
  -1  -3   0   37.67    0.96
  -1  -3   0   37.83    0.94
  -1  -3   0   35.59    0.95
   1   3   0   35.82    0.88
   1   3   0   37.70    0.88
   1   3   0   38.09    0.97
   1   3   0   36.26    1.02
   1   3   0   38.10    0.92
  -2  -3   0   10.95    0.56
  -2  -3   0   11.73    0.53
  -2  -3   0   12.45    0.60
  -2  -3   0   11.74    0.57
  -2  -3   0   11.10    0.50
  -2  -3   0   11.04    0.54
  -2  -3   0   11.22    0.44
   2   3   0   12.42    0.61
   2   3   0   13.28    0.56
   2   3   0   12.37    0.47
   2   3   0   12.64    0.59
   2   3   0   12.18    0.55
   2   3   0   12.79    0.55
  -3  -3   0   18.92    0.77
  -3  -3   0   19.65    0.86
  -3  -3   0   17.92    0.65
  -3  -3   0   18.06    0.84
  -3  -3   0   19.02    0.80
  -3  -3   0   18.29    0.67
  -3  -3   0   19.90    0.55
  -3  -3   0   17.62    0.81
   3   3   0   17.04    0.75
   3   3   0   18.82    0.88
   3   3   0   17.98    0.52
   3   3   0   18.67    0.84
   3   3   0   17.73    0.66
   3   3   0   19.82    0.80
   3   3   0   18.40    0.79
  -4  -3   0    2.90    0.40
  -4  -3   0    3.32    0.48
  -4  -3   0    3.63    0.52
  -4  -3   0    2.80    0.25
  -4  -3   0    2.62    0.43
  -4  -3   0    2.76    0.38
  -4  -3   0    2.84    0.28
   4   3   0    3.09    0.52
   4   3   0    3.76    0.50
   4   3   0    2.53    0.44
   4   3   0    3.04    0.26
   4   3   0    3.77    0.48
  -5  -3   0   19.13    1.04
  -5  -3   0   16.99    0.68
  -5  -3   0   18.54    0.91
  -5  -3   0   18.14    0.97
  -5  -3   0   17.15    1.02
   5   3   0   18.98    0.72
   5   3   0   16.89    0.96
   5   3   0   17.49    1.02
   5   3   0   19.90    1.00
  -6  -3   0    0.55    0.22
  -6  -3   0    0.63    0.33
  -6  -3   0    0.44    0.25
   6   3   0    0.67    0.33
   6   3   0    0.72    0.36
  -7  -3   0    0.01    0.38
  -7  -3   0    0.10    0.31
   8  -4   0    1.70    0.55
   8  -4   0    2.09    0.51
   8  -4   0    2.32    0.54
  -8   4   0    1.42    0.39
  -8   4   0    1.09    0.37
   7  -4   0    0.22    0.26
   7  -4   0    1.04    0.38
   7  -4   0    0.48    0.23
  -7   4   0    0.27    0.23
  -7   4   0    0.21    0.27
  -7   4   0    0.58    0.29
   6  -4   0   22.44    1.01
   6  -4   0   22.32    1.01
   6  -4   0   23.50    0.87
   6  -4   0   22.89    1.04
  -6   4   0   22.16    0.77
  -6   4   0   23.19    0.58
  -6   4   0   25.02    1.04
  -6   4   0   22.78    0.99
  -6   4   0   22.40    0.90
   5  -4   0    3.47    0.37
   5  -4   0    3.45    0.29
   5  -4   0    3.61    0.30
   5  -4   0    3.61    0.36
   5  -4   0    4.12    0.41
   5  -4   0    3.62    0.43
  -5   4   0    3.12    0.26
  -5   4   0    3.48    0.35
  -5   4   0    3.41    0.29
  -5   4   0    3.55    0.38
  -5   4   0    3.85    0.46
   4  -4   0    8.33    0.43
   4  -4   0    8.59    0.38
   4  -4   0    8.27    0.45
   4  -4   0   10.19    0.65
   4  -4   0    9.58    0.49
   4  -4   0    8.73    0.45
   4  -4   0    8.69    0.45
   4  -4   0    9.30    0.55
  -4   4   0   10.03    0.38
  -4   4   0    9.58    0.47
  -4   4   0    8.95    0.42
  -4   4   0    8.77    0.47
  -4   4   0    8.22    0.49
   3  -4   0    5.28    0.26
   3  -4   0    5.53    0.42
   3  -4   0    5.25    0.27
   3  -4   0    4.67    0.25
   3  -4   0    4.85    0.31
   3  -4   0    4.70    0.28
   3  -4   0    4.91    0.28
   3  -4   0    5.18    0.35
   3  -4   0    4.74    0.25
   3  -4   0    4.51    0.26
  -3   4   0    4.77    0.16
  -3   4   0    4.86    0.34
  -3   4   0    5.08    0.34
  -3   4   0    4.74    0.27
  -3   4   0    4.77    0.30
  -3   4   0    4.78    0.18
   2  -4   0   85.68    1.48
   2  -4   0   89.75    1.92
   2  -4   0   86.97    1.77
   2  -4   0   83.92    1.91
   2  -4   0   85.24    1.75
   2  -4   0   81.67    1.73
   2  -4   0   84.83    1.90
   2  -4   0   84.64    1.45
   2  -4   0   86.79    1.54
  -2   4   0   84.93    1.79
  -2   4   0   84.92    2.00
   1  -4   0   31.88    0.65
   1  -4   0   32.56    0.64
   1  -4   0   31.92    0.61
   1  -4   0   32.32    0.78
   1  -4   0   31.26    0.88
   1  -4   0   30.85    0.86
   1  -4   0   31.80    0.63
   1  -4   0   32.00    0.76
   1  -4   0   30.87    0.64
   1  -4   0   30.16    0.95
   1  -4   0   33.64    0.96
  -1   4   0   29.27    0.91
  -1   4   0   31.21    0.67
  -1   4   0   30.84    0.92
   0  -4   0   13.49    0.43
   0  -4   0   13.44    0.43
   0  -4   0   12.36    0.42
   0  -4   0   13.26    0.40
   0  -4   0   13.88    0.47
   0  -4   0   12.86    0.58
   0  -4   0   13.11    0.44
   0  -4   0   13.01    0.57
   0  -4   0   13.32    0.44
   0   4   0   13.76    0.32
   0   4   0   13.47    0.44
   0   4   0   12.41    0.49
   0   4   0   12.93    0.38
   0   4   0   13.06    0.57
   0   4   0   13.22    0.44
   0   4   0   13.25    0.33
   0   4   0   14.27    0.49
  -1  -4   0   40.47    1.12
  -1  -4   0   41.25    1.09
  -1  -4   0   40.72    1.17
  -1  -4   0   42.79    1.10
  -1  -4   0   40.91    0.98
  -1  -4   0   40.93    1.06
  -1  -4   0   41.63    1.09
   1   4   0   42.13    0.98
   1   4   0   42.38    1.10
   1   4   0   40.40    1.02
   1   4   0   39.81    1.18
   1   4   0   41.97    0.97
   1   4   0   41.87    1.15
   1   4   0   42.45    1.01
   1   4   0   41.83    1.02
  -2  -4   0   91.16    2.12
  -2  -4   0   92.25    2.09
  -2  -4   0   89.71    2.10
  -2  -4   0   89.62    2.16
  -2  -4   0   87.00    2.06
  -2  -4   0   91.22    2.04
  -2  -4   0   92.16    1.88
   2   4   0   92.83    2.13
   2   4   0   92.04    1.94
   2   4   0   92.29    2.18
   2   4   0   88.06    1.97
   2   4   0   90.00    2.03
   2   4   0   89.32    2.18
   2   4   0   88.30    2.03
  -3  -4   0   10.04    0.54
  -3  -4   0    8.76    0.54
  -3  -4   0    8.59    0.46
  -3  -4   0    9.56    0.64
  -3  -4   0    9.76    0.60
  -3  -4   0    8.79    0.60
   3   4   0    8.00    0.54
   3   4   0    8.93    0.56
   3   4   0    9.06    0.60
   3   4   0    8.83    0.64
   3   4   0    8.59    0.48
   3   4   0    9.17    0.61
   3   4   0    8.46    0.53
  -4  -4   0    8.60    0.64
  -4  -4   0    6.65    0.46
  -4  -4   0    5.90    0.44
  -4  -4   0    7.19    0.37
  -4  -4   0    7.04    0.61
  -4  -4   0    6.72    0.63
  -4  -4   0    7.21    0.55
   4   4   0    7.61    0.60
   4   4   0    6.48    0.55
   4   4   0    6.91    0.29
   4   4   0    6.87    0.66
  -5  -4   0    2.00    0.39
  -5  -4   0    1.55    0.44
  -5  -4   0    1.82    0.27
  -5  -4   0    2.01    0.42
   5   4   0    1.16    0.36
   5   4   0    1.71    0.39
   5   4   0    1.63    0.21
  -6  -4   0    1.86    0.65
  -6  -4   0    1.41    0.33
  -6  -4   0    0.82    0.29
   6   4   0    1.08    0.40
   8  -5   0    1.82    0.50
  -8   5   0    0.99    0.36
   7  -5   0    0.03    0.27
   7  -5   0    0.59    0.30
   7  -5   0   -0.08    0.16
  -7   5   0    0.12    0.26
  -7   5   0    0.34    0.27
  -7   5   0    0.92    0.28
   6  -5   0    7.50    0.48
   6  -5   0    7.31    0.58
   6  -5   0    6.27    0.55
   6  -5   0    7.82    0.57
  -6   5   0    8.31    0.58
  -6   5   0    7.64    0.55
  -6   5   0    8.84    0.65
  -6   5   0    7.90    0.57
   5  -5   0   64.89    1.67
   5  -5   0   63.05    1.65
   5  -5   0   65.24    1.63
   5  -5   0   67.42    1.65
   5  -5   0   63.19    1.60
   5  -5   0   64.72    1.50
  -5   5   0   64.52    1.78
  -5   5   0   64.96    1.68
  -5   5   0   63.63    1.33
  -5   5   0   61.32    1.56
  -5   5   0   63.06    1.58
   4  -5   0    4.52    0.30
   4  -5   0    4.04    0.30
   4  -5   0    4.77    0.32
   4  -5   0    4.48    0.31
   4  -5   0    4.57    0.33
   4  -5   0    4.68    0.39
   4  -5   0    4.62    0.30
  -4   5   0    4.78    0.32
  -4   5   0    5.27    0.40
  -4   5   0    4.64    0.16
  -4   5   0    4.61    0.40
   3  -5   0    4.28    0.28
   3  -5   0    4.37    0.30
   3  -5   0    4.39    0.31
   3  -5   0    4.18    0.22
   3  -5   0    4.05    0.20
   3  -5   0    4.12    0.38
   3  -5   0    4.16    0.24
   3  -5   0    3.95    0.22
   3  -5   0    4.06    0.36
   3  -5   0    4.16    0.37
  -3   5   0    4.38    0.19
  -3   5   0    4.67    0.35
  -3   5   0    3.96    0.34
   2  -5   0   14.66    0.57
   2  -5   0   14.26    0.36
   2  -5   0   15.73    0.55
   2  -5   0   14.36    0.63
   2  -5   0   14.97    0.59
   2  -5   0   14.58    0.35
   2  -5   0   14.84    0.34
   2  -5   0   15.53    0.68
   2  -5   0   15.04    0.67
  -2   5   0   14.65    0.71
  -2   5   0   13.61    0.55
   1  -5   0   14.02    0.41
   1  -5   0   13.60    0.38
   1  -5   0   13.47    0.47
   1  -5   0   13.23    0.64
   1  -5   0   13.71    0.37
   1  -5   0   14.23    0.38
   1  -5   0   13.67    0.47
   1  -5   0   13.44    0.63
   1  -5   0   13.97    0.56
   1  -5   0   13.85    0.38
  -1   5   0   13.81    0.62
  -1   5   0   14.42    0.42
  -1   5   0   13.53    0.62
   0  -5   0   11.34    0.43
   0  -5   0   11.42    0.39
   0  -5   0   11.02    0.46
   0  -5   0   11.62    0.44
   0  -5   0   10.70    0.43
   0  -5   0   11.90    0.44
   0  -5   0   11.26    0.59
   0  -5   0   10.73    0.58
   0  -5   0   11.27    0.43
   0   5   0   11.63    0.44
   0   5   0   11.61    0.59
   0   5   0   11.47    0.51
   0   5   0   11.02    0.48
   0   5   0   10.89    0.42
   0   5   0   11.66    0.37
  -1  -5   0   47.50    1.27
  -1  -5   0   46.98    1.21
  -1  -5   0   46.68    1.13
  -1  -5   0   46.81    1.24
  -1  -5   0   47.77    1.24
  -1  -5   0   46.92    1.40
  -1  -5   0   46.92    1.29
   1   5   0   46.85    1.16
   1   5   0   48.61    1.26
   1   5   0   48.14    1.13
   1   5   0   47.73    1.32
   1   5   0   47.25    1.17
   1   5   0   46.14    1.39
   1   5   0   47.87    1.08
   1   5   0   46.31    1.15
  -2  -5   0   34.04    1.13
  -2  -5   0   32.53    1.14
  -2  -5   0   32.56    0.94
  -2  -5   0   32.24    1.09
  -2  -5   0   35.67    1.17
  -2  -5   0   32.84    1.07
  -2  -5   0   34.50    1.19
   2   5   0   34.06    1.20
   2   5   0   33.10    0.89
   2   5   0   34.03    1.00
   2   5   0   33.32    1.20
   2   5   0   34.15    1.04
   2   5   0   35.37    1.17
   2   5   0   33.99    0.99
  -3  -5   0    2.13    0.43
  -3  -5   0    1.71    0.29
  -3  -5   0    2.08    0.36
  -3  -5   0    1.60    0.32
  -3  -5   0    1.66    0.33
  -3  -5   0    1.60    0.35
   3   5   0    2.01    0.36
   3   5   0    1.69    0.32
   3   5   0    2.00    0.42
   3   5   0    1.88    0.39
   3   5   0    2.21    0.36
  -4  -5   0    4.34    0.40
  -4  -5   0    5.41    0.58
  -4  -5   0    4.93    0.43
  -4  -5   0    4.17    0.58
  -4  -5   0    4.94    0.31
  -4  -5   0    4.67    0.67
  -4  -5   0    5.09    0.50
   4   5   0    4.53    0.48
   4   5   0    5.33    0.57
   4   5   0    4.36    0.48
  -5  -5   0    6.86    0.42
  -5  -5   0    6.23    0.63
  -5  -5   0    7.08    0.63
   5   5   0    6.78    0.70
   5   5   0    8.07    0.69
  -6  -5   0    0.40    0.31
   6   5   0    0.48    0.32
   6   5   0    0.09    0.29
  -8   6   0    1.53    0.38
   7  -6   0    2.51    0.48
   7  -6   0    2.75    0.52
   7  -6   0    1.90    0.40
  -7   6   0    2.07    0.44
  -7   6   0    2.28    0.39
  -7   6   0    2.26    0.40
   6  -6   0   13.13    0.63
   6  -6   0   13.23    0.70
   6  -6   0   12.54    0.70
   6  -6   0   14.11    0.77
  -6   6   0   12.65    0.64
  -6   6   0   15.27    0.87
  -6   6   0   13.51    0.75
   5  -6   0   13.58    0.63
   5  -6   0   12.28    0.55
   5  -6   0   13.30    0.59
   5  -6   0   11.99    0.67
   5  -6   0   12.98    0.62
   5  -6   0   12.85    0.58
  -5   6   0   12.70    0.55
  -5   6   0   13.33    0.70
  -5   6   0   12.43    0.73
   4  -6   0    1.06    0.19
   4  -6   0    1.16    0.27
   4  -6   0    1.03    0.17
   4  -6   0    1.18    0.21
   4  -6   0    1.10    0.17
   4  -6   0    1.07    0.21
   4  -6   0    1.06    0.20
  -4   6   0    0.77    0.23
  -4   6   0    0.78    0.15
  -4   6   0    0.91    0.13
   3  -6   0   96.38    2.10
   3  -6   0  100.70    2.36
   3  -6   0   96.94    1.77
   3  -6   0   99.22    2.14
   3  -6   0   96.52    1.85
   3  -6   0  100.82    1.82
   3  -6   0   97.59    1.79
   3  -6   0   99.00    2.13
  -3   6   0  100.51    2.23
   2  -6   0    2.13    0.30
   2  -6   0    1.94    0.12
   2  -6   0    1.96    0.24
   2  -6   0    2.04    0.35
   2  -6   0    2.12    0.32
   2  -6   0    1.81    0.20
   2  -6   0    2.20    0.31
   2  -6   0    2.22    0.13
   2  -6   0    2.15    0.31
   2  -6   0    1.82    0.14
  -2   6   0    2.30    0.39
   1  -6   0    4.18    0.41
   1  -6   0    4.81    0.23
   1  -6   0    4.80    0.24
   1  -6   0    4.50    0.26
   1  -6   0    4.84    0.29
   1  -6   0    4.47    0.33
   1  -6   0    4.86    0.41
   1  -6   0    4.97    0.24
   1  -6   0    4.71    0.24
   1  -6   0    4.33    0.28
  -1   6   0    4.31    0.26
  -1   6   0    4.35    0.40
  -1   6   0    3.93    0.37
   0  -6   0   12.60    0.44
   0  -6   0   12.75    0.67
   0  -6   0   12.35    0.49
   0  -6   0   11.61    0.47
   0  -6   0   12.68    0.49
   0  -6   0   11.58    0.50
   0  -6   0   12.67    0.71
   0  -6   0   13.72    0.56
   0  -6   0   13.02    0.50
   0   6   0   11.85    0.66
   0   6   0   12.09    0.47
   0   6   0   12.32    0.41
   0   6   0   11.36    0.53
   0   6   0   12.06    0.58
   0   6   0   12.59    0.51
  -1  -6   0    4.11    0.37
  -1  -6   0    3.50    0.32
  -1  -6   0    3.74    0.44
  -1  -6   0    3.42    0.31
  -1  -6   0    3.54    0.22
  -1  -6   0    3.88    0.28
  -1  -6   0    3.81    0.33
   1   6   0    2.98    0.30
   1   6   0    3.78    0.30
   1   6   0    3.66    0.50
   1   6   0    3.40    0.37
   1   6   0    3.83    0.24
   1   6   0    3.36    0.25
   1   6   0    3.81    0.28
  -2  -6   0    0.21    0.15
  -2  -6   0    0.43    0.21
  -2  -6   0    0.63    0.24
  -2  -6   0    0.35    0.17
  -2  -6   0    0.67    0.18
   2   6   0    0.02    0.09
   2   6   0    0.44    0.16
   2   6   0    0.48    0.17
   2   6   0    0.37    0.16
   2   6   0    0.27    0.23
   2   6   0    0.46    0.18
   2   6   0    0.47    0.16
  -3  -6   0   18.28    0.89
  -3  -6   0   17.14    0.90
  -3  -6   0   18.48    0.76
  -3  -6   0   17.00    0.97
  -3  -6   0   17.57    0.85
   3   6   0   18.34    0.67
   3   6   0   17.47    0.83
   3   6   0   17.79    0.98
   3   6   0   18.78    0.81
  -4  -6   0    9.52    0.44
  -4  -6   0    9.03    0.67
  -4  -6   0    8.64    0.57
  -4  -6   0    9.65    0.73
   4   6   0    8.97    0.78
   4   6   0    9.30    0.64
  -5  -6   0    6.92    0.70
  -5  -6   0    5.65    0.59
   5   6   0    5.83    0.61
   5   6   0    5.68    0.69
   7  -7   0   15.09    0.81
  -7   7   0   14.81    0.96
  -7   7   0   15.98    0.72
   6  -7   0   11.37    0.60
   6  -7   0   11.64    0.64
   6  -7   0   11.21    0.60
  -6   7   0   11.58    0.78
  -6   7   0   11.78    0.52
  -6   7   0   12.10    0.53
  -6   7   0   11.34    0.72
   5  -7   0   14.18    0.56
   5  -7   0   15.11    0.65
   5  -7   0   14.43    0.61
   5  -7   0   14.62    0.62
   5  -7   0   16.10    0.65
  -5   7   0   14.96    0.82
   4  -7   0    2.18    0.21
   4  -7   0    2.25    0.29
   4  -7   0    2.26    0.21
   4  -7   0    2.55    0.19
   4  -7   0    2.04    0.34
   4  -7   0    2.19    0.23
  -4   7   0    2.55    0.40
   3  -7   0   46.31    0.95
   3  -7   0   43.32    1.27
   3  -7   0   45.51    1.22
   3  -7   0   47.57    0.98
   3  -7   0   45.72    0.92
   3  -7   0   46.96    0.92
   3  -7   0   48.03    1.34
  -3   7   0   46.14    1.34
  -3   7   0   47.93    1.65
   2  -7   0    6.89    0.40
   2  -7   0    7.13    0.48
   2  -7   0    6.26    0.46
   2  -7   0    6.18    0.24
   2  -7   0    7.16    0.40
   2  -7   0    6.95    0.29
   2  -7   0    6.85    0.26
  -2   7   0    7.82    0.60
   1  -7   0  107.33    1.98
   1  -7   0  103.15    2.15
   1  -7   0  104.25    2.29
   1  -7   0  103.34    2.11
   1  -7   0  105.88    2.05
   1  -7   0  101.91    2.00
   1  -7   0  104.03    2.05
   1  -7   0  103.53    2.12
  -1   7   0  103.19    2.54
  -1   7   0  105.43    2.52
  -1   7   0  109.68    2.10
   0  -7   0   24.84    0.71
   0  -7   0   25.61    0.85
   0  -7   0   25.20    0.80
   0  -7   0   24.85    0.66
   0  -7   0   25.94    0.80
   0  -7   0   24.42    0.58
   0  -7   0   23.64    0.76
   0  -7   0   23.80    0.75
   0  -7   0   24.45    0.86
   0   7   0   24.65    1.06
   0   7   0   23.39    0.85
   0   7   0   24.81    0.94
   0   7   0   24.91    0.65
   0   7   0   24.94    0.80
  -1  -7   0   20.26    0.59
  -1  -7   0   19.90    0.79
  -1  -7   0   20.90    0.81
  -1  -7   0   19.48    0.71
  -1  -7   0   20.28    0.80
  -1  -7   0   20.71    0.90
   1   7   0   20.89    0.82
   1   7   0   20.66    0.62
   1   7   0   20.24    0.89
   1   7   0   20.90    0.58
   1   7   0   20.69    0.77
   1   7   0   21.14    0.71
   1   7   0   20.28    1.00
  -2  -7   0   14.79    0.76
  -2  -7   0   14.57    0.63
  -2  -7   0   15.04    0.85
  -2  -7   0   14.76    0.74
  -2  -7   0   14.39    0.74
   2   7   0   14.18    0.58
   2   7   0   14.21    0.62
   2   7   0   12.98    0.62
   2   7   0   12.32    0.82
   2   7   0   14.46    0.84
   2   7   0   13.45    0.66
  -3  -7   0    5.63    0.52
  -3  -7   0    5.48    0.55
  -3  -7   0    4.43    0.40
   3   7   0    5.39    0.40
   3   7   0    4.98    0.71
   3   7   0    6.08    0.47
  -4  -7   0   23.03    1.12
  -4  -7   0   23.10    1.15
  -4  -7   0   21.59    0.93
   4   7   0   25.50    1.33
   4   7   0   25.13    1.05
  -5  -7   0    3.05    0.87
  -5  -7   0    2.80    0.58
   5   7   0    3.55    0.56
   6  -8   0    6.81    0.42
   6  -8   0    7.86    0.53
   6  -8   0    7.03    0.47
  -6   8   0    8.40    0.70
   5  -8   0    5.76    0.36
   5  -8   0    5.92    0.44
   5  -8   0    5.44    0.30
  -5   8   0    6.33    0.58
   4  -8   0   12.07    0.36
   4  -8   0   12.91    0.43
   4  -8   0   12.30    0.44
   4  -8   0   13.70    0.65
  -4   8   0   11.74    0.69
   3  -8   0    1.35    0.13
   3  -8   0    1.42    0.14
   3  -8   0    1.46    0.24
   3  -8   0    1.31    0.14
   3  -8   0    1.34    0.14
   3  -8   0    1.15    0.26
  -3   8   0    1.36    0.38
   2  -8   0   49.50    1.48
   2  -8   0   47.61    1.06
   2  -8   0   48.63    1.25
   2  -8   0   47.16    1.08
   2  -8   0   47.13    0.99
   2  -8   0   46.10    1.24
  -2   8   0   46.12    1.63
   1  -8   0    4.14    0.44
   1  -8   0    3.78    0.27
   1  -8   0    4.11    0.26
   1  -8   0    3.36    0.29
   1  -8   0    3.16    0.28
   1  -8   0    3.39    0.24
   1  -8   0    3.66    0.29
   1  -8   0    3.32    0.31
  -1   8   0    3.27    0.28
  -1   8   0    3.89    0.46
  -1   8   0    3.12    0.48
   0  -8   0   68.10    1.62
   0  -8   0   71.74    1.80
   0  -8   0   69.83    1.61
   0  -8   0   73.36    1.66
   0  -8   0   69.25    1.67
   0  -8   0   69.33    1.31
   0  -8   0   68.48    1.77
   0  -8   0   70.46    1.51
   0  -8   0   68.44    1.39
   0   8   0   70.12    1.42
   0   8   0   68.46    1.89
   0   8   0   69.77    1.77
   0   8   0   69.58    2.08
  -1  -8   0   21.13    0.85
  -1  -8   0   21.39    0.78
  -1  -8   0   21.23    0.86
  -1  -8   0   22.15    0.98
   1   8   0   20.51    0.95
   1   8   0   22.11    0.91
   1   8   0   22.47    0.91
   1   8   0   19.86    1.06
  -2  -8   0    4.30    0.46
  -2  -8   0    4.34    0.45
  -2  -8   0    4.75    0.39
   2   8   0    5.21    0.34
   2   8   0    4.96    0.58
   2   8   0    4.48    0.42
  -3  -8   0    2.50    0.39
  -3  -8   0    1.99    0.40
  -3  -8   0    2.13    0.43
   3   8   0    1.85    0.32
   3   8   0    2.59    0.55
  -4  -8   0    6.43    0.69
  -4  -8   0    5.86    0.53
  -4  -8   0    6.60    0.65
   4   8   0    6.57    0.59
   4   8   0    6.78    0.81
   6  -9   0   11.10    0.64
   6  -9   0   10.86    0.44
   6  -9   0   11.33    0.50
  -6   9   0   11.82    0.85
   5  -9   0    0.20    0.18
   5  -9   0    0.19    0.10
   5  -9   0    0.25    0.09
  -5   9   0   -0.14    0.18
   4  -9   0    6.33    0.50
   4  -9   0    5.81    0.44
   3  -9   0    6.95    0.28
   3  -9   0    8.30    0.58
   3  -9   0    7.40    0.46
   2  -9   0    1.37    0.21
   2  -9   0    1.16    0.15
   2  -9   0    1.02    0.21
   2  -9   0    1.17    0.18
   2  -9   0    1.53    0.34
  -2   9   0    1.43    0.37
   1  -9   0    2.74    0.35
   1  -9   0    2.35    0.31
   1  -9   0    2.41    0.45
   1  -9   0    2.05    0.22
   1  -9   0    2.55    0.28
   1  -9   0    2.45    0.32
  -1   9   0    2.48    0.48
  -1   9   0    2.39    0.24
  -1   9   0    2.99    0.35
  -1   9   0    2.38    0.44
   0  -9   0    7.30    0.47
   0  -9   0    7.88    0.45
   0  -9   0    8.13    0.47
   0  -9   0    7.44    0.54
   0   9   0    8.29    0.71
   0   9   0    8.09    0.63
   0   9   0    7.21    0.52
  -1  -9   0    1.72    0.31
  -1  -9   0    1.86    0.32
  -1  -9   0    2.37    0.33
   1   9   0    2.02    0.45
   1   9   0    1.77    0.36
  -2  -9   0    3.47    0.38
  -2  -9   0    4.04    0.52
  -2  -9   0    3.33    0.47
   2   9   0    5.81    0.80
  -3  -9   0    4.59    0.47
  -3  -9   0    5.42    0.57
  -3  -9   0    5.54    0.61
   3   9   0    5.37    0.86
   6 -10   0   -0.05    0.19
   5 -10   0    3.30    0.43
   4 -10   0    1.99    0.37
   4 -10   0    2.00    0.43
   3 -10   0    1.16    0.26
   3 -10   0    1.37    0.34
   2 -10   0    2.44    0.41
   2 -10   0    2.53    0.33
   2 -10   0    1.69    0.18
   2 -10   0    2.90    0.48
   2 -10   0    2.72    0.31
  -2  10   0    2.22    0.52
   1 -10   0    6.81    0.44
   1 -10   0    7.38    0.50
   1 -10   0    8.48    0.70
   1 -10   0    7.20    0.39
  -1  10   0    7.64    0.43
  -1  10   0    7.09    0.68
  -1  10   0    7.65    0.37
  -1  10   0    6.77    0.68
   0 -10   0    0.23    0.15
   0 -10   0    0.10    0.15
   0 -10   0   -0.01    0.13
   0  10   0   -0.10    0.23
   0  10   0    0.10    0.18
  -1 -10   0    1.40    0.33
  -1 -10   0    1.84    0.35
  -1 -10   0    1.38    0.28
   1  10   0    1.13    0.40
  -2 -10   0    1.85    0.41
  -2 -10   0    2.03    0.53
   5 -11   0    1.68    0.42
   5 -11   0    1.67    0.35
   4 -11   0    4.36    0.51
   4 -11   0    4.12    0.61
   3 -11   0    2.64    0.47
   2 -11   0   10.53    0.42
   2 -11   0   11.22    0.80
   2 -11   0   10.33    0.52
  -2  11   0    9.95    0.88
   1 -11   0    3.42    0.30
   1 -11   0    3.73    0.59
  -1  11   0    4.34    0.71
  -1  11   0    3.15    0.57
   2 -12   1    1.63    0.22
   2 -12   1    1.17    0.16
   0  11  -1    0.21    0.30
   0 -11   1    0.03    0.12
   0 -11   1    0.16    0.17
  -1  11  -1    3.54    0.56
   1 -11   1    5.56    0.71
   1 -11   1    4.06    0.30
   1 -11   1    4.01    0.38
   2 -11   1    5.66    0.45
   2 -11   1    5.71    0.26
   2 -11   1    6.03    0.34
   2 -11   1    5.43    0.59
   3 -11   1    0.68    0.25
   3 -11   1    0.60    0.27
   3 -11   1    0.23    0.23
   4 -11   1    9.37    0.66
   4 -11   1    9.35    0.75
   5 -11   1    8.33    0.76
   5 -11   1    7.25    0.57
  -3 -10   1    2.54    0.43
  -3 -10   1    2.56    0.50
   2  10  -1    0.58    0.29
  -2 -10   1    0.58    0.26
  -2 -10   1    0.81    0.24
  -2 -10   1    0.63    0.29
   1  10  -1    8.26    0.78
  -1 -10   1    7.59    0.52
  -1 -10   1    7.75    0.56
  -1 -10   1    8.19    0.58
   0  10  -1    6.55    0.47
   0  10  -1    6.64    0.60
   0  10  -1    7.22    0.69
   0 -10   1    6.35    0.46
   0 -10   1    5.88    0.41
   0 -10   1    5.30    0.41
  -1  10  -1    6.00    0.72
  -1  10  -1    5.04    0.58
   1 -10   1    5.81    0.42
   1 -10   1    5.44    0.32
   1 -10   1    5.25    0.41
   2 -10   1    1.19    0.13
   2 -10   1    1.05    0.24
   2 -10   1    1.02    0.31
   2 -10   1    1.28    0.18
   2 -10   1    1.05    0.26
   3 -10   1    4.12    0.55
   3 -10   1    5.48    0.50
   3 -10   1    4.08    0.40
   4 -10   1   11.17    0.66
   4 -10   1   10.89    0.78
   4 -10   1   10.62    0.64
   5 -10   1    2.08    0.36
   5 -10   1    2.05    0.33
   5 -10   1    1.57    0.42
   6 -10   1    8.26    0.83
  -4  -9   1    6.61    0.69
  -4  -9   1    4.92    0.67
  -4  -9   1    5.57    0.55
   3   9  -1    1.30    0.41
  -3  -9   1    1.51    0.36
  -3  -9   1    1.48    0.31
  -3  -9   1    1.72    0.42
   2   9  -1    3.36    0.57
  -2  -9   1    3.02    0.46
  -2  -9   1    4.34    0.47
  -2  -9   1    3.84    0.46
   1   9  -1    7.59    0.55
   1   9  -1    7.99    0.71
  -1  -9   1    7.25    0.48
  -1  -9   1    7.63    0.53
  -1  -9   1    7.69    0.53
   0   9  -1   10.58    0.59
   0   9  -1   11.88    0.71
   0   9  -1    9.86    0.75
   0  -9   1   11.98    0.56
   0  -9   1   11.63    0.53
   0  -9   1   11.23    0.57
   0  -9   1   11.68    0.57
   0  -9   1   10.98    0.62
  -1   9  -1   10.34    0.73
  -1   9  -1    8.86    0.66
   1  -9   1    9.90    0.53
   1  -9   1    9.43    0.48
   1  -9   1   10.25    0.50
   1  -9   1   10.44    0.53
   1  -9   1    9.95    0.49
   1  -9   1    9.99    0.41
   1  -9   1   10.84    0.47
   2  -9   1    8.86    0.51
   2  -9   1    9.78    0.65
   2  -9   1    9.49    0.37
   2  -9   1    9.60    0.58
   2  -9   1    8.92    0.38
   2  -9   1    9.25    0.35
   2  -9   1    8.98    0.29
   3  -9   1    4.02    0.38
   3  -9   1    4.80    0.48
   3  -9   1    4.58    0.43
   4  -9   1    8.60    0.54
   4  -9   1    7.78    0.53
   4  -9   1    7.18    0.63
   5  -9   1    4.61    0.40
   5  -9   1    4.55    0.63
  -6   9  -1    5.51    0.68
   6  -9   1    7.50    0.77
   6  -9   1    6.74    0.36
   6  -9   1    7.33    0.49
  -5  -8   1    2.77    0.57
   4   8  -1   15.14    1.06
   4   8  -1   12.78    0.75
  -4  -8   1   14.19    0.94
  -4  -8   1   12.48    0.85
  -4  -8   1   12.24    0.73
   3   8  -1    2.17    0.51
   3   8  -1    1.73    0.31
  -3  -8   1    1.97    0.40
  -3  -8   1    1.37    0.34
  -3  -8   1    1.90    0.33
   2   8  -1    2.19    0.32
   2   8  -1    2.58    0.29
   2   8  -1    2.12    0.45
  -2  -8   1    1.78    0.31
  -2  -8   1    1.44    0.32
  -2  -8   1    2.05    0.38
   1   8  -1   10.17    0.47
   1   8  -1   10.56    0.58
   1   8  -1   10.03    0.73
   1   8  -1   10.33    0.65
  -1  -8   1   10.61    0.47
  -1  -8   1    9.88    0.53
  -1  -8   1   11.65    0.68
  -1  -8   1   10.13    0.57
  -1  -8   1   11.03    0.59
  -1  -8   1    9.96    0.57
   0   8  -1   34.06    1.17
   0   8  -1   33.73    1.31
   0   8  -1   34.52    0.77
   0   8  -1   34.36    1.06
   0  -8   1   33.61    0.77
   0  -8   1   31.81    1.01
   0  -8   1   34.40    0.99
   0  -8   1   33.35    1.07
   0  -8   1   33.43    0.94
   0  -8   1   32.97    0.95
   0  -8   1   33.13    1.00
   0  -8   1   33.11    1.04
  -1   8  -1   21.25    0.98
  -1   8  -1   20.61    0.59
  -1   8  -1   19.80    0.92
   1  -8   1   20.56    0.60
   1  -8   1   20.56    0.65
   1  -8   1   19.76    0.67
   1  -8   1   19.59    0.71
   1  -8   1   20.46    0.73
   1  -8   1   20.54    0.64
   1  -8   1   20.43    0.79
   1  -8   1   19.78    0.74
   2  -8   1    0.51    0.08
   2  -8   1    0.45    0.10
   2  -8   1    0.29    0.08
   2  -8   1    0.46    0.10
   2  -8   1    0.39    0.20
   2  -8   1    0.16    0.15
   2  -8   1    0.13    0.13
   2  -8   1    0.43    0.16
   3  -8   1    9.14    0.54
   3  -8   1    9.03    0.52
   4  -8   1    4.18    0.24
   4  -8   1    4.31    0.36
   4  -8   1    4.13    0.24
  -5   8  -1    7.11    0.61
   5  -8   1    7.19    0.33
   5  -8   1    7.32    0.45
   5  -8   1    7.00    0.35
  -6   8  -1    2.48    0.48
  -6   8  -1    2.02    0.44
   6  -8   1    2.41    0.55
   6  -8   1    2.55    0.33
   6  -8   1    2.48    0.33
   6  -8   1    1.60    0.26
  -7   8  -1   11.37    0.87
   5   7  -1    3.52    0.63
   5   7  -1    4.76    0.62
  -5  -7   1    3.71    0.58
  -5  -7   1    4.78    0.70
   4   7  -1   14.70    1.00
   4   7  -1   14.96    0.81
  -4  -7   1   14.37    0.87
  -4  -7   1   13.94    0.91
  -4  -7   1   14.47    0.76
   3   7  -1    2.37    0.44
   3   7  -1    2.44    0.25
   3   7  -1    2.40    0.37
   3   7  -1    2.99    0.41
  -3  -7   1    2.93    0.48
  -3  -7   1    2.22    0.35
  -3  -7   1    3.37    0.50
   2   7  -1   19.41    0.96
   2   7  -1   21.98    0.74
   2   7  -1   20.59    0.73
   2   7  -1   22.52    1.06
   2   7  -1   21.58    0.77
   2   7  -1   22.36    0.84
  -2  -7   1   21.16    0.80
  -2  -7   1   20.03    0.90
  -2  -7   1   20.87    0.89
  -2  -7   1   21.33    0.99
  -2  -7   1   22.73    0.95
   1   7  -1    4.82    0.33
   1   7  -1    3.93    0.33
   1   7  -1    4.48    0.47
   1   7  -1    4.58    0.24
   1   7  -1    4.55    0.23
   1   7  -1    5.22    0.38
   1   7  -1    4.82    0.43
  -1  -7   1    4.65    0.39
  -1  -7   1    4.40    0.42
  -1  -7   1    4.12    0.33
  -1  -7   1    4.58    0.38
  -1  -7   1    4.77    0.41
  -1  -7   1    4.60    0.37
   0   7  -1    5.07    0.40
   0   7  -1    5.37    0.24
   0   7  -1    4.81    0.36
   0   7  -1    4.67    0.45
   0   7  -1    4.58    0.34
   0  -7   1    5.07    0.25
   0  -7   1    5.43    0.36
   0  -7   1    5.72    0.36
   0  -7   1    5.07    0.37
   0  -7   1    5.76    0.34
   0  -7   1    5.50    0.34
   0  -7   1    5.01    0.32
   0  -7   1    5.42    0.34
  -1   7  -1    4.42    0.42
  -1   7  -1    6.05    0.28
  -1   7  -1    6.31    0.49
   1  -7   1    6.05    0.29
   1  -7   1    5.31    0.35
   1  -7   1    5.88    0.36
   1  -7   1    6.27    0.40
   1  -7   1    6.06    0.52
   1  -7   1    5.49    0.26
   1  -7   1    5.49    0.28
   1  -7   1    6.23    0.32
   1  -7   1    5.47    0.23
   1  -7   1    4.94    0.34
   2  -7   1   18.28    0.78
   2  -7   1   17.03    0.66
   2  -7   1   17.39    0.41
   2  -7   1   15.81    0.73
   2  -7   1   17.09    0.67
   2  -7   1   16.76    0.36
   2  -7   1   18.56    0.76
   3  -7   1   22.18    0.79
   3  -7   1   20.58    0.83
  -4   7  -1   -0.01    0.15
   4  -7   1    0.06    0.11
   4  -7   1    0.10    0.09
   4  -7   1    0.06    0.10
   4  -7   1    0.06    0.08
   4  -7   1    0.07    0.10
  -5   7  -1   17.42    0.88
  -5   7  -1   18.71    0.91
   5  -7   1   18.75    0.87
   5  -7   1   18.44    0.68
   5  -7   1   17.97    0.65
   5  -7   1   18.67    0.66
   5  -7   1   18.14    0.71
   5  -7   1   18.13    0.66
  -6   7  -1   11.36    0.75
  -6   7  -1    9.72    0.75
  -6   7  -1   10.72    0.49
   6  -7   1   11.34    0.61
   6  -7   1   11.71    0.68
   6  -7   1   10.70    0.55
   6  -7   1   11.62    0.60
  -7   7  -1    1.20    0.38
  -7   7  -1    1.12    0.28
  -7   7  -1    2.47    0.52
   7  -7   1    1.06    0.31
   7  -7   1    1.34    0.45
  -8   7  -1    0.10    0.28
   6   6  -1    7.49    0.81
   5   6  -1    0.90    0.33
   5   6  -1    0.92    0.37
  -5  -6   1    1.29    0.40
  -5  -6   1    0.96    0.38
  -5  -6   1    0.48    0.25
   4   6  -1    4.83    0.68
   4   6  -1    4.00    0.52
  -4  -6   1    5.18    0.56
  -4  -6   1    4.72    0.66
  -4  -6   1    4.50    0.49
  -4  -6   1    3.70    0.40
   3   6  -1   39.55    1.46
   3   6  -1   37.83    0.96
   3   6  -1   36.56    1.26
   3   6  -1   36.03    1.18
   3   6  -1   37.73    1.45
   3   6  -1   35.45    1.19
  -3  -6   1   37.22    1.36
  -3  -6   1   36.27    1.27
  -3  -6   1   37.99    1.33
  -3  -6   1   38.43    1.16
  -3  -6   1   37.00    1.43
   2   6  -1   21.43    0.74
   2   6  -1   22.13    0.81
   2   6  -1   19.72    0.74
   2   6  -1   22.65    0.68
   2   6  -1   20.85    0.81
   2   6  -1   20.57    0.96
  -2  -6   1   22.60    0.90
  -2  -6   1   22.52    1.10
  -2  -6   1   20.66    0.92
  -2  -6   1   22.91    0.79
  -2  -6   1   21.95    0.87
  -2  -6   1   21.81    0.90
   1   6  -1   25.70    0.82
   1   6  -1   24.19    0.67
   1   6  -1   25.97    1.00
   1   6  -1   24.48    0.75
   1   6  -1   23.36    0.88
   1   6  -1   24.79    0.77
   1   6  -1   23.87    0.64
  -1  -6   1   24.44    0.83
  -1  -6   1   25.41    0.90
  -1  -6   1   23.81    0.98
  -1  -6   1   24.81    0.87
  -1  -6   1   23.86    0.78
  -1  -6   1   23.78    0.84
  -1  -6   1   23.43    0.83
   0   6  -1    9.56    0.46
   0   6  -1   10.58    0.35
   0   6  -1   10.66    0.48
   0   6  -1    9.58    0.50
   0   6  -1   10.49    0.39
   0   6  -1   10.34    0.59
   0  -6   1   11.56    0.37
   0  -6   1   10.02    0.43
   0  -6   1   10.68    0.48
   0  -6   1   11.68    0.66
   0  -6   1   11.09    0.44
   0  -6   1   11.70    0.46
   0  -6   1   10.37    0.59
   0  -6   1   11.85    0.46
   0  -6   1   11.13    0.48
   0  -6   1   11.12    0.45
  -1   6  -1    2.35    0.35
  -1   6  -1    1.92    0.31
   1  -6   1    2.15    0.29
   1  -6   1    2.05    0.25
   1  -6   1    1.67    0.27
   1  -6   1    1.93    0.20
   1  -6   1    1.93    0.33
   1  -6   1    1.69    0.13
   1  -6   1    1.92    0.15
   1  -6   1    2.00    0.33
   1  -6   1    1.38    0.13
   1  -6   1    1.88    0.24
   2  -6   1   20.19    0.85
   2  -6   1   18.37    0.66
   2  -6   1   18.65    0.71
   2  -6   1   19.14    0.68
   2  -6   1   20.41    0.77
   2  -6   1   20.35    0.80
   2  -6   1   19.36    0.80
  -3   6  -1   22.44    0.84
   3  -6   1   23.28    0.99
   3  -6   1   23.25    0.81
   3  -6   1   22.73    0.51
   3  -6   1   23.12    0.54
   3  -6   1   22.97    0.91
   3  -6   1   22.50    0.90
   3  -6   1   22.90    0.74
   3  -6   1   23.15    0.80
  -4   6  -1   35.26    1.16
  -4   6  -1   32.20    1.13
   4  -6   1   33.86    0.91
   4  -6   1   34.49    1.00
   4  -6   1   34.41    0.88
   4  -6   1   34.87    1.14
   4  -6   1   34.08    0.86
   4  -6   1   32.36    0.87
   4  -6   1   33.28    0.89
  -5   6  -1    5.66    0.51
  -5   6  -1    5.59    0.51
  -5   6  -1    4.38    0.34
   5  -6   1    6.21    0.36
   5  -6   1    5.51    0.44
   5  -6   1    6.11    0.41
   5  -6   1    5.95    0.40
   5  -6   1    5.39    0.40
   5  -6   1    5.47    0.42
  -6   6  -1   23.24    0.87
  -6   6  -1   24.82    1.05
  -6   6  -1   25.43    1.12
   6  -6   1   24.02    0.83
   6  -6   1   26.12    1.04
   6  -6   1   21.34    0.92
   6  -6   1   24.12    0.95
  -7   6  -1    5.33    0.50
  -7   6  -1    5.25    0.65
  -7   6  -1    6.06    0.61
   7  -6   1    6.20    0.57
   7  -6   1    6.77    0.66
   7  -6   1    6.92    0.86
  -8   6  -1   10.52    0.72
   6   5  -1    2.91    0.56
  -6  -5   1    3.29    0.57
   5   5  -1    3.40    0.53
  -5  -5   1    3.28    0.58
  -5  -5   1    2.93    0.48
  -5  -5   1    3.92    0.67
  -5  -5   1    3.08    0.32
   4   5  -1   33.08    1.25
   4   5  -1   34.95    1.31
   4   5  -1   32.67    1.49
  -4  -5   1   34.17    1.11
  -4  -5   1   32.22    1.38
  -4  -5   1   33.60    1.14
  -4  -5   1   35.51    1.40
  -4  -5   1   32.59    1.29
  -4  -5   1   33.06    1.26
   3   5  -1   30.56    1.20
   3   5  -1   28.86    1.05
   3   5  -1   32.39    1.09
   3   5  -1   32.00    1.26
   3   5  -1   31.34    1.13
  -3  -5   1   31.66    0.99
  -3  -5   1   32.65    1.26
  -3  -5   1   30.78    1.16
  -3  -5   1   32.65    1.22
  -3  -5   1   31.29    1.13
  -3  -5   1   31.31    1.09
   2   5  -1   35.34    0.87
   2   5  -1   37.46    1.24
   2   5  -1   37.90    1.25
   2   5  -1   36.81    1.06
   2   5  -1   37.50    1.17
   2   5  -1   36.46    1.04
   2   5  -1   34.76    1.04
  -2  -5   1   36.58    1.16
  -2  -5   1   38.09    1.20
  -2  -5   1   34.64    1.16
  -2  -5   1   36.22    1.02
  -2  -5   1   37.31    1.22
  -2  -5   1   39.20    1.22
  -2  -5   1   35.90    1.12
   1   5  -1   11.98    0.52
   1   5  -1   11.09    0.60
   1   5  -1   12.34    0.43
   1   5  -1   12.06    0.45
   1   5  -1   12.31    0.45
   1   5  -1   12.74    0.58
   1   5  -1   11.33    0.48
   1   5  -1   11.92    0.50
  -1  -5   1   11.28    0.53
  -1  -5   1   11.48    0.53
  -1  -5   1   10.76    0.50
  -1  -5   1   12.80    0.50
  -1  -5   1   12.16    0.62
  -1  -5   1   11.87    0.55
  -1  -5   1   11.26    0.52
   0   5  -1   55.85    1.31
   0   5  -1   54.65    1.09
   0   5  -1   55.06    1.15
   0   5  -1   55.66    1.45
   0   5  -1   55.61    1.25
   0   5  -1   55.62    1.26
   0  -5   1   55.02    1.11
   0  -5   1   52.73    1.18
   0  -5   1   53.88    1.24
   0  -5   1   55.63    1.43
   0  -5   1   53.52    1.48
   0  -5   1   53.55    1.20
   0  -5   1   55.06    1.19
   0  -5   1   55.02    1.20
   0  -5   1   55.23    1.26
   0  -5   1   52.75    1.21
  -1   5  -1   12.55    0.58
  -1   5  -1   12.07    0.56
   1  -5   1   13.34    0.49
   1  -5   1   12.85    0.35
   1  -5   1   12.51    0.57
   1  -5   1   12.48    0.33
   1  -5   1   12.39    0.55
   1  -5   1   12.95    0.48
   1  -5   1   12.82    0.61
   1  -5   1   12.54    0.52
  -2   5  -1   19.07    0.67
   2  -5   1   19.15    0.65
   2  -5   1   19.09    0.65
   2  -5   1   20.23    0.75
   2  -5   1   18.57    0.74
   2  -5   1   18.59    0.74
   2  -5   1   20.29    0.69
  -3   5  -1    7.85    0.46
  -3   5  -1    8.00    0.47
   3  -5   1    7.22    0.25
   3  -5   1    7.39    0.52
   3  -5   1    6.84    0.29
   3  -5   1    7.67    0.40
   3  -5   1    7.86    0.28
   3  -5   1    8.32    0.48
   3  -5   1    7.47    0.35
   3  -5   1    7.22    0.30
   3  -5   1    7.66    0.42
   3  -5   1    7.11    0.45
  -4   5  -1   70.11    1.75
  -4   5  -1   70.88    1.25
  -4   5  -1   67.40    1.48
  -4   5  -1   67.99    1.77
  -4   5  -1   72.96    1.29
   4  -5   1   68.05    1.54
   4  -5   1   67.63    1.56
   4  -5   1   70.48    1.57
   4  -5   1   68.69    1.45
   4  -5   1   69.75    1.57
   4  -5   1   70.14    1.67
   4  -5   1   72.22    1.53
  -5   5  -1   22.41    0.80
  -5   5  -1   23.53    0.92
  -5   5  -1   23.26    0.63
  -5   5  -1   24.18    0.98
   5  -5   1   23.49    0.78
   5  -5   1   23.45    0.88
   5  -5   1   22.65    0.72
   5  -5   1   23.35    0.85
   5  -5   1   23.32    0.87
   5  -5   1   24.04    0.90
  -6   5  -1    1.63    0.34
  -6   5  -1    1.88    0.37
  -6   5  -1    1.79    0.39
   6  -5   1    2.18    0.30
   6  -5   1    1.37    0.33
   6  -5   1    1.73    0.36
   6  -5   1    2.06    0.38
  -7   5  -1    2.92    0.47
  -7   5  -1    3.41    0.49
  -7   5  -1    3.99    0.58
   7  -5   1    3.28    0.50
   7  -5   1    3.45    0.63
   7  -5   1    3.38    0.56
  -8   5  -1    8.08    0.75
  -8   5  -1    9.21    0.74
   8  -5   1   10.01    0.89
   6   4  -1    4.39    0.68
  -6  -4   1    4.76    0.75
  -6  -4   1    4.10    0.46
  -6  -4   1    5.37    0.97
  -6  -4   1    4.21    0.58
   5   4  -1    1.08    0.38
   5   4  -1    0.79    0.19
   5   4  -1    1.27    0.37
  -5  -4   1    0.65    0.29
  -5  -4   1    0.60    0.34
  -5  -4   1    0.72    0.34
  -5  -4   1    0.69    0.21
  -5  -4   1    0.96    0.30
   4   4  -1   34.95    1.30
   4   4  -1   37.26    0.90
   4   4  -1   37.20    1.31
   4   4  -1   37.06    1.39
   4   4  -1   36.97    1.45
  -4  -4   1   39.44    1.39
  -4  -4   1   34.59    1.11
  -4  -4   1   35.64    1.26
  -4  -4   1   35.06    1.36
  -4  -4   1   38.65    1.45
  -4  -4   1   35.88    1.08
   3   4  -1   29.82    1.07
   3   4  -1   29.11    1.01
   3   4  -1   29.71    0.64
   3   4  -1   28.25    1.01
   3   4  -1   29.44    1.09
   3   4  -1   28.63    1.14
   3   4  -1   29.11    0.94
  -3  -4   1   28.06    1.06
  -3  -4   1   28.33    1.10
  -3  -4   1   28.38    1.12
  -3  -4   1   27.28    1.01
  -3  -4   1   28.89    0.90
  -3  -4   1   29.91    0.96
   2   4  -1   33.12    1.13
   2   4  -1   37.21    1.05
   2   4  -1   37.19    1.03
   2   4  -1   36.34    1.11
   2   4  -1   36.04    1.07
   2   4  -1   34.75    0.98
  -2  -4   1   35.29    1.12
  -2  -4   1   36.67    1.07
  -2  -4   1   35.46    1.07
  -2  -4   1   36.16    1.12
  -2  -4   1   36.12    1.10
  -2  -4   1   35.93    1.13
  -2  -4   1   34.90    0.96
   1   4  -1   23.16    0.69
   1   4  -1   23.74    0.80
   1   4  -1   23.23    0.65
   1   4  -1   23.81    0.66
   1   4  -1   23.45    0.78
   1   4  -1   24.33    0.74
   1   4  -1   23.42    0.71
   1   4  -1   22.86    0.81
   1   4  -1   23.23    0.59
  -1  -4   1   23.20    0.74
  -1  -4   1   24.34    0.73
  -1  -4   1   22.15    0.73
  -1  -4   1   23.19    0.76
  -1  -4   1   24.57    0.78
  -1  -4   1   23.47    0.81
  -1  -4   1   23.96    0.68
   0   4  -1    5.92    0.38
   0   4  -1    6.16    0.30
   0   4  -1    6.17    0.24
   0   4  -1    6.91    0.38
   0   4  -1    6.30    0.31
   0   4  -1    6.39    0.26
   0   4  -1    6.60    0.32
   0  -4   1    6.80    0.31
   0  -4   1    6.98    0.25
   0  -4   1    7.06    0.39
   0  -4   1    7.16    0.30
   0  -4   1    6.60    0.40
   0  -4   1    7.02    0.28
   0  -4   1    6.62    0.29
   0  -4   1    7.33    0.31
   0  -4   1    7.03    0.28
   0  -4   1    7.04    0.29
  -1   4  -1    2.59    0.25
  -1   4  -1    2.96    0.25
  -1   4  -1    3.21    0.28
   1  -4   1    3.37    0.29
   1  -4   1    2.91    0.24
   1  -4   1    3.24    0.12
   1  -4   1    3.16    0.12
   1  -4   1    3.51    0.23
   1  -4   1    3.48    0.23
   1  -4   1    3.08    0.25
   1  -4   1    3.28    0.26
  -2   4  -1   20.57    0.67
  -2   4  -1   21.51    0.70
   2  -4   1   20.33    0.64
   2  -4   1   19.06    0.62
   2  -4   1   20.18    0.74
   2  -4   1   21.98    0.70
   2  -4   1   19.21    0.44
   2  -4   1   19.98    0.44
   2  -4   1   20.13    0.70
   2  -4   1   19.50    0.58
  -3   4  -1   64.73    1.15
  -3   4  -1   66.59    1.55
  -3   4  -1   62.26    1.50
  -3   4  -1   61.74    1.30
   3  -4   1   63.76    1.33
   3  -4   1   63.62    1.46
   3  -4   1   63.09    1.35
   3  -4   1   62.65    1.28
   3  -4   1   63.15    1.69
   3  -4   1   64.62    1.27
   3  -4   1   63.00    1.48
   3  -4   1   62.61    1.34
   3  -4   1   64.40    1.33
   3  -4   1   63.70    1.39
  -4   4  -1   21.84    0.79
  -4   4  -1   22.01    0.67
  -4   4  -1   22.08    0.74
  -4   4  -1   20.83    0.65
  -4   4  -1   22.23    0.83
  -4   4  -1   23.85    0.62
   4  -4   1   23.12    0.70
   4  -4   1   24.81    1.02
   4  -4   1   24.17    0.74
   4  -4   1   22.50    0.77
   4  -4   1   21.60    0.75
   4  -4   1   23.57    0.81
   4  -4   1   21.17    0.76
   4  -4   1   22.42    0.62
  -5   4  -1   18.67    0.63
  -5   4  -1   18.03    0.44
  -5   4  -1   17.50    0.46
  -5   4  -1   17.18    0.74
  -5   4  -1   17.36    0.80
  -5   4  -1   17.90    0.60
  -5   4  -1   17.21    0.75
   5  -4   1   18.62    0.80
   5  -4   1   17.93    0.53
   5  -4   1   16.99    0.77
   5  -4   1   17.79    0.75
   5  -4   1   17.39    0.79
   5  -4   1   18.04    0.62
  -6   4  -1    5.86    0.53
  -6   4  -1    6.50    0.29
  -6   4  -1    6.62    0.56
  -6   4  -1    6.90    0.53
  -6   4  -1    6.33    0.37
   6  -4   1    6.55    0.43
   6  -4   1    6.54    0.57
   6  -4   1    6.59    0.58
   6  -4   1    7.54    0.59
   6  -4   1    6.86    0.65
  -7   4  -1    1.79    0.40
  -7   4  -1    2.85    0.50
  -7   4  -1    2.78    0.46
   7  -4   1    2.58    0.54
   7  -4   1    2.28    0.47
   7  -4   1    2.08    0.46
  -8   4  -1    0.78    0.34
  -8   4  -1    0.48    0.39
  -8   4  -1    1.28    0.42
   8  -4   1    0.84    0.44
   8  -4   1    1.47    0.49
   8  -4   1    1.44    0.46
   7   3  -1    2.71    0.62
  -7  -3   1    2.87    0.46
  -7  -3   1    3.46    0.56
  -7  -3   1    3.92    0.76
   6   3  -1    6.29    0.76
   6   3  -1    6.30    0.68
   6   3  -1    5.14    0.46
  -6  -3   1    6.40    0.83
  -6  -3   1    5.47    0.46
  -6  -3   1    5.21    0.55
  -6  -3   1    5.09    0.67
   5   3  -1   39.41    1.15
   5   3  -1   40.21    1.48
   5   3  -1   40.38    1.55
   5   3  -1   38.09    1.47
  -5  -3   1   36.23    1.33
  -5  -3   1   38.51    1.52
  -5  -3   1   39.80    1.55
  -5  -3   1   39.26    1.46
  -5  -3   1   37.29    1.11
   4   3  -1   18.69    0.98
   4   3  -1   20.09    0.95
   4   3  -1   20.37    0.94
   4   3  -1   19.51    0.91
  -4  -3   1   20.00    0.77
  -4  -3   1   20.98    0.86
  -4  -3   1   20.39    0.98
  -4  -3   1   18.30    0.94
  -4  -3   1   19.94    0.66
  -4  -3   1   19.66    0.87
  -4  -3   1   21.23    0.95
  -4  -3   1   20.69    0.68
   3   3  -1   73.18    1.81
   3   3  -1   71.70    1.67
   3   3  -1   72.94    1.95
   3   3  -1   72.13    1.83
   3   3  -1   74.42    1.88
   3   3  -1   73.69    1.89
  -3  -3   1   74.30    1.65
  -3  -3   1   73.78    1.82
  -3  -3   1   72.51    1.91
  -3  -3   1   75.63    1.89
  -3  -3   1   71.36    1.90
  -3  -3   1   74.65    1.90
  -3  -3   1   73.90    1.64
   2   3  -1   27.70    0.83
   2   3  -1   27.12    0.86
   2   3  -1   29.79    0.81
   2   3  -1   29.35    0.86
   2   3  -1   28.95    0.96
   2   3  -1   28.95    0.91
   2   3  -1   27.77    0.89
  -2  -3   1   28.03    0.93
  -2  -3   1   26.77    0.89
  -2  -3   1   26.36    0.91
  -2  -3   1   27.58    0.83
  -2  -3   1   27.79    0.90
  -2  -3   1   26.99    0.77
  -2  -3   1   28.52    0.88
   1   3  -1   14.64    0.37
   1   3  -1   14.89    0.48
   1   3  -1   15.69    0.57
   1   3  -1   15.43    0.56
   1   3  -1   15.23    0.49
   1   3  -1   15.15    0.49
   1   3  -1   16.07    0.54
  -1  -3   1   15.07    0.53
  -1  -3   1   15.78    0.53
  -1  -3   1   15.22    0.54
  -1  -3   1   14.70    0.55
  -1  -3   1   14.54    0.54
  -1  -3   1   15.88    0.57
  -1  -3   1   14.62    0.47
   0   3  -1   61.01    1.18
   0   3  -1   61.57    1.29
   0   3  -1   56.00    1.31
   0   3  -1   56.46    1.10
   0   3  -1   57.01    1.18
   0   3  -1   58.36    1.11
   0   3  -1   57.56    1.00
   0  -3   1   58.65    1.10
   0  -3   1   59.47    1.33
   0  -3   1   57.99    1.15
   0  -3   1   57.36    1.15
   0  -3   1   58.28    1.16
   0  -3   1   59.55    1.20
   0  -3   1   58.81    1.11
   0  -3   1   56.85    1.27
   0  -3   1   56.98    1.15
   0  -3   1   58.99    1.12
  -1   3  -1   76.79    1.56
  -1   3  -1   75.02    1.52
  -1   3  -1   76.98    1.59
   1  -3   1   76.40    1.54
   1  -3   1   73.52    1.58
   1  -3   1   74.33    1.54
   1  -3   1   74.43    1.57
   1  -3   1   74.33    1.49
  -2   3  -1    9.41    0.40
  -2   3  -1    8.76    0.29
  -2   3  -1    8.61    0.39
  -2   3  -1    9.21    0.25
  -2   3  -1    9.12    0.22
   2  -3   1    9.02    0.38
   2  -3   1    9.22    0.28
   2  -3   1    9.00    0.31
   2  -3   1    8.96    0.46
   2  -3   1   10.10    0.38
   2  -3   1    9.49    0.31
   2  -3   1    9.68    0.31
   2  -3   1    9.46    0.39
   2  -3   1    9.59    0.31
  -3   3  -1   68.74    1.22
  -3   3  -1   69.67    1.37
  -3   3  -1   68.78    1.49
  -3   3  -1   67.21    1.37
  -3   3  -1   68.03    1.57
  -3   3  -1   67.16    1.26
  -3   3  -1   70.39    1.45
  -3   3  -1   69.95    1.53
   3  -3   1   70.53    1.52
   3  -3   1   68.58    1.42
   3  -3   1   68.91    1.50
   3  -3   1   68.79    1.50
   3  -3   1   70.16    1.53
   3  -3   1   70.94    1.43
   3  -3   1   67.47    1.50
   3  -3   1   70.16    1.33
  -4   3  -1   16.93    0.46
  -4   3  -1   15.28    0.65
  -4   3  -1   17.12    0.53
  -4   3  -1   15.27    0.56
  -4   3  -1   15.73    0.62
  -4   3  -1   16.36    0.66
  -4   3  -1   15.87    0.48
  -4   3  -1   16.75    0.63
   4  -3   1   15.32    0.44
   4  -3   1   16.08    0.51
   4  -3   1   14.50    0.65
   4  -3   1   15.95    0.67
   4  -3   1   15.45    0.61
   4  -3   1   14.97    0.65
  -5   3  -1   11.72    0.63
  -5   3  -1   12.56    0.66
  -5   3  -1   13.01    0.47
  -5   3  -1   12.46    0.57
  -5   3  -1   12.43    0.44
  -5   3  -1   12.85    0.54
  -5   3  -1   12.39    0.60
   5  -3   1   11.92    0.51
   5  -3   1   12.87    0.69
   5  -3   1   13.23    0.70
   5  -3   1   13.01    0.68
  -6   3  -1    3.25    0.45
  -6   3  -1    3.62    0.30
  -6   3  -1    3.20    0.47
  -6   3  -1    3.15    0.33
  -6   3  -1    3.63    0.40
  -6   3  -1    3.03    0.23
   6  -3   1    3.99    0.53
   6  -3   1    3.84    0.53
   6  -3   1    4.38    0.61
   6  -3   1    4.25    0.54
  -7   3  -1   14.16    0.86
  -7   3  -1   15.53    0.82
  -7   3  -1   15.30    0.94
  -7   3  -1   14.24    0.61
   7  -3   1   17.22    1.02
   7  -3   1   13.71    0.91
   7  -3   1   15.23    1.01
  -8   3  -1    3.27    0.51
  -8   3  -1    3.43    0.64
  -8   3  -1    2.18    0.47
   8  -3   1    3.43    0.60
   8  -3   1    2.22    0.54
   8  -3   1    3.33    0.67
   7   2  -1   20.11    1.24
   7   2  -1   24.15    1.32
   7   2  -1   25.93    1.17
  -7  -2   1   23.18    1.02
  -7  -2   1   21.38    1.31
  -7  -2   1   25.14    1.17
   6   2  -1   15.77    0.82
   6   2  -1   17.21    1.03
   6   2  -1   17.91    1.06
  -6  -2   1   16.18    1.03
  -6  -2   1   16.86    0.77
  -6  -2   1   17.20    0.91
  -6  -2   1   18.37    1.01
   5   2  -1   14.08    0.86
   5   2  -1   12.23    0.81
   5   2  -1   13.27    0.82
  -5  -2   1   13.74    0.86
  -5  -2   1   13.16    0.73
  -5  -2   1   13.20    0.85
  -5  -2   1   12.48    0.79
  -5  -2   1   12.73    0.60
   4   2  -1   25.25    1.04
   4   2  -1   28.12    1.09
   4   2  -1   27.45    1.05
   4   2  -1   27.13    1.13
  -4  -2   1   26.94    0.92
  -4  -2   1   25.63    0.97
  -4  -2   1   25.73    1.16
  -4  -2   1   24.47    0.84
  -4  -2   1   25.36    0.78
  -4  -2   1   23.41    1.02
  -4  -2   1   25.18    1.06
  -4  -2   1   27.14    1.06
   3   2  -1   20.21    0.81
   3   2  -1   18.14    0.64
   3   2  -1   19.69    0.84
   3   2  -1   17.70    0.57
   3   2  -1   19.75    0.75
   3   2  -1   18.78    0.77
   3   2  -1   17.47    0.76
  -3  -2   1   18.53    0.73
  -3  -2   1   19.13    0.71
  -3  -2   1   18.28    0.77
  -3  -2   1   18.55    0.81
  -3  -2   1   18.07    0.76
  -3  -2   1   19.40    0.56
  -3  -2   1   19.75    0.81
  -3  -2   1   17.41    0.62
   2   2  -1   12.16    0.50
   2   2  -1   12.69    0.53
   2   2  -1   12.31    0.57
   2   2  -1   11.82    0.53
   2   2  -1   11.32    0.43
   2   2  -1   11.82    0.53
   2   2  -1   11.65    0.43
  -2  -2   1   11.78    0.50
  -2  -2   1   12.32    0.54
  -2  -2   1   12.22    0.53
  -2  -2   1   11.54    0.42
  -2  -2   1   11.60    0.55
  -2  -2   1   12.95    0.56
  -2  -2   1   12.38    0.44
   1   2  -1   10.12    0.41
   1   2  -1    9.61    0.37
   1   2  -1    9.30    0.38
   1   2  -1    9.50    0.35
   1   2  -1    9.75    0.38
   1   2  -1    9.54    0.34
   1   2  -1    9.91    0.39
   1   2  -1    9.58    0.22
  -1  -2   1    9.36    0.38
  -1  -2   1    9.94    0.37
  -1  -2   1    9.80    0.34
  -1  -2   1    9.62    0.37
  -1  -2   1    9.44    0.40
  -1  -2   1   10.27    0.40
  -1  -2   1    9.51    0.38
   0   2  -1  117.77    2.06
   0   2  -1  119.13    2.08
   0   2  -1  117.39    2.07
   0   2  -1  119.01    2.11
   0   2  -1  114.71    2.14
   0   2  -1  118.24    2.14
   0   2  -1  118.47    2.04
   0   2  -1  117.76    2.06
   0   2  -1  121.19    2.21
   0  -2   1  119.31    2.06
   0  -2   1  113.50    2.14
   0  -2   1  120.89    2.20
   0  -2   1  119.87    2.05
   0  -2   1  120.55    2.07
   0  -2   1  115.13    2.14
   0  -2   1  119.31    2.20
   0  -2   1  120.16    2.45
   0  -2   1  120.36    2.09
   0  -2   1  120.60    2.07
  -1   2  -1   90.44    1.51
  -1   2  -1   92.07    1.71
  -1   2  -1   89.50    1.53
  -1   2  -1   91.31    1.54
  -1   2  -1   92.39    1.71
  -1   2  -1   87.57    1.69
   1  -2   1   86.42    1.73
   1  -2   1   91.74    1.69
   1  -2   1   89.80    1.55
   1  -2   1   91.91    1.53
   1  -2   1   91.71    1.71
   1  -2   1   88.86    1.69
   1  -2   1   90.08    1.56
  -2   2  -1   72.62    1.48
  -2   2  -1   76.08    1.36
  -2   2  -1   73.29    1.48
  -2   2  -1   75.31    1.42
  -2   2  -1   76.45    1.42
  -2   2  -1   76.83    1.54
  -2   2  -1   76.88    1.34
  -2   2  -1   75.15    1.50
  -2   2  -1   73.93    1.41
   2  -2   1   75.74    1.49
   2  -2   1   75.58    1.43
   2  -2   1   76.14    1.52
   2  -2   1   75.94    1.52
   2  -2   1   77.63    1.42
   2  -2   1   77.02    1.33
   2  -2   1   71.55    1.48
   2  -2   1   74.55    1.48
  -3   2  -1   12.74    0.53
  -3   2  -1   13.87    0.36
  -3   2  -1   13.31    0.48
  -3   2  -1   14.14    0.42
  -3   2  -1   13.81    0.53
  -3   2  -1   13.44    0.47
  -3   2  -1   14.53    0.55
  -3   2  -1   14.04    0.49
   3  -2   1   13.29    0.49
   3  -2   1   13.57    0.40
   3  -2   1   13.68    0.55
   3  -2   1   12.94    0.49
   3  -2   1   13.00    0.33
   3  -2   1   12.34    0.52
   3  -2   1   13.21    0.56
   3  -2   1   13.09    0.53
  -4   2  -1   61.39    1.49
  -4   2  -1   59.04    1.37
  -4   2  -1   60.88    1.33
  -4   2  -1   59.25    1.19
  -4   2  -1   59.43    1.45
  -4   2  -1   57.34    1.54
  -4   2  -1   59.40    1.54
  -4   2  -1   59.58    1.45
   4  -2   1   60.44    1.51
   4  -2   1   59.21    1.56
   4  -2   1   64.19    1.60
   4  -2   1   60.48    1.41
   4  -2   1   59.08    1.32
   4  -2   1   59.86    1.56
  -5   2  -1    8.10    0.51
  -5   2  -1    7.51    0.32
  -5   2  -1    8.17    0.50
  -5   2  -1    8.48    0.46
  -5   2  -1    8.42    0.52
  -5   2  -1    7.48    0.41
  -5   2  -1    8.05    0.57
   5  -2   1    6.92    0.56
   5  -2   1    8.60    0.61
   5  -2   1    6.90    0.54
   5  -2   1    7.64    0.56
  -6   2  -1    4.00    0.34
  -6   2  -1    4.07    0.55
  -6   2  -1    3.66    0.25
  -6   2  -1    4.26    0.49
  -6   2  -1    3.78    0.41
  -6   2  -1    4.17    0.39
   6  -2   1    4.19    0.56
   6  -2   1    3.70    0.54
   6  -2   1    3.34    0.50
   6  -2   1    3.14    0.52
  -7   2  -1    2.24    0.40
  -7   2  -1    2.31    0.44
  -7   2  -1    2.15    0.33
  -7   2  -1    2.86    0.53
   7  -2   1    2.65    0.54
   7  -2   1    1.51    0.41
   7  -2   1    2.16    0.47
  -8   2  -1    5.40    0.67
  -8   2  -1    5.32    0.64
  -8   2  -1    3.73    0.64
  -8   2  -1    5.03    0.47
   8  -2   1    5.60    0.78
   8  -2   1    5.66    0.80
   8  -2   1    5.41    0.73
  -8  -1   1    0.74    0.41
  -8  -1   1    1.13    0.37
  -8  -1   1    0.36    0.39
   7   1  -1    6.00    0.81
   7   1  -1    5.24    0.76
   7   1  -1    6.25    0.65
  -7  -1   1    5.90    0.85
  -7  -1   1    5.67    0.58
  -7  -1   1    5.89    0.55
   6   1  -1    8.70    0.76
   6   1  -1    9.01    0.75
  -6  -1   1    7.44    0.73
  -6  -1   1    9.80    0.66
  -6  -1   1    8.33    0.56
  -6  -1   1    9.33    0.70
   5   1  -1    2.04    0.40
   5   1  -1    3.27    0.50
   5   1  -1    2.37    0.43
  -5  -1   1    2.52    0.28
  -5  -1   1    3.00    0.35
  -5  -1   1    2.32    0.40
  -5  -1   1    2.30    0.43
  -5  -1   1    2.23    0.36
  -5  -1   1    2.72    0.49
   4   1  -1    1.27    0.29
   4   1  -1    1.44    0.31
   4   1  -1    1.00    0.23
   4   1  -1    0.91    0.18
   4   1  -1    1.03    0.27
   4   1  -1    0.87    0.12
   4   1  -1    0.89    0.25
  -4  -1   1    0.88    0.24
  -4  -1   1    1.69    0.36
  -4  -1   1    1.43    0.28
  -4  -1   1    1.35    0.30
  -4  -1   1    1.69    0.29
  -4  -1   1    1.16    0.21
  -4  -1   1    1.36    0.23
   3   1  -1    7.53    0.50
   3   1  -1    8.21    0.31
   3   1  -1    8.57    0.49
   3   1  -1    8.36    0.49
   3   1  -1    8.92    0.51
   3   1  -1    8.69    0.39
   3   1  -1    9.22    0.49
  -3  -1   1    8.36    0.47
  -3  -1   1    7.68    0.47
  -3  -1   1    8.12    0.51
  -3  -1   1    7.63    0.43
  -3  -1   1    7.98    0.38
  -3  -1   1    8.01    0.40
  -3  -1   1    8.75    0.36
  -3  -1   1    9.75    0.51
   2   1  -1   54.93    1.29
   2   1  -1   56.06    1.16
   2   1  -1   53.98    1.30
   2   1  -1   52.74    1.28
   2   1  -1   55.34    1.26
   2   1  -1   54.39    1.33
   2   1  -1   54.15    1.10
  -2  -1   1   55.82    1.21
  -2  -1   1   53.74    1.25
  -2  -1   1   54.01    1.29
  -2  -1   1   54.50    1.30
  -2  -1   1   53.12    1.32
  -2  -1   1   54.22    1.15
  -2  -1   1   52.37    1.27
   1   1  -1   64.31    1.27
   1   1  -1   63.06    1.30
   1   1  -1   62.80    1.30
   1   1  -1   64.78    1.23
   1   1  -1   66.96    1.31
   1   1  -1   63.50    1.22
   1   1  -1   63.23    1.32
  -1  -1   1   64.72    1.33
  -1  -1   1   66.16    1.22
  -1  -1   1   63.79    1.22
  -1  -1   1   65.35    1.28
  -1  -1   1   61.75    1.29
  -1  -1   1   65.23    1.30
  -1  -1   1   64.07    1.31
  -1  -1   1   63.45    1.28
   0   1  -1  102.55    1.75
   0   1  -1  101.85    1.77
   0   1  -1  105.75    1.79
   0   1  -1   97.94    1.72
   0   1  -1  104.06    1.82
   0   1  -1   97.55    1.70
   0  -1   1   97.73    1.71
   0  -1   1   93.86    1.85
   0  -1   1   99.60    1.83
   0  -1   1   98.47    1.76
   0  -1   1   98.16    1.82
   0  -1   1   95.12    1.86
   0  -1   1   98.81    1.75
   0  -1   1  103.69    1.78
  -1   1  -1   22.97    0.53
  -1   1  -1   23.85    0.46
  -1   1  -1   23.44    0.52
  -1   1  -1   22.26    0.52
  -1   1  -1   23.30    0.51
  -1   1  -1   23.60    0.52
  -1   1  -1   22.93    0.48
  -1   1  -1   22.54    0.49
  -1   1  -1   23.71    0.58
   1  -1   1   22.80    0.40
   1  -1   1   23.12    0.48
   1  -1   1   22.08    0.52
   1  -1   1   21.31    0.56
   1  -1   1   22.54    0.52
   1  -1   1   22.46    0.53
   1  -1   1   21.83    0.52
   1  -1   1   22.75    0.50
  -2   1  -1   14.49    0.30
  -2   1  -1   14.59    0.49
  -2   1  -1   14.61    0.45
  -2   1  -1   15.02    0.51
  -2   1  -1   14.97    0.33
  -2   1  -1   15.25    0.52
   2  -1   1   14.31    0.37
   2  -1   1   13.89    0.49
   2  -1   1   15.10    0.50
   2  -1   1   13.72    0.51
   2  -1   1   15.17    0.44
   2  -1   1   15.09    0.46
   2  -1   1   15.41    0.53
   2  -1   1   13.74    0.49
  -3   1  -1   31.56    0.84
  -3   1  -1   30.31    0.88
  -3   1  -1   31.03    0.94
  -3   1  -1   31.98    0.82
  -3   1  -1   31.03    0.95
  -3   1  -1   31.01    0.68
  -3   1  -1   32.66    0.92
   3  -1   1   31.92    0.81
   3  -1   1   30.80    0.89
   3  -1   1   31.26    0.94
   3  -1   1   31.44    0.94
   3  -1   1   29.55    0.95
   3  -1   1   31.65    0.94
  -4   1  -1    4.62    0.24
  -4   1  -1    5.57    0.44
  -4   1  -1    4.76    0.34
  -4   1  -1    4.80    0.37
  -4   1  -1    4.44    0.36
  -4   1  -1    5.21    0.43
  -4   1  -1    4.97    0.33
   4  -1   1    4.70    0.40
   4  -1   1    5.10    0.39
   4  -1   1    4.61    0.32
   4  -1   1    4.85    0.41
   4  -1   1    4.60    0.41
   4  -1   1    4.43    0.44
   4  -1   1    4.44    0.41
  -5   1  -1    1.66    0.36
  -5   1  -1    1.50    0.16
  -5   1  -1    1.76    0.31
  -5   1  -1    1.57    0.33
  -5   1  -1    1.34    0.26
   5  -1   1    1.33    0.32
   5  -1   1    1.25    0.32
   5  -1   1    1.10    0.31
   5  -1   1    1.55    0.33
  -6   1  -1    5.22    0.71
  -6   1  -1    5.67    0.59
  -6   1  -1    4.76    0.46
  -6   1  -1    4.71    0.29
   6  -1   1    5.47    0.55
   6  -1   1    5.02    0.63
   6  -1   1    5.54    0.67
  -7   1  -1    8.31    0.57
  -7   1  -1    7.59    0.58
  -7   1  -1    6.82    0.73
  -7   1  -1    6.63    0.60
   7  -1   1    7.03    0.76
   7  -1   1    7.24    0.70
   7  -1   1    6.49    0.78
  -8   1  -1    2.82    0.45
  -8   1  -1    2.55    0.60
  -8   1  -1    2.58    0.50
  -8   1  -1    2.01    0.44
   8  -1   1    2.81    0.62
   8  -1   1    2.03    0.53
   8   0  -1    6.09    0.85
   8   0  -1    3.89    0.62
  -8   0   1    4.94    0.64
  -8   0   1    5.32    0.81
  -8   0   1    4.32    0.53
   7   0  -1    2.62    0.55
   7   0  -1    2.14    0.53
  -7   0   1    1.73    0.37
  -7   0   1    1.28    0.45
  -7   0   1    1.24    0.34
   6   0  -1   15.03    0.94
   6   0  -1   17.21    1.05
   6   0  -1   15.90    0.96
  -6   0   1   16.74    0.80
  -6   0   1   17.78    0.83
  -6   0   1   16.64    0.99
  -6   0   1   15.96    0.88
   5   0  -1    0.05    0.15
   5   0  -1    0.17    0.20
   5   0  -1    0.02    0.17
   5   0  -1    0.15    0.18
  -5   0   1    0.02    0.14
  -5   0   1    0.03    0.18
  -5   0   1   -0.04    0.14
  -5   0   1   -0.09    0.13
  -5   0   1    0.24    0.15
  -5   0   1   -0.06    0.08
   4   0  -1   10.28    0.48
   4   0  -1    9.96    0.52
   4   0  -1   10.72    0.64
   4   0  -1   11.51    0.57
   4   0  -1   11.57    0.61
   4   0  -1   10.18    0.30
   4   0  -1   12.25    0.64
   4   0  -1    9.87    0.60
   4   0  -1    9.76    0.60
  -4   0   1   10.18    0.48
  -4   0   1    9.51    0.54
  -4   0   1    9.50    0.61
  -4   0   1   10.58    0.53
  -4   0   1   11.48    0.62
  -4   0   1   11.38    0.61
  -4   0   1   10.58    0.44
   3   0  -1   33.39    1.01
   3   0  -1   31.92    0.85
   3   0  -1   32.95    0.70
   3   0  -1   33.50    0.98
   3   0  -1   32.61    0.94
   3   0  -1   33.83    1.04
   3   0  -1   31.46    0.98
   3   0  -1   32.22    1.00
   3   0  -1   31.91    0.90
  -3   0   1   34.47    0.98
  -3   0   1   33.92    0.84
  -3   0   1   32.37    0.84
  -3   0   1   35.06    1.02
  -3   0   1   32.84    0.93
  -3   0   1   33.33    1.04
  -3   0   1   34.87    1.00
   2   0  -1  128.98    2.44
   2   0  -1  127.31    2.37
   2   0  -1  123.77    2.44
   2   0  -1  127.10    2.29
   2   0  -1  128.23    2.44
   2   0  -1  126.49    2.39
   2   0  -1  124.81    2.34
   2   0  -1  126.86    2.46
  -2   0   1  125.62    2.47
  -2   0   1  127.15    2.43
  -2   0   1  124.97    2.38
  -2   0   1  127.11    2.41
  -2   0   1  122.03    2.43
  -2   0   1  121.47    2.28
  -2   0   1  128.45    2.29
   1   0  -1   80.23    1.40
   1   0  -1   76.51    1.47
   1   0  -1   77.76    1.49
   1   0  -1   78.54    1.44
   1   0  -1   80.00    1.50
   1   0  -1   78.14    1.44
   1   0  -1   78.77    1.46
   1   0  -1   78.91    1.48
  -1   0   1   78.53    1.46
  -1   0   1   78.99    1.47
  -1   0   1   76.70    1.42
  -1   0   1   80.87    1.51
  -1   0   1   78.58    1.46
  -1   0   1   78.43    1.49
  -1   0   1   77.87    1.46
  -1   0   1   78.99    1.40
   0   0  -1   82.03    1.40
   0   0  -1   82.53    1.42
   0   0  -1   83.85    1.44
   0   0  -1   83.31    1.41
   0   0  -1   81.73    1.42
   0   0  -1   80.73    1.41
   0   0   1   82.91    1.40
   0   0   1   82.15    1.43
   0   0   1   76.58    1.40
   0   0   1   79.87    1.42
   0   0   1   81.94    1.54
  -1   0  -1  129.95    2.29
  -1   0  -1  128.65    2.28
  -1   0  -1  128.92    2.33
  -1   0  -1  127.45    2.20
  -1   0  -1  128.72    2.32
  -1   0  -1  130.45    2.32
   1   0   1  131.08    2.31
   1   0   1  123.08    2.26
   1   0   1  123.63    2.27
   1   0   1  128.63    2.19
   1   0   1  125.66    2.30
   1   0   1  130.50    2.34
   1   0   1  127.78    2.31
  -2   0  -1  146.51    2.63
  -2   0  -1  147.17    2.71
  -2   0  -1  148.64    2.83
  -2   0  -1  146.55    2.82
  -2   0  -1  147.71    2.83
  -2   0  -1  147.31    2.77
   2   0   1  145.86    2.80
   2   0   1  146.76    2.75
   2   0   1  152.01    2.83
   2   0   1  146.41    2.80
   2   0   1  146.91    2.85
   2   0   1  151.63    2.61
   2   0   1  144.34    2.73
   2   0   1  148.30    2.67
  -3   0  -1   88.24    2.03
  -3   0  -1   92.79    1.98
  -3   0  -1   89.43    1.76
  -3   0  -1   90.05    1.80
  -3   0  -1   91.66    2.06
  -3   0  -1   84.86    1.87
  -3   0  -1   92.08    2.03
   3   0   1   88.29    1.83
   3   0   1   87.61    2.01
   3   0   1   89.75    2.08
   3   0   1   89.03    2.03
   3   0   1   89.33    1.96
   3   0   1   88.08    1.91
   3   0   1   90.62    2.01
  -4   0  -1    4.78    0.42
  -4   0  -1    4.82    0.35
  -4   0  -1    4.60    0.32
  -4   0  -1    4.37    0.28
  -4   0  -1    4.20    0.42
  -4   0  -1    4.20    0.41
  -4   0  -1    4.61    0.39
   4   0   1    4.55    0.45
   4   0   1    4.74    0.43
   4   0   1    4.97    0.44
   4   0   1    4.45    0.32
   4   0   1    4.08    0.36
   4   0   1    4.64    0.39
   4   0   1    4.28    0.41
  -5   0  -1   11.95    0.62
  -5   0  -1    9.65    0.68
  -5   0  -1   11.15    0.47
  -5   0  -1   10.75    0.56
  -5   0  -1   12.21    0.68
   5   0   1   10.52    0.70
   5   0   1   11.34    0.65
   5   0   1   11.60    0.72
   5   0   1   10.59    0.71
  -6   0  -1    8.37    0.72
  -6   0  -1   10.08    1.00
  -6   0  -1    8.52    0.66
  -6   0  -1    9.26    0.59
   6   0   1    7.27    0.69
   6   0   1    9.28    0.75
   6   0   1    9.20    0.67
  -7   0  -1   15.14    0.80
  -7   0  -1   14.53    0.83
  -7   0  -1   13.41    0.99
   7   0   1   12.58    0.84
   7   0   1   14.19    0.99
   7   0   1   15.10    1.04
  -8   0  -1    0.89    0.32
  -8   0  -1    0.18    0.37
  -8   0  -1    0.80    0.33
  -8   0  -1    0.92    0.43
   8   0   1    1.12    0.49
   8  -1  -1   15.54    1.13
   8  -1  -1   15.06    1.14
   8  -1  -1   15.52    1.08
  -8   1   1   14.72    1.11
  -8   1   1   13.89    0.91
  -8   1   1   13.88    0.78
   7  -1  -1   22.38    1.22
   7  -1  -1   20.84    1.19
  -7   1   1   21.85    1.20
  -7   1   1   19.71    0.82
  -7   1   1   19.79    0.88
  -7   1   1   20.44    0.99
   6  -1  -1    0.35    0.30
   6  -1  -1   -0.14    0.21
   6  -1  -1   -0.07    0.19
  -6   1   1   -0.04    0.20
  -6   1   1    0.01    0.18
  -6   1   1    0.05    0.18
  -6   1   1    0.14    0.17
  -6   1   1    0.10    0.15
  -6   1   1   -0.02    0.10
   5  -1  -1    1.32    0.30
   5  -1  -1    1.72    0.35
   5  -1  -1    1.51    0.33
   5  -1  -1    1.75    0.30
   5  -1  -1    2.12    0.36
  -5   1   1    2.07    0.34
  -5   1   1    1.69    0.30
  -5   1   1    1.55    0.27
  -5   1   1    1.48    0.20
  -5   1   1    1.60    0.35
  -5   1   1    1.67    0.28
   4  -1  -1    5.10    0.32
   4  -1  -1    4.71    0.39
   4  -1  -1    4.71    0.41
   4  -1  -1    4.95    0.34
   4  -1  -1    5.39    0.44
   4  -1  -1    5.23    0.42
   4  -1  -1    5.85    0.42
   4  -1  -1    4.70    0.41
  -4   1   1    4.98    0.43
  -4   1   1    5.18    0.34
  -4   1   1    4.96    0.34
  -4   1   1    4.80    0.35
  -4   1   1    5.21    0.28
  -4   1   1    5.80    0.42
   3  -1  -1   85.97    1.72
   3  -1  -1   83.23    1.86
   3  -1  -1   84.48    1.89
   3  -1  -1   86.07    1.88
   3  -1  -1   84.16    1.89
   3  -1  -1   83.85    1.89
   3  -1  -1   90.64    1.87
   3  -1  -1   83.75    1.73
  -3   1   1   86.99    1.64
  -3   1   1   84.27    1.75
  -3   1   1   82.44    1.75
  -3   1   1   84.97    1.84
  -3   1   1   82.78    1.90
  -3   1   1   84.09    1.76
   2  -1  -1   72.48    1.50
   2  -1  -1   74.27    1.52
   2  -1  -1   71.23    1.51
   2  -1  -1   72.42    1.41
   2  -1  -1   72.56    1.47
   2  -1  -1   71.93    1.55
   2  -1  -1   71.30    1.48
   2  -1  -1   74.64    1.40
  -2   1   1   74.67    1.42
  -2   1   1   74.41    1.33
  -2   1   1   72.67    1.55
  -2   1   1   77.13    1.39
  -2   1   1   73.75    1.47
  -2   1   1   73.51    1.50
  -2   1   1   71.28    1.44
  -2   1   1   72.67    1.58
  -2   1   1   72.05    1.44
   1  -1  -1   73.12    1.37
   1  -1  -1   72.59    1.36
   1  -1  -1   73.94    1.36
   1  -1  -1   73.02    1.37
   1  -1  -1   72.83    1.33
   1  -1  -1   72.67    1.28
   1  -1  -1   73.59    1.36
   1  -1  -1   74.77    1.45
  -1   1   1   73.29    1.38
  -1   1   1   74.90    1.46
  -1   1   1   73.76    1.38
  -1   1   1   77.36    1.37
  -1   1   1   75.55    1.30
  -1   1   1   73.25    1.35
  -1   1   1   73.74    1.39
  -1   1   1   73.70    1.33
  -1   1   1   72.59    1.35
   0  -1  -1   16.11    0.44
   0  -1  -1   16.91    0.40
   0  -1  -1   16.29    0.38
   0  -1  -1   16.88    0.41
   0  -1  -1   16.25    0.39
   0  -1  -1   16.26    0.42
   0  -1  -1   16.61    0.31
   0  -1  -1   16.72    0.36
   0  -1  -1   16.54    0.39
   0   1   1   16.37    0.31
   0   1   1   16.96    0.40
   0   1   1   16.45    0.37
   0   1   1   16.58    0.39
   0   1   1   15.88    0.44
   0   1   1   16.74    0.32
   0   1   1   16.76    0.39
  -1  -1  -1  989.07   17.71
  -1  -1  -1  956.14   17.55
  -1  -1  -1  987.71   17.51
  -1  -1  -1  995.98   16.76
  -1  -1  -1  982.63   17.30
  -1  -1  -1  976.10   16.39
  -1  -1  -1 1000.00   17.64
   1   1   1  956.45   17.54
   1   1   1  972.69   17.15
   1   1   1  974.98   16.70
   1   1   1  960.59   17.43
   1   1   1  987.83   17.26
   1   1   1  967.78   17.31
   1   1   1  966.54   17.51
  -2  -1  -1  110.53    2.23
  -2  -1  -1  108.54    2.18
  -2  -1  -1  109.92    1.98
  -2  -1  -1  111.51    2.28
  -2  -1  -1  111.98    2.29
  -2  -1  -1  113.42    2.30
   2   1   1  110.03    2.08
   2   1   1  111.94    2.32
   2   1   1  112.89    2.29
   2   1   1  108.37    2.21
   2   1   1  110.04    2.24
   2   1   1  106.08    2.23
   2   1   1  106.69    2.06
  -3  -1  -1    7.88    0.43
  -3  -1  -1    6.78    0.47
  -3  -1  -1    6.92    0.29
  -3  -1  -1    7.59    0.48
  -3  -1  -1    7.69    0.46
  -3  -1  -1    7.25    0.33
  -3  -1  -1    7.99    0.51
   3   1   1    7.71    0.38
   3   1   1    7.56    0.52
   3   1   1    7.93    0.50
   3   1   1    7.76    0.47
   3   1   1    7.36    0.37
   3   1   1    7.82    0.45
   3   1   1    7.25    0.47
  -4  -1  -1    2.59    0.42
  -4  -1  -1    1.94    0.36
  -4  -1  -1    2.02    0.14
  -4  -1  -1    3.11    0.41
  -4  -1  -1    1.91    0.26
  -4  -1  -1    1.64    0.32
  -4  -1  -1    2.78    0.36
  -4  -1  -1    2.43    0.24
   4   1   1    2.05    0.37
   4   1   1    1.47    0.31
   4   1   1    1.88    0.27
   4   1   1    2.33    0.37
   4   1   1    2.24    0.40
  -5  -1  -1   10.07    0.53
  -5  -1  -1    9.86    0.72
  -5  -1  -1   10.97    0.88
  -5  -1  -1   10.85    0.62
  -5  -1  -1    9.43    0.51
  -5  -1  -1   10.36    0.68
   5   1   1    9.70    0.58
   5   1   1    9.85    0.71
   5   1   1   10.68    0.76
   5   1   1    8.67    0.67
  -6  -1  -1    2.04    0.35
  -6  -1  -1    1.56    0.35
  -6  -1  -1    1.81    0.43
   6   1   1    1.23    0.40
   6   1   1    1.91    0.44
   6   1   1    1.24    0.32
  -7  -1  -1    6.03    0.57
  -7  -1  -1    7.68    0.82
   7   1   1    6.29    0.83
   7   1   1    5.71    0.78
   7   1   1    6.58    0.63
   8  -2  -1   14.24    1.06
   8  -2  -1   14.28    1.06
  -8   2   1   12.87    0.80
  -8   2   1   13.98    0.92
  -8   2   1   14.29    1.08
  -8   2   1   16.13    1.09
   7  -2  -1    4.55    0.66
   7  -2  -1    4.28    0.66
  -7   2   1    3.66    0.58
  -7   2   1    3.92    0.43
  -7   2   1    4.56    0.58
   6  -2  -1    0.87    0.26
   6  -2  -1    0.54    0.29
   6  -2  -1    0.51    0.28
   6  -2  -1    0.45    0.28
  -6   2   1    0.15    0.19
  -6   2   1    0.57    0.31
  -6   2   1    0.54    0.20
  -6   2   1    0.30    0.13
  -6   2   1    0.80    0.22
  -6   2   1    0.82    0.26
  -6   2   1    0.80    0.21
   5  -2  -1    4.72    0.38
   5  -2  -1    4.08    0.44
   5  -2  -1    4.44    0.45
   5  -2  -1    3.52    0.45
   5  -2  -1    4.35    0.22
  -5   2   1    4.31    0.39
  -5   2   1    4.90    0.37
  -5   2   1    5.16    0.31
  -5   2   1    4.68    0.32
  -5   2   1    4.73    0.40
  -5   2   1    4.77    0.48
  -5   2   1    4.17    0.33
   4  -2  -1    4.71    0.41
   4  -2  -1    4.05    0.29
   4  -2  -1    4.50    0.31
   4  -2  -1    4.23    0.37
   4  -2  -1    4.65    0.39
   4  -2  -1    4.83    0.36
   4  -2  -1    4.32    0.37
  -4   2   1    3.66    0.26
  -4   2   1    3.77    0.25
  -4   2   1    4.49    0.34
  -4   2   1    4.36    0.26
  -4   2   1    4.83    0.36
  -4   2   1    4.14    0.38
  -4   2   1    4.16    0.34
  -4   2   1    4.58    0.29
   3  -2  -1  126.03    2.50
   3  -2  -1  127.25    2.37
   3  -2  -1  126.20    2.37
   3  -2  -1  123.63    2.48
   3  -2  -1  125.82    2.53
   3  -2  -1  126.82    2.50
   3  -2  -1  128.44    2.64
   3  -2  -1  125.49    2.46
  -3   2   1  124.14    2.41
  -3   2   1  128.58    2.48
  -3   2   1  127.18    2.47
  -3   2   1  122.96    2.54
  -3   2   1  127.22    2.30
  -3   2   1  123.70    2.32
  -3   2   1  124.54    2.32
  -3   2   1  128.47    2.35
   2  -2  -1   87.68    1.68
   2  -2  -1   86.27    1.69
   2  -2  -1   86.11    1.67
   2  -2  -1   86.44    1.68
   2  -2  -1   87.92    1.66
   2  -2  -1   85.15    1.64
   2  -2  -1   87.50    1.57
   2  -2  -1   85.56    1.83
   2  -2  -1   85.57    1.64
  -2   2   1   85.91    1.57
  -2   2   1   87.26    1.61
  -2   2   1   86.42    1.67
  -2   2   1   87.01    1.63
  -2   2   1   87.27    1.71
  -2   2   1   88.23    1.68
  -2   2   1   86.18    1.72
  -2   2   1   85.79    1.89
  -2   2   1   86.75    1.52
   1  -2  -1  374.57    6.22
   1  -2  -1  378.33    6.50
   1  -2  -1  381.48    6.41
   1  -2  -1  372.12    6.54
   1  -2  -1  367.49    6.49
   1  -2  -1  366.94    7.20
   1  -2  -1  382.39    6.55
   1  -2  -1  371.37    7.19
   1  -2  -1  386.96    6.26
   1  -2  -1  376.82    6.68
  -1   2   1  373.18    6.46
  -1   2   1  361.58    7.41
  -1   2   1  377.46    6.23
  -1   2   1  382.03    6.46
  -1   2   1  364.46    6.61
  -1   2   1  367.30    6.87
  -1   2   1  376.41    6.16
  -1   2   1  371.63    6.36
   0  -2  -1  122.89    2.05
   0  -2  -1  118.21    2.17
   0  -2  -1  118.94    2.31
   0  -2  -1  121.25    2.08
   0  -2  -1  122.24    2.19
   0  -2  -1  120.52    2.11
   0  -2  -1  122.29    2.17
   0  -2  -1  123.46    2.20
   0  -2  -1  120.17    2.18
   0   2   1  123.69    2.16
   0   2   1  122.57    2.23
   0   2   1  121.90    2.32
   0   2   1  123.22    2.10
   0   2   1  118.11    2.21
   0   2   1  122.92    2.14
   0   2   1  121.58    2.20
   0   2   1  124.55    2.17
  -1  -2  -1  137.12    2.64
  -1  -2  -1  140.43    2.63
  -1  -2  -1  138.86    2.64
  -1  -2  -1  139.04    2.59
  -1  -2  -1  137.05    2.61
  -1  -2  -1  139.99    2.40
  -1  -2  -1  136.62    2.46
   1   2   1  134.96    2.57
   1   2   1  143.13    2.70
   1   2   1  138.88    2.36
   1   2   1  135.10    2.59
   1   2   1  140.08    2.69
   1   2   1  141.55    2.65
   1   2   1  139.20    2.60
   1   2   1  140.67    2.48
  -2  -2  -1  116.51    2.43
  -2  -2  -1  115.49    2.04
  -2  -2  -1  116.75    2.19
  -2  -2  -1  115.56    2.45
  -2  -2  -1  115.65    2.33
  -2  -2  -1  115.28    2.38
  -2  -2  -1  113.60    2.42
  -2  -2  -1  110.11    2.25
   2   2   1  114.72    2.21
   2   2   1  117.22    2.44
   2   2   1  116.34    2.37
   2   2   1  114.81    2.36
   2   2   1  116.43    2.48
   2   2   1  115.02    2.07
   2   2   1  111.93    2.36
  -3  -2  -1   17.24    0.59
  -3  -2  -1   16.98    0.80
  -3  -2  -1   15.22    0.73
  -3  -2  -1   17.92    0.75
  -3  -2  -1   16.85    0.51
  -3  -2  -1   16.30    0.68
  -3  -2  -1   16.20    0.75
   3   2   1   17.27    0.74
   3   2   1   17.40    0.74
   3   2   1   17.21    0.78
   3   2   1   18.76    0.84
   3   2   1   17.71    0.74
   3   2   1   17.07    0.54
   3   2   1   17.73    0.63
  -4  -2  -1   21.90    0.99
  -4  -2  -1   22.34    0.70
  -4  -2  -1   22.98    0.95
  -4  -2  -1   23.65    1.05
  -4  -2  -1   23.13    0.68
  -4  -2  -1   23.09    0.86
  -4  -2  -1   23.77    0.91
   4   2   1   21.95    0.95
   4   2   1   20.94    0.99
   4   2   1   22.81    0.75
   4   2   1   21.15    1.04
   4   2   1   21.92    0.96
  -5  -2  -1   16.76    0.94
  -5  -2  -1   15.97    0.87
  -5  -2  -1   16.34    0.66
  -5  -2  -1   16.65    0.99
  -5  -2  -1   16.76    0.82
  -5  -2  -1   14.76    0.71
   5   2   1   17.23    0.71
   5   2   1   15.82    0.90
   5   2   1   15.16    0.97
   5   2   1   16.38    0.92
  -6  -2  -1   12.15    0.76
  -6  -2  -1   12.38    0.65
  -6  -2  -1   12.49    0.93
   6   2   1   12.53    0.68
   6   2   1   12.78    0.89
   6   2   1   12.88    0.91
  -7  -2  -1    4.18    0.63
  -7  -2  -1    3.48    0.69
   7   2   1    5.31    0.79
   8  -3  -1   10.94    0.93
   8  -3  -1    9.43    0.92
  -8   3   1   10.07    0.88
  -8   3   1   11.68    0.92
   7  -3  -1    0.55    0.27
   7  -3  -1    0.50    0.33
   7  -3  -1    0.57    0.32
  -7   3   1    0.66    0.31
  -7   3   1    0.89    0.26
  -7   3   1    0.69    0.33
  -7   3   1    0.65    0.19
   6  -3  -1    3.99    0.56
   6  -3  -1    4.16    0.26
   6  -3  -1    3.61    0.39
   6  -3  -1    3.92    0.54
   6  -3  -1    4.98    0.50
  -6   3   1    4.04    0.31
  -6   3   1    4.52    0.53
  -6   3   1    4.60    0.51
  -6   3   1    4.16    0.38
   5  -3  -1   13.48    0.79
   5  -3  -1   11.31    0.64
   5  -3  -1   12.71    0.49
   5  -3  -1   13.79    0.61
   5  -3  -1   13.00    0.70
   5  -3  -1   12.32    0.68
  -5   3   1   11.64    0.50
  -5   3   1   14.28    0.69
  -5   3   1   13.45    0.48
  -5   3   1   13.77    0.57
  -5   3   1   14.31    0.73
  -5   3   1   13.05    0.62
   4  -3  -1   15.19    0.56
   4  -3  -1   16.33    0.58
   4  -3  -1   14.86    0.63
   4  -3  -1   15.06    0.62
   4  -3  -1   15.19    0.65
   4  -3  -1   15.04    0.74
   4  -3  -1   14.98    0.66
  -4   3   1   15.79    0.45
  -4   3   1   14.96    0.65
  -4   3   1   15.54    0.56
  -4   3   1   15.54    0.44
  -4   3   1   15.16    0.58
  -4   3   1   14.88    0.66
  -4   3   1   15.41    0.56
   3  -3  -1   13.36    0.62
   3  -3  -1   13.12    0.52
   3  -3  -1   13.46    0.40
   3  -3  -1   13.10    0.48
   3  -3  -1   13.83    0.49
   3  -3  -1   12.44    0.49
   3  -3  -1   13.28    0.48
   3  -3  -1   13.24    0.50
   3  -3  -1   13.68    0.46
  -3   3   1   13.15    0.53
  -3   3   1   13.81    0.48
  -3   3   1   12.84    0.53
  -3   3   1   13.70    0.30
  -3   3   1   13.36    0.47
  -3   3   1   13.83    0.50
  -3   3   1   12.44    0.41
   2  -3  -1  431.14    7.17
   2  -3  -1  432.51    7.49
   2  -3  -1  421.94    7.10
   2  -3  -1  421.93    7.20
   2  -3  -1  431.45    7.12
   2  -3  -1  433.06    7.11
   2  -3  -1  414.75    7.56
  -2   3   1  424.50    7.72
  -2   3   1  411.94    7.51
  -2   3   1  422.80    7.17
  -2   3   1  416.57    7.26
  -2   3   1  428.22    7.10
  -2   3   1  420.77    7.11
  -2   3   1  425.54    7.25
   1  -3  -1    3.80    0.17
   1  -3  -1    4.50    0.27
   1  -3  -1    3.62    0.18
   1  -3  -1    3.77    0.19
   1  -3  -1    3.27    0.23
   1  -3  -1    3.66    0.17
   1  -3  -1    3.78    0.28
   1  -3  -1    3.52    0.16
   1  -3  -1    3.65    0.16
   1  -3  -1    3.78    0.19
  -1   3   1    3.67    0.28
  -1   3   1    3.73    0.27
  -1   3   1    3.97    0.17
  -1   3   1    4.05    0.19
  -1   3   1    3.78    0.19
  -1   3   1    3.98    0.21
  -1   3   1    3.92    0.18
   0  -3  -1   22.72    0.61
   0  -3  -1   21.75    0.59
   0  -3  -1   23.06    0.59
   0  -3  -1   22.06    0.51
   0  -3  -1   21.08    0.71
   0  -3  -1   22.33    0.48
   0  -3  -1   21.90    0.52
   0  -3  -1   21.79    0.60
   0  -3  -1   22.41    0.59
   0   3   1   21.74    0.56
   0   3   1   22.61    0.53
   0   3   1   21.91    0.73
   0   3   1   23.02    0.62
   0   3   1   23.21    0.66
   0   3   1   23.30    0.65
   0   3   1   22.11    0.56
   0   3   1   22.90    0.53
  -1  -3  -1   13.65    0.33
  -1  -3  -1   13.73    0.54
  -1  -3  -1   13.64    0.53
  -1  -3  -1   14.26    0.56
  -1  -3  -1   13.37    0.50
  -1  -3  -1   13.66    0.42
  -1  -3  -1   13.47    0.52
   1   3   1   12.84    0.47
   1   3   1   13.39    0.50
   1   3   1   14.15    0.55
   1   3   1   13.70    0.44
   1   3   1   13.01    0.57
   1   3   1   12.93    0.56
  -2  -3  -1   41.70    1.21
  -2  -3  -1   41.41    1.00
  -2  -3  -1   40.81    1.22
  -2  -3  -1   38.48    1.10
  -2  -3  -1   39.78    1.12
  -2  -3  -1   40.06    1.15
  -2  -3  -1   41.28    0.82
  -2  -3  -1   40.21    1.20
   2   3   1   42.25    1.22
   2   3   1   40.01    1.21
   2   3   1   41.73    1.15
   2   3   1   44.55    1.04
   2   3   1   40.75    1.27
   2   3   1   40.48    1.11
   2   3   1   42.42    0.80
   2   3   1   41.93    1.16
  -3  -3  -1    3.31    0.41
  -3  -3  -1    3.78    0.35
  -3  -3  -1    3.58    0.21
  -3  -3  -1    4.14    0.43
  -3  -3  -1    3.53    0.40
  -3  -3  -1    3.41    0.31
   3   3   1    3.76    0.37
   3   3   1    4.41    0.46
   3   3   1    3.56    0.21
   3   3   1    3.75    0.36
   3   3   1    4.46    0.44
   3   3   1    3.85    0.30
   3   3   1    3.57    0.37
  -4  -3  -1   25.01    1.14
  -4  -3  -1   22.93    0.94
  -4  -3  -1   22.40    0.69
  -4  -3  -1   24.38    0.81
  -4  -3  -1   22.51    1.04
  -4  -3  -1   21.98    0.98
   4   3   1   23.09    1.00
   4   3   1   23.66    1.14
   4   3   1   24.60    1.11
   4   3   1   22.87    0.67
   4   3   1   21.22    0.95
  -5  -3  -1    8.35    0.45
  -5  -3  -1    8.71    0.63
  -5  -3  -1    8.76    0.73
  -5  -3  -1    8.72    0.77
  -5  -3  -1    8.90    0.68
   5   3   1    8.14    0.68
   5   3   1    7.84    0.45
   5   3   1    8.44    0.69
  -6  -3  -1    1.68    0.51
  -6  -3  -1    1.20    0.35
  -6  -3  -1    1.78    0.32
   6   3   1    1.68    0.47
   8  -4  -1    1.87    0.55
   8  -4  -1    4.11    0.71
  -8   4   1    2.71    0.54
   7  -4  -1    1.73    0.45
   7  -4  -1    1.30    0.38
   7  -4  -1    1.40    0.33
  -7   4   1    1.18    0.33
  -7   4   1    0.95    0.34
  -7   4   1    1.11    0.33
   6  -4  -1   15.51    0.85
   6  -4  -1   15.56    0.81
   6  -4  -1   15.20    0.73
   6  -4  -1   13.69    0.81
  -6   4   1   15.84    0.83
  -6   4   1   16.01    0.84
  -6   4   1   15.65    0.43
  -6   4   1   16.19    0.73
   5  -4  -1   14.04    0.68
   5  -4  -1   13.03    0.59
   5  -4  -1   13.75    0.60
   5  -4  -1   14.43    0.71
   5  -4  -1   13.93    0.66
   5  -4  -1   13.62    0.70
  -5   4   1   14.46    0.62
  -5   4   1   13.27    0.58
  -5   4   1   13.73    0.71
  -5   4   1   14.09    0.57
  -5   4   1   14.12    0.71
   4  -4  -1   13.00    0.56
   4  -4  -1   13.01    0.55
   4  -4  -1   12.34    0.53
   4  -4  -1   12.60    0.51
   4  -4  -1   13.29    0.59
  -4   4   1   12.33    0.57
  -4   4   1   12.37    0.47
  -4   4   1   12.36    0.54
  -4   4   1   11.22    0.52
  -4   4   1   11.44    0.58
   3  -4  -1   29.74    1.02
   3  -4  -1   30.20    0.77
   3  -4  -1   30.12    0.82
   3  -4  -1   29.69    0.77
   3  -4  -1   28.90    0.84
   3  -4  -1   30.37    0.82
   3  -4  -1   30.12    0.75
   3  -4  -1   28.69    0.75
  -3   4   1   29.81    0.75
  -3   4   1   29.60    0.90
  -3   4   1   29.04    0.69
  -3   4   1   28.99    0.84
  -3   4   1   28.95    0.88
  -3   4   1   29.49    0.82
  -3   4   1   28.39    1.08
  -3   4   1   28.88    0.62
   2  -4  -1   34.25    0.75
   2  -4  -1   34.61    1.05
   2  -4  -1   33.65    0.89
   2  -4  -1   34.13    0.76
   2  -4  -1   34.01    0.86
   2  -4  -1   33.72    0.91
   2  -4  -1   33.88    1.02
   2  -4  -1   33.88    0.71
   2  -4  -1   33.70    0.76
  -2   4   1   34.29    0.80
  -2   4   1   34.32    0.75
  -2   4   1   35.36    0.92
  -2   4   1   34.52    1.11
  -2   4   1   34.54    0.70
  -2   4   1   34.35    0.66
   1  -4  -1   17.72    0.49
   1  -4  -1   17.18    0.68
   1  -4  -1   18.52    0.62
   1  -4  -1   16.56    0.47
   1  -4  -1   17.34    0.63
   1  -4  -1   18.11    0.47
   1  -4  -1   17.52    0.49
   1  -4  -1   17.10    0.47
   1  -4  -1   17.05    0.45
  -1   4   1   16.51    0.67
  -1   4   1   16.65    0.44
  -1   4   1   17.89    0.68
  -1   4   1   17.13    0.48
  -1   4   1   18.06    0.51
  -1   4   1   17.45    0.46
  -1   4   1   17.87    0.52
   0  -4  -1    4.23    0.26
   0  -4  -1    4.25    0.27
   0  -4  -1    4.11    0.25
   0  -4  -1    4.12    0.34
   0  -4  -1    4.09    0.25
   0  -4  -1    4.52    0.20
   0  -4  -1    4.71    0.22
   0  -4  -1    4.92    0.27
   0  -4  -1    4.24    0.18
   0   4   1    4.25    0.35
   0   4   1    4.48    0.20
   0   4   1    4.29    0.22
   0   4   1    4.24    0.23
   0   4   1    4.11    0.30
   0   4   1    4.39    0.30
   0   4   1    4.77    0.29
   0   4   1    4.26    0.23
  -1  -4  -1   80.96    1.62
  -1  -4  -1   77.63    1.91
  -1  -4  -1   80.88    1.85
  -1  -4  -1   82.65    1.82
  -1  -4  -1   82.12    1.43
  -1  -4  -1   80.60    1.76
  -1  -4  -1   80.84    1.78
  -1  -4  -1   80.86    1.44
  -1  -4  -1   79.20    1.81
   1   4   1   80.07    1.67
   1   4   1   83.64    1.75
   1   4   1   78.70    1.93
   1   4   1   79.32    1.71
   1   4   1   82.44    1.67
   1   4   1   81.05    1.71
   1   4   1   81.62    1.83
  -2  -4  -1   13.77    0.34
  -2  -4  -1   12.42    0.64
  -2  -4  -1   13.68    0.52
  -2  -4  -1   13.29    0.60
  -2  -4  -1   14.35    0.69
  -2  -4  -1   13.18    0.64
  -2  -4  -1   13.38    0.69
  -2  -4  -1   14.14    0.65
   2   4   1   14.01    0.62
   2   4   1   12.86    0.68
   2   4   1   13.43    0.71
   2   4   1   13.74    0.54
   2   4   1   13.84    0.59
   2   4   1   13.84    0.68
   2   4   1   13.65    0.61
  -3  -4  -1    1.59    0.17
  -3  -4  -1    1.39    0.29
  -3  -4  -1    0.87    0.27
  -3  -4  -1    1.63    0.29
  -3  -4  -1    1.86    0.38
  -3  -4  -1    1.48    0.24
  -3  -4  -1    2.04    0.35
   3   4   1    1.30    0.28
   3   4   1    1.52    0.25
   3   4   1    1.28    0.28
   3   4   1    1.54    0.33
   3   4   1    1.93    0.34
   3   4   1    1.68    0.36
   3   4   1    2.28    0.42
  -4  -4  -1    9.11    0.66
  -4  -4  -1    9.32    0.41
  -4  -4  -1   11.37    0.81
  -4  -4  -1   11.04    0.67
  -4  -4  -1   10.65    0.59
  -4  -4  -1    9.80    0.73
   4   4   1   10.32    0.69
   4   4   1    9.25    0.78
   4   4   1   10.05    0.72
   4   4   1   10.47    0.35
   4   4   1   10.18    0.68
  -5  -4  -1    9.40    0.47
  -5  -4  -1    9.21    0.78
  -5  -4  -1    8.98    0.66
  -5  -4  -1    9.60    0.74
   5   4   1    9.92    0.78
   5   4   1    8.64    0.72
  -6  -4  -1    2.79    0.48
   6   4   1    3.96    0.64
   6   4   1    2.66    0.53
   8  -5  -1    4.80    0.76
  -8   5   1    3.75    0.58
   7  -5  -1   16.27    0.84
   7  -5  -1   17.64    0.97
   7  -5  -1   16.05    0.96
  -7   5   1   15.58    0.95
  -7   5   1   16.70    0.91
  -7   5   1   16.07    0.82
   6  -5  -1    2.41    0.42
   6  -5  -1    1.65    0.35
   6  -5  -1    2.14    0.36
   6  -5  -1    2.08    0.32
  -6   5   1    2.53    0.37
  -6   5   1    2.36    0.40
  -6   5   1    2.06    0.40
   5  -5  -1   39.26    1.15
   5  -5  -1   38.06    1.21
   5  -5  -1   38.14    1.09
   5  -5  -1   37.96    1.14
   5  -5  -1   40.44    1.21
   5  -5  -1   38.41    1.20
  -5   5   1   38.87    1.17
  -5   5   1   37.56    1.17
  -5   5   1   37.90    1.28
  -5   5   1   37.71    0.94
   4  -5  -1    0.65    0.16
   4  -5  -1    0.74    0.15
   4  -5  -1    0.55    0.16
   4  -5  -1    0.41    0.15
   4  -5  -1    0.66    0.21
   4  -5  -1    0.60    0.18
   4  -5  -1    0.60    0.16
  -4   5   1    1.08    0.24
  -4   5   1    0.55    0.15
  -4   5   1    0.56    0.18
  -4   5   1    0.56    0.16
  -4   5   1    0.60    0.10
  -4   5   1    0.59    0.23
   3  -5  -1    1.50    0.18
   3  -5  -1    1.75    0.19
   3  -5  -1    1.67    0.24
   3  -5  -1    1.46    0.19
   3  -5  -1    1.77    0.31
   3  -5  -1    1.56    0.15
   3  -5  -1    1.29    0.21
   3  -5  -1    1.70    0.22
   3  -5  -1    1.19    0.26
  -3   5   1    1.45    0.32
  -3   5   1    1.62    0.20
  -3   5   1    1.56    0.26
  -3   5   1    1.59    0.16
   2  -5  -1    5.73    0.40
   2  -5  -1    5.21    0.30
   2  -5  -1    5.52    0.24
   2  -5  -1    5.99    0.37
   2  -5  -1    5.55    0.24
   2  -5  -1    5.81    0.29
   2  -5  -1    5.74    0.22
   2  -5  -1    5.09    0.34
   2  -5  -1    5.58    0.24
   2  -5  -1    5.66    0.43
  -2   5   1    5.13    0.24
  -2   5   1    5.54    0.33
  -2   5   1    5.43    0.26
  -2   5   1    4.36    0.41
   1  -5  -1    6.63    0.46
   1  -5  -1    7.01    0.29
   1  -5  -1    7.09    0.40
   1  -5  -1    7.34    0.31
   1  -5  -1    7.38    0.44
   1  -5  -1    7.04    0.31
   1  -5  -1    7.86    0.33
   1  -5  -1    7.04    0.49
   1  -5  -1    7.30    0.31
   1  -5  -1    7.14    0.30
  -1   5   1    6.98    0.46
  -1   5   1    7.79    0.35
  -1   5   1    7.79    0.30
  -1   5   1    7.48    0.47
  -1   5   1    8.49    0.28
   0  -5  -1    6.49    0.25
   0  -5  -1    6.23    0.47
   0  -5  -1    6.84    0.36
   0  -5  -1    6.79    0.35
   0  -5  -1    6.56    0.30
   0  -5  -1    7.15    0.39
   0  -5  -1    6.62    0.26
   0  -5  -1    7.23    0.36
   0  -5  -1    6.29    0.46
   0  -5  -1    6.74    0.34
   0   5   1    7.01    0.32
   0   5   1    6.90    0.31
   0   5   1    6.86    0.37
   0   5   1    6.32    0.41
   0   5   1    6.71    0.25
   0   5   1    6.59    0.47
   0   5   1    6.48    0.40
   0   5   1    6.91    0.27
  -1  -5  -1   13.50    0.57
  -1  -5  -1   12.70    0.63
  -1  -5  -1   13.68    0.70
  -1  -5  -1   13.21    0.59
  -1  -5  -1   13.21    0.62
  -1  -5  -1   13.24    0.34
  -1  -5  -1   12.51    0.47
  -1  -5  -1   12.24    0.56
   1   5   1   13.01    0.51
   1   5   1   13.01    0.65
   1   5   1   13.13    0.56
   1   5   1   13.87    0.54
   1   5   1   13.52    0.49
   1   5   1   13.21    0.54
   1   5   1   13.53    0.62
   1   5   1   12.92    0.69
  -2  -5  -1   13.01    0.63
  -2  -5  -1   12.35    0.63
  -2  -5  -1   11.68    0.68
  -2  -5  -1   12.02    0.52
  -2  -5  -1   12.04    0.64
  -2  -5  -1   12.38    0.68
   2   5   1   12.97    0.62
   2   5   1   12.59    0.73
   2   5   1   11.95    0.71
   2   5   1   11.94    0.56
   2   5   1   12.23    0.55
  -3  -5  -1   11.01    0.65
  -3  -5  -1   10.75    0.54
  -3  -5  -1   11.77    0.69
  -3  -5  -1   11.22    0.69
  -3  -5  -1   10.84    0.35
  -3  -5  -1   13.04    0.81
  -3  -5  -1   13.16    0.75
   3   5   1   10.42    0.61
   3   5   1   11.45    0.79
   3   5   1   11.40    0.76
   3   5   1   10.80    0.65
  -4  -5  -1   15.66    0.51
  -4  -5  -1   15.68    0.93
  -4  -5  -1   17.17    0.88
  -4  -5  -1   15.56    0.89
   4   5   1   16.28    0.84
   4   5   1   16.93    1.00
  -5  -5  -1    6.20    0.66
  -5  -5  -1    6.18    0.59
   5   5   1    6.56    0.66
   5   5   1    7.26    0.73
  -8   6   1    0.70    0.34
   7  -6  -1   10.54    0.73
   7  -6  -1    9.60    0.83
   7  -6  -1    8.83    0.64
  -7   6   1    9.25    0.66
  -7   6   1    8.12    0.75
   6  -6  -1    8.18    0.62
   6  -6  -1    8.17    0.59
   6  -6  -1    8.48    0.60
   6  -6  -1    7.86    0.53
  -6   6   1    7.78    0.56
  -6   6   1    8.08    0.67
  -6   6   1    7.28    0.52
   5  -6  -1    3.47    0.41
   5  -6  -1    4.26    0.36
   5  -6  -1    4.24    0.36
   5  -6  -1    3.77    0.38
   5  -6  -1    4.21    0.34
   5  -6  -1    4.50    0.61
  -5   6   1    4.09    0.50
  -5   6   1    2.93    0.31
  -5   6   1    3.83    0.31
   4  -6  -1    1.28    0.22
   4  -6  -1    0.78    0.19
   4  -6  -1    1.06    0.18
   4  -6  -1    1.05    0.22
   4  -6  -1    1.02    0.18
   4  -6  -1    0.93    0.19
  -4   6   1    0.82    0.17
  -4   6   1    1.18    0.17
  -4   6   1    0.99    0.26
   3  -6  -1   14.78    0.63
   3  -6  -1   15.70    0.65
   3  -6  -1   16.76    0.51
   3  -6  -1   15.69    0.52
   3  -6  -1   17.70    0.65
   3  -6  -1   16.07    0.47
   3  -6  -1   15.95    0.48
  -3   6   1   15.92    0.88
  -3   6   1   16.44    0.45
  -3   6   1   16.18    0.50
  -3   6   1   16.52    0.69
   2  -6  -1    3.37    0.26
   2  -6  -1    3.44    0.32
   2  -6  -1    3.33    0.21
   2  -6  -1    3.01    0.19
   2  -6  -1    2.99    0.23
   2  -6  -1    3.52    0.20
   2  -6  -1    3.28    0.19
   2  -6  -1    3.00    0.30
  -2   6   1    3.22    0.22
  -2   6   1    3.12    0.22
  -2   6   1    3.33    0.29
  -2   6   1    3.94    0.51
   1  -6  -1   11.15    0.46
   1  -6  -1   10.95    0.41
   1  -6  -1   10.93    0.42
   1  -6  -1   11.13    0.60
   1  -6  -1   10.49    0.42
   1  -6  -1   10.85    0.41
   1  -6  -1   10.57    0.40
  -1   6   1    9.41    0.59
  -1   6   1   10.74    0.39
  -1   6   1   10.53    0.34
  -1   6   1   11.56    0.48
   0  -6  -1   27.50    0.64
   0  -6  -1   26.51    0.81
   0  -6  -1   28.04    0.75
   0  -6  -1   28.53    0.91
   0  -6  -1   27.36    0.66
   0  -6  -1   27.25    0.82
   0  -6  -1   26.72    0.85
   0  -6  -1   25.89    0.80
   0   6   1   27.76    0.97
   0   6   1   26.81    0.57
   0   6   1   26.57    1.06
   0   6   1   28.95    0.79
   0   6   1   26.71    0.58
   0   6   1   28.05    0.74
   0   6   1   27.50    0.91
  -1  -6  -1   18.95    0.73
  -1  -6  -1   19.03    0.63
  -1  -6  -1   18.27    0.72
  -1  -6  -1   18.35    0.44
  -1  -6  -1   19.39    0.84
  -1  -6  -1   18.51    0.75
  -1  -6  -1   19.35    1.18
   1   6   1   18.24    0.59
   1   6   1   18.07    0.90
   1   6   1   16.57    0.64
   1   6   1   18.59    0.66
   1   6   1   16.92    0.81
   1   6   1   17.90    0.64
   1   6   1   18.09    0.74
  -2  -6  -1   14.46    0.34
  -2  -6  -1   14.82    0.75
  -2  -6  -1   13.82    0.69
  -2  -6  -1   15.45    0.62
  -2  -6  -1   15.88    0.86
  -2  -6  -1   14.77    0.73
   2   6   1   14.97    0.68
   2   6   1   15.56    0.69
   2   6   1   14.93    0.65
   2   6   1   14.29    0.64
   2   6   1   15.46    0.63
   2   6   1   15.19    0.86
  -3  -6  -1   20.28    0.51
  -3  -6  -1   19.81    0.91
  -3  -6  -1   20.17    1.09
  -3  -6  -1   19.84    0.95
  -3  -6  -1   20.29    0.79
   3   6   1   19.39    0.83
   3   6   1   20.05    1.06
   3   6   1   18.56    0.75
  -4  -6  -1    8.46    0.65
  -4  -6  -1    7.94    0.67
   4   6   1    8.04    0.75
   4   6   1    6.64    0.59
  -5  -6  -1    2.26    0.47
  -5  -6  -1    2.37    0.43
   5   6   1    2.76    0.51
   5   6   1    2.35    0.56
   7  -7  -1    1.75    0.44
   7  -7  -1    2.11    0.39
  -7   7   1    1.56    0.44
  -7   7   1    1.75    0.33
   6  -7  -1    3.80    0.41
   6  -7  -1    3.95    0.40
  -6   7   1    3.25    0.30
  -6   7   1    3.60    0.54
  -6   7   1    3.25    0.36
   5  -7  -1    2.07    0.26
   5  -7  -1    2.33    0.33
   5  -7  -1    1.73    0.30
   5  -7  -1    1.36    0.26
  -5   7   1    1.89    0.21
  -5   7   1    1.92    0.39
   4  -7  -1   14.46    0.63
   4  -7  -1   14.68    0.66
   4  -7  -1   15.30    0.54
   4  -7  -1   14.04    0.56
   4  -7  -1   13.43    0.52
   4  -7  -1   13.76    0.47
  -4   7   1   14.29    0.74
   3  -7  -1    1.53    0.17
   3  -7  -1    1.68    0.17
   3  -7  -1    2.27    0.33
   3  -7  -1    2.07    0.19
   3  -7  -1    1.85    0.30
   3  -7  -1    1.73    0.24
  -3   7   1    2.40    0.35
  -3   7   1    1.61    0.37
   2  -7  -1   42.33    1.31
   2  -7  -1   42.49    0.98
   2  -7  -1   43.75    1.12
   2  -7  -1   46.15    1.07
   2  -7  -1   44.42    1.01
   2  -7  -1   42.44    1.07
   2  -7  -1   45.21    1.34
   2  -7  -1   43.05    0.98
  -2   7   1   43.57    0.98
  -2   7   1   45.16    1.54
  -2   7   1   44.64    1.02
   1  -7  -1   27.08    0.79
   1  -7  -1   25.84    0.73
   1  -7  -1   25.21    0.73
   1  -7  -1   25.96    0.82
   1  -7  -1   25.84    1.01
   1  -7  -1   25.38    0.72
   1  -7  -1   25.88    0.73
  -1   7   1   22.87    1.03
  -1   7   1   25.30    0.73
  -1   7   1   25.91    0.82
  -1   7   1   26.83    1.08
  -1   7   1   25.63    0.60
   0  -7  -1   51.55    1.32
   0  -7  -1   51.21    1.39
   0  -7  -1   50.94    1.09
   0  -7  -1   51.54    1.44
   0  -7  -1   52.77    1.31
   0  -7  -1   53.11    1.06
   0  -7  -1   52.39    1.22
   0  -7  -1   50.58    1.31
   0   7   1   50.43    1.53
   0   7   1   50.85    1.45
   0   7   1   53.25    1.19
   0   7   1   53.43    1.70
  -1  -7  -1    0.47    0.17
  -1  -7  -1    0.62    0.17
  -1  -7  -1    0.87    0.26
  -1  -7  -1    0.51    0.21
  -1  -7  -1    0.71    0.21
  -1  -7  -1    0.62    0.10
   1   7   1    0.43    0.13
   1   7   1    0.42    0.20
   1   7   1    0.61    0.25
   1   7   1    0.55    0.18
   1   7   1    0.40    0.20
   1   7   1    0.40    0.16
   1   7   1    0.62    0.14
  -2  -7  -1    5.54    0.47
  -2  -7  -1    6.09    0.51
  -2  -7  -1    4.40    0.37
   2   7   1    5.09    0.37
   2   7   1    5.98    0.61
   2   7   1    4.75    0.42
  -3  -7  -1    5.10    0.42
  -3  -7  -1    5.21    0.51
  -3  -7  -1    5.00    0.60
   3   7   1    4.99    0.43
   3   7   1    5.14    0.68
   3   7   1    5.29    0.46
  -4  -7  -1    4.64    0.63
  -4  -7  -1    4.61    0.60
   4   7   1    5.35    0.78
   4   7   1    5.28    0.56
  -5  -7  -1    8.32    0.79
   5   7   1    8.57    0.73
   7  -8  -1    6.84    0.77
   6  -8  -1    6.89    0.54
   6  -8  -1    7.30    0.51
  -6   8   1    9.01    0.75
   5  -8  -1    6.26    0.48
   5  -8  -1    5.73    0.32
   5  -8  -1    4.95    0.38
  -5   8   1    6.22    0.57
   4  -8  -1    9.64    0.59
   4  -8  -1    9.58    0.52
   4  -8  -1    9.88    0.38
   4  -8  -1   10.60    0.47
   4  -8  -1   10.20    0.57
  -4   8   1   10.40    0.65
   3  -8  -1    3.30    0.24
   3  -8  -1    3.19    0.24
   3  -8  -1    3.43    0.29
   3  -8  -1    3.25    0.22
   3  -8  -1    3.18    0.37
  -3   8   1    3.46    0.57
   2  -8  -1   13.43    0.73
   2  -8  -1   11.84    0.53
   2  -8  -1   11.34    0.43
   2  -8  -1   12.45    0.51
   2  -8  -1   11.08    0.43
   2  -8  -1   11.75    0.50
   2  -8  -1   12.48    0.49
  -2   8   1   12.01    0.42
  -2   8   1   13.07    0.46
  -2   8   1   12.39    0.83
   1  -8  -1    3.54    0.26
   1  -8  -1    4.42    0.48
   1  -8  -1    3.93    0.28
   1  -8  -1    3.70    0.28
   1  -8  -1    3.36    0.34
   1  -8  -1    4.02    0.29
   1  -8  -1    3.83    0.33
   1  -8  -1    4.38    0.31
   1  -8  -1    4.02    0.31
  -1   8   1    3.59    0.33
  -1   8   1    3.24    0.48
  -1   8   1    3.76    0.30
  -1   8   1    4.20    0.50
   0  -8  -1    1.17    0.23
   0  -8  -1    0.90    0.25
   0  -8  -1    1.20    0.21
   0   8   1    0.75    0.28
   0   8   1    0.89    0.17
   0   8   1    0.80    0.28
   0   8   1    0.90    0.25
  -1  -8  -1    5.40    0.45
  -1  -8  -1    5.11    0.36
  -1  -8  -1    7.31    0.50
   1   8   1    6.70    0.65
   1   8   1    6.23    0.41
   1   8   1    6.31    0.54
  -2  -8  -1    3.06    0.46
  -2  -8  -1    2.60    0.41
  -2  -8  -1    3.12    0.33
   2   8   1    2.76    0.45
   2   8   1    2.54    0.55
   2   8   1    2.71    0.29
  -3  -8  -1   20.41    1.00
  -3  -8  -1   20.69    0.85
  -3  -8  -1   18.41    0.97
   3   8   1   21.02    0.84
   3   8   1   19.70    1.19
  -4  -8  -1    1.62    0.43
   4   8   1    2.90    0.46
   6  -9  -1    2.27    0.34
   6  -9  -1    2.54    0.38
  -6   9   1    2.44    0.53
   5  -9  -1   10.98    0.49
   5  -9  -1   10.62    0.65
   5  -9  -1    9.96    0.40
  -5   9   1   11.13    0.76
   4  -9  -1    9.73    0.55
   4  -9  -1    9.16    0.41
   4  -9  -1    9.18    0.37
   4  -9  -1    9.04    0.61
   3  -9  -1    2.86    0.26
   3  -9  -1    3.36    0.31
   3  -9  -1    2.87    0.41
  -3   9   1    2.94    0.58
   2  -9  -1    2.37    0.25
   2  -9  -1    2.76    0.32
   2  -9  -1    2.82    0.28
   2  -9  -1    3.78    0.49
   2  -9  -1    2.82    0.24
  -2   9   1    3.03    0.53
   1  -9  -1    8.54    0.43
   1  -9  -1    8.72    0.47
   1  -9  -1   10.16    0.72
   1  -9  -1    8.44    0.55
   1  -9  -1    9.40    0.44
  -1   9   1    9.08    0.75
  -1   9   1    9.70    0.53
  -1   9   1    8.70    0.72
  -1   9   1    9.29    0.46
   0  -9  -1    0.30    0.16
   0  -9  -1    0.24    0.13
   0  -9  -1    0.03    0.20
   0   9   1   -0.05    0.22
   0   9   1    0.29    0.20
  -1  -9  -1   23.73    0.96
  -1  -9  -1   23.73    0.82
   1   9   1   23.01    1.06
   1   9   1   24.99    1.29
  -2  -9  -1   20.18    0.98
  -2  -9  -1   19.46    0.94
   2   9   1   17.57    1.16
  -3  -9  -1   10.21    0.85
   6 -10  -1   -0.05    0.22
   5 -10  -1   19.69    0.94
   4 -10  -1    4.15    0.48
   4 -10  -1    4.39    0.27
   4 -10  -1    4.17    0.26
   3 -10  -1   16.06    0.88
   3 -10  -1   16.04    0.59
  -3  10   1   16.84    1.12
   2 -10  -1    0.76    0.17
   2 -10  -1    0.60    0.20
   2 -10  -1    0.74    0.29
  -2  10   1    0.97    0.38
   1 -10  -1    2.85    0.29
   1 -10  -1    4.09    0.59
  -1  10   1    3.28    0.61
  -1  10   1    3.05    0.33
  -1  10   1    2.88    0.53
  -1  10   1    3.65    0.38
   0 -10  -1    0.68    0.22
   0 -10  -1    0.73    0.34
   0  10   1    1.14    0.39
   0  10   1    0.68    0.32
  -1 -10  -1    3.15    0.48
  -1 -10  -1    3.79    0.71
   1  10   1    1.99    0.72
   3 -11  -1    0.51    0.25
  -3  11   1    0.80    0.43
  -2  11   1    4.86    0.73
  -1  11   1    0.92    0.39
  -1  11   1    1.84    0.27
   0  11   1    4.46    0.45
  -1  12  -2    6.14    0.73
   1 -12   2    5.00    0.43
   1 -12   2    7.90    1.20
   2 -12   2    2.32    0.47
   3 -12   2   11.03    0.78
   4 -12   2    0.45    0.33
   4 -12   2    0.69    0.28
  -2 -11   2    0.45    0.22
  -2 -11   2   -0.09    0.19
   1  11  -2    1.22    0.40
  -1 -11   2    0.95    0.27
  -1 -11   2    1.29    0.29
   0  11  -2    3.87    0.69
   0 -11   2    4.06    0.36
   0 -11   2    4.07    0.40
  -1  11  -2    0.80    0.29
   1 -11   2    0.75    0.21
   1 -11   2    0.92    0.18
   1 -11   2    0.91    0.26
   2 -11   2   17.23    0.82
   2 -11   2   17.85    0.98
   3 -11   2    4.97    0.47
   3 -11   2    4.42    0.48
   3 -11   2    4.63    0.50
   4 -11   2    1.72    0.35
   4 -11   2    1.32    0.36
   4 -11   2    0.94    0.27
   5 -11   2    0.01    0.17
   5 -11   2    0.21    0.22
   5 -11   2    0.07    0.15
   6 -11   2    0.28    0.23
  -3 -10   2    3.11    0.53
  -3 -10   2    3.24    0.47
  -3 -10   2    3.30    0.53
   2  10  -2    1.80    0.45
  -2 -10   2    0.91    0.28
  -2 -10   2    1.60    0.32
  -2 -10   2    1.08    0.31
   1  10  -2    1.77    0.45
  -1 -10   2    1.63    0.32
  -1 -10   2    1.29    0.30
  -1 -10   2    1.80    0.34
   0  10  -2   12.91    0.60
   0  10  -2   11.75    0.85
   0 -10   2   10.79    0.63
   0 -10   2   11.66    0.58
   0 -10   2   11.75    0.61
   0 -10   2   11.87    0.64
  -1  10  -2    5.19    0.71
   1 -10   2    3.62    0.26
   1 -10   2    3.87    0.33
   1 -10   2    3.59    0.33
   1 -10   2    4.03    0.31
   1 -10   2    3.93    0.38
   2 -10   2    5.36    0.53
   2 -10   2    4.63    0.43
   2 -10   2    4.61    0.41
   3 -10   2   10.37    0.66
   3 -10   2    9.81    0.61
   3 -10   2   10.76    0.69
   4 -10   2    3.31    0.38
   4 -10   2    2.43    0.39
   4 -10   2    3.65    0.52
   5 -10   2    1.32    0.38
   5 -10   2    0.53    0.20
   5 -10   2    1.32    0.33
   6 -10   2    2.98    0.61
  -4  -9   2    5.61    0.75
  -4  -9   2    4.94    0.53
  -4  -9   2    3.99    0.64
   3   9  -2    0.11    0.23
   3   9  -2    0.09    0.25
  -3  -9   2    0.18    0.25
  -3  -9   2    0.19    0.20
  -3  -9   2    0.32    0.24
   2   9  -2    1.84    0.42
  -2  -9   2    1.58    0.37
  -2  -9   2    2.23    0.41
  -2  -9   2    2.03    0.34
   1   9  -2    7.10    0.54
   1   9  -2    7.71    0.50
   1   9  -2    7.91    0.69
  -1  -9   2    8.51    0.61
  -1  -9   2    7.73    0.49
  -1  -9   2    8.04    0.54
  -1  -9   2    8.20    0.55
  -1  -9   2    7.82    0.51
   0   9  -2   17.09    0.81
   0   9  -2   17.40    0.70
   0   9  -2   15.35    0.91
   0  -9   2   17.06    0.75
   0  -9   2   17.39    0.75
   0  -9   2   18.53    0.71
   0  -9   2   16.73    0.63
   0  -9   2   17.51    0.70
   0  -9   2   17.34    0.75
   0  -9   2   17.98    0.47
   0  -9   2   17.10    0.70
  -1   9  -2   39.69    1.43
   1  -9   2   38.96    1.04
   1  -9   2   36.43    1.04
   1  -9   2   38.00    0.94
   1  -9   2   38.08    1.02
   1  -9   2   38.54    1.19
   1  -9   2   37.83    1.00
   2  -9   2   15.71    0.79
   2  -9   2   15.63    0.46
   2  -9   2   15.36    0.73
   2  -9   2   15.73    0.72
   2  -9   2   15.16    0.46
   3  -9   2    4.55    0.42
   3  -9   2    4.22    0.40
   3  -9   2    4.79    0.47
   4  -9   2    0.27    0.17
   4  -9   2    1.26    0.36
   4  -9   2    1.32    0.26
   5  -9   2   16.67    0.69
   5  -9   2   16.77    1.01
   6  -9   2    3.66    0.63
   6  -9   2    3.65    0.29
   6  -9   2    3.57    0.27
  -7   9  -2    5.84    0.74
  -5  -8   2    1.81    0.43
  -5  -8   2    1.48    0.43
   4   8  -2    5.17    0.75
   4   8  -2    4.78    0.51
  -4  -8   2    4.59    0.66
  -4  -8   2    4.89    0.50
  -4  -8   2    5.74    0.61
   3   8  -2   17.90    1.06
   3   8  -2   15.93    0.73
  -3  -8   2   15.99    0.79
  -3  -8   2   18.18    0.94
  -3  -8   2   17.11    0.94
   2   8  -2    2.50    0.52
   2   8  -2    3.37    0.58
   2   8  -2    2.40    0.29
   2   8  -2    2.63    0.26
  -2  -8   2    2.43    0.44
  -2  -8   2    2.99    0.42
  -2  -8   2    3.37    0.46
  -2  -8   2    2.26    0.32
   1   8  -2   13.54    0.81
   1   8  -2   12.41    0.52
   1   8  -2   12.95    0.59
   1   8  -2   13.35    0.69
  -1  -8   2   13.38    0.66
  -1  -8   2   12.26    0.69
  -1  -8   2   13.35    0.65
  -1  -8   2   12.37    0.64
  -1  -8   2   12.47    0.61
   0   8  -2    2.61    0.38
   0   8  -2    3.10    0.51
   0   8  -2    2.42    0.16
   0   8  -2    2.78    0.29
   0  -8   2    2.44    0.18
   0  -8   2    2.47    0.26
   0  -8   2    3.59    0.40
   0  -8   2    2.55    0.27
   0  -8   2    3.11    0.39
   0  -8   2    2.18    0.31
   0  -8   2    3.44    0.38
   0  -8   2    2.96    0.28
  -1   8  -2   94.58    2.34
   1  -8   2   90.56    1.83
   1  -8   2   91.15    2.07
   1  -8   2   89.46    1.97
   1  -8   2   90.18    1.85
   1  -8   2   89.82    2.08
   1  -8   2   91.49    1.83
   1  -8   2   91.27    2.05
   1  -8   2   88.87    1.79
   2  -8   2   38.52    1.17
   2  -8   2   38.82    1.21
   3  -8   2   93.30    2.33
   3  -8   2   89.18    2.15
   3  -8   2   92.68    2.13
   4  -8   2    2.74    0.19
   4  -8   2    1.89    0.39
   4  -8   2    2.30    0.29
   4  -8   2    1.96    0.18
  -5   8  -2    5.10    0.56
   5  -8   2    5.22    0.66
   5  -8   2    4.59    0.27
   5  -8   2    4.52    0.34
   5  -8   2    4.13    0.28
  -6   8  -2   11.06    0.79
  -6   8  -2   12.43    0.84
   6  -8   2   10.36    0.86
   6  -8   2   10.39    0.51
   6  -8   2   10.94    0.62
   6  -8   2   10.17    0.54
  -7   8  -2    4.49    0.34
  -7   8  -2    4.03    0.61
   5   7  -2    1.60    0.42
   5   7  -2    1.88    0.48
  -5  -7   2    2.46    0.47
  -5  -7   2    2.55    0.52
  -5  -7   2    2.42    0.51
   4   7  -2    2.57    0.42
   4   7  -2    2.30    0.52
  -4  -7   2    1.65    0.30
  -4  -7   2    2.81    0.50
  -4  -7   2    3.10    0.52
   3   7  -2   10.06    0.58
   3   7  -2   10.51    0.60
   3   7  -2   10.12    0.40
   3   7  -2   10.21    0.76
  -3  -7   2    9.99    0.59
  -3  -7   2   10.10    0.68
  -3  -7   2    9.90    0.70
  -3  -7   2   10.58    0.98
  -3  -7   2   10.78    0.76
   2   7  -2   21.91    1.03
   2   7  -2   22.34    0.86
   2   7  -2   21.81    0.75
   2   7  -2   22.10    0.68
   2   7  -2   23.09    1.01
   2   7  -2   21.91    0.74
  -2  -7   2   21.84    0.83
  -2  -7   2   21.69    0.91
  -2  -7   2   21.15    0.94
  -2  -7   2   21.77    0.98
  -2  -7   2   20.93    0.91
   1   7  -2    6.62    0.27
   1   7  -2    6.65    0.44
   1   7  -2    6.84    0.38
   1   7  -2    6.66    0.39
   1   7  -2    7.51    0.50
   1   7  -2    6.36    0.26
   1   7  -2    6.14    0.51
  -1  -7   2    6.78    0.45
  -1  -7   2    6.20    0.42
  -1  -7   2    6.35    0.46
  -1  -7   2    6.06    0.40
  -1  -7   2    6.26    0.43
  -1  -7   2    6.52    0.47
   0   7  -2    0.36    0.15
   0   7  -2    0.86    0.26
   0   7  -2    0.54    0.16
   0   7  -2    0.80    0.12
   0   7  -2    0.79    0.20
   0  -7   2    0.57    0.16
   0  -7   2    0.78    0.18
   0  -7   2    0.79    0.19
   0  -7   2    0.94    0.14
   0  -7   2    0.68    0.16
   0  -7   2    0.87    0.20
   0  -7   2    0.99    0.18
   0  -7   2    0.58    0.16
  -1   7  -2   15.58    0.74
   1  -7   2   16.57    0.48
   1  -7   2   15.92    0.51
   1  -7   2   16.41    0.47
   1  -7   2   16.52    0.49
   1  -7   2   17.21    0.67
   1  -7   2   17.06    0.65
   1  -7   2   16.52    0.62
   1  -7   2   16.65    0.76
   1  -7   2   16.15    0.65
   1  -7   2   16.70    0.78
   2  -7   2   35.59    1.06
   2  -7   2   34.91    1.16
   2  -7   2   34.70    1.17
   2  -7   2   33.63    1.04
   2  -7   2   36.75    1.17
   2  -7   2   35.13    1.27
   2  -7   2   36.27    1.12
   3  -7   2    1.63    0.34
   3  -7   2    2.15    0.36
   3  -7   2    1.82    0.26
  -4   7  -2   46.27    1.48
  -4   7  -2   45.62    1.43
   4  -7   2   45.72    1.15
   4  -7   2   46.12    0.99
   4  -7   2   45.42    1.04
   4  -7   2   48.14    1.46
   4  -7   2   45.61    1.01
   4  -7   2   44.80    1.54
   4  -7   2   45.47    1.07
  -5   7  -2   15.80    0.48
  -5   7  -2   15.52    0.85
  -5   7  -2   14.78    0.83
   5  -7   2   16.59    0.96
   5  -7   2   17.20    0.65
   5  -7   2   16.11    0.60
   5  -7   2   16.56    0.78
   5  -7   2   15.83    0.64
   5  -7   2   16.83    0.68
   5  -7   2   16.64    0.58
  -6   7  -2    1.59    0.25
  -6   7  -2    1.16    0.35
  -6   7  -2    1.51    0.39
   6  -7   2    0.85    0.26
   6  -7   2    1.37    0.30
   6  -7   2    1.38    0.40
   6  -7   2    1.31    0.21
   6  -7   2    1.30    0.26
  -7   7  -2    1.94    0.46
  -7   7  -2    2.37    0.36
  -7   7  -2    1.28    0.39
   7  -7   2    1.73    0.47
   7  -7   2    1.63    0.33
  -8   7  -2    1.87    0.48
  -8   7  -2    1.04    0.43
   6   6  -2    0.03    0.23
   5   6  -2    3.95    0.61
   5   6  -2    4.38    0.62
  -5  -6   2    4.14    0.60
  -5  -6   2    4.26    0.60
  -5  -6   2    3.54    0.48
  -5  -6   2    3.67    0.36
   4   6  -2    3.08    0.48
   4   6  -2    2.58    0.19
   4   6  -2    3.29    0.51
  -4  -6   2    3.03    0.51
  -4  -6   2    3.60    0.39
  -4  -6   2    2.96    0.48
  -4  -6   2    3.37    0.57
   3   6  -2   37.30    1.21
   3   6  -2   38.36    1.42
   3   6  -2   36.66    1.28
   3   6  -2   36.69    1.18
   3   6  -2   41.05    1.48
   3   6  -2   38.88    0.86
  -3  -6   2   36.87    1.37
  -3  -6   2   36.92    1.39
  -3  -6   2   36.39    1.15
  -3  -6   2   37.96    1.31
  -3  -6   2   35.82    1.32
   2   6  -2   18.85    0.86
   2   6  -2   19.96    0.79
   2   6  -2   19.60    1.12
   2   6  -2   19.30    0.91
   2   6  -2   19.35    0.71
   2   6  -2   19.59    0.56
   2   6  -2   18.52    0.69
  -2  -6   2   18.35    0.82
  -2  -6   2   19.62    0.75
  -2  -6   2   18.58    0.84
  -2  -6   2   21.56    0.85
  -2  -6   2   19.38    0.87
  -2  -6   2   19.29    0.87
  -2  -6   2   18.65    0.99
   1   6  -2    1.94    0.18
   1   6  -2    1.99    0.20
   1   6  -2    2.11    0.37
   1   6  -2    2.04    0.22
   1   6  -2    2.57    0.39
   1   6  -2    2.50    0.30
   1   6  -2    2.94    0.39
   1   6  -2    2.15    0.17
   1   6  -2    1.94    0.28
  -1  -6   2    1.79    0.25
  -1  -6   2    2.59    0.32
  -1  -6   2    2.80    0.35
  -1  -6   2    2.50    0.34
  -1  -6   2    2.38    0.32
  -1  -6   2    2.03    0.34
  -1  -6   2    2.13    0.30
   0   6  -2    8.00    0.42
   0   6  -2    8.28    0.50
   0   6  -2    8.07    0.42
   0   6  -2    8.27    0.39
   0   6  -2    7.90    0.29
   0   6  -2    7.71    0.30
   0   6  -2    7.70    0.53
   0  -6   2    7.73    0.35
   0  -6   2    7.17    0.36
   0  -6   2    7.11    0.47
   0  -6   2    7.85    0.40
   0  -6   2    7.40    0.30
   0  -6   2    7.08    0.50
   0  -6   2    7.48    0.37
   0  -6   2    7.04    0.35
   0  -6   2    7.01    0.40
   0  -6   2    7.67    0.37
  -1   6  -2    8.31    0.53
  -1   6  -2    7.60    0.46
   1  -6   2    9.61    0.52
   1  -6   2    8.11    0.30
   1  -6   2    7.65    0.52
   1  -6   2    8.47    0.49
   1  -6   2    8.39    0.43
   1  -6   2    8.98    0.44
   1  -6   2    8.63    0.31
   1  -6   2    8.84    0.28
   1  -6   2    8.57    0.26
   1  -6   2    8.07    0.44
   1  -6   2    8.55    0.42
   2  -6   2   31.64    1.01
   2  -6   2   29.30    0.92
   2  -6   2   31.61    1.04
   2  -6   2   28.96    0.97
   2  -6   2   31.78    1.07
   2  -6   2   30.54    0.98
   2  -6   2   31.08    0.94
  -3   6  -2    3.99    0.39
   3  -6   2    3.96    0.18
   3  -6   2    3.94    0.18
   3  -6   2    4.18    0.36
   3  -6   2    3.84    0.36
   3  -6   2    4.42    0.43
   3  -6   2    3.80    0.39
   3  -6   2    4.34    0.35
   3  -6   2    3.82    0.15
   3  -6   2    4.19    0.28
   3  -6   2    3.46    0.19
   3  -6   2    3.81    0.33
  -4   6  -2   34.13    1.18
  -4   6  -2   35.31    0.79
  -4   6  -2   34.46    1.18
   4  -6   2   33.64    0.92
   4  -6   2   30.38    1.24
   4  -6   2   36.86    1.32
   4  -6   2   35.55    0.89
   4  -6   2   35.87    0.88
   4  -6   2   36.45    0.88
   4  -6   2   35.77    0.94
   4  -6   2   34.81    1.10
  -5   6  -2    8.34    0.61
  -5   6  -2    6.49    0.39
  -5   6  -2    6.81    0.55
   5  -6   2    8.11    0.67
   5  -6   2    7.02    0.35
   5  -6   2    7.96    0.48
   5  -6   2    6.46    0.45
   5  -6   2    6.80    0.44
   5  -6   2    6.86    0.47
   5  -6   2    6.91    0.44
  -6   6  -2   39.79    1.18
  -6   6  -2   42.22    1.45
  -6   6  -2   40.46    1.48
   6  -6   2   41.05    1.64
   6  -6   2   40.49    1.34
   6  -6   2   41.31    1.28
   6  -6   2   41.15    1.10
   6  -6   2   41.38    1.35
  -7   6  -2    2.80    0.47
  -7   6  -2    3.15    0.52
  -7   6  -2    2.59    0.40
   7  -6   2    2.45    0.57
   7  -6   2    2.24    0.42
   7  -6   2    3.38    0.54
  -8   6  -2    2.08    0.39
  -8   6  -2    1.74    0.42
   6   5  -2    7.21    0.75
  -6  -5   2    5.08    0.67
  -6  -5   2    6.68    0.52
   5   5  -2    5.93    0.71
  -5  -5   2    5.91    0.63
  -5  -5   2    5.98    0.43
  -5  -5   2    6.80    0.86
  -5  -5   2    6.68    0.61
  -5  -5   2    6.29    0.52
   4   5  -2   13.73    0.79
   4   5  -2   14.38    0.44
   4   5  -2   13.09    0.89
   4   5  -2   13.57    0.37
   4   5  -2   14.50    0.84
  -4  -5   2   14.74    0.86
  -4  -5   2   14.26    0.68
  -4  -5   2   13.51    0.68
  -4  -5   2   15.01    0.91
  -4  -5   2   15.31    0.83
  -4  -5   2   14.03    0.88
   3   5  -2   12.47    0.76
   3   5  -2   13.13    0.78
   3   5  -2   13.62    0.67
   3   5  -2   12.77    0.71
   3   5  -2   12.26    0.65
   3   5  -2   13.25    0.68
  -3  -5   2   13.81    0.78
  -3  -5   2   13.82    0.67
  -3  -5   2   12.32    0.72
  -3  -5   2   14.78    0.79
  -3  -5   2   12.27    0.68
  -3  -5   2   14.65    0.64
   2   5  -2    2.92    0.34
   2   5  -2    2.55    0.27
   2   5  -2    2.68    0.26
   2   5  -2    2.80    0.17
   2   5  -2    3.27    0.40
   2   5  -2    3.04    0.39
   2   5  -2    2.57    0.28
   2   5  -2    3.05    0.42
  -2  -5   2    3.08    0.40
  -2  -5   2    3.32    0.42
  -2  -5   2    2.87    0.31
  -2  -5   2    3.01    0.39
  -2  -5   2    2.76    0.27
  -2  -5   2    3.73    0.46
  -2  -5   2    3.22    0.34
   1   5  -2   88.95    1.95
   1   5  -2   86.49    1.83
   1   5  -2   84.71    2.03
   1   5  -2   87.16    1.70
   1   5  -2   83.38    1.82
   1   5  -2   86.49    1.87
   1   5  -2   83.05    1.99
   1   5  -2   87.43    1.67
   1   5  -2   82.14    1.70
  -1  -5   2   86.31    1.87
  -1  -5   2   82.07    2.02
  -1  -5   2   85.81    1.85
  -1  -5   2   87.79    1.90
  -1  -5   2   86.10    1.92
  -1  -5   2   81.86    1.88
  -1  -5   2   85.84    1.92
   0   5  -2    5.98    0.39
   0   5  -2    7.20    0.47
   0   5  -2    7.01    0.34
   0   5  -2    6.77    0.28
   0   5  -2    6.84    0.27
   0   5  -2    6.68    0.36
   0  -5   2    7.60    0.35
   0  -5   2    7.16    0.32
   0  -5   2    6.87    0.41
   0  -5   2    6.65    0.27
   0  -5   2    7.74    0.34
   0  -5   2    7.71    0.35
   0  -5   2    7.67    0.31
   0  -5   2    6.80    0.44
   0  -5   2    7.05    0.34
   0  -5   2    7.06    0.36
  -1   5  -2   19.22    0.69
  -1   5  -2   21.18    0.79
   1  -5   2   20.03    0.66
   1  -5   2   20.19    0.77
   1  -5   2   20.53    0.66
   1  -5   2   20.47    0.69
   1  -5   2   21.43    0.68
   1  -5   2   21.90    0.75
   1  -5   2   20.60    0.49
   1  -5   2   21.16    0.49
   1  -5   2   22.04    0.73
  -2   5  -2   56.98    1.47
  -2   5  -2   61.15    1.50
   2  -5   2   58.85    1.48
   2  -5   2   59.30    1.39
   2  -5   2   57.08    1.46
   2  -5   2   58.43    1.03
   2  -5   2   59.43    1.53
   2  -5   2   55.05    1.39
   2  -5   2   56.97    1.03
   2  -5   2   57.84    1.42
  -3   5  -2   16.59    0.69
  -3   5  -2   17.35    0.72
  -3   5  -2   17.01    0.44
   3  -5   2   18.10    0.78
   3  -5   2   16.45    0.67
   3  -5   2   17.12    0.50
   3  -5   2   16.71    0.62
   3  -5   2   17.19    0.80
   3  -5   2   16.91    0.51
   3  -5   2   17.53    0.49
   3  -5   2   17.29    0.68
   3  -5   2   17.23    0.66
   3  -5   2   16.68    0.51
  -4   5  -2   27.96    0.99
  -4   5  -2   28.74    0.63
  -4   5  -2   27.62    1.00
  -4   5  -2   28.17    0.78
   4  -5   2   29.22    0.89
   4  -5   2   27.59    0.83
   4  -5   2   27.92    1.11
   4  -5   2   29.51    0.81
   4  -5   2   30.60    0.89
   4  -5   2   28.96    0.70
   4  -5   2   29.55    0.88
  -5   5  -2   18.34    0.56
  -5   5  -2   18.66    0.85
  -5   5  -2   18.15    0.71
  -5   5  -2   19.78    0.89
   5  -5   2   19.75    0.81
   5  -5   2   19.59    0.81
   5  -5   2   18.27    0.97
   5  -5   2   19.75    0.63
   5  -5   2   17.56    0.72
   5  -5   2   18.03    0.75
   5  -5   2   18.63    0.59
  -6   5  -2    7.07    0.51
  -6   5  -2    7.11    0.58
  -6   5  -2    7.46    0.62
   6  -5   2    6.79    0.58
   6  -5   2    7.58    0.41
   6  -5   2    9.30    0.65
   6  -5   2    6.94    0.56
   6  -5   2    8.30    0.74
  -7   5  -2    1.64    0.42
  -7   5  -2    1.49    0.35
  -7   5  -2    1.93    0.42
   7  -5   2    2.31    0.44
   7  -5   2    1.81    0.43
   7  -5   2    1.10    0.42
  -8   5  -2    0.73    0.34
  -8   5  -2    0.80    0.35
   8  -5   2    1.81    0.45
  -7  -4   2    0.33    0.24
   6   4  -2    9.03    0.79
  -6  -4   2    7.15    0.65
  -6  -4   2    7.53    0.55
  -6  -4   2    7.63    0.75
  -6  -4   2    6.45    0.83
   5   4  -2   19.95    1.04
   5   4  -2   19.76    1.07
  -5  -4   2   21.96    1.17
  -5  -4   2   21.26    1.10
  -5  -4   2   21.07    0.78
  -5  -4   2   20.44    0.88
  -5  -4   2   20.54    1.12
  -5  -4   2   20.79    1.02
   4   4  -2   30.66    1.24
   4   4  -2   31.78    1.24
   4   4  -2   29.21    1.17
   4   4  -2   31.85    1.32
   4   4  -2   29.61    0.98
  -4  -4   2   30.66    1.02
  -4  -4   2   29.07    1.22
  -4  -4   2   29.35    1.24
  -4  -4   2   30.79    1.23
  -4  -4   2   28.40    1.13
   3   4  -2   35.21    1.08
   3   4  -2   35.46    1.17
   3   4  -2   35.92    1.13
   3   4  -2   37.47    0.77
   3   4  -2   35.88    1.10
   3   4  -2   35.74    1.29
   3   4  -2   35.19    1.21
   3   4  -2   37.46    1.25
  -3  -4   2   36.20    1.23
  -3  -4   2   37.47    1.08
  -3  -4   2   35.32    1.18
  -3  -4   2   35.01    1.04
  -3  -4   2   36.05    1.25
  -3  -4   2   35.93    1.27
  -3  -4   2   36.78    1.24
  -3  -4   2   36.59    1.22
   2   4  -2   21.41    0.79
   2   4  -2   21.33    0.76
   2   4  -2   21.40    0.46
   2   4  -2   22.00    0.79
   2   4  -2   20.74    0.84
   2   4  -2   21.41    0.72
   2   4  -2   21.66    0.73
   2   4  -2   20.68    0.79
  -2  -4   2   22.34    0.80
  -2  -4   2   22.21    0.72
  -2  -4   2   22.35    0.83
  -2  -4   2   21.52    0.84
  -2  -4   2   21.55    0.82
  -2  -4   2   21.83    0.78
  -2  -4   2   21.51    0.81
   1   4  -2   87.24    1.87
   1   4  -2   91.40    2.02
   1   4  -2   89.89    1.76
   1   4  -2   89.22    1.60
   1   4  -2   91.51    1.87
   1   4  -2   89.39    1.63
   1   4  -2   89.10    1.81
   1   4  -2   88.47    1.86
   1   4  -2   87.93    1.97
   1   4  -2   91.53    1.95
  -1  -4   2   91.75    1.57
  -1  -4   2   89.77    1.86
  -1  -4   2   90.28    1.94
  -1  -4   2   89.94    1.86
  -1  -4   2   91.27    1.91
  -1  -4   2   88.28    1.91
  -1  -4   2   89.15    1.92
  -1  -4   2   91.16    1.99
   0   4  -2   47.08    1.02
   0   4  -2   46.30    1.10
   0   4  -2   46.82    0.96
   0   4  -2   45.62    0.99
   0   4  -2   46.72    0.84
   0   4  -2   48.02    1.04
   0   4  -2   46.90    1.24
   0   4  -2   44.30    1.13
   0  -4   2   48.55    1.05
   0  -4   2   49.55    0.98
   0  -4   2   47.16    1.11
   0  -4   2   48.73    1.02
   0  -4   2   47.20    1.15
   0  -4   2   47.06    1.02
   0  -4   2   46.83    1.04
   0  -4   2   48.65    1.06
   0  -4   2   48.67    0.98
  -1   4  -2  106.91    2.16
  -1   4  -2   99.65    2.16
  -1   4  -2  106.80    2.05
   1  -4   2  101.68    2.04
   1  -4   2  102.20    2.11
   1  -4   2  105.57    2.07
   1  -4   2   99.87    2.05
   1  -4   2  101.16    2.11
   1  -4   2  101.31    1.80
   1  -4   2  105.69    2.18
   1  -4   2  102.81    1.80
   1  -4   2  103.94    1.80
   1  -4   2  106.18    2.06
   1  -4   2  103.62    1.77
  -2   4  -2    1.61    0.23
  -2   4  -2    1.65    0.26
  -2   4  -2    1.01    0.10
   2  -4   2    1.46    0.25
   2  -4   2    1.02    0.11
   2  -4   2    1.31    0.19
   2  -4   2    1.03    0.12
   2  -4   2    1.02    0.18
   2  -4   2    1.19    0.20
   2  -4   2    1.15    0.13
   2  -4   2    0.99    0.07
   2  -4   2    0.91    0.17
   2  -4   2    1.05    0.10
   2  -4   2    0.92    0.10
  -3   4  -2   41.37    0.93
  -3   4  -2   40.96    1.13
  -3   4  -2   39.12    1.11
  -3   4  -2   41.07    0.91
  -3   4  -2   42.08    0.82
   3  -4   2   40.32    0.96
   3  -4   2   39.87    0.98
   3  -4   2   41.01    1.00
   3  -4   2   39.37    0.97
   3  -4   2   37.31    1.06
   3  -4   2   39.69    1.22
   3  -4   2   40.04    1.00
   3  -4   2   40.56    0.84
   3  -4   2   39.59    1.02
  -4   4  -2   36.05    0.85
  -4   4  -2   35.36    1.08
  -4   4  -2   35.59    0.70
  -4   4  -2   36.28    0.67
  -4   4  -2   34.22    1.09
  -4   4  -2   33.88    0.97
   4  -4   2   33.83    0.86
   4  -4   2   33.83    0.99
   4  -4   2   33.69    1.15
   4  -4   2   36.44    0.98
   4  -4   2   33.41    1.01
   4  -4   2   32.79    1.01
   4  -4   2   34.10    1.21
   4  -4   2   34.22    0.79
  -5   4  -2    4.44    0.27
  -5   4  -2    4.22    0.40
  -5   4  -2    4.42    0.22
  -5   4  -2    4.35    0.41
  -5   4  -2    4.36    0.31
  -5   4  -2    4.43    0.43
   5  -4   2    4.25    0.40
   5  -4   2    4.55    0.56
   5  -4   2    3.78    0.40
   5  -4   2    4.53    0.44
   5  -4   2    3.33    0.25
  -6   4  -2    7.30    0.58
  -6   4  -2    9.76    0.66
  -6   4  -2    8.25    0.60
  -6   4  -2    8.21    0.35
   6  -4   2    8.40    0.65
   6  -4   2    7.85    0.60
   6  -4   2    8.66    0.67
   6  -4   2    8.24    0.71
  -7   4  -2    1.89    0.42
  -7   4  -2    1.53    0.36
  -7   4  -2    1.40    0.38
   7  -4   2    2.67    0.50
   7  -4   2    2.56    0.55
   7  -4   2    2.51    0.49
  -8   4  -2    0.80    0.36
  -8   4  -2    0.53    0.30
  -8   4  -2    1.01    0.43
   8  -4   2    1.75    0.49
   8  -4   2    0.83    0.45
   8  -4   2    0.74    0.51
   7   3  -2    1.97    0.50
  -7  -3   2    2.26    0.49
  -7  -3   2    2.58    0.43
  -7  -3   2    2.14    0.60
   6   3  -2    4.22    0.64
   6   3  -2    4.19    0.66
  -6  -3   2    4.10    0.58
  -6  -3   2    3.52    0.44
  -6  -3   2    4.65    0.78
  -6  -3   2    3.39    0.58
   5   3  -2   10.29    0.76
   5   3  -2    8.19    0.71
   5   3  -2    9.30    0.52
   5   3  -2    8.56    0.70
  -5  -3   2    8.87    0.65
  -5  -3   2    8.77    0.50
  -5  -3   2    8.43    0.72
  -5  -3   2    8.74    0.55
  -5  -3   2    8.98    0.72
  -5  -3   2    9.40    0.75
   4   3  -2   45.71    1.21
   4   3  -2   45.67    1.51
   4   3  -2   43.99    1.56
   4   3  -2   44.94    1.52
   4   3  -2   45.43    1.48
  -4  -3   2   46.09    1.28
  -4  -3   2   48.54    1.57
  -4  -3   2   48.68    1.60
  -4  -3   2   46.81    1.40
  -4  -3   2   46.55    1.52
  -4  -3   2   45.51    1.43
   3   3  -2   22.34    0.90
   3   3  -2   20.73    0.91
   3   3  -2   23.07    0.91
   3   3  -2   22.23    0.76
   3   3  -2   21.65    0.87
   3   3  -2   22.71    0.83
   3   3  -2   22.29    0.75
  -3  -3   2   22.60    0.86
  -3  -3   2   21.97    0.92
  -3  -3   2   21.58    0.72
  -3  -3   2   21.14    0.83
  -3  -3   2   22.74    0.89
  -3  -3   2   22.14    0.89
  -3  -3   2   23.26    0.93
   2   3  -2   15.51    0.67
   2   3  -2   15.09    0.58
   2   3  -2   14.23    0.61
   2   3  -2   15.64    0.39
   2   3  -2   15.69    0.64
   2   3  -2   13.91    0.57
   2   3  -2   15.89    0.64
   2   3  -2   15.01    0.55
  -2  -3   2   14.66    0.55
  -2  -3   2   15.91    0.66
  -2  -3   2   15.67    0.67
  -2  -3   2   15.82    0.64
  -2  -3   2   15.68    0.66
  -2  -3   2   15.39    0.62
   1   3  -2    4.35    0.31
   1   3  -2    5.45    0.30
   1   3  -2    4.91    0.18
   1   3  -2    4.69    0.25
   1   3  -2    5.03    0.29
   1   3  -2    4.59    0.26
  -1  -3   2    4.83    0.27
  -1  -3   2    5.03    0.31
  -1  -3   2    4.86    0.30
  -1  -3   2    4.48    0.29
  -1  -3   2    5.06    0.31
  -1  -3   2    5.36    0.18
  -1  -3   2    5.49    0.33
  -1  -3   2    5.63    0.30
   0   3  -2   79.61    1.47
   0   3  -2   79.53    1.52
   0   3  -2   79.89    1.59
   0   3  -2   78.03    1.40
   0   3  -2   80.32    1.52
   0   3  -2   75.91    1.68
   0   3  -2   79.75    1.45
   0   3  -2   76.83    1.52
   0   3  -2   81.02    1.59
   0  -3   2   83.37    1.59
   0  -3   2   82.41    1.69
   0  -3   2   80.60    1.59
   0  -3   2   79.65    1.52
   0  -3   2   81.32    1.49
   0  -3   2   80.97    1.55
   0  -3   2   80.03    1.51
   0  -3   2   80.61    1.51
   0  -3   2   79.41    1.53
   0  -3   2   78.96    1.64
   0  -3   2   80.19    1.47
  -1   3  -2   47.18    0.87
  -1   3  -2   47.47    1.12
  -1   3  -2   48.98    0.91
  -1   3  -2   46.56    1.10
  -1   3  -2   45.99    1.09
   1  -3   2   46.25    1.08
   1  -3   2   46.03    1.05
   1  -3   2   46.45    1.10
   1  -3   2   48.38    0.90
   1  -3   2   47.68    1.02
   1  -3   2   48.29    0.88
   1  -3   2   48.33    1.09
   1  -3   2   47.78    0.90
   1  -3   2   47.37    0.89
   1  -3   2   47.29    0.88
   1  -3   2   47.62    0.88
  -2   3  -2   18.47    0.51
  -2   3  -2   19.20    0.59
  -2   3  -2   18.97    0.44
  -2   3  -2   18.05    0.61
  -2   3  -2   18.29    0.49
  -2   3  -2   19.73    0.62
   2  -3   2   19.68    0.46
   2  -3   2   19.16    0.50
   2  -3   2   18.62    0.67
   2  -3   2   18.75    0.56
   2  -3   2   19.48    0.57
   2  -3   2   18.89    0.52
   2  -3   2   18.89    0.53
   2  -3   2   18.67    0.51
   2  -3   2   19.40    0.61
   2  -3   2   18.72    0.43
  -3   3  -2   24.18    0.55
  -3   3  -2   22.91    0.74
  -3   3  -2   23.57    0.63
  -3   3  -2   25.20    0.73
  -3   3  -2   25.15    0.65
  -3   3  -2   23.34    0.71
  -3   3  -2   23.85    0.63
  -3   3  -2   24.62    0.78
   3  -3   2   24.27    0.77
   3  -3   2   23.59    0.73
   3  -3   2   24.25    0.75
   3  -3   2   23.93    0.53
   3  -3   2   25.59    0.68
   3  -3   2   22.65    0.71
   3  -3   2   23.90    0.73
   3  -3   2   23.68    0.86
  -4   3  -2   26.85    0.63
  -4   3  -2   29.61    0.91
  -4   3  -2   27.38    0.90
  -4   3  -2   26.37    0.91
  -4   3  -2   27.86    0.81
  -4   3  -2   28.00    0.69
  -4   3  -2   28.34    0.92
  -4   3  -2   28.10    0.80
   4  -3   2   27.09    0.90
   4  -3   2   27.82    0.94
   4  -3   2   26.98    0.86
   4  -3   2   26.65    1.02
   4  -3   2   27.44    0.93
   4  -3   2   27.07    0.86
   4  -3   2   27.50    0.68
  -5   3  -2    0.60    0.17
  -5   3  -2    0.70    0.19
  -5   3  -2    0.63    0.22
  -5   3  -2    0.66    0.11
  -5   3  -2    0.73    0.16
  -5   3  -2    0.35    0.19
  -5   3  -2    0.45    0.21
   5  -3   2    0.87    0.26
   5  -3   2    0.58    0.26
   5  -3   2    0.43    0.21
   5  -3   2    0.91    0.26
  -6   3  -2    7.95    0.62
  -6   3  -2    8.03    0.43
  -6   3  -2    7.18    0.55
  -6   3  -2    7.70    0.59
  -6   3  -2    7.41    0.51
   6  -3   2    6.69    0.60
   6  -3   2    8.35    0.65
   6  -3   2    7.45    0.68
  -7   3  -2    5.34    0.60
  -7   3  -2    6.61    0.60
  -7   3  -2    5.82    0.40
  -7   3  -2    5.90    0.60
   7  -3   2    6.31    0.73
   7  -3   2    5.73    0.71
   7  -3   2    5.73    0.72
  -8   3  -2    1.58    0.48
  -8   3  -2    2.02    0.45
  -8   3  -2    0.96    0.37
   8  -3   2    0.93    0.41
   8  -3   2    1.63    0.47
   8  -3   2    1.79    0.52
  -8  -2   2    0.31    0.43
  -8  -2   2   -0.06    0.27
   7   2  -2    4.35    0.72
   7   2  -2    3.85    0.64
  -7  -2   2    4.36    0.61
  -7  -2   2    4.71    0.55
  -7  -2   2    5.35    0.85
   6   2  -2    7.68    0.72
   6   2  -2    8.13    0.77
  -6  -2   2    9.91    0.78
  -6  -2   2    9.12    0.58
  -6  -2   2    8.30    0.78
  -6  -2   2    9.30    0.69
   5   2  -2    1.38    0.38
   5   2  -2    1.39    0.27
   5   2  -2    1.46    0.21
   5   2  -2    1.16    0.35
   5   2  -2    1.23    0.35
  -5  -2   2    0.75    0.30
  -5  -2   2    0.81    0.25
  -5  -2   2    1.06    0.22
  -5  -2   2    1.47    0.37
  -5  -2   2    1.34    0.35
   4   2  -2   24.21    1.04
   4   2  -2   24.88    0.76
   4   2  -2   25.74    1.06
   4   2  -2   27.79    0.84
   4   2  -2   24.59    1.02
   4   2  -2   25.49    1.08
  -4  -2   2   24.54    0.96
  -4  -2   2   26.01    1.09
  -4  -2   2   27.76    1.07
  -4  -2   2   27.03    1.04
  -4  -2   2   25.20    0.89
  -4  -2   2   26.38    0.86
  -4  -2   2   24.69    1.03
   3   2  -2   12.50    0.58
   3   2  -2   12.90    0.63
   3   2  -2   11.14    0.60
   3   2  -2   12.10    0.51
   3   2  -2   11.54    0.63
   3   2  -2   11.84    0.62
   3   2  -2   12.51    0.49
   3   2  -2   12.03    0.44
  -3  -2   2   11.55    0.61
  -3  -2   2   12.41    0.66
  -3  -2   2   12.40    0.59
  -3  -2   2   11.91    0.60
  -3  -2   2   12.78    0.63
  -3  -2   2   12.62    0.50
  -3  -2   2   12.05    0.55
   2   2  -2  160.34    3.16
   2   2  -2  161.53    3.13
   2   2  -2  158.19    2.97
   2   2  -2  162.09    3.18
   2   2  -2  163.98    2.78
   2   2  -2  160.11    3.12
   2   2  -2  159.24    3.06
   2   2  -2  161.51    2.99
  -2  -2   2  161.06    3.11
  -2  -2   2  161.82    3.19
  -2  -2   2  159.98    3.12
  -2  -2   2  159.21    3.13
  -2  -2   2  158.09    2.96
  -2  -2   2  161.76    3.08
  -2  -2   2  160.33    3.14
   1   2  -2   22.09    0.64
   1   2  -2   22.30    0.63
   1   2  -2   21.90    0.49
   1   2  -2   22.32    0.60
   1   2  -2   21.89    0.65
   1   2  -2   21.23    0.65
   1   2  -2   22.59    0.63
   1   2  -2   21.61    0.59
  -1  -2   2   22.40    0.51
  -1  -2   2   22.62    0.67
  -1  -2   2   22.02    0.59
  -1  -2   2   22.07    0.64
  -1  -2   2   22.21    0.65
  -1  -2   2   23.07    0.66
  -1  -2   2   22.93    0.64
  -1  -2   2   21.90    0.61
   0   2  -2  678.58   12.12
   0   2  -2  649.73   12.20
   0   2  -2  673.81   12.25
   0   2  -2  664.98   12.72
   0   2  -2  658.85   12.07
   0   2  -2  662.88   11.80
   0   2  -2  688.72   11.93
   0   2  -2  678.78   12.03
   0   2  -2  671.43   11.73
   0   2  -2  661.58   11.94
   0  -2   2  674.87   12.00
   0  -2   2  672.59   11.96
   0  -2   2  662.62   12.27
   0  -2   2  648.85   11.95
   0  -2   2  672.43   11.98
   0  -2   2  664.32   12.02
   0  -2   2  666.40   12.22
   0  -2   2  663.46   11.80
   0  -2   2  663.76   12.16
   0  -2   2  654.24   12.48
  -1   2  -2   23.84    0.54
  -1   2  -2   23.63    0.52
  -1   2  -2   24.34    0.56
  -1   2  -2   23.16    0.63
  -1   2  -2   24.16    0.55
  -1   2  -2   24.00    0.51
  -1   2  -2   24.74    0.67
  -1   2  -2   24.55    0.62
   1  -2   2   24.60    0.52
   1  -2   2   24.50    0.55
   1  -2   2   24.15    0.56
   1  -2   2   24.73    0.61
   1  -2   2   24.28    0.56
   1  -2   2   24.45    0.54
   1  -2   2   24.55    0.66
   1  -2   2   24.70    0.62
  -2   2  -2   50.65    1.12
  -2   2  -2   51.22    1.11
  -2   2  -2   50.55    0.99
  -2   2  -2   51.07    1.04
  -2   2  -2   51.70    1.14
  -2   2  -2   50.01    1.14
  -2   2  -2   50.67    1.10
  -2   2  -2   50.22    1.04
   2  -2   2   50.43    1.14
   2  -2   2   50.37    1.12
   2  -2   2   49.93    1.10
   2  -2   2   48.84    1.11
   2  -2   2   50.22    1.05
   2  -2   2   50.63    0.87
   2  -2   2   50.16    1.10
  -3   2  -2    8.81    0.28
  -3   2  -2    8.26    0.33
  -3   2  -2    8.74    0.42
  -3   2  -2    8.28    0.37
  -3   2  -2    8.74    0.39
  -3   2  -2    8.47    0.44
  -3   2  -2    9.22    0.46
  -3   2  -2    8.60    0.41
  -3   2  -2    8.54    0.22
   3  -2   2    7.89    0.43
   3  -2   2    8.28    0.43
   3  -2   2    8.32    0.46
   3  -2   2    8.33    0.39
   3  -2   2    7.20    0.41
   3  -2   2    8.53    0.48
   3  -2   2    8.98    0.40
  -4   2  -2   46.20    1.10
  -4   2  -2   47.68    1.25
  -4   2  -2   45.44    1.26
  -4   2  -2   44.64    1.16
  -4   2  -2   44.97    0.89
  -4   2  -2   46.31    1.20
  -4   2  -2   43.68    1.29
  -4   2  -2   44.89    1.32
   4  -2   2   45.29    1.34
   4  -2   2   45.10    1.26
   4  -2   2   45.88    1.17
   4  -2   2   47.07    1.31
   4  -2   2   46.81    1.38
   4  -2   2   44.38    1.31
  -5   2  -2    1.85    0.31
  -5   2  -2    1.55    0.13
  -5   2  -2    1.33    0.31
  -5   2  -2    1.58    0.27
  -5   2  -2    1.81    0.32
  -5   2  -2    1.67    0.24
   5  -2   2    1.39    0.31
   5  -2   2    1.63    0.35
   5  -2   2    1.30    0.29
   5  -2   2    1.39    0.32
  -6   2  -2    5.32    0.40
  -6   2  -2    5.18    0.55
  -6   2  -2    4.77    0.45
  -6   2  -2    4.91    0.48
   6  -2   2    5.28    0.57
   6  -2   2    5.12    0.55
   6  -2   2    4.96    0.60
  -7   2  -2   14.22    0.84
  -7   2  -2   12.66    0.76
  -7   2  -2   13.79    0.93
  -7   2  -2   14.21    0.68
   7  -2   2   14.11    0.94
   7  -2   2   15.59    0.97
   7  -2   2   13.81    0.96
  -8   2  -2    4.57    0.47
  -8   2  -2    4.04    0.58
  -8   2  -2    4.39    0.71
  -8   2  -2    4.63    0.64
   8  -2   2    3.66    0.64
   8  -2   2    4.44    0.71
   8  -2   2    4.15    0.84
   8   1  -2    3.86    0.88
   8   1  -2    4.12    1.15
  -8  -1   2    5.89    0.70
  -8  -1   2    5.73    0.69
  -8  -1   2    5.89    0.91
   7   1  -2    0.18    0.34
   7   1  -2    0.42    0.34
  -7  -1   2    0.44    0.26
  -7  -1   2    0.25    0.26
  -7  -1   2    0.25    0.36
   6   1  -2   17.39    1.01
   6   1  -2   17.51    1.02
  -6  -1   2   16.10    0.86
  -6  -1   2   15.21    0.75
  -6  -1   2   15.41    0.91
  -6  -1   2   15.78    1.00
   5   1  -2   24.56    1.09
   5   1  -2   24.78    0.92
   5   1  -2   21.58    1.05
   5   1  -2   22.87    0.64
   5   1  -2   24.25    1.10
  -5  -1   2   23.36    1.12
  -5  -1   2   24.35    1.06
  -5  -1   2   23.47    1.05
  -5  -1   2   24.03    0.98
  -5  -1   2   24.04    0.87
  -5  -1   2   23.42    0.85
   4   1  -2   29.03    1.08
   4   1  -2   28.38    1.09
   4   1  -2   29.87    0.91
   4   1  -2   28.58    1.10
   4   1  -2   28.76    0.77
   4   1  -2   28.95    1.09
   4   1  -2   28.93    0.91
   4   1  -2   30.70    1.04
  -4  -1   2   29.74    1.05
  -4  -1   2   28.21    1.11
  -4  -1   2   29.95    0.89
  -4  -1   2   29.17    1.07
  -4  -1   2   29.32    1.07
  -4  -1   2   28.48    0.86
  -4  -1   2   28.62    1.00
  -4  -1   2   27.90    0.88
   3   1  -2   19.84    0.65
   3   1  -2   19.58    0.80
   3   1  -2   20.77    0.60
   3   1  -2   19.51    0.80
   3   1  -2   20.73    0.74
   3   1  -2   20.82    0.75
   3   1  -2   21.67    0.65
   3   1  -2   20.93    0.79
   3   1  -2   19.77    0.78
  -3  -1   2   19.46    0.81
  -3  -1   2   20.05    0.78
  -3  -1   2   20.76    0.65
  -3  -1   2   20.65    0.78
  -3  -1   2   20.45    0.76
  -3  -1   2   20.35    0.74
  -3  -1   2   20.34    0.67
   2   1  -2   24.90    0.73
   2   1  -2   24.85    0.76
   2   1  -2   24.37    0.61
   2   1  -2   25.12    0.79
   2   1  -2   24.07    0.73
   2   1  -2   24.26    0.78
   2   1  -2   25.03    0.77
   2   1  -2   24.92    0.65
  -2  -1   2   24.24    0.69
  -2  -1   2   25.95    0.75
  -2  -1   2   23.39    0.79
  -2  -1   2   25.08    0.77
  -2  -1   2   25.77    0.65
  -2  -1   2   25.98    0.75
  -2  -1   2   24.02    0.76
   1   1  -2  106.29    2.01
   1   1  -2  106.86    2.01
   1   1  -2  104.46    1.91
   1   1  -2  102.82    1.95
   1   1  -2  105.06    1.88
   1   1  -2  104.70    1.98
   1   1  -2  104.13    1.98
  -1  -1   2  106.27    1.99
  -1  -1   2  103.85    2.03
  -1  -1   2  103.59    1.97
  -1  -1   2  105.31    1.84
  -1  -1   2  105.38    1.95
  -1  -1   2  107.35    1.91
  -1  -1   2  104.45    2.00
  -1  -1   2  102.44    1.97
   0   1  -2  463.30    8.62
   0   1  -2  471.34    8.48
   0   1  -2  470.56    8.70
   0   1  -2  469.73    8.45
   0   1  -2  458.79    8.30
   0   1  -2  465.49    8.47
   0   1  -2  473.96    8.29
   0   1  -2  460.42    8.62
   0   1  -2  473.58    8.59
   0  -1   2  460.21    8.27
   0  -1   2  473.88    8.54
   0  -1   2  473.90    8.53
   0  -1   2  471.96    8.52
   0  -1   2  457.40    8.22
   0  -1   2  468.13    8.56
   0  -1   2  483.94    8.57
   0  -1   2  462.37    8.49
   0  -1   2  474.23    8.37
   0  -1   2  467.33    8.47
  -1   1  -2  922.60   16.11
  -1   1  -2  911.75   16.14
  -1   1  -2  922.39   16.00
  -1   1  -2  922.85   16.37
  -1   1  -2  910.50   15.15
  -1   1  -2  911.00   16.13
  -1   1  -2  919.92   16.40
  -1   1  -2  920.26   16.30
   1  -1   2  915.89   15.17
   1  -1   2  885.60   16.18
   1  -1   2  927.29   15.87
   1  -1   2  903.94   16.00
   1  -1   2  913.82   16.13
   1  -1   2  901.24   15.99
   1  -1   2  897.40   15.75
   1  -1   2  906.43   16.06
  -2   1  -2   52.10    1.14
  -2   1  -2   51.73    1.12
  -2   1  -2   51.82    0.93
  -2   1  -2   54.67    1.25
  -2   1  -2   51.45    1.20
  -2   1  -2   54.10    1.23
  -2   1  -2   51.29    1.09
  -2   1  -2   52.45    1.20
   2  -1   2   52.89    1.10
   2  -1   2   54.52    1.25
   2  -1   2   51.27    1.18
   2  -1   2   51.11    1.13
   2  -1   2   49.69    1.18
   2  -1   2   49.17    1.19
  -3   1  -2    6.13    0.22
  -3   1  -2    6.07    0.40
  -3   1  -2    6.83    0.35
  -3   1  -2    7.03    0.44
  -3   1  -2    5.87    0.19
  -3   1  -2    5.64    0.39
  -3   1  -2    6.58    0.33
  -3   1  -2    5.99    0.35
   3  -1   2    6.73    0.38
   3  -1   2    6.12    0.39
   3  -1   2    6.15    0.39
   3  -1   2    7.07    0.42
   3  -1   2    5.93    0.42
   3  -1   2    6.42    0.31
   3  -1   2    6.59    0.41
  -4   1  -2    3.95    0.39
  -4   1  -2    3.55    0.35
  -4   1  -2    3.56    0.37
  -4   1  -2    4.05    0.30
  -4   1  -2    4.31    0.35
  -4   1  -2    3.78    0.20
  -4   1  -2    4.02    0.32
   4  -1   2    3.70    0.39
   4  -1   2    3.94    0.37
   4  -1   2    3.64    0.27
   4  -1   2    3.79    0.35
   4  -1   2    4.22    0.41
   4  -1   2    2.79    0.26
   4  -1   2    3.43    0.37
  -5   1  -2   48.16    1.36
  -5   1  -2   48.84    1.52
  -5   1  -2   50.23    1.44
  -5   1  -2   46.14    1.03
  -5   1  -2   48.64    1.31
  -5   1  -2   50.10    1.58
   5  -1   2   46.15    1.50
   5  -1   2   50.11    1.56
   5  -1   2   47.09    1.48
   5  -1   2   46.41    1.57
  -6   1  -2    5.17    0.43
  -6   1  -2    6.79    0.65
  -6   1  -2    6.30    0.52
   6  -1   2    6.59    0.63
   6  -1   2    5.62    0.60
   6  -1   2    5.31    0.56
  -7   1  -2   10.27    0.85
  -7   1  -2    9.90    0.69
  -7   1  -2   10.23    0.70
  -7   1  -2    9.30    0.62
   7  -1   2   10.07    0.85
   7  -1   2   10.41    0.80
   7  -1   2   11.38    0.90
  -8   1  -2    1.85    0.37
  -8   1  -2    2.38    0.49
  -8   1  -2    2.98    0.64
   8  -1   2    1.88    0.52
   8  -1   2    2.31    0.55
   8   0  -2    5.98    1.36
   8   0  -2    6.02    0.85
  -8   0   2    4.96    0.78
  -8   0   2    6.14    0.89
  -8   0   2    6.26    0.72
  -8   0   2    4.48    0.57
   7   0  -2    4.07    0.69
   7   0  -2    3.76    0.67
  -7   0   2    3.42    0.64
  -7   0   2    3.47    0.50
  -7   0   2    2.83    0.45
   6   0  -2    6.07    0.66
   6   0  -2    6.43    0.66
   6   0  -2    6.77    0.70
  -6   0   2    7.39    0.55
  -6   0   2    6.35    0.66
  -6   0   2    7.93    0.63
  -6   0   2    6.88    0.55
   5   0  -2   12.58    0.76
   5   0  -2   12.19    0.65
   5   0  -2   12.23    0.76
   5   0  -2   12.42    0.69
   5   0  -2   12.46    0.74
   5   0  -2   12.16    0.41
  -5   0   2   12.59    0.66
  -5   0   2   11.60    0.51
  -5   0   2   11.04    0.69
  -5   0   2   12.29    0.60
  -5   0   2   11.26    0.75
  -5   0   2   10.80    0.63
   4   0  -2    3.53    0.28
   4   0  -2    3.07    0.42
   4   0  -2    3.15    0.40
   4   0  -2    3.08    0.41
   4   0  -2    3.54    0.38
   4   0  -2    3.07    0.31
   4   0  -2    3.36    0.34
   4   0  -2    3.09    0.32
  -4   0   2    2.23    0.37
  -4   0   2    3.21    0.35
  -4   0   2    3.23    0.40
  -4   0   2    3.09    0.24
  -4   0   2    3.09    0.28
  -4   0   2    2.52    0.32
  -4   0   2    3.02    0.31
   3   0  -2   63.61    1.60
   3   0  -2   64.81    1.61
   3   0  -2   66.46    1.60
   3   0  -2   65.38    1.53
   3   0  -2   64.47    1.40
   3   0  -2   65.23    1.48
   3   0  -2   63.17    1.49
   3   0  -2   65.50    1.57
  -3   0   2   62.80    1.50
  -3   0   2   64.19    1.58
  -3   0   2   65.17    1.56
  -3   0   2   65.05    1.50
  -3   0   2   66.69    1.39
  -3   0   2   63.13    1.63
  -3   0   2   65.78    1.39
   2   0  -2   34.99    0.93
   2   0  -2   37.64    0.92
   2   0  -2   35.17    0.93
   2   0  -2   35.49    0.88
   2   0  -2   37.89    0.89
   2   0  -2   38.93    0.83
   2   0  -2   36.63    0.96
   2   0  -2   37.49    0.97
  -2   0   2   37.00    0.93
  -2   0   2   36.31    0.99
  -2   0   2   37.22    0.90
  -2   0   2   35.81    0.96
  -2   0   2   36.39    0.91
  -2   0   2   36.38    0.83
  -2   0   2   36.89    0.82
  -2   0   2   36.25    0.92
   1   0  -2   73.37    1.39
   1   0  -2   74.91    1.43
   1   0  -2   75.98    1.45
   1   0  -2   74.19    1.46
   1   0  -2   74.36    1.41
   1   0  -2   74.58    1.34
   1   0  -2   74.99    1.41
   1   0  -2   72.41    1.43
   1   0  -2   75.25    1.45
  -1   0   2   74.41    1.38
  -1   0   2   73.61    1.40
  -1   0   2   75.01    1.33
  -1   0   2   72.15    1.42
  -1   0   2   73.11    1.46
  -1   0   2   74.02    1.42
  -1   0   2   72.85    1.44
  -1   0   2   73.04    1.48
  -1   0   2   74.19    1.48
   0   0  -2    9.70    0.28
   0   0  -2    9.11    0.30
   0   0  -2    9.96    0.29
   0   0  -2    9.17    0.29
   0   0  -2    9.65    0.31
   0   0  -2    9.60    0.32
   0   0  -2    9.48    0.29
   0   0  -2    9.87    0.27
   0   0   2    9.75    0.30
   0   0   2    9.83    0.33
   0   0   2   10.12    0.31
   0   0   2    9.95    0.28
   0   0   2    9.96    0.31
   0   0   2   10.05    0.29
   0   0   2    9.60    0.33
   0   0   2    9.88    0.27
   0   0   2    9.66    0.28
  -1   0  -2  848.51   15.02
  -1   0  -2  855.23   15.20
  -1   0  -2  862.75   15.02
  -1   0  -2  856.05   15.20
  -1   0  -2  877.46   15.43
  -1   0  -2  845.91   15.52
  -1   0  -2  853.45   15.54
   1   0   2  866.70   15.06
   1   0   2  848.03   15.26
   1   0   2  864.23   14.69
   1   0   2  854.60   15.20
   1   0   2  860.98   15.21
   1   0   2  868.90   15.41
  -2   0  -2   45.02    0.96
  -2   0  -2   43.80    1.03
  -2   0  -2   44.87    1.14
  -2   0  -2   45.08    1.13
  -2   0  -2   44.91    1.14
  -2   0  -2   46.65    1.09
  -2   0  -2   45.28    1.07
   2   0   2   42.35    1.02
   2   0   2   45.32    1.08
   2   0   2   42.08    1.09
   2   0   2   43.80    0.92
   2   0   2   44.93    1.18
   2   0   2   43.23    1.10
   2   0   2   44.01    1.13
  -3   0  -2   65.70    1.67
  -3   0  -2   69.15    1.71
  -3   0  -2   66.93    1.58
  -3   0  -2   66.28    1.43
  -3   0  -2   68.55    1.68
   3   0   2   68.83    1.38
   3   0   2   65.13    1.54
   3   0   2   69.17    1.74
   3   0   2   65.57    1.67
   3   0   2   65.11    1.47
   3   0   2   65.11    1.63
   3   0   2   66.80    1.63
  -4   0  -2    3.22    0.28
  -4   0  -2    3.81    0.42
  -4   0  -2    3.12    0.24
  -4   0  -2    2.32    0.37
  -4   0  -2    3.00    0.33
  -4   0  -2    2.79    0.40
   4   0   2    3.32    0.47
   4   0   2    3.07    0.32
   4   0   2    2.83    0.37
   4   0   2    2.67    0.40
   4   0   2    3.38    0.42
   4   0   2    3.89    0.41
  -5   0  -2    3.47    0.40
  -5   0  -2    3.09    0.42
  -5   0  -2    3.72    0.37
  -5   0  -2    3.38    0.50
  -5   0  -2    3.25    0.26
   5   0   2    3.37    0.50
   5   0   2    2.36    0.43
   5   0   2    2.77    0.38
   5   0   2    2.67    0.44
  -6   0  -2    9.88    0.62
  -6   0  -2   10.37    0.62
  -6   0  -2   10.26    0.80
   6   0   2   10.79    0.70
   6   0   2   10.28    0.78
   6   0   2    9.54    0.75
  -7   0  -2    1.87    0.49
  -7   0  -2    1.36    0.33
  -7   0  -2    1.85    0.40
   7   0   2    1.63    0.44
   7   0   2    1.36    0.37
   7   0   2    1.41    0.45
   8  -1  -2    3.46    0.72
   8  -1  -2    3.10    0.65
  -8   1   2    3.93    0.53
  -8   1   2    3.85    0.60
  -8   1   2    3.40    0.66
   7  -1  -2    1.22    0.42
   7  -1  -2    1.24    0.44
  -7   1   2    0.79    0.23
  -7   1   2    0.77    0.27
  -7   1   2    0.78    0.30
  -7   1   2    1.20    0.43
   6  -1  -2   28.83    1.28
   6  -1  -2   27.60    1.22
   6  -1  -2   26.64    1.24
   6  -1  -2   27.82    1.11
  -6   1   2   26.84    1.14
  -6   1   2   29.68    1.09
  -6   1   2   27.85    1.01
  -6   1   2   28.00    1.27
  -6   1   2   27.92    0.86
   5  -1  -2    6.88    0.56
   5  -1  -2    6.00    0.51
   5  -1  -2    6.43    0.55
   5  -1  -2    6.46    0.48
   5  -1  -2    5.86    0.48
  -5   1   2    6.91    0.37
  -5   1   2    6.32    0.46
  -5   1   2    6.59    0.46
  -5   1   2    6.75    0.34
  -5   1   2    6.57    0.57
  -5   1   2    6.99    0.46
   4  -1  -2    4.42    0.34
   4  -1  -2    4.55    0.40
   4  -1  -2    4.23    0.40
   4  -1  -2    4.19    0.30
   4  -1  -2    4.29    0.36
   4  -1  -2    4.21    0.36
   4  -1  -2    4.26    0.39
  -4   1   2    4.31    0.27
  -4   1   2    4.39    0.43
  -4   1   2    4.86    0.37
  -4   1   2    4.38    0.33
  -4   1   2    4.43    0.33
  -4   1   2    4.48    0.24
  -4   1   2    4.54    0.34
   3  -1  -2   46.25    1.21
   3  -1  -2   44.98    1.12
   3  -1  -2   47.09    1.06
   3  -1  -2   48.72    1.19
   3  -1  -2   46.21    1.22
   3  -1  -2   46.78    1.22
   3  -1  -2   45.81    1.20
   3  -1  -2   45.27    1.24
  -3   1   2   45.71    1.28
  -3   1   2   48.70    1.11
  -3   1   2   45.83    1.12
  -3   1   2   45.83    1.15
  -3   1   2   48.62    1.18
  -3   1   2   47.77    0.93
  -3   1   2   46.67    1.05
   2  -1  -2   17.79    0.56
   2  -1  -2   18.12    0.58
   2  -1  -2   17.11    0.51
   2  -1  -2   18.34    0.56
   2  -1  -2   17.80    0.57
   2  -1  -2   18.56    0.47
   2  -1  -2   18.06    0.57
   2  -1  -2   18.42    0.59
  -2   1   2   17.64    0.62
  -2   1   2   17.49    0.52
  -2   1   2   16.91    0.60
  -2   1   2   17.73    0.49
  -2   1   2   17.22    0.52
  -2   1   2   17.14    0.38
  -2   1   2   18.35    0.51
  -2   1   2   17.83    0.54
   1  -1  -2  283.97    4.84
   1  -1  -2  280.00    4.84
   1  -1  -2  278.36    4.88
   1  -1  -2  292.52    4.84
   1  -1  -2  287.89    4.89
   1  -1  -2  280.38    5.23
   1  -1  -2  286.92    4.73
   1  -1  -2  283.31    4.86
  -1   1   2  278.36    5.06
  -1   1   2  288.19    5.64
  -1   1   2  276.20    4.92
  -1   1   2  284.86    4.89
  -1   1   2  284.66    4.84
  -1   1   2  285.46    4.97
   0  -1  -2   20.90    0.56
   0  -1  -2   20.16    0.55
   0  -1  -2   20.91    0.53
   0  -1  -2   19.95    0.50
   0  -1  -2   19.86    0.51
   0  -1  -2   19.90    0.53
   0  -1  -2   20.54    0.49
   0  -1  -2   20.89    0.53
   0   1   2   20.21    0.52
   0   1   2   20.03    0.49
   0   1   2   20.67    0.55
   0   1   2   19.94    0.52
   0   1   2   19.89    0.55
   0   1   2   19.20    0.51
   0   1   2   20.85    0.39
   0   1   2   19.11    0.55
   0   1   2   20.38    0.51
  -1  -1  -2   60.96    1.32
  -1  -1  -2   60.03    1.33
  -1  -1  -2   60.82    1.28
  -1  -1  -2   60.18    1.33
  -1  -1  -2   56.35    1.24
  -1  -1  -2   60.26    1.20
   1   1   2   58.77    1.28
   1   1   2   61.50    1.36
   1   1   2   60.23    1.32
   1   1   2   59.71    1.28
   1   1   2   61.18    1.16
   1   1   2   61.19    1.17
   1   1   2   61.33    1.04
   1   1   2   58.62    1.30
   1   1   2   58.72    1.28
  -2  -1  -2   73.42    1.71
  -2  -1  -2   73.56    1.64
  -2  -1  -2   74.15    1.40
  -2  -1  -2   74.35    1.70
  -2  -1  -2   75.78    1.56
  -2  -1  -2   75.92    1.73
   2   1   2   72.82    1.48
   2   1   2   72.19    1.75
   2   1   2   75.67    1.71
   2   1   2   74.26    1.66
   2   1   2   70.40    1.64
   2   1   2   75.64    1.67
   2   1   2   75.09    1.52
  -3  -1  -2   30.37    0.77
  -3  -1  -2   28.88    0.95
  -3  -1  -2   29.82    1.06
  -3  -1  -2   30.75    1.05
  -3  -1  -2   28.54    1.02
   3   1   2   27.98    0.97
   3   1   2   28.11    0.83
   3   1   2   31.92    1.08
   3   1   2   30.16    1.08
   3   1   2   30.64    0.84
   3   1   2   31.41    1.01
  -4  -1  -2    8.65    0.57
  -4  -1  -2   10.44    0.66
  -4  -1  -2    9.42    0.44
  -4  -1  -2    9.81    0.66
  -4  -1  -2    8.75    0.47
  -4  -1  -2    9.17    0.36
   4   1   2   10.70    0.72
   4   1   2    8.68    0.59
   4   1   2    9.58    0.61
   4   1   2    8.76    0.48
   4   1   2    8.72    0.63
  -5  -1  -2   21.16    0.77
  -5  -1  -2   20.34    1.03
  -5  -1  -2   21.06    0.95
  -5  -1  -2   20.93    0.78
   5   1   2   19.22    1.05
   5   1   2   21.52    1.02
   5   1   2   20.44    0.98
   5   1   2   21.24    0.84
  -6  -1  -2    2.56    0.38
  -6  -1  -2    2.75    0.44
  -6  -1  -2    2.56    0.52
   6   1   2    2.86    0.52
   6   1   2    1.85    0.45
   6   1   2    2.40    0.40
  -7  -1  -2    4.02    0.55
  -7  -1  -2    2.49    0.54
  -7  -1  -2    2.81    0.43
   7   1   2    2.91    0.59
   7   1   2    4.05    0.68
   8  -2  -2    0.18    0.36
   8  -2  -2    0.01    0.32
  -8   2   2    0.16    0.31
  -8   2   2    0.67    0.38
   7  -2  -2    1.39    0.35
   7  -2  -2    2.27    0.50
   7  -2  -2    1.22    0.40
  -7   2   2    1.75    0.31
  -7   2   2    1.81    0.46
  -7   2   2    1.79    0.40
  -7   2   2    1.50    0.32
   6  -2  -2    8.03    0.68
   6  -2  -2    8.95    0.70
   6  -2  -2    9.82    0.70
   6  -2  -2    8.55    0.60
  -6   2   2    8.46    0.47
  -6   2   2    8.95    0.52
  -6   2   2   10.94    0.66
  -6   2   2    9.20    0.52
  -6   2   2   10.46    0.77
   5  -2  -2   10.89    0.68
   5  -2  -2   11.73    0.61
   5  -2  -2   11.84    0.66
   5  -2  -2   11.45    0.69
  -5   2   2   11.10    0.49
  -5   2   2   10.63    0.68
  -5   2   2   11.56    0.47
  -5   2   2   11.32    0.63
  -5   2   2   11.53    0.53
  -5   2   2   10.44    0.58
  -5   2   2   10.41    0.50
   4  -2  -2    4.00    0.35
   4  -2  -2    3.79    0.36
   4  -2  -2    4.26    0.29
   4  -2  -2    4.35    0.38
   4  -2  -2    4.50    0.38
   4  -2  -2    4.47    0.33
   4  -2  -2    4.04    0.34
  -4   2   2    3.93    0.39
  -4   2   2    4.18    0.26
  -4   2   2    3.67    0.33
  -4   2   2    4.28    0.30
  -4   2   2    3.80    0.33
  -4   2   2    4.06    0.25
  -4   2   2    3.87    0.26
   3  -2  -2    0.31    0.13
   3  -2  -2    0.36    0.14
   3  -2  -2    0.22    0.11
   3  -2  -2    0.35    0.10
   3  -2  -2    0.25    0.10
   3  -2  -2    0.24    0.11
   3  -2  -2    0.20    0.13
   3  -2  -2    0.29    0.11
  -3   2   2    0.13    0.10
  -3   2   2    0.26    0.09
  -3   2   2    0.34    0.11
  -3   2   2    0.01    0.12
  -3   2   2    0.11    0.13
  -3   2   2    0.17    0.12
  -3   2   2    0.30    0.11
  -3   2   2    0.30    0.08
  -3   2   2    0.21    0.09
   2  -2  -2  220.11    3.90
   2  -2  -2  222.53    3.71
   2  -2  -2  222.94    3.90
   2  -2  -2  220.88    3.75
   2  -2  -2  223.28    3.89
   2  -2  -2  217.78    4.04
   2  -2  -2  219.15    3.86
   2  -2  -2  213.23    3.87
  -2   2   2  217.88    3.91
  -2   2   2  217.65    3.97
  -2   2   2  218.16    3.84
  -2   2   2  221.67    3.92
  -2   2   2  219.04    3.92
  -2   2   2  220.03    3.74
  -2   2   2  225.85    3.90
  -2   2   2  220.71    4.13
  -2   2   2  217.43    3.81
   1  -2  -2    0.62    0.10
   1  -2  -2    0.91    0.11
   1  -2  -2    0.70    0.12
   1  -2  -2    0.61    0.13
   1  -2  -2    0.80    0.13
   1  -2  -2    0.85    0.12
   1  -2  -2    0.86    0.13
   1  -2  -2    0.80    0.16
  -1   2   2    0.76    0.11
  -1   2   2    0.84    0.12
  -1   2   2    0.77    0.11
  -1   2   2    0.94    0.11
  -1   2   2    0.77    0.11
  -1   2   2    1.00    0.16
  -1   2   2    0.75    0.15
  -1   2   2    0.91    0.14
  -1   2   2    0.53    0.12
   0  -2  -2   38.73    0.81
   0  -2  -2   39.08    0.89
   0  -2  -2   38.13    0.91
   0  -2  -2   37.94    0.93
   0  -2  -2   37.79    0.98
   0  -2  -2   37.81    0.89
   0  -2  -2   38.38    0.86
   0  -2  -2   37.47    0.87
   0   2   2   38.88    0.72
   0   2   2   38.31    0.98
   0   2   2   38.73    0.87
   0   2   2   38.07    0.89
   0   2   2   39.63    0.86
   0   2   2   40.29    0.71
  -1  -2  -2   63.28    1.44
  -1  -2  -2   61.44    1.38
  -1  -2  -2   61.96    1.43
  -1  -2  -2   63.04    1.24
  -1  -2  -2   64.63    1.45
   1   2   2   60.45    1.38
   1   2   2   65.05    1.49
   1   2   2   64.07    1.38
   1   2   2   64.19    1.21
   1   2   2   64.92    1.45
   1   2   2   64.37    1.25
   1   2   2   61.80    1.46
   1   2   2   62.26    1.38
  -2  -2  -2   28.53    0.95
  -2  -2  -2   28.87    0.61
  -2  -2  -2   28.65    0.87
  -2  -2  -2   29.46    0.96
  -2  -2  -2   30.09    0.78
  -2  -2  -2   28.71    0.90
  -2  -2  -2   29.29    0.97
   2   2   2   29.86    0.92
   2   2   2   28.56    0.89
   2   2   2   29.91    0.97
   2   2   2   31.19    0.94
   2   2   2   30.37    1.02
   2   2   2   29.65    0.95
   2   2   2   29.32    0.78
   2   2   2   30.29    0.70
  -3  -2  -2   15.07    0.59
  -3  -2  -2   14.09    0.71
  -3  -2  -2   15.25    0.65
  -3  -2  -2   14.35    0.45
  -3  -2  -2   15.53    0.70
  -3  -2  -2   14.28    0.73
  -3  -2  -2   14.39    0.75
   3   2   2   14.60    0.57
   3   2   2   13.66    0.67
   3   2   2   15.25    0.70
   3   2   2   13.96    0.77
   3   2   2   15.57    0.77
   3   2   2   15.16    0.70
   3   2   2   14.82    0.50
  -4  -2  -2    6.37    0.35
  -4  -2  -2    5.96    0.36
  -4  -2  -2    6.21    0.51
  -4  -2  -2    5.64    0.54
  -4  -2  -2    7.30    0.63
   4   2   2    7.38    0.56
   4   2   2    5.83    0.60
   4   2   2    5.28    0.53
   4   2   2    7.17    0.56
   4   2   2    5.86    0.36
  -5  -2  -2    0.49    0.33
  -5  -2  -2    0.08    0.14
  -5  -2  -2    0.44    0.22
  -5  -2  -2    0.50    0.19
   5   2   2    0.26    0.24
   5   2   2    0.30    0.16
   5   2   2    0.31    0.26
   5   2   2   -0.16    0.23
  -6  -2  -2    9.22    0.81
  -6  -2  -2    9.40    0.69
  -6  -2  -2    8.91    0.54
   6   2   2    9.29    0.78
   6   2   2    9.27    0.78
   6   2   2    8.99    0.57
  -7  -2  -2    2.99    0.61
   8  -3  -2    2.62    0.61
   8  -3  -2    2.12    0.54
  -8   3   2    1.77    0.49
   7  -3  -2   11.96    0.76
   7  -3  -2   11.91    0.89
   7  -3  -2   11.38    0.86
  -7   3   2   11.09    0.83
  -7   3   2   11.25    0.62
  -7   3   2   10.43    0.73
   6  -3  -2    9.97    0.72
   6  -3  -2   10.35    0.70
   6  -3  -2    9.16    0.71
   6  -3  -2   10.79    0.65
  -6   3   2   10.27    0.47
  -6   3   2    8.96    0.70
  -6   3   2   11.72    0.70
  -6   3   2    9.87    0.52
   5  -3  -2   30.67    1.15
   5  -3  -2   30.15    1.01
   5  -3  -2   32.52    1.15
   5  -3  -2   31.65    1.10
  -5   3   2   30.37    0.89
  -5   3   2   32.24    1.05
  -5   3   2   31.14    1.08
  -5   3   2   31.01    0.84
  -5   3   2   31.85    0.81
  -5   3   2   29.69    1.14
  -5   3   2   32.42    1.10
   4  -3  -2   15.62    0.68
   4  -3  -2   13.82    0.56
   4  -3  -2   13.84    0.70
   4  -3  -2   13.49    0.60
   4  -3  -2   14.04    0.63
   4  -3  -2   13.78    0.52
   4  -3  -2   13.24    0.59
  -4   3   2   13.45    0.62
  -4   3   2   13.74    0.45
  -4   3   2   13.63    0.41
  -4   3   2   12.93    0.54
  -4   3   2   13.78    0.50
  -4   3   2   12.97    0.65
  -4   3   2   13.19    0.58
   3  -3  -2    4.23    0.23
   3  -3  -2    3.98    0.27
   3  -3  -2    4.23    0.36
   3  -3  -2    4.09    0.32
   3  -3  -2    4.38    0.30
   3  -3  -2    4.23    0.31
   3  -3  -2    4.33    0.20
   3  -3  -2    3.99    0.28
   3  -3  -2    4.25    0.27
  -3   3   2    4.00    0.28
  -3   3   2    3.96    0.17
  -3   3   2    4.32    0.23
  -3   3   2    4.40    0.21
  -3   3   2    3.85    0.32
  -3   3   2    4.27    0.31
  -3   3   2    3.83    0.28
  -3   3   2    4.12    0.41
  -3   3   2    4.23    0.29
   2  -3  -2    7.62    0.31
   2  -3  -2    7.50    0.33
   2  -3  -2    7.97    0.33
   2  -3  -2    7.82    0.36
   2  -3  -2    8.06    0.31
   2  -3  -2    7.91    0.33
   2  -3  -2    8.46    0.34
   2  -3  -2    6.95    0.41
  -2   3   2    7.23    0.46
  -2   3   2    7.50    0.35
  -2   3   2    7.95    0.34
  -2   3   2    8.05    0.37
  -2   3   2    8.12    0.33
  -2   3   2    8.39    0.28
  -2   3   2    8.33    0.27
   1  -3  -2  116.78    2.17
   1  -3  -2  114.57    2.43
   1  -3  -2  120.08    2.16
   1  -3  -2  117.06    2.32
   1  -3  -2  118.42    2.23
   1  -3  -2  115.81    2.19
   1  -3  -2  119.38    2.18
  -1   3   2  117.78    2.22
  -1   3   2  118.85    2.44
  -1   3   2  119.44    2.23
  -1   3   2  120.43    2.17
  -1   3   2  117.13    2.12
  -1   3   2  118.16    2.16
  -1   3   2  118.28    2.11
  -1   3   2  118.82    2.19
   0  -3  -2  115.76    2.24
   0  -3  -2  112.42    2.19
   0  -3  -2  116.81    2.09
   0  -3  -2  116.93    2.25
   0  -3  -2  115.86    2.22
   0  -3  -2  115.70    2.00
   0  -3  -2  115.34    2.41
   0  -3  -2  113.30    2.32
   0  -3  -2  114.32    2.19
   0   3   2  116.38    2.19
   0   3   2  113.64    2.14
   0   3   2  116.11    2.31
   0   3   2  114.39    2.24
   0   3   2  117.80    2.42
   0   3   2  114.26    2.03
   0   3   2  113.59    2.18
   0   3   2  116.48    2.29
  -1  -3  -2   52.40    1.34
  -1  -3  -2   54.88    1.33
  -1  -3  -2   50.42    1.26
  -1  -3  -2   51.63    1.31
  -1  -3  -2   52.18    1.09
  -1  -3  -2   54.07    1.08
   1   3   2   53.95    1.38
   1   3   2   54.34    1.06
   1   3   2   52.51    1.21
   1   3   2   54.46    1.34
   1   3   2   52.37    1.25
   1   3   2   53.32    1.28
   1   3   2   52.51    1.12
   1   3   2   52.11    1.38
  -2  -3  -2   10.27    0.50
  -2  -3  -2   11.38    0.61
  -2  -3  -2   10.38    0.56
  -2  -3  -2    9.70    0.52
  -2  -3  -2   10.48    0.39
  -2  -3  -2   10.76    0.58
   2   3   2   11.10    0.34
   2   3   2   10.97    0.53
   2   3   2   10.62    0.44
   2   3   2   10.67    0.54
   2   3   2   12.01    0.65
   2   3   2   10.14    0.57
   2   3   2   10.75    0.53
   2   3   2   10.49    0.58
  -3  -3  -2    6.12    0.26
  -3  -3  -2    6.38    0.48
  -3  -3  -2    6.14    0.44
  -3  -3  -2    6.15    0.50
  -3  -3  -2    7.08    0.44
  -3  -3  -2    6.63    0.55
   3   3   2    6.38    0.29
   3   3   2    6.08    0.48
   3   3   2    7.03    0.59
   3   3   2    6.04    0.38
   3   3   2    6.54    0.51
   3   3   2    5.46    0.45
   3   3   2    6.48    0.53
  -4  -3  -2    2.38    0.33
  -4  -3  -2    3.31    0.50
  -4  -3  -2    2.58    0.47
  -4  -3  -2    2.77    0.41
  -4  -3  -2    2.40    0.40
  -4  -3  -2    2.83    0.23
   4   3   2    2.59    0.44
   4   3   2    2.38    0.23
   4   3   2    2.74    0.43
   4   3   2    2.56    0.49
   4   3   2    2.19    0.46
   4   3   2    2.65    0.41
  -5  -3  -2    2.44    0.30
  -5  -3  -2    3.24    0.53
  -5  -3  -2    2.61    0.54
   5   3   2    2.38    0.46
   5   3   2    2.70    0.48
   5   3   2    2.51    0.28
   5   3   2    2.94    0.50
  -6  -3  -2    0.19    0.31
   6   3   2    0.31    0.33
   8  -4  -2    0.61    0.41
  -8   4   2    0.51    0.37
   7  -4  -2    7.42    0.71
   7  -4  -2    7.77    0.63
   7  -4  -2    7.02    0.69
  -7   4   2    6.69    0.64
  -7   4   2    7.93    0.70
   6  -4  -2    2.08    0.34
   6  -4  -2    2.99    0.57
   6  -4  -2    2.85    0.49
   6  -4  -2    2.27    0.44
  -6   4   2    2.65    0.36
  -6   4   2    1.95    0.39
  -6   4   2    3.26    0.50
   5  -4  -2   16.28    0.75
   5  -4  -2   19.73    0.85
   5  -4  -2   17.90    0.84
   5  -4  -2   18.83    0.79
   5  -4  -2   19.97    0.77
  -5   4   2   20.84    0.72
  -5   4   2   19.10    0.72
  -5   4   2   20.11    0.87
  -5   4   2   18.67    0.83
   4  -4  -2   60.71    1.47
   4  -4  -2   59.92    1.44
   4  -4  -2   60.17    1.54
   4  -4  -2   59.06    1.45
   4  -4  -2   60.38    1.36
   4  -4  -2   60.90    1.50
  -4   4   2   60.45    1.86
  -4   4   2   59.88    1.56
  -4   4   2   61.82    1.57
  -4   4   2   60.81    1.44
  -4   4   2   57.33    1.50
  -4   4   2   60.51    1.40
   3  -4  -2   19.55    0.80
   3  -4  -2   21.34    0.68
   3  -4  -2   19.40    0.67
   3  -4  -2   20.12    0.63
   3  -4  -2   20.37    0.62
   3  -4  -2   21.39    0.64
   3  -4  -2   21.12    0.59
   3  -4  -2   18.22    0.79
  -3   4   2   20.00    0.51
  -3   4   2   19.85    0.71
  -3   4   2   20.24    0.70
  -3   4   2   20.12    0.91
  -3   4   2   20.63    0.76
  -3   4   2   20.49    0.61
  -3   4   2   20.37    0.62
   2  -4  -2    2.28    0.18
   2  -4  -2    1.95    0.20
   2  -4  -2    1.93    0.17
   2  -4  -2    2.28    0.32
   2  -4  -2    2.31    0.23
   2  -4  -2    2.01    0.16
   2  -4  -2    2.33    0.19
   2  -4  -2    2.54    0.29
  -2   4   2    2.40    0.21
  -2   4   2    2.31    0.22
  -2   4   2    2.25    0.15
  -2   4   2    2.29    0.19
  -2   4   2    2.31    0.19
  -2   4   2    3.19    0.43
   1  -4  -2   61.10    1.27
   1  -4  -2   62.76    1.34
   1  -4  -2   63.92    1.33
   1  -4  -2   60.18    1.47
   1  -4  -2   63.11    1.29
   1  -4  -2   62.73    1.15
   1  -4  -2   60.18    1.59
   1  -4  -2   64.23    1.31
  -1   4   2   60.26    1.57
  -1   4   2   59.85    1.57
  -1   4   2   63.37    1.29
  -1   4   2   61.83    1.17
  -1   4   2   62.24    1.18
  -1   4   2   62.84    1.36
  -1   4   2   60.55    1.34
  -1   4   2   62.65    1.31
  -1   4   2   63.73    1.30
   0  -4  -2   46.20    1.13
   0  -4  -2   45.98    0.97
   0  -4  -2   45.43    1.14
   0  -4  -2   46.89    1.13
   0  -4  -2   45.52    1.23
   0  -4  -2   45.17    1.30
   0  -4  -2   45.89    1.09
   0  -4  -2   47.13    0.92
   0  -4  -2   45.46    1.09
   0   4   2   44.84    1.00
   0   4   2   43.65    1.05
   0   4   2   43.63    1.29
   0   4   2   45.78    1.14
   0   4   2   44.18    0.95
   0   4   2   46.21    1.07
   0   4   2   45.66    1.21
   0   4   2   45.56    1.19
  -1  -4  -2   12.35    0.57
  -1  -4  -2   11.76    0.37
  -1  -4  -2   11.26    0.52
  -1  -4  -2   11.50    0.40
  -1  -4  -2   11.54    0.58
  -1  -4  -2   12.31    0.58
   1   4   2   12.38    0.63
   1   4   2   12.87    0.54
   1   4   2   11.56    0.50
   1   4   2   11.79    0.44
   1   4   2   12.29    0.49
   1   4   2   12.78    0.59
  -2  -4  -2    8.51    0.57
  -2  -4  -2    9.02    0.55
  -2  -4  -2    8.69    0.49
  -2  -4  -2    8.59    0.51
  -2  -4  -2    8.01    0.52
   2   4   2    8.74    0.43
   2   4   2    8.72    0.49
   2   4   2    9.57    0.63
   2   4   2    9.04    0.59
   2   4   2    9.40    0.53
   2   4   2    9.25    0.58
   2   4   2    8.77    0.49
  -3  -4  -2    6.48    0.57
  -3  -4  -2    5.79    0.52
  -3  -4  -2    6.42    0.49
  -3  -4  -2    5.97    0.20
  -3  -4  -2    5.56    0.48
  -3  -4  -2    5.48    0.44
   3   4   2    5.89    0.60
   3   4   2    6.15    0.48
   3   4   2    5.45    0.46
   3   4   2    5.22    0.40
   3   4   2    5.08    0.51
   3   4   2    5.59    0.23
  -4  -4  -2    0.74    0.32
  -4  -4  -2    1.29    0.29
  -4  -4  -2    1.63    0.38
  -4  -4  -2    1.31    0.48
  -4  -4  -2    1.33    0.17
   4   4   2    1.15    0.34
   4   4   2    1.50    0.36
   4   4   2    1.45    0.38
   4   4   2    1.16    0.15
  -5  -4  -2    2.28    0.52
  -5  -4  -2    3.02    0.53
   5   4   2    2.82    0.56
   5   4   2    3.05    0.51
   6   4   2    3.48    0.67
   6   4   2    3.92    0.65
   8  -5  -2    9.94    1.05
  -8   5   2    8.97    0.78
   7  -5  -2    4.54    0.51
   7  -5  -2    4.46    0.63
   7  -5  -2    5.19    0.67
  -7   5   2    3.42    0.53
  -7   5   2    3.15    0.51
   6  -5  -2    3.51    0.45
   6  -5  -2    2.99    0.48
   6  -5  -2    3.05    0.48
  -6   5   2    3.18    0.39
  -6   5   2    2.41    0.41
  -6   5   2    2.37    0.42
   5  -5  -2    0.40    0.18
   5  -5  -2    0.26    0.15
   5  -5  -2    0.43    0.17
   5  -5  -2    0.06    0.18
   5  -5  -2    0.21    0.19
  -5   5   2    0.27    0.19
  -5   5   2    0.14    0.12
  -5   5   2    0.11    0.14
  -5   5   2    0.34    0.21
   4  -5  -2    4.60    0.27
   4  -5  -2    5.04    0.36
   4  -5  -2    5.08    0.38
   4  -5  -2    5.61    0.35
   4  -5  -2    5.53    0.37
   4  -5  -2    5.32    0.36
  -4   5   2    5.75    0.34
  -4   5   2    4.80    0.41
  -4   5   2    5.52    0.29
  -4   5   2    5.52    0.56
  -4   5   2    5.09    0.39
   3  -5  -2    0.32    0.12
   3  -5  -2    0.37    0.11
   3  -5  -2    0.35    0.14
   3  -5  -2    0.33    0.13
   3  -5  -2    0.17    0.10
  -3   5   2    0.15    0.12
  -3   5   2    0.34    0.12
  -3   5   2    0.26    0.10
  -3   5   2    0.11    0.18
  -3   5   2    0.07    0.13
   2  -5  -2   48.60    1.48
   2  -5  -2   46.02    1.06
   2  -5  -2   46.00    1.30
   2  -5  -2   44.88    1.19
   2  -5  -2   46.97    1.06
   2  -5  -2   45.03    1.24
   2  -5  -2   46.60    1.09
   2  -5  -2   47.81    1.03
   2  -5  -2   46.98    1.06
   2  -5  -2   45.51    0.99
  -2   5   2   44.46    1.43
  -2   5   2   47.54    1.02
  -2   5   2   48.24    1.17
  -2   5   2   46.14    1.11
  -2   5   2   46.50    1.08
  -2   5   2   47.50    0.99
   1  -5  -2   64.30    1.40
   1  -5  -2   63.74    1.36
   1  -5  -2   61.81    1.71
   1  -5  -2   63.83    1.42
   1  -5  -2   63.18    1.42
   1  -5  -2   64.39    1.24
   1  -5  -2   63.44    1.29
   1  -5  -2   65.70    1.62
   1  -5  -2   63.72    1.37
  -1   5   2   66.42    1.48
  -1   5   2   65.40    1.36
  -1   5   2   63.70    1.72
  -1   5   2   62.74    1.69
  -1   5   2   64.03    1.42
  -1   5   2   64.42    1.38
  -1   5   2   66.35    1.36
   0  -5  -2    9.05    0.57
   0  -5  -2    8.16    0.44
   0  -5  -2    8.81    0.44
   0  -5  -2    8.97    0.42
   0  -5  -2    8.49    0.32
   0  -5  -2    8.42    0.45
   0  -5  -2    9.59    0.54
   0  -5  -2    8.72    0.31
   0  -5  -2    8.20    0.41
   0   5   2    8.56    0.56
   0   5   2    8.32    0.37
   0   5   2    8.44    0.38
   0   5   2    8.88    0.35
   0   5   2    8.22    0.50
   0   5   2    8.71    0.34
   0   5   2    8.65    0.49
  -1  -5  -2    8.94    0.52
  -1  -5  -2   10.37    0.58
  -1  -5  -2   10.09    0.40
  -1  -5  -2    9.33    0.50
  -1  -5  -2   10.22    0.33
  -1  -5  -2    8.96    0.56
   1   5   2    8.86    0.46
   1   5   2    8.77    0.42
   1   5   2   10.12    0.43
   1   5   2    9.78    0.63
   1   5   2    9.24    0.47
   1   5   2    9.12    0.50
   1   5   2   10.09    0.60
  -2  -5  -2    6.48    0.48
  -2  -5  -2    6.23    0.45
  -2  -5  -2    6.46    0.56
  -2  -5  -2    5.53    0.47
   2   5   2    6.11    0.39
   2   5   2    6.09    0.45
   2   5   2    6.01    0.41
   2   5   2    6.90    0.57
   2   5   2    6.45    0.57
  -3  -5  -2    4.23    0.41
  -3  -5  -2    4.36    0.62
  -3  -5  -2    4.71    0.49
  -3  -5  -2    3.88    0.51
   3   5   2    4.31    0.44
   3   5   2    4.16    0.43
   3   5   2    4.72    0.54
  -4  -5  -2    2.53    0.48
   4   5   2    2.85    0.54
   4   5   2    3.50    0.50
  -5  -5  -2    1.05    0.40
   5   5   2    1.31    0.47
   5   5   2    1.42    0.43
   7  -6  -2    3.05    0.51
   7  -6  -2    2.73    0.44
  -7   6   2    2.72    0.46
  -7   6   2    3.61    0.60
   6  -6  -2    7.85    0.61
   6  -6  -2    8.12    0.62
   6  -6  -2    6.89    0.53
  -6   6   2    7.33    0.58
  -6   6   2    7.72    0.65
   5  -6  -2    0.28    0.18
   5  -6  -2    0.07    0.13
   5  -6  -2    0.28    0.19
   5  -6  -2    0.25    0.16
   5  -6  -2   -0.05    0.15
  -5   6   2    0.24    0.15
  -5   6   2    0.04    0.21
  -5   6   2    0.34    0.22
   4  -6  -2   17.31    0.71
   4  -6  -2   17.00    0.61
   4  -6  -2   17.01    0.63
   4  -6  -2   17.74    0.69
   4  -6  -2   16.98    0.60
   4  -6  -2   17.99    0.66
  -4   6   2   16.88    0.99
  -4   6   2   18.11    0.58
  -4   6   2   15.76    0.76
  -4   6   2   17.43    0.67
   3  -6  -2    0.95    0.21
   3  -6  -2    0.94    0.16
   3  -6  -2    0.91    0.17
   3  -6  -2    1.07    0.21
   3  -6  -2    0.94    0.18
   3  -6  -2    0.71    0.15
   3  -6  -2    0.64    0.13
  -3   6   2    0.60    0.25
  -3   6   2    0.85    0.17
  -3   6   2    0.67    0.18
  -3   6   2    0.64    0.22
   2  -6  -2   38.31    0.94
   2  -6  -2   39.40    0.96
   2  -6  -2   37.11    0.87
   2  -6  -2   37.90    0.91
   2  -6  -2   36.43    0.96
   2  -6  -2   36.77    0.95
   2  -6  -2   37.12    1.13
   2  -6  -2   37.49    1.17
  -2   6   2   39.22    0.98
  -2   6   2   39.09    0.98
  -2   6   2   39.42    0.84
  -2   6   2   39.66    1.07
  -2   6   2   38.77    1.37
   1  -6  -2    1.55    0.21
   1  -6  -2    1.30    0.22
   1  -6  -2    1.19    0.13
   1  -6  -2    0.99    0.18
   1  -6  -2    1.20    0.19
   1  -6  -2    1.29    0.27
   1  -6  -2    1.25    0.21
   1  -6  -2    1.27    0.16
   1  -6  -2    1.32    0.19
  -1   6   2    1.04    0.29
  -1   6   2    1.06    0.17
  -1   6   2    1.23    0.24
  -1   6   2    0.94    0.29
  -1   6   2    0.94    0.19
   0  -6  -2   71.43    1.46
   0  -6  -2   73.61    1.75
   0  -6  -2   74.89    1.93
   0  -6  -2   73.52    1.67
   0  -6  -2   72.89    1.65
   0  -6  -2   72.58    1.79
   0  -6  -2   75.18    1.46
   0  -6  -2   74.42    1.69
   0   6   2   70.69    1.57
   0   6   2   70.53    1.50
   0   6   2   70.40    1.47
   0   6   2   69.71    1.87
   0   6   2   71.87    2.01
   0   6   2   72.04    1.43
   0   6   2   72.63    1.83
  -1  -6  -2    3.90    0.20
  -1  -6  -2    4.21    0.37
  -1  -6  -2    3.87    0.38
  -1  -6  -2    3.83    0.27
  -1  -6  -2    3.70    0.47
   1   6   2    3.40    0.31
   1   6   2    3.80    0.41
   1   6   2    3.73    0.45
   1   6   2    3.68    0.28
   1   6   2    3.18    0.31
   1   6   2    4.01    0.48
   1   6   2    3.74    0.30
  -2  -6  -2    2.11    0.43
  -2  -6  -2    2.22    0.42
  -2  -6  -2    2.08    0.36
   2   6   2    1.48    0.28
   2   6   2    1.63    0.32
   2   6   2    1.89    0.28
   2   6   2    2.05    0.34
   2   6   2    2.23    0.43
   2   6   2    2.15    0.31
  -3  -6  -2    2.60    0.43
   3   6   2    3.03    0.41
   3   6   2    2.67    0.38
   3   6   2    3.58    0.58
  -4  -6  -2    8.82    0.73
   4   6   2    8.92    0.82
   4   6   2    8.39    0.66
  -5  -6  -2   10.82    0.87
   5   6   2   11.43    1.08
   5   6   2   10.99    0.81
   7  -7  -2    3.79    0.52
  -7   7   2    4.13    0.81
  -7   7   2    3.53    0.44
   6  -7  -2    6.55    0.53
   6  -7  -2    6.89    0.56
  -6   7   2    6.38    0.44
  -6   7   2    5.85    0.66
  -6   7   2    6.52    0.49
   5  -7  -2    3.52    0.37
   5  -7  -2    3.99    0.40
   5  -7  -2    3.65    0.31
   5  -7  -2    4.46    0.42
  -5   7   2    3.62    0.29
  -5   7   2    4.00    0.37
  -5   7   2    4.43    0.57
   4  -7  -2   11.76    0.62
   4  -7  -2   11.28    0.46
   4  -7  -2   11.36    0.52
   4  -7  -2   11.48    0.51
   4  -7  -2   11.48    0.54
   4  -7  -2   11.02    0.54
  -4   7   2   11.93    0.67
  -4   7   2   11.55    0.43
  -4   7   2   11.04    0.86
  -4   7   2   11.06    0.49
   3  -7  -2   18.01    0.78
   3  -7  -2   17.05    0.57
   3  -7  -2   16.49    0.60
   3  -7  -2   16.99    0.57
   3  -7  -2   17.96    0.59
   3  -7  -2   17.37    0.73
   3  -7  -2   17.43    0.58
  -3   7   2   15.64    0.71
  -3   7   2   15.72    0.97
  -3   7   2   16.66    0.59
  -3   7   2   16.93    0.56
   2  -7  -2   10.55    0.61
   2  -7  -2   10.25    0.45
   2  -7  -2    8.82    0.44
   2  -7  -2    9.19    0.37
   2  -7  -2    9.72    0.41
   2  -7  -2   10.33    0.61
  -2   7   2    9.10    0.70
  -2   7   2   10.15    0.45
  -2   7   2   10.42    0.48
   1  -7  -2   18.89    0.55
   1  -7  -2   18.86    0.68
   1  -7  -2   18.05    0.72
   1  -7  -2   19.51    0.88
   1  -7  -2   20.26    0.73
   1  -7  -2   19.28    0.65
   1  -7  -2   19.69    0.67
   1  -7  -2   20.38    0.65
  -1   7   2   20.18    0.77
  -1   7   2   18.71    0.95
  -1   7   2   19.99    0.70
  -1   7   2   18.68    0.93
  -1   7   2   19.32    0.59
   0  -7  -2    0.03    0.08
   0  -7  -2    0.11    0.16
   0  -7  -2   -0.12    0.11
   0  -7  -2    0.15    0.13
   0  -7  -2    0.10    0.18
   0  -7  -2    0.03    0.07
   0  -7  -2   -0.09    0.13
   0   7   2   -0.02    0.11
   0   7   2    0.14    0.19
   0   7   2    0.08    0.16
   0   7   2    0.05    0.17
  -1  -7  -2   14.64    0.84
  -1  -7  -2   15.40    0.57
  -1  -7  -2   15.57    0.73
   1   7   2   16.00    0.81
   1   7   2   17.89    0.60
   1   7   2   15.88    0.63
   1   7   2   18.31    0.99
  -2  -7  -2   19.49    0.90
   2   7   2   16.95    0.83
   2   7   2   18.91    1.07
   2   7   2   17.90    0.71
  -3  -7  -2    3.52    0.51
   3   7   2    3.20    0.59
   3   7   2    3.31    0.45
   3   7   2    4.12    0.43
  -4  -7  -2    2.32    0.45
   4   7   2    1.73    0.49
   4   7   2    2.59    0.43
   7  -8  -2    2.72    0.45
   6  -8  -2    4.56    0.49
   6  -8  -2    4.93    0.46
  -6   8   2    4.91    0.62
   5  -8  -2    7.53    0.50
   5  -8  -2    8.25    0.57
   5  -8  -2    6.96    0.39
  -5   8   2    8.70    0.68
   4  -8  -2    1.70    0.27
   4  -8  -2    1.94    0.24
   4  -8  -2    1.81    0.25
   4  -8  -2    1.80    0.31
  -4   8   2    1.48    0.43
  -4   8   2    1.86    0.35
   3  -8  -2    2.68    0.27
   3  -8  -2    2.29    0.38
   3  -8  -2    2.29    0.23
   3  -8  -2    2.67    0.26
   3  -8  -2    2.46    0.24
  -3   8   2    2.18    0.49
   2  -8  -2    4.68    0.27
   2  -8  -2    4.97    0.37
   2  -8  -2    4.87    0.32
   2  -8  -2    4.91    0.32
   2  -8  -2    4.71    0.38
   2  -8  -2    4.67    0.47
  -2   8   2    4.50    0.35
  -2   8   2    3.89    0.32
  -2   8   2    3.96    0.60
   1  -8  -2    6.82    0.57
   1  -8  -2    6.61    0.48
   1  -8  -2    6.95    0.41
   1  -8  -2    6.00    0.38
   1  -8  -2    6.07    0.30
  -1   8   2    6.49    0.60
  -1   8   2    6.13    0.60
  -1   8   2    5.85    0.41
  -1   8   2    5.22    0.44
   0  -8  -2    2.73    0.35
   0  -8  -2    3.06    0.25
   0  -8  -2    2.94    0.35
   0  -8  -2    2.73    0.46
   0   8   2    2.84    0.51
   0   8   2    2.32    0.42
  -1  -8  -2   16.97    0.80
  -1  -8  -2   17.36    0.96
  -1  -8  -2   15.87    0.76
  -1  -8  -2   18.12    0.64
   1   8   2   16.24    0.88
   1   8   2   14.78    0.98
  -2  -8  -2    5.60    0.52
  -2  -8  -2    5.96    0.55
   2   8   2    6.16    0.72
   2   8   2    4.20    0.53
  -3  -8  -2    1.82    0.39
  -3  -8  -2    1.66    0.39
   3   8   2    1.46    0.48
   6  -9  -2    4.50    0.50
  -6   9   2    3.98    0.59
   5  -9  -2   13.84    0.63
   5  -9  -2   14.35    0.79
  -5   9   2   13.53    0.85
   4  -9  -2    1.36    0.22
   4  -9  -2    1.04    0.23
   4  -9  -2    0.85    0.27
  -4   9   2    1.62    0.51
   3  -9  -2    3.50    0.31
   3  -9  -2    3.22    0.45
   3  -9  -2    3.63    0.30
  -3   9   2    3.23    0.59
   2  -9  -2    2.97    0.38
   2  -9  -2    2.41    0.26
   2  -9  -2    2.82    0.48
  -2   9   2    3.36    0.57
  -2   9   2    2.71    0.30
  -2   9   2    2.56    0.34
   1  -9  -2    3.83    0.34
   1  -9  -2    5.24    0.54
   1  -9  -2    3.96    0.36
  -1   9   2    4.26    0.39
  -1   9   2    5.28    0.68
  -1   9   2    5.42    0.61
   0  -9  -2    1.92    0.42
   0  -9  -2    1.79    0.30
   0  -9  -2    1.83    0.32
   0   9   2    1.72    0.48
   0   9   2    2.44    0.48
  -1  -9  -2    5.04    0.49
  -1  -9  -2    4.93    0.66
  -1  -9  -2    4.73    0.47
   1   9   2    5.06    0.66
   1   9   2    3.96    0.64
  -2  -9  -2    1.50    0.36
  -2  -9  -2    1.35    0.41
  -2  -9  -2    0.97    0.31
   4 -10  -2    3.09    0.35
   4 -10  -2    2.66    0.47
  -4  10   2    2.97    0.72
   3 -10  -2   -0.16    0.19
   3 -10  -2    0.23    0.14
  -3  10   2    0.18    0.31
   2 -10  -2    7.69    0.67
   2 -10  -2    7.14    0.43
  -2  10   2    8.65    0.84
   1 -10  -2    2.02    0.44
   1 -10  -2    1.36    0.26
  -1  10   2    1.51    0.42
  -1  10   2    0.73    0.38
  -1  10   2    2.20    0.34
   0  10   2    2.55    0.52
   0  10   2    2.25    0.38
  -2  11   2    1.76    0.58
  -1  11   2    5.98    0.46
  -1  11   2    5.02    0.74
  -1 -12   3    1.83    0.39
   0  12  -3    5.91    0.85
   0 -12   3    5.82    0.51
  -1  12  -3    0.61    0.35
   1 -12   3    0.61    0.16
   1 -12   3    0.50    0.23
   2 -12   3    3.21    0.47
   2 -12   3    3.59    0.56
   3 -12   3    2.51    0.47
   3 -12   3    2.68    0.45
   4 -12   3    1.06    0.29
   4 -12   3    1.99    0.48
   4 -12   3    1.60    0.35
   5 -12   3    3.68    0.65
   5 -12   3    1.72    0.38
  -3 -11   3    4.93    0.67
  -3 -11   3    3.99    0.66
   2  11  -3    1.73    0.71
  -2 -11   3    0.74    0.27
  -2 -11   3    0.86    0.31
   1  11  -3    3.42    0.62
  -1 -11   3    3.41    0.46
  -1 -11   3    2.95    0.43
  -1 -11   3    3.54    0.71
   0  11  -3   10.94    0.53
   0  11  -3   11.14    0.85
   0 -11   3    9.98    0.64
   0 -11   3   10.12    0.56
  -1  11  -3    1.68    0.41
   1 -11   3    1.27    0.24
   1 -11   3    1.48    0.30
   1 -11   3    1.09    0.19
   2 -11   3   18.81    0.97
   2 -11   3   17.67    0.85
   2 -11   3   18.36    0.80
   3 -11   3    6.27    0.55
   3 -11   3    6.16    0.53
   3 -11   3    5.38    0.53
   4 -11   3    0.49    0.20
   4 -11   3    0.39    0.25
   4 -11   3    0.20    0.20
   5 -11   3    4.95    0.55
   5 -11   3    4.65    0.67
   5 -11   3    4.40    0.49
   6 -11   3    3.09    0.50
   3  10  -3    3.14    0.59
  -3 -10   3    2.10    0.45
  -3 -10   3    2.11    0.39
  -3 -10   3    2.06    0.46
   2  10  -3    0.15    0.24
  -2 -10   3    0.12    0.18
  -2 -10   3    0.00    0.19
  -2 -10   3    0.31    0.21
   1  10  -3    3.71    0.56
  -1 -10   3    2.44    0.37
  -1 -10   3    3.61    0.46
  -1 -10   3    3.40    0.45
   0  10  -3    7.90    0.45
   0  10  -3    8.30    0.69
   0 -10   3    7.57    0.50
   0 -10   3    8.68    0.54
   0 -10   3    7.40    0.47
   0 -10   3    7.16    0.52
  -1  10  -3    9.61    0.71
   1 -10   3   11.87    0.66
   1 -10   3   10.90    0.46
   1 -10   3   11.10    0.51
   1 -10   3   11.50    0.52
   1 -10   3   11.43    0.50
   2 -10   3    5.58    0.44
   2 -10   3    5.62    0.47
   3 -10   3    4.30    0.47
   3 -10   3    4.43    0.43
   3 -10   3    5.37    0.47
   4 -10   3    2.08    0.45
   4 -10   3    2.58    0.37
   4 -10   3    1.62    0.35
   5 -10   3    2.56    0.49
   5 -10   3    2.87    0.33
   5 -10   3    2.59    0.41
   6 -10   3    3.52    0.62
   4   9  -3   -0.11    0.27
   4   9  -3    0.03    0.19
  -4  -9   3    0.01    0.19
  -4  -9   3   -0.28    0.20
  -4  -9   3    0.18    0.23
   3   9  -3    3.27    0.39
   3   9  -3    3.19    0.55
  -3  -9   3    4.19    0.59
  -3  -9   3    3.28    0.51
  -3  -9   3    2.55    0.40
   2   9  -3    1.25    0.19
   2   9  -3    1.24    0.40
  -2  -9   3    1.06    0.26
  -2  -9   3    1.52    0.35
  -2  -9   3    0.74    0.27
   1   9  -3    3.91    0.64
   1   9  -3    2.70    0.26
   1   9  -3    2.89    0.42
  -1  -9   3    3.71    0.48
  -1  -9   3    3.27    0.45
  -1  -9   3    2.84    0.40
  -1  -9   3    3.02    0.41
   0   9  -3   13.41    0.58
   0   9  -3   13.10    0.80
   0  -9   3   14.05    0.62
   0  -9   3   13.90    0.57
   0  -9   3   13.16    0.43
   0  -9   3   13.49    0.63
   0  -9   3   12.94    0.64
   0  -9   3   12.99    0.67
   0  -9   3   12.22    0.59
  -1   9  -3   31.92    1.23
   1  -9   3   33.07    0.95
   1  -9   3   30.43    0.89
   1  -9   3   31.19    0.86
   1  -9   3   32.41    0.89
   1  -9   3   31.84    0.85
   1  -9   3   30.83    1.02
   1  -9   3   29.83    1.06
   2  -9   3    8.33    0.55
   2  -9   3    8.29    0.32
   2  -9   3    8.00    0.30
   2  -9   3    9.06    0.55
   3  -9   3    0.96    0.29
   3  -9   3    0.90    0.26
   3  -9   3    0.95    0.24
   4  -9   3    6.18    0.58
   4  -9   3    6.74    0.43
   4  -9   3    6.23    0.53
  -5   9  -3    2.28    0.48
   5  -9   3    2.67    0.28
   5  -9   3    2.64    0.52
   5  -9   3    2.57    0.19
   5  -9   3    2.74    0.17
  -6   9  -3    3.24    0.57
   6  -9   3    3.27    0.31
   6  -9   3    3.45    0.27
   6  -9   3    3.12    0.58
  -7   9  -3    0.78    0.36
   5   8  -3    0.37    0.30
  -5  -8   3    0.28    0.29
  -5  -8   3   -0.01    0.27
  -5  -8   3    0.14    0.23
   4   8  -3    4.94    0.51
   4   8  -3    4.15    0.63
  -4  -8   3    5.51    0.73
  -4  -8   3    4.83    0.66
  -4  -8   3    4.55    0.49
   3   8  -3   13.98    0.92
   3   8  -3   13.64    0.68
  -3  -8   3   14.32    0.86
  -3  -8   3   13.84    0.74
  -3  -8   3   15.20    0.86
   2   8  -3    2.19    0.28
   2   8  -3    2.17    0.42
   2   8  -3    2.31    0.35
   2   8  -3    1.78    0.25
   2   8  -3    2.68    0.52
  -2  -8   3    1.74    0.36
  -2  -8   3    2.15    0.32
  -2  -8   3    2.15    0.41
  -2  -8   3    2.87    0.43
   1   8  -3   12.49    0.77
   1   8  -3   15.25    0.72
   1   8  -3   14.10    0.56
   1   8  -3   13.23    0.82
  -1  -8   3   12.44    0.64
  -1  -8   3   14.13    0.72
  -1  -8   3   14.53    0.68
  -1  -8   3   13.43    0.66
  -1  -8   3   14.56    0.70
   0   8  -3   18.34    0.48
   0   8  -3   20.51    0.92
   0   8  -3   19.16    0.68
   0   8  -3   20.01    0.97
   0  -8   3   17.64    0.76
   0  -8   3   17.87    0.70
   0  -8   3   17.59    0.53
   0  -8   3   19.37    0.68
   0  -8   3   18.55    0.70
   0  -8   3   18.09    0.63
   0  -8   3   17.39    0.68
   0  -8   3   18.51    0.71
  -1   8  -3    6.97    0.59
  -1   8  -3    6.68    0.51
   1  -8   3    7.19    0.48
   1  -8   3    7.52    0.46
   1  -8   3    7.48    0.35
   1  -8   3    6.94    0.35
   1  -8   3    7.57    0.42
   1  -8   3    7.26    0.35
   1  -8   3    6.91    0.32
   1  -8   3    8.15    0.50
   2  -8   3    6.25    0.46
   2  -8   3    6.56    0.49
   2  -8   3    6.71    0.47
   3  -8   3    7.95    0.57
   3  -8   3    8.06    0.53
   3  -8   3    7.96    0.48
  -4   8  -3    8.63    0.69
   4  -8   3    9.99    0.35
   4  -8   3    9.50    0.34
   4  -8   3    9.72    0.30
   4  -8   3    9.98    0.39
   4  -8   3    9.01    0.67
   4  -8   3    9.94    0.48
  -5   8  -3    7.81    0.68
   5  -8   3    8.37    0.71
   5  -8   3    9.30    0.42
   5  -8   3    8.06    0.37
   5  -8   3    8.02    0.42
   5  -8   3    9.07    0.50
  -6   8  -3    8.34    0.75
   6  -8   3    7.38    0.52
   6  -8   3    7.80    0.75
   6  -8   3    7.63    0.45
  -7   8  -3    1.39    0.41
  -7   8  -3    1.08    0.23
   5   7  -3    3.74    0.58
   5   7  -3    3.36    0.62
  -5  -7   3    4.87    0.51
  -5  -7   3    3.70    0.65
  -5  -7   3    4.68    0.64
   4   7  -3    4.86    0.52
   4   7  -3    4.98    0.67
  -4  -7   3    4.73    0.62
  -4  -7   3    4.74    0.46
  -4  -7   3    3.75    0.58
   3   7  -3   12.94    0.74
   3   7  -3   13.13    0.65
   3   7  -3   13.67    0.81
   3   7  -3   13.62    0.85
   3   7  -3   13.25    0.68
  -3  -7   3   13.95    0.84
  -3  -7   3   14.31    0.87
  -3  -7   3   12.92    0.76
  -3  -7   3   14.14    0.71
  -3  -7   3   13.71    0.81
   2   7  -3   41.95    1.14
   2   7  -3   41.59    1.11
   2   7  -3   42.57    1.47
   2   7  -3   39.65    1.43
   2   7  -3   41.86    1.27
   2   7  -3   41.33    1.39
  -2  -7   3   39.82    1.23
  -2  -7   3   40.92    1.36
  -2  -7   3   38.77    1.29
  -2  -7   3   41.06    1.35
  -2  -7   3   43.47    1.42
   1   7  -3    0.94    0.26
   1   7  -3    1.30    0.34
   1   7  -3    1.15    0.15
   1   7  -3    0.80    0.24
   1   7  -3    0.78    0.18
   1   7  -3    1.39    0.17
  -1  -7   3    1.13    0.25
  -1  -7   3    0.64    0.18
  -1  -7   3    0.63    0.20
  -1  -7   3    0.83    0.21
  -1  -7   3    0.65    0.21
  -1  -7   3    1.08    0.25
   0   7  -3    0.33    0.13
   0   7  -3    0.73    0.24
   0   7  -3    0.55    0.13
   0   7  -3    0.73    0.26
   0   7  -3    0.59    0.12
   0   7  -3    0.42    0.14
   0  -7   3    0.59    0.15
   0  -7   3    0.65    0.16
   0  -7   3    0.52    0.16
   0  -7   3    0.43    0.12
   0  -7   3    0.47    0.17
   0  -7   3    0.37    0.14
   0  -7   3    0.67    0.17
   0  -7   3    0.46    0.11
  -1   7  -3    8.18    0.58
  -1   7  -3    7.71    0.49
   1  -7   3    8.21    0.42
   1  -7   3    7.82    0.62
   1  -7   3    7.33    0.66
   1  -7   3    7.74    0.33
   1  -7   3    7.72    0.32
   1  -7   3    7.80    0.30
   1  -7   3    8.00    0.50
   1  -7   3    7.52    0.45
   1  -7   3    7.28    0.43
   1  -7   3    8.09    0.46
   1  -7   3    7.99    0.34
   1  -7   3    7.87    0.29
  -2   7  -3   16.37    0.82
   2  -7   3   18.99    0.75
   2  -7   3   17.84    0.83
   2  -7   3   17.34    0.43
   2  -7   3   19.33    0.76
   2  -7   3   18.19    0.75
   2  -7   3   18.28    0.39
   2  -7   3   17.07    0.74
   2  -7   3   18.27    0.79
  -3   7  -3   23.20    0.99
   3  -7   3   22.82    0.55
   3  -7   3   22.78    0.55
   3  -7   3   24.60    0.97
   3  -7   3   23.19    0.76
   3  -7   3   22.98    0.50
   3  -7   3   24.30    0.93
   3  -7   3   22.97    0.51
   3  -7   3   24.84    0.98
  -4   7  -3  110.47    2.70
   4  -7   3  111.94    2.22
   4  -7   3  112.60    2.78
   4  -7   3  112.63    2.11
   4  -7   3  111.17    2.20
   4  -7   3  114.12    2.13
   4  -7   3  113.11    2.59
   4  -7   3  110.46    2.20
  -5   7  -3    9.21    0.39
  -5   7  -3    8.89    0.68
   5  -7   3    8.78    0.54
   5  -7   3    9.19    0.52
   5  -7   3    9.34    0.39
   5  -7   3    9.37    0.52
   5  -7   3    9.73    0.47
   5  -7   3    9.92    0.49
   5  -7   3    9.80    0.75
  -6   7  -3    5.55    0.40
  -6   7  -3    5.69    0.71
  -6   7  -3    5.60    0.58
   6  -7   3    6.92    0.82
   6  -7   3    5.33    0.43
   6  -7   3    5.75    0.50
  -7   7  -3    8.40    0.78
  -7   7  -3    7.24    0.70
  -7   7  -3    6.92    0.51
   7  -7   3    8.13    0.82
   7  -7   3    6.18    0.52
   6   6  -3    9.21    0.85
  -6  -6   3    8.54    0.59
  -6  -6   3    8.00    0.78
  -6  -6   3    7.73    0.65
   5   6  -3    6.26    0.73
  -5  -6   3    5.17    0.71
  -5  -6   3    7.27    0.58
  -5  -6   3    6.72    0.66
   4   6  -3    0.89    0.30
   4   6  -3    0.79    0.26
   4   6  -3    0.38    0.23
  -4  -6   3    0.73    0.23
  -4  -6   3    1.32    0.36
  -4  -6   3    0.84    0.32
  -4  -6   3    0.58    0.33
   3   6  -3   15.21    0.76
   3   6  -3   15.71    0.81
   3   6  -3   17.55    0.75
   3   6  -3   15.67    0.85
   3   6  -3   15.40    0.88
   3   6  -3   18.17    0.88
  -3  -6   3   17.97    0.86
  -3  -6   3   17.74    0.89
  -3  -6   3   17.46    0.75
  -3  -6   3   18.46    0.93
  -3  -6   3   18.88    0.94
   2   6  -3   30.88    0.91
   2   6  -3   30.19    1.04
   2   6  -3   29.10    1.11
   2   6  -3   30.29    1.13
   2   6  -3   30.76    0.96
  -2  -6   3   29.07    0.96
  -2  -6   3   30.75    1.11
  -2  -6   3   30.08    1.08
  -2  -6   3   30.00    1.10
  -2  -6   3   31.75    1.11
  -2  -6   3   28.44    1.09
  -2  -6   3   30.34    1.06
   1   6  -3    0.71    0.21
   1   6  -3    0.64    0.12
   1   6  -3    0.55    0.18
   1   6  -3    0.45    0.15
   1   6  -3    0.59    0.16
   1   6  -3    0.45    0.20
   1   6  -3    0.57    0.13
   1   6  -3    0.69    0.16
  -1  -6   3    0.59    0.16
  -1  -6   3    0.46    0.15
  -1  -6   3    0.43    0.18
  -1  -6   3    0.77    0.09
  -1  -6   3    0.39    0.17
  -1  -6   3    0.45    0.16
  -1  -6   3    0.31    0.15
  -1  -6   3    0.65    0.19
   0   6  -3   25.03    0.82
   0   6  -3   24.27    0.61
   0   6  -3   23.82    0.85
   0   6  -3   25.03    0.72
   0   6  -3   24.99    0.65
   0   6  -3   23.22    0.94
   0  -6   3   22.75    0.91
   0  -6   3   24.62    0.90
   0  -6   3   23.98    0.69
   0  -6   3   24.03    0.69
   0  -6   3   23.88    0.74
   0  -6   3   23.13    0.80
   0  -6   3   23.83    0.74
   0  -6   3   24.07    0.73
   0  -6   3   23.39    0.73
   0  -6   3   24.32    0.65
  -1   6  -3    1.35    0.27
  -1   6  -3    1.32    0.12
  -1   6  -3    1.55    0.25
   1  -6   3    1.84    0.26
   1  -6   3    1.34    0.16
   1  -6   3    1.25    0.24
   1  -6   3    1.35    0.16
   1  -6   3    1.27    0.13
   1  -6   3    1.69    0.27
   1  -6   3    0.77    0.21
   1  -6   3    1.58    0.25
   1  -6   3    1.41    0.23
   1  -6   3    1.24    0.11
   1  -6   3    1.51    0.25
   1  -6   3    1.09    0.11
  -2   6  -3    1.16    0.26
  -2   6  -3    1.28    0.28
   2  -6   3    0.95    0.09
   2  -6   3    0.85    0.20
   2  -6   3    1.38    0.30
   2  -6   3    0.86    0.19
   2  -6   3    0.78    0.08
   2  -6   3    0.88    0.08
   2  -6   3    1.32    0.26
   2  -6   3    0.87    0.09
   2  -6   3    1.01    0.22
   2  -6   3    0.77    0.19
  -3   6  -3  127.31    2.82
  -3   6  -3  129.26    2.76
   3  -6   3  126.26    2.74
   3  -6   3  128.22    2.26
   3  -6   3  122.92    2.83
   3  -6   3  124.86    2.68
   3  -6   3  128.39    2.67
   3  -6   3  129.85    2.30
   3  -6   3  127.03    2.35
   3  -6   3  126.68    2.44
   3  -6   3  128.83    2.35
   3  -6   3  128.64    2.95
  -4   6  -3   24.38    0.65
  -4   6  -3   24.61    1.00
   4  -6   3   23.19    0.69
   4  -6   3   22.92    0.75
   4  -6   3   22.56    1.01
   4  -6   3   25.16    0.92
   4  -6   3   23.34    0.75
   4  -6   3   24.31    0.63
   4  -6   3   24.42    0.72
   4  -6   3   22.98    0.83
  -5   6  -3   66.88    1.91
  -5   6  -3   68.09    1.57
  -5   6  -3   69.43    1.93
   5  -6   3   72.92    2.12
   5  -6   3   70.11    1.64
   5  -6   3   68.90    1.66
   5  -6   3   68.38    1.72
   5  -6   3   68.01    1.74
   5  -6   3   65.75    1.40
  -6   6  -3    1.54    0.38
  -6   6  -3    1.86    0.30
  -6   6  -3    1.74    0.38
   6  -6   3    1.90    0.48
   6  -6   3    1.87    0.37
   6  -6   3    1.61    0.32
  -7   6  -3    4.65    0.63
  -7   6  -3    5.40    0.51
  -7   6  -3    4.37    0.60
   7  -6   3    5.31    0.66
   7  -6   3    4.67    0.51
   7  -6   3    5.14    0.74
  -8   6  -3    2.88    0.50
  -8   6  -3    2.94    0.57
  -7  -5   3    2.26    0.44
   6   5  -3    7.04    0.76
  -6  -5   3    5.92    0.56
  -6  -5   3    4.71    0.47
  -6  -5   3    5.30    0.70
  -6  -5   3    5.02    0.82
   5   5  -3    7.16    0.67
   5   5  -3    6.65    0.83
  -5  -5   3    7.03    0.68
  -5  -5   3    6.00    0.78
  -5  -5   3    6.75    0.62
  -5  -5   3    7.68    0.56
   4   5  -3   13.63    0.42
   4   5  -3   12.63    0.81
   4   5  -3   13.26    0.87
   4   5  -3   13.44    0.71
   4   5  -3   13.65    0.80
  -4  -5   3   13.55    0.86
  -4  -5   3   13.18    0.88
  -4  -5   3   13.86    0.80
  -4  -5   3   13.53    0.68
  -4  -5   3   13.33    0.83
   3   5  -3   34.97    1.28
   3   5  -3   33.43    1.21
   3   5  -3   29.87    1.10
   3   5  -3   32.83    1.17
   3   5  -3   34.38    1.16
   3   5  -3   31.39    1.08
   3   5  -3   33.16    0.72
  -3  -5   3   33.28    1.22
  -3  -5   3   33.03    1.08
  -3  -5   3   34.23    1.25
  -3  -5   3   34.70    1.07
  -3  -5   3   33.44    1.18
  -3  -5   3   33.35    1.27
   2   5  -3   12.46    0.53
   2   5  -3   11.27    0.62
   2   5  -3   11.65    0.63
   2   5  -3   11.92    0.57
   2   5  -3   12.08    0.56
   2   5  -3   11.57    0.35
   2   5  -3   11.90    0.59
  -2  -5   3   11.52    0.62
  -2  -5   3   10.82    0.58
  -2  -5   3   12.88    0.64
  -2  -5   3   12.50    0.61
  -2  -5   3   11.42    0.54
  -2  -5   3   12.40    0.66
  -2  -5   3   12.32    0.64
   1   5  -3   51.10    1.41
   1   5  -3   54.96    1.36
   1   5  -3   55.81    1.36
   1   5  -3   55.41    1.30
   1   5  -3   55.92    1.53
   1   5  -3   55.05    1.26
   1   5  -3   57.76    1.41
   1   5  -3   54.76    1.13
   1   5  -3   56.95    1.19
  -1  -5   3   55.10    1.07
  -1  -5   3   55.78    1.38
  -1  -5   3   54.54    1.39
  -1  -5   3   56.62    1.42
  -1  -5   3   52.66    1.34
  -1  -5   3   52.27    1.37
  -1  -5   3   56.09    1.34
   0   5  -3   17.03    0.62
   0   5  -3   17.06    0.36
   0   5  -3   18.29    0.56
   0   5  -3   17.71    0.53
   0   5  -3   17.55    0.74
   0   5  -3   17.15    0.47
   0   5  -3   16.76    0.63
   0   5  -3   15.51    0.35
   0   5  -3   17.70    0.56
   0  -5   3   15.64    0.60
   0  -5   3   16.64    0.50
   0  -5   3   17.41    0.68
   0  -5   3   17.18    0.56
   0  -5   3   17.33    0.58
   0  -5   3   17.21    0.53
   0  -5   3   16.10    0.55
   0  -5   3   16.62    0.51
   0  -5   3   15.85    0.69
   0  -5   3   17.02    0.55
  -1   5  -3   65.81    1.13
  -1   5  -3   68.30    1.67
  -1   5  -3   65.90    1.16
  -1   5  -3   65.54    1.46
   1  -5   3   67.00    1.54
   1  -5   3   64.33    1.27
   1  -5   3   65.92    1.62
   1  -5   3   65.68    1.48
   1  -5   3   64.71    1.23
   1  -5   3   64.63    1.51
   1  -5   3   63.81    1.25
   1  -5   3   63.54    1.45
   1  -5   3   66.46    1.30
   1  -5   3   65.14    1.27
   1  -5   3   62.67    1.21
   1  -5   3   61.97    1.55
  -2   5  -3    4.52    0.21
  -2   5  -3    4.48    0.37
  -2   5  -3    5.11    0.38
   2  -5   3    4.68    0.20
   2  -5   3    4.68    0.33
   2  -5   3    4.55    0.35
   2  -5   3    4.77    0.33
   2  -5   3    4.47    0.19
   2  -5   3    4.85    0.22
   2  -5   3    4.86    0.21
   2  -5   3    4.69    0.18
   2  -5   3    4.94    0.20
   2  -5   3    4.91    0.32
   2  -5   3    4.48    0.34
  -3   5  -3   12.56    0.37
  -3   5  -3   12.85    0.58
  -3   5  -3   13.40    0.64
  -3   5  -3   12.42    0.41
  -3   5  -3   12.59    0.32
   3  -5   3   12.14    0.38
   3  -5   3   11.26    0.54
   3  -5   3   12.43    0.54
   3  -5   3   12.15    0.39
   3  -5   3   11.91    0.42
   3  -5   3   11.39    0.44
   3  -5   3   12.84    0.65
   3  -5   3   11.27    0.44
   3  -5   3   12.35    0.54
   3  -5   3   11.46    0.51
  -4   5  -3   17.99    0.80
  -4   5  -3   18.28    0.62
  -4   5  -3   18.15    0.50
  -4   5  -3   18.47    0.79
   4  -5   3   17.63    0.62
   4  -5   3   17.32    0.63
   4  -5   3   17.62    0.67
   4  -5   3   17.37    0.62
   4  -5   3   18.06    0.69
   4  -5   3   17.64    0.46
   4  -5   3   17.10    0.84
  -5   5  -3   32.23    1.02
  -5   5  -3   34.10    1.22
  -5   5  -3   33.34    0.85
  -5   5  -3   33.76    1.19
   5  -5   3   31.41    1.11
   5  -5   3   33.07    0.77
   5  -5   3   31.59    1.09
   5  -5   3   31.56    1.04
   5  -5   3   33.76    1.33
  -6   5  -3    1.12    0.33
  -6   5  -3    1.21    0.30
  -6   5  -3    1.06    0.33
   6  -5   3    1.20    0.31
   6  -5   3    1.02    0.31
   6  -5   3    0.95    0.35
  -7   5  -3    8.19    0.71
  -7   5  -3    8.72    0.73
  -7   5  -3    8.18    0.63
   7  -5   3    8.06    0.66
   7  -5   3    7.46    0.70
   7  -5   3    8.53    0.82
  -8   5  -3    1.06    0.36
  -8   5  -3    1.33    0.43
   8  -5   3    1.20    0.42
  -7  -4   3    6.06    0.56
   6   4  -3    4.82    0.69
  -6  -4   3    4.27    0.60
  -6  -4   3    5.11    0.72
  -6  -4   3    4.98    0.46
  -6  -4   3    5.00    0.82
   5   4  -3   24.83    1.15
   5   4  -3   21.96    0.85
   5   4  -3   21.54    1.12
   5   4  -3   21.79    0.71
  -5  -4   3   21.92    0.91
  -5  -4   3   22.41    1.16
  -5  -4   3   22.73    1.07
  -5  -4   3   22.24    1.19
  -5  -4   3   21.72    1.12
   4   4  -3   27.07    1.22
   4   4  -3   29.78    1.19
   4   4  -3   30.49    0.78
   4   4  -3   30.99    0.73
   4   4  -3   29.70    1.02
   4   4  -3   29.83    1.22
   4   4  -3   30.15    1.20
  -4  -4   3   30.41    1.23
  -4  -4   3   28.39    0.99
  -4  -4   3   29.36    1.27
  -4  -4   3   30.45    1.18
  -4  -4   3   30.28    1.22
   3   4  -3   30.85    0.71
   3   4  -3   29.63    1.10
   3   4  -3   28.69    0.95
   3   4  -3   30.00    1.07
   3   4  -3   29.57    1.07
   3   4  -3   28.76    0.99
   3   4  -3   28.54    1.11
   3   4  -3   29.48    1.00
  -3  -4   3   29.11    1.08
  -3  -4   3   29.93    0.94
  -3  -4   3   31.31    1.09
  -3  -4   3   30.99    1.13
  -3  -4   3   28.15    1.12
  -3  -4   3   30.23    1.07
  -3  -4   3   29.91    1.11
   2   4  -3   29.92    0.96
   2   4  -3   29.16    0.88
   2   4  -3   28.96    0.99
   2   4  -3   29.64    0.90
   2   4  -3   30.55    0.67
   2   4  -3   29.99    0.96
   2   4  -3   29.56    1.01
   2   4  -3   29.45    0.98
  -2  -4   3   31.18    1.00
  -2  -4   3   29.96    1.00
  -2  -4   3   29.86    0.88
  -2  -4   3   28.85    1.00
  -2  -4   3   29.09    1.02
  -2  -4   3   30.23    0.93
  -2  -4   3   30.87    0.97
  -2  -4   3   29.16    0.99
   1   4  -3    6.27    0.41
   1   4  -3    7.07    0.37
   1   4  -3    6.63    0.35
   1   4  -3    7.25    0.32
   1   4  -3    7.87    0.41
   1   4  -3    6.82    0.27
   1   4  -3    6.80    0.36
  -1  -4   3    6.39    0.35
  -1  -4   3    6.70    0.36
  -1  -4   3    6.60    0.38
  -1  -4   3    7.37    0.41
  -1  -4   3    6.10    0.39
  -1  -4   3    6.86    0.40
  -1  -4   3    6.38    0.24
  -1  -4   3    6.98    0.39
   0   4  -3    2.34    0.16
   0   4  -3    2.76    0.14
   0   4  -3    2.26    0.20
   0   4  -3    2.49    0.30
   0   4  -3    2.83    0.21
   0   4  -3    2.86    0.23
   0   4  -3    2.59    0.17
   0   4  -3    2.58    0.20
   0   4  -3    2.39    0.20
   0  -4   3    2.63    0.23
   0  -4   3    2.90    0.20
   0  -4   3    2.55    0.24
   0  -4   3    2.69    0.20
   0  -4   3    2.87    0.18
   0  -4   3    2.36    0.17
   0  -4   3    2.76    0.22
   0  -4   3    2.80    0.21
   0  -4   3    2.24    0.24
  -1   4  -3   13.47    0.53
  -1   4  -3   14.09    0.57
  -1   4  -3   14.18    0.37
  -1   4  -3   13.89    0.40
  -1   4  -3   14.24    0.59
  -1   4  -3   14.30    0.47
   1  -4   3   14.18    0.47
   1  -4   3   15.08    0.57
   1  -4   3   14.74    0.40
   1  -4   3   14.12    0.54
   1  -4   3   14.59    0.40
   1  -4   3   15.07    0.39
   1  -4   3   13.20    0.53
   1  -4   3   15.54    0.43
   1  -4   3   14.56    0.39
   1  -4   3   14.46    0.52
   1  -4   3   14.61    0.40
  -2   4  -3   23.87    0.60
  -2   4  -3   24.02    0.60
  -2   4  -3   23.88    0.79
  -2   4  -3   23.18    0.76
  -2   4  -3   23.89    0.54
   2  -4   3   23.50    0.67
   2  -4   3   23.80    0.73
   2  -4   3   21.14    0.77
   2  -4   3   26.25    0.56
   2  -4   3   24.60    0.76
   2  -4   3   23.43    0.61
   2  -4   3   23.26    0.58
   2  -4   3   22.76    0.72
   2  -4   3   23.06    0.62
   2  -4   3   23.19    0.59
  -3   4  -3   31.11    0.87
  -3   4  -3   30.04    0.60
  -3   4  -3   29.25    0.94
  -3   4  -3   28.91    0.79
  -3   4  -3   31.13    0.95
  -3   4  -3   29.54    0.63
  -3   4  -3   30.20    0.81
  -3   4  -3   30.46    0.71
   3  -4   3   29.57    0.84
   3  -4   3   30.51    0.83
   3  -4   3   30.36    0.59
   3  -4   3   29.99    0.76
   3  -4   3   30.07    0.84
   3  -4   3   27.73    0.99
   3  -4   3   28.58    0.90
   3  -4   3   30.37    0.83
  -4   4  -3   27.69    0.73
  -4   4  -3   28.36    0.76
  -4   4  -3   27.87    0.87
  -4   4  -3   28.17    0.65
  -4   4  -3   27.59    0.98
  -4   4  -3   28.45    0.97
   4  -4   3   26.99    0.92
   4  -4   3   26.99    0.88
   4  -4   3   27.37    0.59
   4  -4   3   27.74    0.92
   4  -4   3   28.16    0.86
   4  -4   3   27.03    1.06
  -5   4  -3    6.00    0.36
  -5   4  -3    5.94    0.37
  -5   4  -3    6.49    0.50
  -5   4  -3    5.90    0.49
  -5   4  -3    6.36    0.30
  -5   4  -3    6.67    0.48
   5  -4   3    7.02    0.49
   5  -4   3    5.99    0.55
   5  -4   3    5.93    0.49
   5  -4   3    6.58    0.52
  -6   4  -3   18.53    0.92
  -6   4  -3   20.05    0.63
  -6   4  -3   21.04    0.97
  -6   4  -3   20.02    0.91
   6  -4   3   17.31    0.87
   6  -4   3   19.95    1.07
   6  -4   3   19.43    0.97
  -7   4  -3    5.52    0.66
  -7   4  -3    5.81    0.62
  -7   4  -3    6.12    0.61
   7  -4   3    6.20    0.71
   7  -4   3    4.83    0.69
   7  -4   3    6.62    0.74
  -8   4  -3    2.58    0.75
  -8   4  -3    3.62    0.62
  -8   4  -3    3.03    0.55
   8  -4   3    2.57    0.57
   7   3  -3    0.05    0.25
  -7  -3   3    0.18    0.23
  -7  -3   3    0.42    0.33
  -7  -3   3   -0.35    0.37
   6   3  -3   11.71    0.90
   6   3  -3   10.91    0.86
  -6  -3   3   11.42    0.81
  -6  -3   3   11.42    0.66
  -6  -3   3   12.01    0.93
  -6  -3   3   11.27    0.85
   5   3  -3   26.57    0.84
   5   3  -3   28.37    1.24
   5   3  -3   28.70    1.27
   5   3  -3   26.38    1.21
   5   3  -3   27.11    0.90
  -5  -3   3   26.62    0.99
  -5  -3   3   27.66    1.31
  -5  -3   3   27.13    1.23
  -5  -3   3   26.27    1.22
  -5  -3   3   28.58    1.17
   4   3  -3   45.95    1.50
   4   3  -3   47.68    1.28
   4   3  -3   46.67    1.56
   4   3  -3   48.08    1.09
   4   3  -3   43.63    1.49
   4   3  -3   47.80    1.56
  -4  -3   3   47.03    1.47
  -4  -3   3   46.63    1.59
  -4  -3   3   47.27    1.54
  -4  -3   3   45.15    1.52
  -4  -3   3   46.50    1.28
   3   3  -3   13.82    0.69
   3   3  -3   13.99    0.71
   3   3  -3   13.88    0.46
   3   3  -3   13.31    0.63
   3   3  -3   12.52    0.37
   3   3  -3   12.66    0.65
   3   3  -3   13.77    0.71
   3   3  -3   13.17    0.59
   3   3  -3   12.50    0.56
  -3  -3   3   14.11    0.57
  -3  -3   3   13.53    0.66
  -3  -3   3   13.27    0.68
  -3  -3   3   15.04    0.70
  -3  -3   3   13.49    0.73
  -3  -3   3   12.67    0.61
  -3  -3   3   13.64    0.70
   2   3  -3   39.03    1.04
   2   3  -3   40.66    1.17
   2   3  -3   41.49    1.10
   2   3  -3   39.50    0.85
   2   3  -3   37.42    1.01
   2   3  -3   38.24    1.13
   2   3  -3   37.26    1.10
   2   3  -3   40.03    1.11
  -2  -3   3   38.55    1.14
  -2  -3   3   40.24    1.13
  -2  -3   3   39.06    1.10
  -2  -3   3   39.11    1.01
  -2  -3   3   38.02    1.17
  -2  -3   3   39.16    1.13
  -2  -3   3   38.33    1.10
   1   3  -3   60.81    1.41
   1   3  -3   63.20    1.38
   1   3  -3   63.44    1.38
   1   3  -3   60.93    1.46
   1   3  -3   66.18    1.45
   1   3  -3   62.24    1.44
   1   3  -3   62.20    1.32
   1   3  -3   64.25    1.25
  -1  -3   3   64.73    1.47
  -1  -3   3   65.00    1.43
  -1  -3   3   63.69    1.23
  -1  -3   3   63.03    1.42
  -1  -3   3   64.34    1.39
  -1  -3   3   63.19    1.43
  -1  -3   3   61.92    1.47
  -1  -3   3   63.62    1.39
   0   3  -3   51.16    1.15
   0   3  -3   52.73    1.11
   0   3  -3   50.69    1.10
   0   3  -3   49.11    1.02
   0   3  -3   52.96    1.08
   0   3  -3   50.73    1.05
   0   3  -3   50.70    1.09
   0   3  -3   51.60    1.12
   0   3  -3   50.60    1.19
   0  -3   3   51.36    1.17
   0  -3   3   52.13    1.10
   0  -3   3   52.49    1.16
   0  -3   3   53.78    1.11
   0  -3   3   51.01    1.10
   0  -3   3   52.14    1.07
   0  -3   3   50.94    1.08
   0  -3   3   52.40    1.11
   0  -3   3   52.73    1.18
   0  -3   3   52.52    1.14
  -1   3  -3   16.59    0.56
  -1   3  -3   15.99    0.43
  -1   3  -3   15.69    0.41
  -1   3  -3   15.00    0.40
  -1   3  -3   15.28    0.55
  -1   3  -3   15.52    0.42
  -1   3  -3   14.43    0.54
  -1   3  -3   14.71    0.45
   1  -3   3   15.02    0.40
   1  -3   3   15.27    0.42
   1  -3   3   15.02    0.45
   1  -3   3   15.41    0.41
   1  -3   3   14.77    0.50
   1  -3   3   15.38    0.41
   1  -3   3   15.70    0.53
   1  -3   3   15.15    0.43
   1  -3   3   15.93    0.45
  -2   3  -3   89.63    1.72
  -2   3  -3   88.21    1.75
  -2   3  -3   88.21    1.82
  -2   3  -3   86.28    1.86
  -2   3  -3   87.24    1.63
  -2   3  -3   89.44    1.98
  -2   3  -3   88.89    1.67
  -2   3  -3   89.20    1.76
   2  -3   3   90.73    1.78
   2  -3   3   84.43    1.83
   2  -3   3   89.74    1.52
   2  -3   3   90.07    1.77
   2  -3   3   90.31    1.68
   2  -3   3   92.18    1.74
   2  -3   3   87.36    1.73
   2  -3   3   86.90    1.93
   2  -3   3   88.57    1.79
  -3   3  -3   26.25    0.83
  -3   3  -3   25.75    0.70
  -3   3  -3   26.84    0.79
  -3   3  -3   27.81    0.83
  -3   3  -3   26.14    0.71
  -3   3  -3   25.25    0.82
  -3   3  -3   26.82    0.76
  -3   3  -3   26.44    0.64
   3  -3   3   23.64    0.78
   3  -3   3   23.42    0.88
   3  -3   3   25.66    0.84
   3  -3   3   26.64    0.81
   3  -3   3   25.95    0.78
   3  -3   3   26.36    0.81
  -4   3  -3    0.19    0.14
  -4   3  -3    0.47    0.12
  -4   3  -3    0.27    0.12
  -4   3  -3    0.40    0.17
  -4   3  -3    0.26    0.14
  -4   3  -3    0.35    0.09
  -4   3  -3    0.22    0.17
   4  -3   3    0.13    0.14
   4  -3   3    0.27    0.14
   4  -3   3    0.15    0.16
   4  -3   3    0.18    0.15
   4  -3   3    0.26    0.14
   4  -3   3    0.36    0.17
  -5   3  -3   37.55    1.12
  -5   3  -3   38.72    1.19
  -5   3  -3   40.23    1.29
  -5   3  -3   40.66    1.24
  -5   3  -3   40.18    1.02
  -5   3  -3   40.34    1.28
   5  -3   3   40.48    1.40
   5  -3   3   38.37    1.25
   5  -3   3   40.85    1.37
   5  -3   3   37.60    1.30
  -6   3  -3   17.38    0.90
  -6   3  -3   16.11    0.63
  -6   3  -3   16.37    0.82
  -6   3  -3   17.45    0.87
   6  -3   3   17.06    0.96
   6  -3   3   15.54    0.85
   6  -3   3   16.77    0.92
  -7   3  -3    0.88    0.38
  -7   3  -3    0.53    0.19
  -7   3  -3    0.65    0.32
  -7   3  -3    0.45    0.27
   7  -3   3    0.17    0.34
   7  -3   3    0.19    0.28
   7  -3   3    0.81    0.35
  -8   3  -3    2.34    0.51
  -8   3  -3    1.53    0.48
   8  -3   3    1.59    0.66
   8  -3   3    1.84    0.55
   8  -3   3    2.09    0.60
  -8  -2   3    2.85    0.75
   7   2  -3    1.49    0.52
   7   2  -3    1.50    0.49
  -7  -2   3    1.45    0.40
  -7  -2   3    1.74    0.38
  -7  -2   3    1.27    0.51
   6   2  -3   20.21    0.74
   6   2  -3   16.27    1.04
   6   2  -3   19.79    1.15
  -6  -2   3   19.17    0.85
  -6  -2   3   18.80    1.15
  -6  -2   3   21.32    1.04
  -6  -2   3   19.31    1.10
   5   2  -3    9.60    0.48
   5   2  -3    9.15    0.72
   5   2  -3   10.78    0.53
   5   2  -3    9.28    0.73
   5   2  -3    9.94    0.72
  -5  -2   3   10.21    0.77
  -5  -2   3    9.45    0.65
  -5  -2   3   10.01    0.56
  -5  -2   3   10.09    0.73
  -5  -2   3    9.13    0.69
  -5  -2   3    9.69    0.54
   4   2  -3   27.08    0.84
   4   2  -3   28.56    0.80
   4   2  -3   28.18    1.08
   4   2  -3   25.55    1.07
   4   2  -3   27.04    1.09
   4   2  -3   27.02    1.10
  -4  -2   3   25.76    1.03
  -4  -2   3   25.65    1.11
  -4  -2   3   25.16    1.04
  -4  -2   3   25.93    0.87
  -4  -2   3   27.64    1.04
  -4  -2   3   26.33    0.91
  -4  -2   3   28.26    1.10
   3   2  -3    6.94    0.39
   3   2  -3    7.11    0.44
   3   2  -3    7.09    0.31
   3   2  -3    6.63    0.46
   3   2  -3    7.38    0.50
   3   2  -3    7.26    0.50
   3   2  -3    8.02    0.41
   3   2  -3    7.19    0.49
  -3  -2   3    7.62    0.54
  -3  -2   3    7.47    0.49
  -3  -2   3    7.30    0.47
  -3  -2   3    7.28    0.48
  -3  -2   3    7.36    0.42
  -3  -2   3    6.76    0.45
  -3  -2   3    7.39    0.38
   2   2  -3   74.70    1.75
   2   2  -3   75.82    1.71
   2   2  -3   76.03    1.75
   2   2  -3   74.20    1.62
   2   2  -3   77.71    1.61
   2   2  -3   73.24    1.72
   2   2  -3   74.61    1.76
   2   2  -3   76.46    1.37
   2   2  -3   74.53    1.49
   2   2  -3   75.08    1.65
  -2  -2   3   78.58    1.78
  -2  -2   3   77.44    1.71
  -2  -2   3   74.16    1.58
  -2  -2   3   78.16    1.73
  -2  -2   3   73.70    1.66
  -2  -2   3   76.73    1.80
  -2  -2   3   75.85    1.70
   1   2  -3   18.91    0.62
   1   2  -3   20.13    0.64
   1   2  -3   19.63    0.57
   1   2  -3   19.67    0.51
   1   2  -3   20.01    0.60
   1   2  -3   20.27    0.65
   1   2  -3   19.91    0.63
   1   2  -3   20.24    0.58
  -1  -2   3   20.14    0.56
  -1  -2   3   20.55    0.61
  -1  -2   3   20.18    0.57
  -1  -2   3   19.73    0.52
  -1  -2   3   21.04    0.62
  -1  -2   3   20.05    0.63
  -1  -2   3   21.50    0.67
  -1  -2   3   20.42    0.61
   0   2  -3  237.99    4.07
   0   2  -3  239.12    4.03
   0   2  -3  237.37    4.08
   0   2  -3  233.96    4.07
   0   2  -3  235.22    4.09
   0   2  -3  238.35    4.11
   0   2  -3  236.87    4.04
   0   2  -3  227.68    4.07
   0   2  -3  243.51    4.10
   0  -2   3  232.78    4.07
   0  -2   3  235.51    4.05
   0  -2   3  230.74    4.10
   0  -2   3  229.24    4.03
   0  -2   3  234.87    4.05
   0  -2   3  234.25    4.08
   0  -2   3  225.31    4.06
   0  -2   3  229.84    4.04
   0  -2   3  228.88    4.03
   0  -2   3  234.36    4.05
  -1   2  -3  137.78    2.49
  -1   2  -3  137.99    2.56
  -1   2  -3  140.84    2.54
  -1   2  -3  139.86    2.54
  -1   2  -3  137.21    2.59
  -1   2  -3  139.77    2.65
   1  -2   3  140.07    2.62
   1  -2   3  141.21    2.53
   1  -2   3  143.61    2.53
   1  -2   3  142.24    2.51
   1  -2   3  141.22    2.57
   1  -2   3  140.72    2.38
   1  -2   3  139.54    2.49
   1  -2   3  140.52    2.54
  -2   2  -3   49.68    1.16
  -2   2  -3   51.44    1.18
  -2   2  -3   50.60    1.17
  -2   2  -3   50.14    1.27
  -2   2  -3   48.43    1.14
  -2   2  -3   50.55    1.05
   2  -2   3   50.05    1.14
   2  -2   3   49.54    1.14
   2  -2   3   49.86    1.16
   2  -2   3   49.54    1.20
   2  -2   3   50.17    1.14
   2  -2   3   50.06    1.23
   2  -2   3   50.74    1.10
  -3   2  -3    4.76    0.24
  -3   2  -3    4.53    0.30
  -3   2  -3    4.32    0.35
  -3   2  -3    4.74    0.34
  -3   2  -3    3.61    0.31
  -3   2  -3    4.28    0.31
  -3   2  -3    4.45    0.26
   3  -2   3    3.80    0.32
   3  -2   3    4.84    0.34
   3  -2   3    5.24    0.33
   3  -2   3    5.08    0.39
   3  -2   3    5.29    0.38
   3  -2   3    5.37    0.37
   3  -2   3    4.50    0.29
  -4   2  -3   16.23    0.72
  -4   2  -3   14.61    0.61
  -4   2  -3   15.24    0.37
  -4   2  -3   14.50    0.69
  -4   2  -3   16.43    0.58
  -4   2  -3   16.28    0.67
  -4   2  -3   15.31    0.31
  -4   2  -3   15.78    0.75
   4  -2   3   15.50    0.60
   4  -2   3   15.04    0.71
   4  -2   3   15.49    0.74
   4  -2   3   16.03    0.69
   4  -2   3   16.22    0.75
   4  -2   3   16.37    0.71
  -5   2  -3   38.97    1.20
  -5   2  -3   35.13    0.73
  -5   2  -3   36.51    1.28
  -5   2  -3   38.65    1.07
  -5   2  -3   39.38    1.29
  -5   2  -3   38.20    1.16
   5  -2   3   36.58    1.27
   5  -2   3   38.92    1.39
   5  -2   3   38.13    1.32
   5  -2   3   36.95    1.30
  -6   2  -3    9.34    0.71
  -6   2  -3    8.96    0.61
  -6   2  -3   10.89    0.67
  -6   2  -3    9.82    0.54
   6  -2   3    9.51    0.71
   6  -2   3   10.32    0.75
   6  -2   3   10.57    0.73
  -7   2  -3    3.07    0.50
  -7   2  -3    2.47    0.53
  -7   2  -3    3.75    0.39
  -7   2  -3    3.88    0.53
   7  -2   3    3.95    0.62
   7  -2   3    2.67    0.51
   7  -2   3    2.76    0.52
  -8   2  -3    0.18    0.31
  -8   2  -3   -0.21    0.30
  -8   2  -3    0.05    0.29
   8  -2   3    0.03    0.31
   8  -2   3    0.41    0.33
   8   1  -3    4.67    0.87
  -8  -1   3    4.46    0.85
  -8  -1   3    4.21    0.59
   7   1  -3    8.54    0.86
   7   1  -3    7.58    0.92
  -7  -1   3    7.81    0.67
  -7  -1   3    8.70    0.66
  -7  -1   3    7.14    0.92
   6   1  -3    1.62    0.44
   6   1  -3    1.32    0.41
   6   1  -3    1.75    0.23
   6   1  -3    1.38    0.30
  -6  -1   3    1.62    0.40
  -6  -1   3    1.13    0.42
  -6  -1   3    1.44    0.31
  -6  -1   3    1.16    0.33
   5   1  -3   27.27    0.81
   5   1  -3   25.95    0.92
   5   1  -3   26.81    1.17
   5   1  -3   26.43    1.13
   5   1  -3   26.34    1.18
  -5  -1   3   29.80    1.48
  -5  -1   3   26.99    0.92
  -5  -1   3   26.79    1.21
  -5  -1   3   25.22    1.11
  -5  -1   3   26.26    1.05
   4   1  -3    3.62    0.47
   4   1  -3    3.89    0.49
   4   1  -3    3.14    0.28
   4   1  -3    2.96    0.26
   4   1  -3    3.79    0.37
   4   1  -3    3.08    0.45
   4   1  -3    3.22    0.29
   4   1  -3    3.61    0.45
   4   1  -3    3.38    0.37
  -4  -1   3    2.45    0.35
  -4  -1   3    2.99    0.40
  -4  -1   3    3.12    0.28
  -4  -1   3    2.91    0.37
  -4  -1   3    2.49    0.37
  -4  -1   3    3.37    0.49
  -4  -1   3    3.65    0.30
   3   1  -3   32.07    1.07
   3   1  -3   35.22    1.12
   3   1  -3   34.74    0.92
   3   1  -3   35.29    0.88
   3   1  -3   32.81    1.03
   3   1  -3   33.72    1.08
   3   1  -3   32.44    1.04
   3   1  -3   33.58    1.02
  -3  -1   3   33.02    1.13
  -3  -1   3   34.77    1.02
  -3  -1   3   36.16    1.11
  -3  -1   3   33.69    1.05
  -3  -1   3   34.24    0.90
  -3  -1   3   33.77    0.93
  -3  -1   3   36.94    1.08
   2   1  -3  126.19    2.57
   2   1  -3  128.57    2.39
   2   1  -3  125.14    2.31
   2   1  -3  127.22    2.60
   2   1  -3  124.72    2.52
   2   1  -3  123.86    2.57
   2   1  -3  127.93    2.40
   2   1  -3  128.79    2.54
   2   1  -3  127.60    2.49
  -2  -1   3  133.31    2.45
  -2  -1   3  129.65    2.53
  -2  -1   3  129.05    2.53
  -2  -1   3  126.52    2.38
  -2  -1   3  128.88    2.58
  -2  -1   3  125.72    2.62
  -2  -1   3  131.95    2.52
  -2  -1   3  126.73    2.38
   1   1  -3   54.18    1.18
   1   1  -3   54.73    1.11
   1   1  -3   54.03    1.11
   1   1  -3   51.65    1.19
   1   1  -3   54.79    1.21
   1   1  -3   52.93    1.15
   1   1  -3   53.84    1.18
  -1  -1   3   54.58    1.13
  -1  -1   3   54.40    1.24
  -1  -1   3   52.00    1.09
  -1  -1   3   55.10    1.22
  -1  -1   3   56.01    1.18
  -1  -1   3   54.71    1.08
  -1  -1   3   55.59    1.17
  -1  -1   3   54.45    1.03
  -1  -1   3   56.32    1.23
  -1  -1   3   51.84    1.13
  -1  -1   3   54.81    1.19
   0   1  -3   15.68    0.46
   0   1  -3   15.78    0.43
   0   1  -3   15.98    0.50
   0   1  -3   15.99    0.46
   0   1  -3   15.30    0.46
   0   1  -3   16.47    0.43
   0   1  -3   16.42    0.47
   0   1  -3   16.27    0.47
   0   1  -3   15.37    0.49
   0  -1   3   16.51    0.48
   0  -1   3   16.59    0.50
   0  -1   3   16.40    0.48
   0  -1   3   18.20    0.48
   0  -1   3   16.40    0.51
   0  -1   3   16.63    0.45
   0  -1   3   16.55    0.44
   0  -1   3   16.66    0.41
   0  -1   3   16.30    0.46
   0  -1   3   16.45    0.40
  -1   1  -3  263.27    4.53
  -1   1  -3  267.00    4.61
  -1   1  -3  257.30    4.49
  -1   1  -3  271.40    4.53
  -1   1  -3  264.35    4.62
  -1   1  -3  260.36    4.63
  -1   1  -3  264.22    4.55
  -1   1  -3  268.22    4.60
   1  -1   3  266.18    4.54
   1  -1   3  263.23    4.58
   1  -1   3  259.14    4.59
   1  -1   3  263.58    4.41
   1  -1   3  262.85    4.64
   1  -1   3  262.66    4.57
   1  -1   3  257.50    4.58
   1  -1   3  264.69    4.47
  -2   1  -3   21.13    0.60
  -2   1  -3   22.29    0.72
  -2   1  -3   22.65    0.72
  -2   1  -3   21.42    0.71
  -2   1  -3   21.32    0.64
  -2   1  -3   21.75    0.70
  -2   1  -3   21.83    0.43
   2  -1   3   21.13    0.67
   2  -1   3   21.09    0.59
   2  -1   3   20.51    0.68
   2  -1   3   21.22    0.73
   2  -1   3   20.54    0.68
   2  -1   3   21.32    0.68
  -3   1  -3   22.19    0.81
  -3   1  -3   20.21    0.49
  -3   1  -3   22.08    0.83
  -3   1  -3   21.59    0.72
  -3   1  -3   20.80    0.67
  -3   1  -3   21.96    0.79
  -3   1  -3   20.59    0.66
   3  -1   3   22.11    0.77
   3  -1   3   21.80    0.75
   3  -1   3   22.16    0.79
   3  -1   3   22.84    0.86
   3  -1   3   20.17    0.76
   3  -1   3   22.12    0.65
   3  -1   3   22.28    0.81
  -4   1  -3   20.74    0.52
  -4   1  -3   21.22    0.74
  -4   1  -3   21.21    0.80
  -4   1  -3   22.42    0.94
  -4   1  -3   20.89    0.88
  -4   1  -3   20.57    0.48
  -4   1  -3   19.79    0.86
  -4   1  -3   19.67    0.72
   4  -1   3   22.10    0.93
   4  -1   3   19.88    0.85
   4  -1   3   20.61    0.82
   4  -1   3   22.17    0.88
   4  -1   3   21.13    0.68
  -5   1  -3   11.31    0.72
  -5   1  -3   11.26    0.37
  -5   1  -3   11.59    0.64
  -5   1  -3   10.26    0.55
  -5   1  -3   11.75    0.60
   5  -1   3   12.22    0.74
   5  -1   3   11.46    0.73
   5  -1   3   11.06    0.76
   5  -1   3   11.22    0.67
  -6   1  -3    5.26    0.47
  -6   1  -3    5.14    0.57
  -6   1  -3    5.28    0.44
   6  -1   3    4.88    0.62
   6  -1   3    5.53    0.66
   6  -1   3    6.42    0.57
  -7   1  -3    0.75    0.25
  -7   1  -3    0.12    0.29
  -7   1  -3    0.39    0.25
  -7   1  -3    0.58    0.36
   7  -1   3    0.06    0.30
   7  -1   3    0.36    0.30
   7  -1   3    0.22    0.33
   8   0  -3    3.93    0.73
  -8   0   3    3.67    0.55
  -8   0   3    4.65    0.87
   7   0  -3    1.44    0.47
   7   0  -3    0.33    0.36
  -7   0   3    0.56    0.39
  -7   0   3    0.90    0.32
  -7   0   3    1.07    0.31
   6   0  -3    4.59    0.52
   6   0  -3    4.98    0.67
   6   0  -3    4.28    0.30
   6   0  -3    5.79    0.73
  -6   0   3    5.44    0.59
  -6   0   3    4.41    0.66
  -6   0   3    4.60    0.44
  -6   0   3    5.20    0.51
   5   0  -3   27.98    1.07
   5   0  -3   25.62    1.14
   5   0  -3   26.56    1.10
   5   0  -3   26.06    1.13
   5   0  -3   25.54    0.95
  -5   0   3   27.63    0.95
  -5   0   3   26.43    1.10
  -5   0   3   26.90    1.00
  -5   0   3   25.97    1.16
  -5   0   3   26.58    1.01
   4   0  -3    7.06    0.54
   4   0  -3    7.57    0.53
   4   0  -3    6.70    0.46
   4   0  -3    7.68    0.41
   4   0  -3    6.70    0.49
   4   0  -3    7.57    0.44
   4   0  -3    7.42    0.53
   4   0  -3    7.14    0.48
  -4   0   3    7.86    0.57
  -4   0   3    7.66    0.49
  -4   0   3    7.79    0.54
  -4   0   3    7.36    0.45
  -4   0   3    7.64    0.39
  -4   0   3    7.25    0.47
  -4   0   3    8.02    0.43
   3   0  -3   60.97    1.51
   3   0  -3   59.80    1.47
   3   0  -3   60.65    1.56
   3   0  -3   58.34    1.45
   3   0  -3   60.28    1.33
   3   0  -3   58.99    1.51
   3   0  -3   60.63    1.40
  -3   0   3   61.85    1.50
  -3   0   3   60.91    1.31
  -3   0   3   62.10    1.48
  -3   0   3   60.70    1.33
  -3   0   3   59.42    1.41
  -3   0   3   58.20    1.58
  -3   0   3   58.75    1.46
  -3   0   3   60.86    1.55
   2   0  -3   20.59    0.64
   2   0  -3   19.34    0.66
   2   0  -3   21.12    0.61
   2   0  -3   20.63    0.69
   2   0  -3   20.82    0.68
   2   0  -3   20.92    0.55
   2   0  -3   21.19    0.65
   2   0  -3   21.12    0.67
  -2   0   3   21.00    0.65
  -2   0   3   21.02    0.58
  -2   0   3   21.06    0.62
  -2   0   3   20.80    0.54
  -2   0   3   20.45    0.72
  -2   0   3   19.92    0.65
  -2   0   3   20.95    0.70
  -2   0   3   20.85    0.65
   1   0  -3   21.58    0.56
   1   0  -3   20.98    0.60
   1   0  -3   20.29    0.59
   1   0  -3   21.03    0.65
   1   0  -3   21.28    0.49
   1   0  -3   21.31    0.59
   1   0  -3   21.10    0.42
   1   0  -3   21.04    0.56
   1   0  -3   21.71    0.60
   1   0  -3   21.15    0.62
  -1   0   3   21.47    0.54
  -1   0   3   20.39    0.58
  -1   0   3   20.74    0.60
  -1   0   3   20.60    0.62
  -1   0   3   20.76    0.48
  -1   0   3   20.50    0.55
  -1   0   3   20.54    0.63
  -1   0   3   22.11    0.58
  -1   0   3   20.85    0.61
   0   0  -3   97.14    1.82
   0   0  -3   96.46    1.84
   0   0  -3   97.74    1.86
   0   0  -3   97.26    1.90
   0   0  -3   97.57    1.76
   0   0  -3   96.16    1.79
   0   0  -3   97.37    1.83
   0   0  -3   97.73    1.85
   0   0   3   93.52    1.84
   0   0   3   96.83    1.83
   0   0   3   96.97    1.86
   0   0   3   98.81    1.90
   0   0   3   94.55    1.81
   0   0   3   95.99    1.88
   0   0   3   95.45    1.81
   0   0   3   99.48    1.79
  -1   0  -3  155.28    2.87
  -1   0  -3  157.55    2.95
  -1   0  -3  155.01    2.93
  -1   0  -3  159.80    2.88
  -1   0  -3  155.44    2.85
  -1   0  -3  156.08    2.74
  -1   0  -3  156.80    2.93
   1   0   3  158.10    2.88
   1   0   3  160.82    2.98
   1   0   3  156.05    2.82
   1   0   3  159.73    2.84
   1   0   3  159.16    2.91
   1   0   3  153.49    2.90
   1   0   3  156.15    2.90
  -2   0  -3   42.35    0.91
  -2   0  -3   42.48    1.04
  -2   0  -3   44.50    1.11
  -2   0  -3   44.24    1.16
  -2   0  -3   43.23    1.17
  -2   0  -3   43.48    1.17
  -2   0  -3   44.02    1.09
   2   0   3   43.10    0.92
   2   0   3   42.91    1.12
   2   0   3   40.65    1.02
   2   0   3   42.20    1.09
   2   0   3   42.96    1.11
   2   0   3   41.10    1.17
   2   0   3   41.90    1.14
  -3   0  -3   28.36    0.78
  -3   0  -3   30.16    1.05
  -3   0  -3   28.69    1.00
  -3   0  -3   28.77    0.87
  -3   0  -3   29.03    0.92
  -3   0  -3   27.60    0.97
   3   0   3   29.43    0.83
   3   0   3   29.17    0.95
   3   0   3   30.12    1.07
   3   0   3   28.75    0.97
   3   0   3   29.41    1.01
   3   0   3   29.78    0.98
   3   0   3   29.89    0.74
   3   0   3   29.42    0.88
  -4   0  -3   33.99    1.27
  -4   0  -3   34.41    0.97
  -4   0  -3   35.64    1.07
  -4   0  -3   34.36    0.91
  -4   0  -3   34.04    1.22
  -4   0  -3   33.63    1.12
   4   0   3   35.11    1.08
   4   0   3   36.08    1.20
   4   0   3   37.11    1.31
   4   0   3   34.83    1.20
  -5   0  -3    2.06    0.35
  -5   0  -3    1.97    0.33
  -5   0  -3    2.81    0.51
  -5   0  -3    2.30    0.33
  -5   0  -3    2.38    0.23
   5   0   3    1.64    0.36
   5   0   3    2.45    0.38
   5   0   3    1.52    0.36
   5   0   3    2.37    0.45
  -6   0  -3   21.70    0.90
  -6   0  -3   21.33    1.14
  -6   0  -3   24.25    0.98
   6   0   3   23.07    1.14
   6   0   3   21.72    0.99
   6   0   3   23.36    1.16
  -7   0  -3    1.05    0.33
  -7   0  -3    0.78    0.29
  -7   0  -3    1.72    0.54
   7   0   3    1.72    0.48
   7   0   3    0.56    0.35
   7   0   3    0.95    0.35
   8  -1  -3    5.32    0.81
   8  -1  -3    4.64    0.79
  -8   1   3    6.59    0.87
  -8   1   3    6.41    0.60
   7  -1  -3    9.37    0.75
   7  -1  -3    9.90    0.87
   7  -1  -3    8.67    0.83
  -7   1   3   11.01    0.92
  -7   1   3   10.01    0.71
  -7   1   3    9.78    0.53
  -7   1   3    8.94    0.63
   6  -1  -3   21.23    1.09
   6  -1  -3   18.71    1.05
   6  -1  -3   20.69    0.97
  -6   1   3   19.79    0.86
  -6   1   3   20.44    1.09
  -6   1   3   19.56    0.88
  -6   1   3   18.61    0.66
   5  -1  -3    4.89    0.47
   5  -1  -3    5.40    0.52
   5  -1  -3    5.16    0.45
   5  -1  -3    4.92    0.52
   5  -1  -3    5.39    0.48
  -5   1   3    4.47    0.40
  -5   1   3    5.19    0.28
  -5   1   3    5.39    0.55
  -5   1   3    5.11    0.42
  -5   1   3    4.56    0.38
   4  -1  -3   35.20    1.16
   4  -1  -3   35.62    1.21
   4  -1  -3   35.40    1.08
   4  -1  -3   35.29    1.10
   4  -1  -3   36.34    0.98
   4  -1  -3   34.83    1.10
   4  -1  -3   37.76    1.16
  -4   1   3   35.32    0.94
  -4   1   3   32.66    1.19
  -4   1   3   34.38    0.98
  -4   1   3   34.44    1.02
  -4   1   3   34.98    0.79
  -4   1   3   36.56    1.08
   3  -1  -3    6.42    0.43
   3  -1  -3    6.77    0.31
   3  -1  -3    6.61    0.39
   3  -1  -3    6.37    0.40
   3  -1  -3    7.07    0.40
   3  -1  -3    6.26    0.39
   3  -1  -3    6.35    0.40
   3  -1  -3    6.27    0.36
  -3   1   3    5.83    0.35
  -3   1   3    6.45    0.32
  -3   1   3    6.74    0.45
  -3   1   3    5.78    0.37
  -3   1   3    6.63    0.33
  -3   1   3    6.06    0.34
  -3   1   3    5.97    0.44
  -3   1   3    6.23    0.21
   2  -1  -3  106.40    2.07
   2  -1  -3  111.62    2.12
   2  -1  -3  107.62    2.13
   2  -1  -3  108.08    2.14
   2  -1  -3  109.01    2.13
   2  -1  -3  107.48    1.93
   2  -1  -3  105.63    2.13
  -2   1   3   91.11    2.12
  -2   1   3  103.16    2.21
  -2   1   3  108.37    2.01
  -2   1   3  109.63    2.06
  -2   1   3  108.95    2.06
  -2   1   3  107.77    2.12
  -2   1   3  105.65    2.20
   1  -1  -3   31.09    0.58
   1  -1  -3   31.02    0.77
   1  -1  -3   31.77    0.82
   1  -1  -3   31.02    0.78
   1  -1  -3   29.88    0.75
   1  -1  -3   30.60    0.77
   1  -1  -3   29.94    0.82
   1  -1  -3   30.00    0.79
   1  -1  -3   31.88    0.77
  -1   1   3   31.48    0.79
  -1   1   3   31.02    0.57
  -1   1   3   29.24    0.78
  -1   1   3   30.62    0.83
  -1   1   3   30.99    0.72
  -1   1   3   30.94    0.74
  -1   1   3   32.14    0.78
  -1   1   3   32.14    0.81
  -1   1   3   30.82    0.82
   0  -1  -3    1.65    0.15
   0  -1  -3    1.72    0.19
   0  -1  -3    1.74    0.18
   0  -1  -3    1.92    0.16
   0  -1  -3    1.73    0.18
   0  -1  -3    1.94    0.18
   0  -1  -3    1.95    0.17
   0  -1  -3    2.14    0.16
   0   1   3    1.99    0.16
   0   1   3    2.29    0.21
   0   1   3    2.13    0.19
   0   1   3    2.15    0.19
   0   1   3    1.71    0.17
   0   1   3    1.59    0.15
   0   1   3    2.00    0.18
  -1  -1  -3   16.72    0.60
  -1  -1  -3   16.84    0.56
  -1  -1  -3   16.74    0.60
  -1  -1  -3   15.89    0.50
  -1  -1  -3   16.04    0.51
  -1  -1  -3   15.66    0.58
  -1  -1  -3   15.92    0.53
   1   1   3   17.13    0.63
   1   1   3   16.58    0.59
   1   1   3   16.50    0.48
   1   1   3   15.75    0.55
   1   1   3   16.48    0.56
   1   1   3   15.57    0.55
   1   1   3   17.64    0.57
   1   1   3   16.76    0.37
   1   1   3   17.52    0.45
  -2  -1  -3  347.18    6.37
  -2  -1  -3  356.30    6.25
  -2  -1  -3  350.48    6.36
  -2  -1  -3  360.07    6.41
  -2  -1  -3  351.39    6.18
  -2  -1  -3  348.56    6.21
   2   1   3  348.61    6.28
   2   1   3  350.81    6.29
   2   1   3  352.08    6.29
   2   1   3  359.67    6.08
   2   1   3  363.60    6.38
   2   1   3  355.94    6.07
   2   1   3  347.04    5.88
   2   1   3  344.69    6.26
   2   1   3  357.30    6.44
  -3  -1  -3   13.73    0.71
  -3  -1  -3   12.46    0.61
  -3  -1  -3   12.99    0.58
  -3  -1  -3   13.45    0.69
  -3  -1  -3   11.56    0.63
  -3  -1  -3   12.39    0.44
   3   1   3   13.11    0.51
   3   1   3   12.50    0.52
   3   1   3   12.62    0.63
   3   1   3   12.46    0.71
   3   1   3   11.50    0.61
   3   1   3   11.78    0.67
   3   1   3   11.60    0.60
  -4  -1  -3   46.64    1.16
  -4  -1  -3   45.60    1.59
  -4  -1  -3   46.68    1.15
  -4  -1  -3   47.98    1.43
  -4  -1  -3   47.31    1.36
  -4  -1  -3   45.72    1.51
   4   1   3   48.79    1.49
   4   1   3   48.54    1.26
   4   1   3   47.29    1.48
   4   1   3   43.28    1.61
   4   1   3   46.85    1.57
  -5  -1  -3   38.95    1.49
  -5  -1  -3   39.15    1.29
  -5  -1  -3   40.81    1.39
  -5  -1  -3   40.37    1.13
  -5  -1  -3   38.24    1.14
   5   1   3   40.16    1.45
   5   1   3   39.24    1.55
   5   1   3   38.82    1.43
   5   1   3   38.87    1.19
  -6  -1  -3    3.09    0.47
  -6  -1  -3    3.83    0.65
  -6  -1  -3    3.90    0.45
   6   1   3    2.65    0.51
   6   1   3    3.73    0.45
   6   1   3    3.30    0.55
  -7  -1  -3    4.24    0.72
  -7  -1  -3    3.23    0.51
   8  -2  -3    1.31    0.54
   8  -2  -3    1.96    0.60
  -8   2   3    1.53    0.53
   7  -2  -3    8.30    0.80
   7  -2  -3    9.61    0.84
   7  -2  -3    9.29    0.73
  -7   2   3    9.07    0.58
  -7   2   3    9.80    0.70
  -7   2   3    8.87    0.84
   6  -2  -3   11.45    0.80
   6  -2  -3   10.63    0.68
   6  -2  -3    9.75    0.75
  -6   2   3    9.45    0.75
  -6   2   3   11.02    0.58
  -6   2   3   10.35    0.48
  -6   2   3   11.09    0.68
  -6   2   3    8.95    0.50
   5  -2  -3    6.13    0.48
   5  -2  -3    6.71    0.55
   5  -2  -3    7.12    0.53
   5  -2  -3    7.62    0.60
  -5   2   3    6.77    0.48
  -5   2   3    6.12    0.37
  -5   2   3    6.51    0.57
  -5   2   3    6.70    0.51
  -5   2   3    7.07    0.44
  -5   2   3    6.90    0.34
   4  -2  -3    6.37    0.44
   4  -2  -3    6.54    0.48
   4  -2  -3    6.42    0.35
   4  -2  -3    6.66    0.44
   4  -2  -3    6.77    0.42
   4  -2  -3    6.86    0.47
   4  -2  -3    7.20    0.48
  -4   2   3    6.54    0.45
  -4   2   3    6.79    0.48
  -4   2   3    6.54    0.39
  -4   2   3    5.93    0.49
  -4   2   3    6.02    0.32
  -4   2   3    5.93    0.51
  -4   2   3    5.74    0.35
  -4   2   3    6.02    0.27
  -4   2   3    6.72    0.42
   3  -2  -3   19.70    0.55
   3  -2  -3   19.61    0.68
   3  -2  -3   18.50    0.70
   3  -2  -3   19.50    0.73
   3  -2  -3   18.60    0.64
   3  -2  -3   19.06    0.66
   3  -2  -3   20.69    0.70
   3  -2  -3   19.24    0.69
  -3   2   3   18.63    0.64
  -3   2   3   17.98    0.79
  -3   2   3   18.95    0.60
  -3   2   3   19.73    0.72
  -3   2   3   19.32    0.54
  -3   2   3   18.59    0.68
  -3   2   3   17.60    0.62
  -3   2   3   17.99    0.62
  -3   2   3   18.33    0.74
   2  -2  -3  173.44    3.28
   2  -2  -3  171.66    3.16
   2  -2  -3  173.63    3.19
   2  -2  -3  174.28    3.19
   2  -2  -3  164.58    3.15
   2  -2  -3  167.82    3.20
   2  -2  -3  174.28    2.95
   2  -2  -3  177.69    3.18
   2  -2  -3  173.24    2.91
  -2   2   3  168.68    3.15
  -2   2   3  175.80    3.04
  -2   2   3  170.36    3.10
  -2   2   3  173.75    3.23
  -2   2   3  168.56    3.13
  -2   2   3  172.56    3.22
  -2   2   3  175.32    3.20
  -2   2   3  168.36    3.39
  -2   2   3  169.83    3.27
   1  -2  -3   60.94    1.29
   1  -2  -3   61.14    1.32
   1  -2  -3   62.35    1.31
   1  -2  -3   59.04    1.28
   1  -2  -3   60.67    1.30
   1  -2  -3   63.27    1.44
   1  -2  -3   62.93    1.37
   1  -2  -3   61.09    1.27
  -1   2   3   59.76    1.19
  -1   2   3   58.17    1.30
  -1   2   3   59.15    1.28
  -1   2   3   58.34    1.36
  -1   2   3   60.51    1.23
  -1   2   3   58.40    1.42
  -1   2   3   60.92    1.36
  -1   2   3   60.60    1.26
   0  -2  -3   65.51    1.51
   0  -2  -3   67.40    1.34
   0  -2  -3   66.32    1.46
   0  -2  -3   64.32    1.39
   0  -2  -3   64.51    1.38
   0  -2  -3   66.18    1.43
   0  -2  -3   67.54    1.44
   0  -2  -3   66.04    1.44
   0   2   3   66.62    1.18
   0   2   3   66.89    1.40
   0   2   3   65.48    1.39
   0   2   3   67.40    1.43
   0   2   3   67.26    1.52
   0   2   3   67.02    1.49
   0   2   3   61.69    1.39
  -1  -2  -3   63.67    1.52
  -1  -2  -3   65.19    1.45
  -1  -2  -3   64.54    1.45
  -1  -2  -3   64.32    1.34
  -1  -2  -3   61.77    1.42
  -1  -2  -3   63.54    1.51
  -1  -2  -3   64.15    1.51
   1   2   3   63.76    1.45
   1   2   3   63.96    1.57
   1   2   3   62.39    1.51
   1   2   3   65.34    1.30
   1   2   3   63.61    1.26
   1   2   3   64.41    1.47
   1   2   3   62.67    1.45
   1   2   3   66.03    1.53
  -2  -2  -3   15.03    0.67
  -2  -2  -3   14.03    0.68
  -2  -2  -3   13.91    0.53
  -2  -2  -3   14.03    0.61
  -2  -2  -3   14.64    0.59
  -2  -2  -3   13.97    0.67
   2   2   3   13.12    0.60
   2   2   3   13.97    0.70
   2   2   3   14.13    0.66
   2   2   3   14.13    0.61
   2   2   3   14.49    0.65
   2   2   3   14.23    0.50
   2   2   3   14.60    0.46
   2   2   3   14.20    0.61
  -3  -2  -3   37.74    1.35
  -3  -2  -3   41.14    1.25
  -3  -2  -3   39.36    1.18
  -3  -2  -3   39.62    1.30
   3   2   3   40.26    1.42
   3   2   3   43.02    1.31
   3   2   3   40.71    0.99
   3   2   3   38.31    1.33
   3   2   3   40.05    1.25
   3   2   3   40.22    1.24
   3   2   3   37.87    1.06
  -4  -2  -3    2.58    0.32
  -4  -2  -3    2.45    0.38
  -4  -2  -3    2.64    0.24
  -4  -2  -3    2.81    0.39
  -4  -2  -3    2.26    0.44
  -4  -2  -3    2.67    0.48
   4   2   3    2.42    0.40
   4   2   3    2.08    0.43
   4   2   3    1.97    0.37
   4   2   3    2.12    0.26
   4   2   3    1.98    0.42
   4   2   3    2.34    0.39
  -5  -2  -3    8.83    0.47
  -5  -2  -3    9.67    0.76
  -5  -2  -3    9.48    0.64
  -5  -2  -3   10.17    0.71
   5   2   3    9.55    0.73
   5   2   3    9.45    0.52
   5   2   3   11.00    0.80
  -6  -2  -3    0.86    0.39
  -6  -2  -3    0.95    0.32
   6   2   3    0.59    0.35
   7   2   3    3.76    0.72
   8  -3  -3    7.90    1.05
   8  -3  -3    5.75    0.74
   8  -3  -3    7.93    0.99
  -8   3   3    6.73    0.85
   7  -3  -3    9.82    0.73
   7  -3  -3    9.06    0.80
   7  -3  -3    9.53    0.82
  -7   3   3    9.22    0.81
  -7   3   3    9.71    0.74
   6  -3  -3    2.79    0.50
   6  -3  -3    2.18    0.42
   6  -3  -3    1.65    0.34
  -6   3   3    2.04    0.38
  -6   3   3    1.63    0.25
  -6   3   3    1.73    0.26
  -6   3   3    2.71    0.48
   5  -3  -3   31.78    1.07
   5  -3  -3   29.78    0.94
   5  -3  -3   32.09    1.12
   5  -3  -3   32.29    1.18
   5  -3  -3   32.30    1.20
  -5   3   3   32.68    1.10
  -5   3   3   31.98    1.12
  -5   3   3   31.62    1.21
  -5   3   3   32.35    0.90
  -5   3   3   32.43    0.86
  -5   3   3   31.98    0.81
   4  -3  -3    5.58    0.41
   4  -3  -3    7.29    0.50
   4  -3  -3    6.36    0.42
   4  -3  -3    6.36    0.41
   4  -3  -3    6.27    0.34
   4  -3  -3    6.45    0.44
  -4   3   3    6.48    0.56
  -4   3   3    6.93    0.45
  -4   3   3    7.18    0.46
  -4   3   3    6.71    0.44
  -4   3   3    7.28    0.52
  -4   3   3    6.63    0.34
  -4   3   3    7.16    0.29
   3  -3  -3    7.80    0.25
   3  -3  -3    8.06    0.49
   3  -3  -3    8.41    0.32
   3  -3  -3    8.96    0.43
   3  -3  -3    8.04    0.44
   3  -3  -3    8.37    0.42
   3  -3  -3    8.60    0.42
   3  -3  -3    8.69    0.42
  -3   3   3    7.22    0.40
  -3   3   3    7.81    0.35
  -3   3   3    8.41    0.44
  -3   3   3    7.65    0.46
  -3   3   3    7.81    0.28
  -3   3   3    7.97    0.34
  -3   3   3    8.38    0.43
  -3   3   3    8.32    0.43
  -3   3   3    8.86    0.58
   2  -3  -3    6.57    0.40
   2  -3  -3    6.13    0.32
   2  -3  -3    5.66    0.40
   2  -3  -3    5.88    0.33
   2  -3  -3    6.72    0.20
   2  -3  -3    6.19    0.27
   2  -3  -3    7.30    0.37
   2  -3  -3    5.82    0.32
   2  -3  -3    7.48    0.34
  -2   3   3    5.77    0.28
  -2   3   3    6.00    0.37
  -2   3   3    6.06    0.45
  -2   3   3    6.37    0.32
  -2   3   3    6.28    0.30
  -2   3   3    6.01    0.36
  -2   3   3    5.77    0.33
  -2   3   3    5.76    0.25
  -2   3   3    5.72    0.33
   1  -3  -3  201.40    3.68
   1  -3  -3  204.31    3.68
   1  -3  -3  201.36    3.73
   1  -3  -3  201.04    3.93
   1  -3  -3  206.92    3.64
   1  -3  -3  206.78    3.68
   1  -3  -3  198.39    3.65
  -1   3   3  200.33    3.74
  -1   3   3  207.27    3.73
  -1   3   3  204.28    3.92
  -1   3   3  207.05    3.60
  -1   3   3  206.72    3.56
  -1   3   3  201.89    3.65
  -1   3   3  202.48    3.63
  -1   3   3  197.94    3.68
   0  -3  -3   18.18    0.63
   0  -3  -3   18.16    0.60
   0  -3  -3   18.53    0.54
   0  -3  -3   17.54    0.63
   0  -3  -3   18.21    0.72
   0  -3  -3   17.86    0.63
   0  -3  -3   18.09    0.59
   0  -3  -3   17.62    0.65
   0   3   3   19.37    0.61
   0   3   3   18.91    0.68
   0   3   3   18.19    0.58
   0   3   3   19.12    0.61
   0   3   3   18.78    0.42
   0   3   3   18.82    0.64
   0   3   3   18.76    0.40
   0   3   3   18.21    0.72
  -1  -3  -3    0.47    0.14
  -1  -3  -3    0.64    0.18
  -1  -3  -3    0.47    0.16
  -1  -3  -3    0.64    0.17
  -1  -3  -3    0.66    0.19
  -1  -3  -3    0.73    0.13
  -1  -3  -3    0.69    0.16
   1   3   3    0.74    0.20
   1   3   3    0.70    0.20
   1   3   3    0.85    0.14
   1   3   3    0.70    0.16
   1   3   3    0.70    0.12
   1   3   3    0.82    0.17
   1   3   3    0.80    0.21
   1   3   3    0.44    0.14
  -2  -3  -3    9.63    0.57
  -2  -3  -3    9.42    0.52
  -2  -3  -3    9.61    0.50
  -2  -3  -3    9.67    0.42
  -2  -3  -3    9.68    0.60
   2   3   3    8.82    0.56
   2   3   3    9.98    0.36
   2   3   3   10.49    0.56
   2   3   3    9.01    0.50
   2   3   3   10.01    0.60
   2   3   3   10.63    0.66
   2   3   3   10.39    0.54
   2   3   3    9.62    0.42
  -3  -3  -3    5.89    0.51
  -3  -3  -3    6.24    0.46
  -3  -3  -3    6.28    0.46
  -3  -3  -3    5.26    0.52
  -3  -3  -3    6.63    0.49
   3   3   3    4.99    0.36
   3   3   3    5.71    0.30
   3   3   3    5.90    0.55
   3   3   3    5.97    0.52
   3   3   3    6.03    0.48
   3   3   3    6.78    0.51
   3   3   3    6.07    0.58
  -4  -3  -3    2.73    0.43
  -4  -3  -3    3.06    0.42
  -4  -3  -3    1.48    0.37
  -4  -3  -3    3.80    0.59
  -4  -3  -3    3.10    0.40
   4   3   3    3.29    0.27
   4   3   3    3.01    0.46
   4   3   3    3.33    0.50
   4   3   3    3.03    0.46
  -5  -3  -3    8.41    0.64
  -5  -3  -3    6.71    0.64
  -5  -3  -3    6.86    0.69
   5   3   3    7.44    0.71
   5   3   3    6.50    0.66
  -6  -3  -3    2.31    0.46
   6   3   3    2.32    0.53
   6   3   3    0.98    0.42
   8  -4  -3    3.41    0.58
   8  -4  -3    2.81    0.62
  -8   4   3    2.62    0.55
   7  -4  -3    7.25    0.64
   7  -4  -3    8.26    0.77
   7  -4  -3    6.60    0.72
  -7   4   3    6.89    0.71
  -7   4   3    7.38    0.67
   6  -4  -3    3.04    0.50
   6  -4  -3    4.00    0.57
   6  -4  -3    3.86    0.44
  -6   4   3    2.51    0.33
  -6   4   3    2.60    0.43
  -6   4   3    2.86    0.49
   5  -4  -3    2.85    0.37
   5  -4  -3    3.61    0.47
   5  -4  -3    2.03    0.26
   5  -4  -3    2.75    0.37
   5  -4  -3    2.44    0.40
  -5   4   3    3.01    0.36
  -5   4   3    2.98    0.44
  -5   4   3    2.80    0.40
  -5   4   3    2.65    0.14
  -5   4   3    1.96    0.31
   4  -4  -3   10.72    0.43
   4  -4  -3   10.09    0.51
   4  -4  -3   10.92    0.53
   4  -4  -3   10.54    0.55
   4  -4  -3   10.36    0.52
   4  -4  -3   10.37    0.58
  -4   4   3    9.27    0.57
  -4   4   3   10.39    0.51
  -4   4   3    9.93    0.51
  -4   4   3   10.59    0.57
  -4   4   3    9.85    0.72
   3  -4  -3   18.92    0.69
   3  -4  -3   19.02    0.65
   3  -4  -3   18.44    0.64
   3  -4  -3   18.64    0.51
   3  -4  -3   20.06    0.66
   3  -4  -3   19.74    0.54
  -3   4   3   18.82    0.73
  -3   4   3   17.77    0.64
  -3   4   3   19.75    0.67
  -3   4   3   19.08    0.70
  -3   4   3   18.16    0.89
   2  -4  -3   13.25    0.48
   2  -4  -3   13.17    0.50
   2  -4  -3   13.31    0.61
   2  -4  -3   14.34    0.51
   2  -4  -3   13.29    0.57
   2  -4  -3   13.29    0.51
   2  -4  -3   12.81    0.50
   2  -4  -3   13.44    0.67
  -2   4   3   13.73    0.40
  -2   4   3   14.00    0.56
  -2   4   3   14.08    0.46
  -2   4   3   13.98    0.52
  -2   4   3   14.33    0.53
  -2   4   3   14.20    0.53
  -2   4   3   13.80    0.38
  -2   4   3   14.42    0.73
   1  -4  -3   16.68    0.58
   1  -4  -3   17.89    0.58
   1  -4  -3   18.37    0.61
   1  -4  -3   19.56    0.64
   1  -4  -3   17.82    0.69
   1  -4  -3   18.17    0.59
   1  -4  -3   17.72    0.63
   1  -4  -3   17.36    0.77
  -1   4   3   18.77    0.54
  -1   4   3   18.34    0.66
  -1   4   3   19.46    0.56
  -1   4   3   19.08    0.55
  -1   4   3   18.71    0.61
  -1   4   3   18.85    0.78
  -1   4   3   19.13    0.66
  -1   4   3   18.84    0.61
  -1   4   3   18.97    0.78
   0  -4  -3   14.58    0.61
   0  -4  -3   13.50    0.53
   0  -4  -3   14.24    0.54
   0  -4  -3   14.01    0.46
   0  -4  -3   13.95    0.58
   0  -4  -3   13.68    0.58
   0  -4  -3   14.29    0.63
   0  -4  -3   12.87    0.66
   0   4   3   14.19    0.54
   0   4   3   12.48    0.61
   0   4   3   13.73    0.53
   0   4   3   13.76    0.50
   0   4   3   14.63    0.59
   0   4   3   13.60    0.37
   0   4   3   13.98    0.63
   0   4   3   14.11    0.68
  -1  -4  -3   13.34    0.67
  -1  -4  -3   14.79    0.72
  -1  -4  -3   14.33    0.60
  -1  -4  -3   14.96    0.49
  -1  -4  -3   12.96    0.62
  -1  -4  -3   14.44    0.62
  -1  -4  -3   14.50    0.66
   1   4   3   15.10    0.73
   1   4   3   14.74    0.48
   1   4   3   15.09    0.74
   1   4   3   14.06    0.69
   1   4   3   13.74    0.61
   1   4   3   14.38    0.57
  -2  -4  -3   25.32    0.92
  -2  -4  -3   26.10    0.91
  -2  -4  -3   23.68    1.01
  -2  -4  -3   22.83    0.69
  -2  -4  -3   24.68    0.97
   2   4   3   25.29    1.08
   2   4   3   24.44    0.93
   2   4   3   23.50    0.76
   2   4   3   24.95    1.02
   2   4   3   24.05    0.87
   2   4   3   25.02    0.91
  -3  -4  -3    4.97    0.45
  -3  -4  -3    5.54    0.49
  -3  -4  -3    5.97    0.55
  -3  -4  -3    5.63    0.58
   3   4   3    5.20    0.48
   3   4   3    5.75    0.49
   3   4   3    6.04    0.60
   3   4   3    5.59    0.27
   3   4   3    5.56    0.56
  -4  -4  -3    1.93    0.42
  -4  -4  -3    1.75    0.37
  -4  -4  -3    1.87    0.40
   4   4   3    2.56    0.48
   4   4   3    2.04    0.41
  -5  -4  -3    3.69    0.57
  -5  -4  -3    4.09    0.57
   5   4   3    2.63    0.50
   5   4   3    4.70    0.69
   6   4   3    9.32    0.94
   8  -5  -3   10.11    1.46
  -8   5   3    8.58    1.14
   7  -5  -3    2.69    0.46
   7  -5  -3    2.99    0.55
   7  -5  -3    2.74    0.54
  -7   5   3    3.72    0.59
  -7   5   3    1.65    0.44
   6  -5  -3    0.46    0.28
   6  -5  -3    0.39    0.21
   6  -5  -3    0.32    0.23
  -6   5   3    0.30    0.30
  -6   5   3    0.54    0.28
   5  -5  -3    0.44    0.15
   5  -5  -3    0.48    0.19
   5  -5  -3    0.89    0.25
   5  -5  -3    0.75    0.25
   5  -5  -3    0.64    0.24
  -5   5   3    0.47    0.26
  -5   5   3    0.62    0.24
  -5   5   3    0.46    0.16
  -5   5   3    0.46    0.18
   4  -5  -3    2.80    0.23
   4  -5  -3    2.93    0.37
   4  -5  -3    2.66    0.30
   4  -5  -3    2.70    0.31
   4  -5  -3    2.74    0.29
   4  -5  -3    2.66    0.29
   4  -5  -3    2.63    0.20
  -4   5   3    2.99    0.39
  -4   5   3    2.34    0.48
  -4   5   3    2.86    0.37
  -4   5   3    2.65    0.27
  -4   5   3    2.47    0.30
   3  -5  -3    1.29    0.23
   3  -5  -3    1.29    0.13
   3  -5  -3    1.50    0.22
   3  -5  -3    1.27    0.20
   3  -5  -3    1.72    0.27
   3  -5  -3    0.96    0.18
   3  -5  -3    1.24    0.21
  -3   5   3    1.65    0.27
  -3   5   3    1.06    0.35
  -3   5   3    1.25    0.25
  -3   5   3    1.35    0.22
  -3   5   3    1.58    0.22
   2  -5  -3   34.84    0.92
   2  -5  -3   35.04    0.98
   2  -5  -3   33.10    0.88
   2  -5  -3   33.09    0.91
   2  -5  -3   32.92    0.97
   2  -5  -3   33.06    0.91
   2  -5  -3   31.66    1.02
  -2   5   3   33.19    1.23
  -2   5   3   32.81    0.92
  -2   5   3   34.79    0.95
  -2   5   3   31.34    0.95
  -2   5   3   33.08    0.89
   1  -5  -3   29.77    0.83
   1  -5  -3   30.28    0.89
   1  -5  -3   28.65    0.98
   1  -5  -3   30.34    0.84
   1  -5  -3   28.46    0.83
   1  -5  -3   30.49    0.91
   1  -5  -3   29.48    0.87
  -1   5   3   29.86    0.73
  -1   5   3   30.05    1.10
  -1   5   3   29.92    0.76
  -1   5   3   29.33    0.90
  -1   5   3   28.95    0.92
  -1   5   3   27.89    1.08
  -1   5   3   30.40    0.85
  -1   5   3   29.70    0.71
   0  -5  -3    3.48    0.36
   0  -5  -3    3.84    0.31
   0  -5  -3    3.61    0.34
   0  -5  -3    3.73    0.25
   0  -5  -3    3.86    0.36
   0  -5  -3    3.06    0.32
   0  -5  -3    3.75    0.31
   0   5   3    3.81    0.39
   0   5   3    4.45    0.32
   0   5   3    3.91    0.42
   0   5   3    3.83    0.27
   0   5   3    4.12    0.38
   0   5   3    3.61    0.28
  -1  -5  -3   14.75    0.49
  -1  -5  -3   15.90    0.68
  -1  -5  -3   15.57    0.77
  -1  -5  -3   15.17    0.71
  -1  -5  -3   14.72    0.73
  -1  -5  -3   14.52    0.65
   1   5   3   14.38    0.65
   1   5   3   15.77    0.65
   1   5   3   14.88    0.82
   1   5   3   15.28    0.54
   1   5   3   15.34    0.61
   1   5   3   14.90    0.71
  -2  -5  -3    1.72    0.36
  -2  -5  -3    1.68    0.30
  -2  -5  -3    1.72    0.36
  -2  -5  -3    1.89    0.20
  -2  -5  -3    2.41    0.36
   2   5   3    2.95    0.47
   2   5   3    2.23    0.28
   2   5   3    2.26    0.32
   2   5   3    2.35    0.38
   2   5   3    1.92    0.30
   2   5   3    3.04    0.53
  -3  -5  -3   13.39    0.78
  -3  -5  -3   13.23    0.74
  -3  -5  -3   14.04    1.07
   3   5   3   14.55    0.90
   3   5   3   14.14    0.73
  -4  -5  -3    2.15    0.40
  -4  -5  -3    2.72    0.48
   4   5   3    3.49    0.61
   4   5   3    2.51    0.44
   5   5   3    7.80    0.72
   5   5   3    6.48    0.79
   7  -6  -3    1.03    0.33
  -7   6   3    0.74    0.35
  -7   6   3    0.37    0.34
   6  -6  -3    1.56    0.38
   6  -6  -3    1.25    0.30
   6  -6  -3    1.48    0.36
  -6   6   3    1.16    0.35
  -6   6   3    1.53    0.36
   5  -6  -3    2.82    0.34
   5  -6  -3    3.67    0.48
   5  -6  -3    3.05    0.43
   5  -6  -3    3.74    0.45
  -5   6   3    2.65    0.31
  -5   6   3    3.81    0.47
  -5   6   3    3.38    0.48
  -5   6   3    2.90    0.60
   4  -6  -3    4.82    0.31
   4  -6  -3    4.76    0.34
   4  -6  -3    5.07    0.38
   4  -6  -3    5.18    0.29
   4  -6  -3    5.13    0.46
   4  -6  -3    5.14    0.42
   4  -6  -3    5.67    0.42
  -4   6   3    4.59    0.43
  -4   6   3    4.93    0.68
  -4   6   3    4.61    0.34
  -4   6   3    5.04    0.42
   3  -6  -3    4.90    0.34
   3  -6  -3    4.11    0.39
   3  -6  -3    4.49    0.32
   3  -6  -3    4.41    0.31
   3  -6  -3    4.45    0.34
   3  -6  -3    5.07    0.25
   3  -6  -3    5.11    0.36
  -3   6   3    4.82    0.34
  -3   6   3    5.54    0.30
  -3   6   3    5.38    0.40
  -3   6   3    5.61    0.41
  -3   6   3    4.44    0.59
   2  -6  -3    3.26    0.35
   2  -6  -3    3.09    0.28
   2  -6  -3    2.85    0.25
   2  -6  -3    3.35    0.28
   2  -6  -3    3.43    0.28
   2  -6  -3    3.09    0.31
   2  -6  -3    2.78    0.29
   2  -6  -3    3.17    0.34
  -2   6   3    3.09    0.31
  -2   6   3    3.22    0.26
  -2   6   3    3.01    0.30
  -2   6   3    3.38    0.30
  -2   6   3    3.09    0.47
   1  -6  -3   24.33    0.74
   1  -6  -3   25.81    0.80
   1  -6  -3   23.02    0.81
   1  -6  -3   25.83    0.89
   1  -6  -3   23.86    0.77
   1  -6  -3   24.67    0.85
   1  -6  -3   24.29    0.95
  -1   6   3   23.50    0.88
  -1   6   3   24.83    0.76
  -1   6   3   25.50    0.85
  -1   6   3   25.02    1.06
  -1   6   3   23.83    1.04
   0  -6  -3   31.79    1.15
   0  -6  -3   33.70    1.13
   0  -6  -3   33.62    1.06
   0  -6  -3   33.38    1.01
   0  -6  -3   32.72    0.84
   0  -6  -3   34.03    1.01
   0   6   3   31.57    0.89
   0   6   3   33.66    0.96
   0   6   3   31.81    1.14
   0   6   3   31.49    0.84
   0   6   3   31.00    1.18
   0   6   3   31.24    1.25
  -1  -6  -3    5.37    0.47
  -1  -6  -3    5.41    0.52
  -1  -6  -3    5.77    0.29
  -1  -6  -3    6.69    0.47
  -1  -6  -3    6.68    0.54
  -1  -6  -3    6.53    0.47
   1   6   3    5.96    0.35
   1   6   3    5.70    0.42
   1   6   3    5.51    0.38
   1   6   3    6.72    0.58
   1   6   3    5.86    0.49
   1   6   3    6.08    0.43
   1   6   3    5.32    0.55
  -2  -6  -3    0.42    0.22
  -2  -6  -3    0.90    0.27
   2   6   3    0.81    0.22
   2   6   3    0.41    0.26
   2   6   3    0.66    0.24
  -3  -6  -3    8.41    0.66
  -3  -6  -3    8.59    0.64
   3   6   3   10.13    0.63
   3   6   3    9.14    0.62
   3   6   3    9.98    0.81
  -4  -6  -3    3.82    0.54
  -4  -6  -3    2.96    0.50
   4   6   3    3.28    0.47
   4   6   3    4.73    0.71
   7  -7  -3    7.65    0.67
  -7   7   3    5.73    0.57
   6  -7  -3    0.77    0.30
   6  -7  -3    0.95    0.30
  -6   7   3    0.89    0.33
  -6   7   3    1.05    0.30
   5  -7  -3    2.18    0.35
   5  -7  -3    2.67    0.46
   5  -7  -3    2.48    0.38
  -5   7   3    2.07    0.40
  -5   7   3    2.68    0.29
  -5   7   3    2.96    0.40
  -5   7   3    2.90    0.59
   4  -7  -3    2.63    0.28
   4  -7  -3    1.92    0.32
   4  -7  -3    3.17    0.34
   4  -7  -3    2.40    0.25
   4  -7  -3    2.98    0.36
  -4   7   3    2.72    0.31
  -4   7   3    3.04    0.44
  -4   7   3    2.84    0.37
  -4   7   3    2.75    0.56
   3  -7  -3    2.08    0.32
   3  -7  -3    2.22    0.18
   3  -7  -3    2.41    0.25
   3  -7  -3    2.84    0.29
   3  -7  -3    2.55    0.39
   3  -7  -3    2.43    0.29
  -3   7   3    2.10    0.49
  -3   7   3    2.26    0.32
  -3   7   3    2.95    0.39
  -3   7   3    2.93    0.29
   2  -7  -3    0.17    0.11
   2  -7  -3    0.04    0.13
   2  -7  -3    0.05    0.19
   2  -7  -3    0.11    0.12
   2  -7  -3   -0.07    0.14
  -2   7   3    0.24    0.23
  -2   7   3   -0.10    0.13
  -2   7   3   -0.14    0.11
   1  -7  -3   30.66    0.87
   1  -7  -3   28.62    1.12
   1  -7  -3   30.95    0.94
   1  -7  -3   30.38    0.94
   1  -7  -3   29.33    1.03
  -1   7   3   29.37    0.98
  -1   7   3   31.71    1.29
  -1   7   3   31.44    0.89
  -1   7   3   31.51    1.08
  -1   7   3   30.79    1.28
   0  -7  -3    3.10    0.46
   0  -7  -3    3.89    0.46
   0  -7  -3    3.68    0.35
   0  -7  -3    3.36    0.34
   0   7   3    3.32    0.22
   0   7   3    3.01    0.49
   0   7   3    4.44    0.62
   0   7   3    4.85    0.65
  -1  -7  -3    6.21    0.49
  -1  -7  -3    6.24    0.58
  -1  -7  -3    5.93    0.48
   1   7   3    5.88    0.38
   1   7   3    5.58    0.61
   1   7   3    6.54    0.55
  -2  -7  -3    3.88    0.50
  -2  -7  -3    4.91    0.61
  -2  -7  -3    4.45    0.48
   2   7   3    5.37    0.75
   2   7   3    4.35    0.59
   2   7   3    4.75    0.42
  -3  -7  -3    1.67    0.37
  -3  -7  -3    1.69    0.41
   3   7   3    2.73    0.38
   3   7   3    1.67    0.39
   3   7   3    2.39    0.54
  -4  -7  -3    2.35    0.49
   4   7   3    2.43    0.42
   6  -8  -3    8.69    0.68
  -6   8   3    8.85    0.51
  -6   8   3    9.23    0.77
   5  -8  -3    9.47    0.65
   5  -8  -3   10.08    0.63
  -5   8   3    9.88    0.45
  -5   8   3   10.34    0.54
  -5   8   3   10.29    1.00
  -5   8   3    9.64    0.71
   4  -8  -3    1.46    0.32
   4  -8  -3    1.37    0.32
   4  -8  -3    1.46    0.28
  -4   8   3    1.65    0.51
  -4   8   3    1.27    0.28
  -4   8   3    1.55    0.24
  -4   8   3    1.82    0.35
   3  -8  -3    8.43    0.48
   3  -8  -3    9.60    0.51
   3  -8  -3    8.88    0.48
   3  -8  -3    9.61    0.64
  -3   8   3    8.69    0.50
  -3   8   3    9.10    0.82
  -3   8   3    9.10    0.48
   2  -8  -3    8.27    0.46
   2  -8  -3    8.17    0.52
   2  -8  -3    8.37    0.61
   2  -8  -3    8.19    0.46
  -2   8   3    8.79    0.76
  -2   8   3    7.84    0.51
  -2   8   3    8.89    0.51
   1  -8  -3   11.14    0.72
   1  -8  -3   11.62    0.56
   1  -8  -3   10.19    0.53
  -1   8   3   11.29    0.82
  -1   8   3   11.06    0.60
  -1   8   3   10.26    0.80
   0  -8  -3   13.09    0.66
   0  -8  -3   13.33    0.67
   0  -8  -3   13.27    0.83
   0   8   3   13.91    0.92
   0   8   3   13.21    0.87
  -1  -8  -3    1.29    0.30
  -1  -8  -3    1.30    0.30
  -1  -8  -3    1.66    0.40
   1   8   3    1.19    0.34
   1   8   3    1.47    0.45
  -2  -8  -3   11.34    0.74
  -2  -8  -3   10.58    0.81
  -2  -8  -3   10.50    0.71
   2   8   3    9.40    0.74
   2   8   3   11.62    0.95
  -3  -8  -3    7.39    0.74
  -3  -8  -3    8.90    0.88
  -3  -8  -3    9.42    0.95
   5  -9  -3    1.37    0.35
  -5   9   3    1.54    0.38
   4  -9  -3    6.74    0.58
   4  -9  -3    6.35    0.46
  -4   9   3    5.51    0.81
   3  -9  -3    4.49    0.51
   3  -9  -3    5.15    0.41
  -3   9   3    4.75    0.38
  -3   9   3    3.59    0.63
  -3   9   3    4.82    0.40
   2  -9  -3    7.50    0.63
   2  -9  -3    6.15    0.42
  -2   9   3    6.33    0.46
  -2   9   3    6.69    0.73
   1  -9  -3   -0.01    0.21
   1  -9  -3    0.06    0.13
   1  -9  -3   -0.10    0.18
  -1   9   3    0.02    0.26
  -1   9   3   -0.07    0.19
   0  -9  -3   10.05    0.60
   0  -9  -3    8.80    0.74
   0  -9  -3    9.60    0.61
   0   9   3    8.94    0.78
   0   9   3    9.03    0.82
   0   9   3    9.20    0.63
  -1  -9  -3    4.17    0.52
  -1  -9  -3    4.72    0.87
  -1  -9  -3    3.66    0.62
   1   9   3    3.98    0.89
   1   9   3    2.70    0.52
  -2  -9  -3    9.76    0.73
  -2  10   3    4.74    0.42
  -2  10   3    2.85    0.57
  -1  10   3    0.65    0.37
  -1  10   3    0.29    0.25
   0  10   3    2.17    0.43
   0  10   3    1.49    0.44
   1 -13   4    2.69    0.48
   2 -13   4    1.61    0.37
   3 -13   4    6.54    0.60
   3 -13   4    6.04    0.62
   1  12  -4    0.06    0.28
  -1 -12   4   -0.10    0.13
   0  12  -4    2.23    0.50
   0 -12   4    2.84    0.39
   0 -12   4    3.66    0.53
  -1  12  -4   17.89    1.09
   1 -12   4   20.01    0.97
   1 -12   4   20.58    0.68
   2 -12   4    8.40    0.64
   3 -12   4    7.66    0.63
   3 -12   4    8.53    0.67
   3 -12   4    8.58    0.64
   4 -12   4    1.22    0.35
   4 -12   4    1.70    0.34
   4 -12   4    1.81    0.38
   5 -12   4    0.41    0.24
   5 -12   4    0.86    0.35
  -3 -11   4    3.43    0.59
   2  11  -4    3.18    0.60
  -2 -11   4    3.29    0.51
  -2 -11   4    3.55    0.51
  -2 -11   4    2.76    0.48
   1  11  -4   11.01    0.87
  -1 -11   4    9.80    0.64
  -1 -11   4    9.94    0.66
  -1 -11   4   10.93    0.70
   0  11  -4    5.26    0.37
   0  11  -4    5.61    0.60
   0 -11   4    4.26    0.45
   0 -11   4    3.58    0.36
  -1  11  -4   12.33    0.82
   1 -11   4   11.37    0.70
   1 -11   4   10.81    0.49
   2 -11   4    8.15    0.53
   2 -11   4    8.98    0.63
   3 -11   4    1.57    0.35
   3 -11   4    0.99    0.30
   3 -11   4    1.39    0.32
   4 -11   4    1.09    0.30
   4 -11   4    1.25    0.35
   4 -11   4    1.10    0.29
   5 -11   4    0.55    0.23
   5 -11   4    1.24    0.36
  -4 -10   4   -0.19    0.25
   3  10  -4    0.37    0.33
  -3 -10   4    0.98    0.32
  -3 -10   4    0.99    0.34
  -3 -10   4    0.40    0.23
   2  10  -4    0.88    0.34
  -2 -10   4    0.71    0.29
  -2 -10   4    1.16    0.32
  -2 -10   4    0.98    0.27
   1  10  -4    5.95    0.61
  -1 -10   4    5.62    0.49
  -1 -10   4    6.13    0.51
  -1 -10   4    5.77    0.50
   0  10  -4    4.75    0.36
   0  10  -4    4.51    0.51
   0 -10   4    4.54    0.25
   0 -10   4    4.79    0.40
   0 -10   4    5.53    0.43
   0 -10   4    4.33    0.44
   0 -10   4    4.59    0.39
  -1  10  -4   65.80    2.02
   1 -10   4   69.20    1.64
   1 -10   4   70.40    1.94
   1 -10   4   76.02    2.03
   1 -10   4   69.89    1.63
   1 -10   4   71.08    1.59
   2 -10   4    8.95    0.60
   2 -10   4    8.61    0.30
   2 -10   4    8.93    0.55
   2 -10   4    8.85    0.27
   3 -10   4    4.46    0.45
   3 -10   4    4.78    0.45
   3 -10   4    4.80    0.47
   4 -10   4    7.43    0.48
   4 -10   4    6.08    0.59
   4 -10   4    5.73    0.53
   5 -10   4    0.05    0.24
  -6  10  -4    0.44    0.35
   6 -10   4   -0.50    0.26
   6 -10   4    0.09    0.13
   6 -10   4   -0.06    0.08
   5   9  -4    2.46    0.51
  -5  -9   4    2.72    0.57
   4   9  -4    1.24    0.42
   4   9  -4    1.69    0.37
  -4  -9   4    1.45    0.44
  -4  -9   4    1.51    0.37
  -4  -9   4    1.59    0.42
   3   9  -4    7.95    0.75
   3   9  -4    8.07    0.51
  -3  -9   4    8.84    0.72
  -3  -9   4    8.42    0.62
  -3  -9   4    8.55    0.69
   2   9  -4   25.20    1.21
   2   9  -4   25.62    1.24
   2   9  -4   24.54    0.72
  -2  -9   4   25.18    1.02
  -2  -9   4   23.93    1.08
  -2  -9   4   24.39    1.07
   1   9  -4    2.13    0.42
   1   9  -4    2.43    0.51
   1   9  -4    2.50    0.27
   1   9  -4    2.65    0.40
  -1  -9   4    2.67    0.41
  -1  -9   4    2.62    0.39
  -1  -9   4    2.68    0.41
  -1  -9   4    2.27    0.39
   0   9  -4   25.18    0.80
   0   9  -4   27.22    1.24
   0   9  -4   24.59    1.08
   0  -9   4   24.18    0.97
   0  -9   4   24.00    0.86
   0  -9   4   25.52    0.90
   0  -9   4   25.30    0.91
   0  -9   4   25.14    0.83
   0  -9   4   26.05    0.71
   0  -9   4   24.51    0.87
   0  -9   4   26.19    0.78
  -1   9  -4    4.34    0.57
  -1   9  -4    3.48    0.57
   1  -9   4    3.00    0.31
   1  -9   4    3.08    0.27
   1  -9   4    3.02    0.28
   1  -9   4    2.59    0.40
   1  -9   4    2.95    0.27
   1  -9   4    2.73    0.25
  -2   9  -4   45.73    1.61
   2  -9   4   45.43    0.89
   2  -9   4   43.44    0.96
   2  -9   4   46.51    1.35
   2  -9   4   44.70    1.01
   2  -9   4   44.97    1.41
   2  -9   4   43.36    0.96
   3  -9   4    6.26    0.51
   3  -9   4    6.27    0.52
   3  -9   4    6.48    0.46
   3  -9   4    5.87    0.23
   3  -9   4    5.63    0.23
   4  -9   4    9.40    0.28
   4  -9   4    9.13    0.48
   4  -9   4    9.65    0.32
   4  -9   4    8.71    0.68
  -5   9  -4    2.62    0.55
   5  -9   4    2.48    0.28
   5  -9   4    2.48    0.50
   5  -9   4    2.41    0.20
   5  -9   4    2.14    0.25
  -6   9  -4    0.74    0.37
   6  -9   4    0.92    0.39
   6  -9   4    0.98    0.20
  -7   9  -4    0.59    0.34
   5   8  -4    1.75    0.56
   5   8  -4    2.47    0.48
  -5  -8   4    1.41    0.36
  -5  -8   4    2.69    0.53
  -5  -8   4    1.42    0.43
   4   8  -4    1.17    0.33
   4   8  -4    0.86    0.38
  -4  -8   4    1.39    0.39
  -4  -8   4    1.20    0.29
  -4  -8   4    1.56    0.41
   3   8  -4    4.98    0.60
   3   8  -4    6.16    0.48
   3   8  -4    6.52    0.63
  -3  -8   4    5.97    0.50
  -3  -8   4    5.54    0.58
  -3  -8   4    5.60    0.56
   2   8  -4   20.69    1.02
   2   8  -4   19.57    1.04
   2   8  -4   21.20    0.68
   2   8  -4   19.93    0.85
   2   8  -4   19.46    0.70
   2   8  -4   19.84    0.94
  -2  -8   4   19.09    0.90
  -2  -8   4   19.67    0.94
  -2  -8   4   18.67    0.91
  -2  -8   4   20.99    0.98
  -2  -8   4   19.23    0.85
   1   8  -4   12.61    0.74
   1   8  -4   13.05    0.36
   1   8  -4   12.01    0.55
   1   8  -4   12.67    0.34
   1   8  -4   13.62    0.83
   1   8  -4   13.79    0.67
  -1  -8   4   12.81    0.37
  -1  -8   4   13.01    0.68
  -1  -8   4   12.60    0.66
  -1  -8   4   12.21    0.65
  -1  -8   4   11.95    0.63
  -1  -8   4   12.47    0.66
   0   8  -4   11.27    0.40
   0   8  -4   11.81    0.67
   0   8  -4   11.03    0.75
   0   8  -4   11.30    0.50
   0  -8   4   10.67    0.53
   0  -8   4   11.33    0.43
   0  -8   4   11.07    0.46
   0  -8   4   11.54    0.54
   0  -8   4   10.52    0.51
   0  -8   4   11.74    0.62
   0  -8   4   10.84    0.53
   0  -8   4   11.54    0.56
  -1   8  -4    0.90    0.30
  -1   8  -4    1.22    0.27
  -1   8  -4    0.80    0.14
   1  -8   4    0.72    0.23
   1  -8   4    0.72    0.18
   1  -8   4    0.86    0.15
   1  -8   4    1.16    0.19
   1  -8   4    1.14    0.19
   1  -8   4    1.06    0.18
   1  -8   4    0.87    0.25
   1  -8   4    0.93    0.23
  -2   8  -4   15.71    0.86
   2  -8   4   17.63    0.79
   2  -8   4   17.55    0.82
   2  -8   4   16.96    0.44
   2  -8   4   18.25    0.80
   2  -8   4   17.81    0.47
   2  -8   4   17.17    0.50
   2  -8   4   18.01    0.51
   2  -8   4   17.47    0.75
  -3   8  -4   16.98    0.91
  -3   8  -4   17.64    0.89
   3  -8   4   17.59    0.46
   3  -8   4   17.38    0.48
   3  -8   4   17.33    0.85
   3  -8   4   17.99    0.70
   3  -8   4   17.33    0.45
   3  -8   4   17.63    0.82
   3  -8   4   17.19    0.47
   3  -8   4   18.86    0.84
  -4   8  -4   32.08    1.29
   4  -8   4   31.29    0.75
   4  -8   4   30.06    0.82
   4  -8   4   30.62    0.83
   4  -8   4   30.72    0.86
   4  -8   4   31.43    1.26
  -5   8  -4    1.44    0.40
   5  -8   4    1.52    0.18
   5  -8   4    1.65    0.23
   5  -8   4    1.93    0.45
   5  -8   4    1.78    0.27
   5  -8   4    1.62    0.27
  -6   8  -4   12.51    0.90
  -6   8  -4   12.16    0.50
   6  -8   4   12.15    0.93
   6  -8   4   12.50    0.59
  -7   8  -4    1.31    0.47
  -7   8  -4    1.37    0.27
   6   7  -4    3.80    0.79
   5   7  -4    6.95    0.73
   5   7  -4    6.61    0.68
  -5  -7   4    6.57    0.58
  -5  -7   4    6.54    0.68
  -5  -7   4    7.69    0.78
   4   7  -4    3.66    0.55
   4   7  -4    2.50    0.46
   4   7  -4    2.66    0.50
  -4  -7   4    2.78    0.40
  -4  -7   4    3.42    0.55
  -4  -7   4    2.78    0.51
   3   7  -4    6.91    0.47
   3   7  -4    7.12    0.62
   3   7  -4    7.35    0.62
   3   7  -4    6.46    0.88
   3   7  -4    6.65    0.51
  -3  -7   4    7.55    0.59
  -3  -7   4    7.01    0.51
  -3  -7   4    8.34    0.64
  -3  -7   4    7.57    0.64
  -3  -7   4    7.23    0.65
   2   7  -4   28.26    0.68
   2   7  -4   28.84    1.11
   2   7  -4   29.92    1.06
   2   7  -4   27.08    1.13
   2   7  -4   30.05    1.21
   2   7  -4   28.90    0.86
   2   7  -4   29.46    0.94
  -2  -7   4   27.41    1.00
  -2  -7   4   28.22    1.07
  -2  -7   4   28.04    1.10
  -2  -7   4   27.25    1.09
  -2  -7   4   27.05    1.11
   1   7  -4   11.09    0.41
   1   7  -4   10.84    0.70
   1   7  -4   10.83    0.53
   1   7  -4    9.16    0.59
   1   7  -4   10.82    0.37
   1   7  -4   10.71    0.57
  -1  -7   4   10.68    0.55
  -1  -7   4   10.38    0.57
  -1  -7   4   10.29    0.58
  -1  -7   4   10.64    0.57
  -1  -7   4   10.21    0.34
  -1  -7   4   10.30    0.58
  -1  -7   4   10.15    0.56
   0   7  -4    1.24    0.21
   0   7  -4    1.28    0.32
   0   7  -4    1.54    0.20
   0   7  -4    1.45    0.29
   0   7  -4    1.75    0.33
   0  -7   4    1.58    0.29
   0  -7   4    1.52    0.20
   0  -7   4    1.61    0.23
   0  -7   4    1.42    0.24
   0  -7   4    1.51    0.21
   0  -7   4    1.88    0.27
   0  -7   4    1.75    0.28
   0  -7   4    0.94    0.19
  -1   7  -4   10.49    0.36
  -1   7  -4   10.55    0.66
  -1   7  -4    9.41    0.52
   1  -7   4   10.62    0.56
   1  -7   4   10.30    0.38
   1  -7   4   10.60    0.75
   1  -7   4   10.11    0.42
   1  -7   4   10.14    0.41
   1  -7   4    9.80    0.37
   1  -7   4   10.73    0.54
   1  -7   4    9.97    0.48
   1  -7   4   11.03    0.42
   1  -7   4   10.86    0.55
  -2   7  -4   17.97    0.85
   2  -7   4   17.47    0.75
   2  -7   4   18.03    0.81
   2  -7   4   17.72    0.48
   2  -7   4   16.86    0.70
   2  -7   4   17.27    0.73
   2  -7   4   18.05    0.47
   2  -7   4   18.27    0.82
   2  -7   4   17.37    0.46
   2  -7   4   17.20    0.49
  -3   7  -4   14.77    0.79
  -3   7  -4   15.70    0.78
   3  -7   4   14.40    0.75
   3  -7   4   14.31    0.46
   3  -7   4   14.86    0.44
   3  -7   4   15.40    0.70
   3  -7   4   14.82    0.42
   3  -7   4   15.23    0.57
   3  -7   4   16.61    0.75
   3  -7   4   14.32    0.46
  -4   7  -4    6.95    0.31
  -4   7  -4    7.82    0.63
   4  -7   4    6.92    0.48
   4  -7   4    6.51    0.38
   4  -7   4    6.76    0.31
   4  -7   4    6.48    0.47
   4  -7   4    5.92    0.55
   4  -7   4    6.48    0.33
   4  -7   4    7.03    0.39
  -5   7  -4   27.67    1.21
  -5   7  -4   27.52    0.80
   5  -7   4   25.81    1.02
   5  -7   4   28.48    0.87
   5  -7   4   26.69    0.67
   5  -7   4   26.28    0.94
   5  -7   4   27.09    0.94
   5  -7   4   27.18    1.24
  -6   7  -4   24.16    0.86
  -6   7  -4   25.51    1.23
   6  -7   4   26.17    1.04
   6  -7   4   25.98    0.94
   6  -7   4   24.47    1.28
  -7   7  -4    1.46    0.33
  -7   7  -4    1.24    0.40
   7  -7   4    1.22    0.33
   7  -7   4    0.35    0.37
   6   6  -4    4.57    0.71
  -6  -6   4    5.10    0.74
  -6  -6   4    3.18    0.47
  -6  -6   4    4.26    0.51
   5   6  -4    8.05    0.65
   5   6  -4    9.05    0.77
  -5  -6   4   10.40    0.80
  -5  -6   4    9.25    0.82
  -5  -6   4    8.85    0.63
   4   6  -4    3.58    0.52
   4   6  -4    3.76    0.50
   4   6  -4    3.06    0.52
  -4  -6   4    3.65    0.53
  -4  -6   4    4.73    0.62
  -4  -6   4    3.95    0.66
  -4  -6   4    4.78    0.81
  -4  -6   4    4.09    0.42
   3   6  -4   17.98    0.51
   3   6  -4   17.30    0.88
   3   6  -4   18.59    0.95
   3   6  -4   18.32    0.85
   3   6  -4   17.56    0.88
   3   6  -4   18.11    0.76
  -3  -6   4   20.02    0.96
  -3  -6   4   18.42    0.79
  -3  -6   4   16.92    0.87
  -3  -6   4   19.18    0.96
  -3  -6   4   18.68    0.94
   2   6  -4   10.02    0.55
   2   6  -4   10.62    0.67
   2   6  -4   11.93    0.52
   2   6  -4   10.73    0.62
   2   6  -4   10.65    0.38
   2   6  -4   10.84    0.64
  -2  -6   4   10.82    0.64
  -2  -6   4   11.53    0.65
  -2  -6   4    9.89    0.58
  -2  -6   4   11.21    0.64
  -2  -6   4   11.84    0.68
  -2  -6   4   10.89    0.70
  -2  -6   4   10.41    0.56
   1   6  -4    2.80    0.25
   1   6  -4    2.71    0.31
   1   6  -4    3.26    0.21
   1   6  -4    3.41    0.24
   1   6  -4    2.83    0.26
   1   6  -4    2.94    0.30
   1   6  -4    2.92    0.40
   1   6  -4    2.52    0.27
   1   6  -4    3.25    0.30
  -1  -6   4    3.54    0.20
  -1  -6   4    3.22    0.34
  -1  -6   4    3.26    0.30
  -1  -6   4    3.54    0.32
  -1  -6   4    2.85    0.30
  -1  -6   4    3.31    0.33
  -1  -6   4    2.94    0.30
  -1  -6   4    3.80    0.36
   0   6  -4   12.01    0.50
   0   6  -4   12.60    0.42
   0   6  -4   12.87    0.50
   0   6  -4   12.63    0.49
   0   6  -4   12.71    0.69
   0   6  -4   12.74    0.57
   0   6  -4   11.70    0.56
   0  -6   4   12.13    0.53
   0  -6   4   12.80    0.58
   0  -6   4   12.98    0.46
   0  -6   4   12.00    0.63
   0  -6   4   12.81    0.52
   0  -6   4   12.49    0.47
   0  -6   4   12.39    0.47
   0  -6   4   11.93    0.61
   0  -6   4   12.39    0.50
   0  -6   4   12.01    0.51
  -1   6  -4    6.51    0.28
  -1   6  -4    5.92    0.24
  -1   6  -4    5.78    0.36
  -1   6  -4    5.68    0.20
  -1   6  -4    5.93    0.47
  -1   6  -4    5.43    0.38
   1  -6   4    5.82    0.37
   1  -6   4    6.23    0.41
   1  -6   4    5.78    0.27
   1  -6   4    5.46    0.25
   1  -6   4    5.65    0.29
   1  -6   4    5.54    0.42
   1  -6   4    5.80    0.29
   1  -6   4    5.46    0.37
   1  -6   4    5.10    0.34
   1  -6   4    5.68    0.30
   1  -6   4    5.41    0.40
  -2   6  -4   30.72    1.09
  -2   6  -4   31.68    1.11
   2  -6   4   32.23    1.06
   2  -6   4   32.73    1.03
   2  -6   4   33.04    0.95
   2  -6   4   33.61    1.05
   2  -6   4   33.95    1.04
   2  -6   4   32.98    0.77
   2  -6   4   32.36    0.75
   2  -6   4   33.92    0.75
   2  -6   4   32.10    0.76
   2  -6   4   32.47    0.74
  -3   6  -4   30.69    1.05
  -3   6  -4   30.92    0.76
  -3   6  -4   30.55    1.11
   3  -6   4   30.61    0.76
   3  -6   4   31.00    0.74
   3  -6   4   30.41    0.77
   3  -6   4   30.04    0.77
   3  -6   4   30.95    0.81
   3  -6   4   29.93    0.98
   3  -6   4   30.09    0.79
   3  -6   4   30.79    0.95
   3  -6   4   30.55    1.10
  -4   6  -4    0.44    0.17
  -4   6  -4    0.37    0.22
  -4   6  -4    0.28    0.13
  -4   6  -4    0.34    0.09
   4  -6   4    0.27    0.14
   4  -6   4    0.12    0.06
   4  -6   4   -0.03    0.14
   4  -6   4    0.57    0.18
   4  -6   4    0.33    0.14
   4  -6   4    0.30    0.13
  -5   6  -4    8.03    0.47
  -5   6  -4    8.40    0.36
  -5   6  -4    8.47    0.65
   5  -6   4    8.14    0.54
   5  -6   4    8.70    0.25
   5  -6   4    8.01    0.53
   5  -6   4    8.64    0.50
   5  -6   4    7.95    0.67
  -6   6  -4    2.91    0.52
  -6   6  -4    3.26    0.40
   6  -6   4    2.94    0.40
   6  -6   4    3.57    0.61
   6  -6   4    3.47    0.48
  -7   6  -4    8.25    0.78
  -7   6  -4    6.89    0.58
   7  -6   4    7.48    0.91
   7  -6   4    7.25    0.68
   7  -6   4    7.09    0.62
  -7  -5   4    0.65    0.32
   6   5  -4    5.41    0.76
  -6  -5   4    6.32    0.57
  -6  -5   4    8.04    1.34
  -6  -5   4    6.43    0.67
  -6  -5   4    5.92    0.52
   5   5  -4    4.41    0.62
   5   5  -4    5.92    0.74
   5   5  -4    5.74    0.50
  -5  -5   4    5.88    0.77
  -5  -5   4    6.19    0.60
  -5  -5   4    6.20    0.67
  -5  -5   4    6.20    0.52
   4   5  -4   83.11    2.39
   4   5  -4   82.56    2.34
   4   5  -4   81.72    1.66
   4   5  -4   82.60    2.26
   4   5  -4   82.42    2.13
  -4  -5   4   83.14    2.28
  -4  -5   4   81.36    2.03
  -4  -5   4   81.30    2.33
  -4  -5   4   83.08    2.40
  -4  -5   4   84.72    2.36
   3   5  -4   22.17    0.93
   3   5  -4   22.35    0.97
   3   5  -4   22.41    1.00
   3   5  -4   20.71    0.91
   3   5  -4   21.66    0.84
   3   5  -4   22.05    0.60
   3   5  -4   23.41    0.95
  -3  -5   4   21.42    0.96
  -3  -5   4   22.33    0.83
  -3  -5   4   21.44    0.94
  -3  -5   4   21.40    0.98
  -3  -5   4   20.67    0.99
   2   5  -4    2.94    0.29
   2   5  -4    2.80    0.38
   2   5  -4    3.27    0.41
   2   5  -4    2.90    0.32
   2   5  -4    2.65    0.20
   2   5  -4    2.48    0.36
   2   5  -4    2.88    0.30
   2   5  -4    2.75    0.26
  -2  -5   4    2.96    0.32
  -2  -5   4    2.88    0.42
  -2  -5   4    3.28    0.41
  -2  -5   4    2.46    0.35
  -2  -5   4    3.40    0.36
  -2  -5   4    3.21    0.30
  -2  -5   4    3.13    0.40
   1   5  -4    5.45    0.37
   1   5  -4    5.54    0.44
   1   5  -4    5.34    0.28
   1   5  -4    5.78    0.38
   1   5  -4    5.41    0.38
   1   5  -4    5.48    0.35
   1   5  -4    5.49    0.33
   1   5  -4    5.51    0.29
   1   5  -4    5.79    0.37
  -1  -5   4    4.57    0.38
  -1  -5   4    5.62    0.39
  -1  -5   4    4.69    0.37
  -1  -5   4    5.31    0.37
  -1  -5   4    5.44    0.35
  -1  -5   4    4.99    0.35
  -1  -5   4    5.23    0.36
  -1  -5   4    6.00    0.26
   0   5  -4   57.66    1.35
   0   5  -4   58.44    1.32
   0   5  -4   59.35    1.44
   0   5  -4   59.43    1.24
   0   5  -4   59.55    1.38
   0   5  -4   58.43    1.59
   0   5  -4   58.48    1.23
   0   5  -4   59.83    1.15
   0   5  -4   61.00    1.38
   0  -5   4   59.31    1.45
   0  -5   4   60.78    1.35
   0  -5   4   59.99    1.40
   0  -5   4   59.05    1.52
   0  -5   4   59.33    1.32
   0  -5   4   59.87    1.30
   0  -5   4   61.55    1.50
   0  -5   4   58.94    1.28
   0  -5   4   60.34    1.36
  -1   5  -4   22.57    0.55
  -1   5  -4   21.94    0.77
  -1   5  -4   20.82    0.82
  -1   5  -4   20.88    0.80
  -1   5  -4   21.86    0.60
  -1   5  -4   23.16    0.66
   1  -5   4   21.94    0.60
   1  -5   4   23.10    0.78
   1  -5   4   21.95    0.61
   1  -5   4   22.27    0.58
   1  -5   4   22.75    0.64
   1  -5   4   21.52    0.60
   1  -5   4   22.05    0.77
   1  -5   4   22.65    0.72
   1  -5   4   23.17    0.68
   1  -5   4   22.26    0.58
   1  -5   4   21.51    0.78
  -2   5  -4   38.16    1.14
  -2   5  -4   37.23    0.83
  -2   5  -4   37.07    0.82
  -2   5  -4   37.63    1.15
  -2   5  -4   36.29    0.88
   2  -5   4   37.30    0.95
   2  -5   4   37.56    0.96
   2  -5   4   36.87    0.87
   2  -5   4   36.37    0.84
   2  -5   4   36.49    1.09
   2  -5   4   35.98    1.04
   2  -5   4   37.35    1.06
   2  -5   4   36.02    0.85
   2  -5   4   35.36    1.05
   2  -5   4   36.52    0.82
   2  -5   4   36.48    0.87
  -3   5  -4   28.77    0.78
  -3   5  -4   27.82    0.67
  -3   5  -4   27.74    0.92
  -3   5  -4   28.38    0.77
  -3   5  -4   27.09    0.98
   3  -5   4   27.70    0.60
   3  -5   4   26.54    0.84
   3  -5   4   27.67    0.83
   3  -5   4   27.06    0.79
   3  -5   4   26.73    0.92
   3  -5   4   27.29    0.72
   3  -5   4   27.93    0.76
   3  -5   4   27.32    0.78
   3  -5   4   26.71    1.00
  -4   5  -4   12.84    0.56
  -4   5  -4   14.19    0.48
  -4   5  -4   14.92    0.61
  -4   5  -4   14.58    0.73
   4  -5   4   13.04    0.56
   4  -5   4   13.10    0.61
   4  -5   4   13.88    0.61
   4  -5   4   14.59    0.78
   4  -5   4   13.96    0.56
  -5   5  -4   11.20    0.71
  -5   5  -4   12.42    0.61
  -5   5  -4   10.84    0.38
  -5   5  -4   11.57    0.48
  -5   5  -4   11.93    0.36
   5  -5   4   12.01    0.78
   5  -5   4   11.97    0.61
   5  -5   4   11.67    0.67
   5  -5   4   10.60    0.63
  -6   5  -4    8.94    0.70
  -6   5  -4    9.48    0.62
  -6   5  -4    9.45    0.69
   6  -5   4   10.68    0.82
   6  -5   4    9.14    0.64
   6  -5   4   10.48    0.70
  -7   5  -4    1.07    0.37
  -7   5  -4    0.41    0.31
  -7   5  -4    0.25    0.27
   7  -5   4    0.47    0.32
   7  -5   4    0.82    0.34
   7  -5   4    1.18    0.35
  -8   5  -4    0.15    0.36
   8  -5   4    0.24    0.35
  -7  -4   4    7.33    0.63
   6   4  -4    0.56    0.36
  -6  -4   4    0.58    0.26
  -6  -4   4    0.25    0.20
  -6  -4   4    0.40    0.30
  -6  -4   4    0.36    0.37
  -6  -4   4    0.88    0.39
   5   4  -4   15.10    0.73
   5   4  -4   13.24    0.93
   5   4  -4   15.22    0.59
   5   4  -4   14.54    0.91
  -5  -4   4   14.04    0.86
  -5  -4   4   14.92    0.94
  -5  -4   4   15.04    0.75
  -5  -4   4   14.00    0.91
  -5  -4   4   14.09    0.97
   4   4  -4    2.52    0.38
   4   4  -4    2.57    0.23
   4   4  -4    2.92    0.48
   4   4  -4    2.09    0.40
   4   4  -4    2.54    0.45
   4   4  -4    2.35    0.44
  -4  -4   4    2.71    0.49
  -4  -4   4    2.38    0.43
  -4  -4   4    2.43    0.36
  -4  -4   4    2.09    0.40
  -4  -4   4    2.43    0.40
   3   4  -4   19.06    0.88
   3   4  -4   18.58    0.81
   3   4  -4   19.85    0.58
   3   4  -4   19.40    0.89
   3   4  -4   19.54    0.85
   3   4  -4   18.36    0.77
   3   4  -4   19.37    0.87
  -3  -4   4   22.71    1.13
  -3  -4   4   20.43    0.95
  -3  -4   4   18.92    0.73
  -3  -4   4   21.48    0.93
  -3  -4   4   20.71    0.89
  -3  -4   4   21.47    0.91
   2   4  -4   63.12    1.66
   2   4  -4   64.73    1.68
   2   4  -4   64.71    1.59
   2   4  -4   63.02    1.32
   2   4  -4   64.07    1.65
   2   4  -4   65.02    1.64
   2   4  -4   64.44    1.51
   2   4  -4   64.95    1.56
  -2  -4   4   64.60    1.61
  -2  -4   4   66.32    1.65
  -2  -4   4   62.79    1.72
  -2  -4   4   63.77    1.52
  -2  -4   4   64.58    1.68
  -2  -4   4   65.61    1.66
  -2  -4   4   65.13    1.65
   1   4  -4   10.17    0.46
   1   4  -4   10.53    0.49
   1   4  -4   10.50    0.39
   1   4  -4    8.65    0.45
   1   4  -4   11.14    0.42
   1   4  -4   10.80    0.55
   1   4  -4   10.84    0.46
  -1  -4   4   11.31    0.50
  -1  -4   4   10.12    0.36
  -1  -4   4   10.41    0.50
  -1  -4   4   10.47    0.52
  -1  -4   4   10.31    0.46
  -1  -4   4   10.44    0.48
  -1  -4   4   10.59    0.48
  -1  -4   4   10.23    0.47
  -1  -4   4   11.88    0.55
   0   4  -4   10.14    0.43
   0   4  -4    9.96    0.52
   0   4  -4   10.00    0.34
   0   4  -4   10.33    0.42
   0   4  -4   10.58    0.42
   0   4  -4   10.12    0.46
   0   4  -4    9.03    0.39
   0   4  -4    9.99    0.37
   0   4  -4    9.73    0.38
   0  -4   4   10.57    0.46
   0  -4   4    9.79    0.41
   0  -4   4    9.75    0.44
   0  -4   4   10.58    0.40
   0  -4   4   10.34    0.42
   0  -4   4    9.84    0.40
   0  -4   4   10.46    0.42
   0  -4   4   11.18    0.48
   0  -4   4    9.80    0.38
   0  -4   4    9.74    0.46
  -1   4  -4   67.58    1.33
  -1   4  -4   66.69    1.60
  -1   4  -4   67.08    1.55
  -1   4  -4   68.90    1.30
  -1   4  -4   64.03    1.56
  -1   4  -4   65.73    1.41
  -1   4  -4   66.91    1.32
  -1   4  -4   65.91    1.37
   1  -4   4   67.88    1.32
   1  -4   4   64.73    1.35
   1  -4   4   67.16    1.42
   1  -4   4   68.21    1.41
   1  -4   4   67.41    1.37
   1  -4   4   65.73    1.50
   1  -4   4   65.43    1.49
   1  -4   4   63.22    1.52
   1  -4   4   68.63    1.36
   1  -4   4   66.99    1.34
   1  -4   4   67.23    1.38
  -2   4  -4  173.76    3.13
  -2   4  -4  174.90    3.41
  -2   4  -4  179.57    3.22
  -2   4  -4  176.96    3.09
  -2   4  -4  183.45    3.47
  -2   4  -4  176.40    3.14
  -2   4  -4  177.08    3.23
  -2   4  -4  172.36    3.51
   2  -4   4  175.92    3.19
   2  -4   4  178.67    3.32
   2  -4   4  178.66    3.25
   2  -4   4  172.07    3.14
   2  -4   4  171.37    3.44
   2  -4   4  178.99    3.39
   2  -4   4  174.06    3.07
   2  -4   4  177.66    3.15
   2  -4   4  180.73    3.21
   2  -4   4  172.95    3.22
  -3   4  -4    3.29    0.29
  -3   4  -4    3.17    0.22
  -3   4  -4    3.59    0.34
  -3   4  -4    3.35    0.29
  -3   4  -4    3.31    0.28
  -3   4  -4    3.31    0.20
  -3   4  -4    3.34    0.24
   3  -4   4    3.48    0.28
   3  -4   4    3.28    0.24
   3  -4   4    2.72    0.28
   3  -4   4    3.04    0.28
   3  -4   4    2.87    0.38
   3  -4   4    3.05    0.26
  -4   4  -4   17.68    0.64
  -4   4  -4   16.82    0.69
  -4   4  -4   18.00    0.60
  -4   4  -4   18.32    0.62
  -4   4  -4   17.46    0.77
  -4   4  -4   17.42    0.53
   4  -4   4   19.10    0.87
   4  -4   4   17.20    0.73
   4  -4   4   17.91    0.68
   4  -4   4   17.43    0.74
   4  -4   4   17.86    0.70
  -5   4  -4    7.87    0.38
  -5   4  -4    7.82    0.56
  -5   4  -4    8.90    0.61
  -5   4  -4    7.98    0.55
  -5   4  -4    6.95    0.44
  -5   4  -4    7.33    0.42
   5  -4   4    8.67    0.66
   5  -4   4    8.39    0.60
   5  -4   4    8.31    0.57
   5  -4   4    8.47    0.58
  -6   4  -4    5.57    0.54
  -6   4  -4    5.58    0.57
  -6   4  -4    5.54    0.35
  -6   4  -4    6.36    0.56
   6  -4   4    6.16    0.58
   6  -4   4    5.65    0.62
   6  -4   4    5.23    0.53
  -7   4  -4    3.47    0.58
  -7   4  -4    4.32    0.59
  -7   4  -4    4.12    0.58
   7  -4   4    4.07    0.59
   7  -4   4    4.44    0.61
   7  -4   4    4.91    0.69
  -8   4  -4    0.91    0.40
   7   3  -4    0.24    0.30
  -7  -3   4    0.02    0.24
  -7  -3   4    0.01    0.30
  -7  -3   4   -0.09    0.32
   6   3  -4    9.74    0.84
   6   3  -4   10.36    0.87
   6   3  -4   11.46    0.61
  -6  -3   4   11.10    0.81
  -6  -3   4   10.12    0.84
  -6  -3   4    9.69    0.89
  -6  -3   4    9.24    0.62
   5   3  -4   23.00    1.14
   5   3  -4   22.53    1.10
   5   3  -4   22.12    1.12
   5   3  -4   23.17    0.87
   5   3  -4   23.23    0.71
   5   3  -4   22.33    0.78
  -5  -3   4   21.39    0.88
  -5  -3   4   21.11    1.15
  -5  -3   4   22.25    1.13
  -5  -3   4   22.58    1.10
  -5  -3   4   21.76    1.04
   4   3  -4    3.53    0.53
   4   3  -4    3.58    0.28
   4   3  -4    3.17    0.49
   4   3  -4    3.82    0.49
   4   3  -4    3.06    0.21
   4   3  -4    3.03    0.47
   4   3  -4    3.48    0.35
  -4  -3   4    3.22    0.49
  -4  -3   4    3.38    0.49
  -4  -3   4    3.02    0.52
  -4  -3   4    3.35    0.46
  -4  -3   4    3.07    0.32
   3   3  -4   13.55    0.72
   3   3  -4   12.69    0.66
   3   3  -4   13.80    0.71
   3   3  -4   14.50    0.64
   3   3  -4   13.12    0.59
   3   3  -4   13.05    0.62
   3   3  -4   13.73    0.71
   3   3  -4   13.46    0.48
  -3  -3   4   14.45    0.69
  -3  -3   4   15.19    0.79
  -3  -3   4   13.72    0.67
  -3  -3   4   13.29    0.71
  -3  -3   4   14.55    0.59
  -3  -3   4   14.85    0.71
  -3  -3   4   14.43    0.65
   2   3  -4   47.19    1.26
   2   3  -4   47.24    1.31
   2   3  -4   46.68    1.33
   2   3  -4   46.30    1.20
   2   3  -4   46.34    1.05
   2   3  -4   48.12    1.27
   2   3  -4   46.95    1.20
   2   3  -4   46.94    1.31
  -2  -3   4   46.92    1.27
  -2  -3   4   47.64    0.93
  -2  -3   4   49.36    1.19
  -2  -3   4   48.67    1.28
  -2  -3   4   46.75    1.37
  -2  -3   4   48.05    1.26
  -2  -3   4   49.61    1.30
  -2  -3   4   46.89    1.32
   1   3  -4   44.91    1.17
   1   3  -4   46.22    1.17
   1   3  -4   46.24    1.12
   1   3  -4   44.36    1.10
   1   3  -4   45.70    1.18
   1   3  -4   45.59    1.02
   1   3  -4   46.42    1.07
   1   3  -4   46.89    1.20
  -1  -3   4   45.34    1.21
  -1  -3   4   47.66    1.16
  -1  -3   4   45.13    1.01
  -1  -3   4   45.51    1.10
  -1  -3   4   46.19    1.14
  -1  -3   4   45.79    1.11
  -1  -3   4   46.65    1.13
  -1  -3   4   45.80    1.14
  -1  -3   4   46.29    1.17
   0   3  -4    0.97    0.11
   0   3  -4    1.17    0.14
   0   3  -4    1.16    0.16
   0   3  -4    1.29    0.22
   0   3  -4    1.30    0.21
   0   3  -4    1.19    0.19
   0   3  -4    1.18    0.18
   0  -3   4    1.09    0.16
   0  -3   4    1.23    0.18
   0  -3   4    1.05    0.17
   0  -3   4    1.20    0.20
   0  -3   4    1.24    0.18
   0  -3   4    1.34    0.20
   0  -3   4    1.39    0.18
   0  -3   4    0.95    0.17
   0  -3   4    0.93    0.15
   0  -3   4    1.28    0.18
  -1   3  -4  183.94    3.46
  -1   3  -4  185.29    3.30
  -1   3  -4  186.88    3.31
  -1   3  -4  187.40    3.49
  -1   3  -4  184.16    3.47
  -1   3  -4  185.66    3.38
  -1   3  -4  186.99    3.32
  -1   3  -4  186.51    3.31
   1  -3   4  175.68    3.42
   1  -3   4  186.42    3.30
   1  -3   4  184.74    3.33
   1  -3   4  182.33    3.32
   1  -3   4  185.74    3.37
   1  -3   4  187.18    3.29
   1  -3   4  185.26    3.36
   1  -3   4  187.17    3.37
   1  -3   4  188.25    3.23
  -2   3  -4   20.16    0.57
  -2   3  -4   19.69    0.65
  -2   3  -4   18.94    0.67
  -2   3  -4   19.13    0.74
  -2   3  -4   19.97    0.63
  -2   3  -4   20.74    0.56
  -2   3  -4   19.08    0.61
  -2   3  -4   19.02    0.62
   2  -3   4   19.47    0.65
   2  -3   4   18.95    0.62
   2  -3   4   18.32    0.60
   2  -3   4   19.33    0.66
   2  -3   4   19.52    0.70
   2  -3   4   19.19    0.57
   2  -3   4   18.26    0.60
  -3   3  -4   21.46    0.78
  -3   3  -4   24.08    0.78
  -3   3  -4   24.13    0.72
  -3   3  -4   23.28    0.68
  -3   3  -4   23.55    0.65
  -3   3  -4   23.55    0.81
  -3   3  -4   24.07    0.79
   3  -3   4   23.84    0.77
   3  -3   4   22.29    0.75
   3  -3   4   22.13    0.78
   3  -3   4   22.58    0.78
   3  -3   4   22.88    0.85
  -4   3  -4    5.87    0.44
  -4   3  -4    6.41    0.46
  -4   3  -4    8.10    0.36
  -4   3  -4    7.18    0.47
  -4   3  -4    6.92    0.39
  -4   3  -4    7.07    0.36
   4  -3   4    8.03    0.55
   4  -3   4    7.24    0.47
   4  -3   4    6.98    0.43
   4  -3   4    7.54    0.50
   4  -3   4    7.89    0.51
  -5   3  -4   53.22    1.58
  -5   3  -4   52.86    1.30
  -5   3  -4   53.86    1.54
  -5   3  -4   53.17    1.53
  -5   3  -4   51.27    1.40
  -5   3  -4   54.00    1.55
   5  -3   4   54.85    1.68
   5  -3   4   54.53    1.63
   5  -3   4   52.39    1.68
   5  -3   4   55.57    1.60
  -6   3  -4    0.61    0.28
  -6   3  -4    1.22    0.32
  -6   3  -4    1.23    0.23
  -6   3  -4    0.92    0.31
   6  -3   4    0.76    0.28
   6  -3   4    0.55    0.30
   6  -3   4    1.57    0.39
  -7   3  -4    1.76    0.41
  -7   3  -4    2.13    0.47
  -7   3  -4    2.22    0.32
  -7   3  -4    1.78    0.41
   7  -3   4    2.05    0.47
   7  -3   4    2.36    0.49
   7  -3   4    2.62    0.50
  -8  -2   4    0.02    0.39
   7   2  -4    1.98    0.54
   7   2  -4    2.96    0.67
  -7  -2   4    2.62    0.69
  -7  -2   4    1.92    0.44
  -7  -2   4    2.48    0.45
   6   2  -4    2.62    0.52
   6   2  -4    4.19    0.69
   6   2  -4    3.86    0.36
  -6  -2   4    3.77    0.66
  -6  -2   4    4.00    0.58
  -6  -2   4    3.87    0.71
  -6  -2   4    4.12    0.49
   5   2  -4   13.59    0.87
   5   2  -4   14.18    0.65
   5   2  -4   15.66    0.93
   5   2  -4   14.06    0.59
   5   2  -4   15.21    0.87
  -5  -2   4   15.52    0.90
  -5  -2   4   13.59    0.91
  -5  -2   4   14.45    0.69
  -5  -2   4   13.82    0.80
  -5  -2   4   13.20    0.82
   4   2  -4   13.05    0.49
   4   2  -4   12.73    0.75
   4   2  -4   13.39    0.76
   4   2  -4   12.93    0.59
   4   2  -4   12.95    0.76
   4   2  -4   12.89    0.74
   4   2  -4   13.82    0.74
  -4  -2   4   12.21    0.69
  -4  -2   4   12.60    0.75
  -4  -2   4   13.88    0.74
  -4  -2   4   12.90    0.79
  -4  -2   4   12.82    0.58
   3   2  -4  128.57    2.71
   3   2  -4  128.31    2.83
   3   2  -4  130.74    2.37
   3   2  -4  131.62    2.52
   3   2  -4  131.25    2.85
   3   2  -4  130.10    2.61
   3   2  -4  131.69    2.91
   3   2  -4  130.46    2.78
   3   2  -4  129.30    2.82
  -3  -2   4  128.94    2.93
  -3  -2   4  125.13    2.63
  -3  -2   4  126.94    2.76
  -3  -2   4  130.27    2.75
  -3  -2   4  127.74    2.86
  -3  -2   4  129.53    2.57
  -3  -2   4  128.61    2.78
   2   2  -4    8.81    0.50
   2   2  -4    8.27    0.48
   2   2  -4    9.34    0.47
   2   2  -4   10.58    0.52
   2   2  -4    9.38    0.45
   2   2  -4    9.63    0.42
   2   2  -4    9.84    0.38
  -2  -2   4    9.93    0.41
  -2  -2   4    9.44    0.36
  -2  -2   4    9.75    0.48
  -2  -2   4   10.56    0.56
  -2  -2   4   10.40    0.52
  -2  -2   4    9.85    0.48
  -2  -2   4    9.84    0.44
   1   2  -4   80.13    1.63
   1   2  -4   77.25    1.72
   1   2  -4   79.60    1.62
   1   2  -4   78.95    1.72
   1   2  -4   78.59    1.71
   1   2  -4   79.14    1.71
   1   2  -4   80.73    1.59
   1   2  -4   81.59    1.68
  -1  -2   4   79.92    1.73
  -1  -2   4   76.09    1.61
  -1  -2   4   83.23    1.68
  -1  -2   4   80.08    1.67
  -1  -2   4   78.38    1.68
  -1  -2   4   82.04    1.64
  -1  -2   4   79.91    1.76
  -1  -2   4   76.97    1.59
  -1  -2   4   78.97    1.56
  -1  -2   4   81.06    1.73
   0   2  -4   33.48    0.88
   0   2  -4   31.75    0.81
   0   2  -4   32.25    0.82
   0   2  -4   32.04    0.80
   0   2  -4   31.82    0.82
   0   2  -4   31.87    0.78
   0   2  -4   32.89    0.84
   0   2  -4   33.25    0.81
   0   2  -4   32.70    0.80
   0  -2   4   33.28    0.80
   0  -2   4   31.44    0.73
   0  -2   4   31.76    0.84
   0  -2   4   32.25    0.79
   0  -2   4   31.14    0.80
   0  -2   4   31.05    0.79
   0  -2   4   30.25    0.84
   0  -2   4   31.34    0.82
   0  -2   4   32.17    0.75
   0  -2   4   31.37    0.81
  -1   2  -4   73.06    1.49
  -1   2  -4   72.15    1.56
  -1   2  -4   73.42    1.39
  -1   2  -4   72.08    1.53
  -1   2  -4   73.01    1.60
  -1   2  -4   72.94    1.51
  -1   2  -4   73.28    1.48
  -1   2  -4   71.31    1.52
   1  -2   4   73.65    1.31
   1  -2   4   72.30    1.54
   1  -2   4   70.13    1.51
   1  -2   4   72.05    1.49
   1  -2   4   72.52    1.46
   1  -2   4   74.74    1.56
   1  -2   4   72.68    1.55
   1  -2   4   73.42    1.52
  -2   2  -4   62.78    1.47
  -2   2  -4   66.04    1.49
  -2   2  -4   64.17    1.36
  -2   2  -4   69.64    1.60
  -2   2  -4   65.56    1.49
  -2   2  -4   63.48    1.38
  -2   2  -4   65.27    1.44
   2  -2   4   62.35    1.40
   2  -2   4   63.49    1.47
   2  -2   4   62.67    1.45
   2  -2   4   64.29    1.40
   2  -2   4   63.87    1.51
   2  -2   4   61.69    1.43
   2  -2   4   64.06    1.50
  -3   2  -4   38.78    1.20
  -3   2  -4   36.62    1.00
  -3   2  -4   38.57    0.96
  -3   2  -4   37.76    1.03
  -3   2  -4   36.87    1.09
  -3   2  -4   36.18    1.12
  -3   2  -4   36.43    1.10
   3  -2   4   36.32    1.16
   3  -2   4   36.16    1.10
   3  -2   4   37.57    0.99
   3  -2   4   37.30    1.10
   3  -2   4   36.70    1.04
   3  -2   4   37.76    1.12
   3  -2   4   38.94    1.09
  -4   2  -4   20.05    0.58
  -4   2  -4   20.75    0.86
  -4   2  -4   20.93    0.87
  -4   2  -4   21.53    0.71
  -4   2  -4   19.95    0.76
  -4   2  -4   19.34    0.74
   4  -2   4   20.94    0.84
   4  -2   4   20.34    0.85
   4  -2   4   20.82    0.86
   4  -2   4   21.43    0.72
   4  -2   4   19.48    0.87
  -5   2  -4    6.49    0.42
  -5   2  -4    6.34    0.55
  -5   2  -4    6.11    0.45
  -5   2  -4    6.39    0.50
  -5   2  -4    7.05    0.50
   5  -2   4    7.13    0.59
   5  -2   4    6.57    0.55
   5  -2   4    6.61    0.58
   5  -2   4    5.91    0.59
  -6   2  -4    5.63    0.50
  -6   2  -4    5.10    0.64
  -6   2  -4    5.10    0.52
  -6   2  -4    5.05    0.41
   6  -2   4    5.10    0.61
   6  -2   4    4.76    0.62
   6  -2   4    6.21    0.62
  -7   2  -4    2.26    0.35
  -7   2  -4    2.43    0.53
  -7   2  -4    2.60    0.47
  -7   2  -4    2.16    0.44
   7  -2   4    2.48    0.50
   7  -2   4    2.49    0.52
   7  -2   4    2.29    0.47
   8   1  -4    0.01    0.44
  -8  -1   4    0.53    0.44
  -8  -1   4    0.15    0.29
   7   1  -4    4.42    0.73
   7   1  -4    5.06    0.79
  -7  -1   4    4.31    0.56
  -7  -1   4    3.54    0.55
  -7  -1   4    3.87    0.75
   6   1  -4    0.75    0.26
   6   1  -4    0.81    0.37
   6   1  -4    1.61    0.45
   6   1  -4    1.07    0.22
  -6  -1   4    1.24    0.45
  -6  -1   4    0.84    0.30
  -6  -1   4    0.88    0.29
   5   1  -4   42.51    1.47
   5   1  -4   41.28    1.15
   5   1  -4   40.30    1.18
   5   1  -4   41.86    1.56
   5   1  -4   38.88    1.48
   5   1  -4   40.83    1.44
  -5  -1   4   42.06    1.40
  -5  -1   4   42.02    1.58
  -5  -1   4   39.89    1.47
  -5  -1   4   40.66    1.23
   4   1  -4   31.61    1.15
   4   1  -4   31.42    1.17
   4   1  -4   30.72    1.11
   4   1  -4   32.30    0.97
   4   1  -4   30.99    1.11
   4   1  -4   31.73    0.91
   4   1  -4   31.68    1.20
  -4  -1   4   30.48    1.22
  -4  -1   4   30.00    0.92
  -4  -1   4   29.34    1.08
  -4  -1   4   29.50    1.13
  -4  -1   4   30.75    1.09
  -4  -1   4   31.36    1.06
  -4  -1   4   31.27    0.96
   3   1  -4   17.84    0.74
   3   1  -4   18.45    0.71
   3   1  -4   19.43    0.59
   3   1  -4   17.23    0.62
   3   1  -4   19.38    0.82
   3   1  -4   17.39    0.75
   3   1  -4   18.92    0.76
   3   1  -4   18.22    0.63
   3   1  -4   18.68    0.79
  -3  -1   4   17.79    0.69
  -3  -1   4   18.57    0.83
  -3  -1   4   18.56    0.67
  -3  -1   4   19.03    0.65
  -3  -1   4   18.96    0.62
  -3  -1   4   19.41    0.81
  -3  -1   4   18.12    0.74
   2   1  -4  167.57    3.27
   2   1  -4  168.52    3.29
   2   1  -4  168.55    3.08
   2   1  -4  166.07    3.09
   2   1  -4  171.28    3.25
   2   1  -4  168.51    3.30
   2   1  -4  166.65    3.23
   2   1  -4  168.14    3.20
  -2  -1   4  169.88    3.22
  -2  -1   4  165.73    3.17
  -2  -1   4  168.71    3.26
  -2  -1   4  167.29    3.11
  -2  -1   4  168.39    3.05
  -2  -1   4  169.91    3.11
  -2  -1   4  166.31    2.90
  -2  -1   4  165.69    3.35
  -2  -1   4  167.68    3.30
   1   1  -4   41.65    1.04
   1   1  -4   41.82    1.05
   1   1  -4   42.26    1.05
   1   1  -4   41.54    0.92
   1   1  -4   41.03    1.00
   1   1  -4   41.00    0.86
   1   1  -4   43.02    0.96
   1   1  -4   42.56    1.00
   1   1  -4   42.77    1.02
  -1  -1   4   40.83    0.92
  -1  -1   4   41.39    1.03
  -1  -1   4   40.82    0.81
  -1  -1   4   41.12    1.09
  -1  -1   4   40.04    1.04
  -1  -1   4   39.16    0.97
  -1  -1   4   41.53    0.94
  -1  -1   4   41.95    1.00
  -1  -1   4   41.59    0.98
  -1  -1   4   40.78    1.05
   0   1  -4   33.89    0.84
   0   1  -4   33.46    0.77
   0   1  -4   33.86    0.90
   0   1  -4   33.28    0.84
   0   1  -4   33.67    0.84
   0   1  -4   31.33    0.83
   0   1  -4   33.83    0.70
   0   1  -4   34.48    0.85
   0   1  -4   35.22    0.79
   0  -1   4   33.05    0.78
   0  -1   4   33.83    0.83
   0  -1   4   34.17    0.90
   0  -1   4   33.49    0.81
   0  -1   4   35.36    0.89
   0  -1   4   32.63    0.85
   0  -1   4   32.55    0.86
   0  -1   4   33.45    0.74
  -1   1  -4    2.29    0.22
  -1   1  -4    2.10    0.18
  -1   1  -4    2.24    0.22
  -1   1  -4    1.89    0.24
  -1   1  -4    2.30    0.14
  -1   1  -4    2.34    0.22
  -1   1  -4    2.64    0.21
  -1   1  -4    2.29    0.19
   1  -1   4    1.75    0.19
   1  -1   4    2.20    0.21
   1  -1   4    2.58    0.22
   1  -1   4    2.27    0.19
   1  -1   4    1.67    0.22
   1  -1   4    1.44    0.19
   1  -1   4    1.95    0.13
   1  -1   4    2.01    0.14
  -2   1  -4   48.56    1.26
  -2   1  -4   48.90    1.26
  -2   1  -4   50.48    1.17
  -2   1  -4   47.19    0.90
  -2   1  -4   48.62    1.25
  -2   1  -4   47.76    1.12
  -2   1  -4   47.79    1.24
   2  -1   4   46.24    1.18
   2  -1   4   46.06    1.16
   2  -1   4   46.73    1.21
   2  -1   4   45.87    1.19
   2  -1   4   48.61    1.29
   2  -1   4   47.03    1.08
  -3   1  -4   18.54    0.77
  -3   1  -4   18.31    0.76
  -3   1  -4   17.89    0.78
  -3   1  -4   17.53    0.76
  -3   1  -4   18.22    0.42
  -3   1  -4   18.03    0.68
  -3   1  -4   17.24    0.63
   3  -1   4   19.11    0.83
   3  -1   4   19.55    0.73
   3  -1   4   19.40    0.61
   3  -1   4   17.43    0.69
   3  -1   4   18.33    0.77
   3  -1   4   19.22    0.75
   3  -1   4   19.50    0.76
  -4   1  -4   23.71    0.87
  -4   1  -4   23.38    0.54
  -4   1  -4   23.22    0.81
  -4   1  -4   24.56    1.15
  -4   1  -4   23.90    0.56
  -4   1  -4   23.77    0.97
  -4   1  -4   24.18    1.04
   4  -1   4   23.29    0.95
   4  -1   4   24.02    0.90
   4  -1   4   22.94    0.73
   4  -1   4   24.85    0.95
   4  -1   4   22.02    0.99
  -5   1  -4   11.40    0.60
  -5   1  -4   11.53    0.36
  -5   1  -4   10.52    0.58
  -5   1  -4   12.31    0.67
  -5   1  -4   12.14    0.76
   5  -1   4   10.37    0.77
   5  -1   4   10.97    0.71
   5  -1   4   11.60    0.69
   5  -1   4   11.36    0.75
  -6   1  -4    5.33    0.53
  -6   1  -4    4.69    0.44
  -6   1  -4    5.83    0.51
  -6   1  -4    5.53    0.71
   6  -1   4    5.98    0.64
   6  -1   4    6.00    0.71
   6  -1   4    5.13    0.54
  -7   1  -4    2.13    0.45
  -7   1  -4    2.28    0.57
  -7   1  -4    2.38    0.40
  -7   1  -4    3.05    0.46
   7  -1   4    1.98    0.47
   7  -1   4    2.39    0.48
   7  -1   4    3.21    0.60
   8   0  -4    4.18    0.80
  -8   0   4    4.31    0.59
  -8   0   4    3.94    0.71
   7   0  -4    4.31    0.74
   7   0  -4    4.28    0.73
  -7   0   4    4.01    0.72
  -7   0   4    4.26    0.57
  -7   0   4    3.20    0.49
   6   0  -4   11.62    0.54
   6   0  -4   12.58    0.81
   6   0  -4   12.06    0.87
   6   0  -4   10.91    0.83
  -6   0   4   11.17    0.68
  -6   0   4   10.64    0.70
  -6   0   4   10.04    0.86
   5   0  -4   16.70    0.92
   5   0  -4   19.34    0.99
   5   0  -4   16.41    0.74
   5   0  -4   17.33    0.88
   5   0  -4   16.19    0.84
  -5   0   4   16.65    0.74
  -5   0   4   16.77    0.88
  -5   0   4   16.57    0.81
  -5   0   4   19.05    1.02
   4   0  -4   20.29    0.84
   4   0  -4   19.63    0.83
   4   0  -4   19.58    0.91
   4   0  -4   19.25    0.69
   4   0  -4   19.80    0.88
   4   0  -4   19.54    0.72
  -4   0   4   17.36    0.65
  -4   0   4   18.95    0.92
  -4   0   4   19.18    0.81
  -4   0   4   18.23    0.85
  -4   0   4   19.60    0.74
  -4   0   4   20.71    0.69
   3   0  -4   28.52    0.99
   3   0  -4   27.86    0.77
   3   0  -4   28.79    0.94
   3   0  -4   26.95    0.89
   3   0  -4   27.24    0.95
   3   0  -4   28.39    0.93
   3   0  -4   27.71    0.82
   3   0  -4   28.43    0.90
  -3   0   4   27.82    0.75
  -3   0   4   27.26    0.91
  -3   0   4   26.33    0.95
  -3   0   4   27.99    0.84
  -3   0   4   28.67    0.90
  -3   0   4   27.00    0.91
  -3   0   4   27.48    1.01
  -3   0   4   27.10    0.78
   2   0  -4   24.24    0.74
   2   0  -4   24.54    0.74
   2   0  -4   25.03    0.79
   2   0  -4   24.68    0.72
   2   0  -4   26.55    0.80
   2   0  -4   24.68    0.64
   2   0  -4   23.43    0.79
   2   0  -4   23.24    0.75
  -2   0   4   23.11    0.67
  -2   0   4   23.94    0.73
  -2   0   4   24.32    0.70
  -2   0   4   23.05    0.60
  -2   0   4   23.31    0.77
  -2   0   4   22.63    0.74
  -2   0   4   23.74    0.79
  -2   0   4   23.44    0.83
  -2   0   4   24.56    0.81
   1   0  -4   21.68    0.66
   1   0  -4   22.26    0.69
   1   0  -4   22.07    0.48
   1   0  -4   21.44    0.65
   1   0  -4   22.02    0.73
   1   0  -4   22.83    0.67
   1   0  -4   22.63    0.54
   1   0  -4   20.92    0.67
   1   0  -4   22.37    0.63
   1   0  -4   21.57    0.63
  -1   0   4   23.11    0.71
  -1   0   4   22.16    0.64
  -1   0   4   22.78    0.70
  -1   0   4   22.78    0.53
  -1   0   4   22.62    0.63
  -1   0   4   23.24    0.62
  -1   0   4   22.60    0.67
  -1   0   4   22.18    0.73
  -1   0   4   21.88    0.67
  -1   0   4   21.42    0.66
   0   0  -4    3.28    0.19
   0   0  -4    3.15    0.22
   0   0  -4    3.35    0.27
   0   0  -4    3.44    0.24
   0   0  -4    3.45    0.25
   0   0  -4    3.06    0.23
   0   0  -4    3.25    0.22
   0   0  -4    3.38    0.21
   0   0   4    3.56    0.26
   0   0   4    3.02    0.21
   0   0   4    3.62    0.22
   0   0   4    3.15    0.21
   0   0   4    3.26    0.23
   0   0   4    3.68    0.25
   0   0   4    3.09    0.26
   0   0   4    3.77    0.27
  -1   0  -4    9.44    0.44
  -1   0  -4    9.19    0.39
  -1   0  -4    9.29    0.41
  -1   0  -4    9.42    0.45
  -1   0  -4    9.91    0.45
  -1   0  -4    9.51    0.33
  -1   0  -4    8.86    0.40
   1   0   4    9.94    0.39
   1   0   4    9.97    0.41
   1   0   4    9.72    0.43
   1   0   4   10.13    0.44
   1   0   4    8.27    0.41
   1   0   4   10.49    0.49
   1   0   4    8.80    0.36
  -2   0  -4  134.02    2.75
  -2   0  -4  130.16    2.38
  -2   0  -4  131.65    2.62
  -2   0  -4  134.85    2.67
  -2   0  -4  127.73    2.71
  -2   0  -4  129.30    2.57
  -2   0  -4  129.90    2.74
   2   0   4  128.67    2.64
   2   0   4  132.07    2.66
   2   0   4  131.28    2.39
   2   0   4  131.47    2.79
   2   0   4  130.98    2.55
   2   0   4  131.52    2.72
   2   0   4  130.07    2.56
   2   0   4  127.31    2.66
  -3   0  -4   39.48    1.08
  -3   0  -4   39.10    1.27
  -3   0  -4   38.72    1.17
  -3   0  -4   38.51    1.26
  -3   0  -4   38.65    0.89
  -3   0  -4   35.44    1.19
  -3   0  -4   41.32    1.16
   3   0   4   37.35    0.90
   3   0   4   37.41    1.17
   3   0   4   39.14    1.26
   3   0   4   38.25    1.18
   3   0   4   38.62    1.08
   3   0   4   38.31    1.30
  -4   0  -4   29.54    1.06
  -4   0  -4   29.15    1.20
  -4   0  -4   31.64    1.18
  -4   0  -4   29.97    0.99
   4   0   4   29.93    1.11
   4   0   4   30.34    0.99
   4   0   4   30.62    1.21
   4   0   4   28.45    1.10
   4   0   4   29.73    0.81
  -5   0  -4    5.21    0.57
  -5   0  -4    5.40    0.42
  -5   0  -4    5.75    0.46
  -5   0  -4    4.45    0.47
   5   0   4    5.79    0.48
   5   0   4    4.95    0.60
   5   0   4    5.43    0.62
   5   0   4    4.36    0.87
  -6   0  -4    4.26    0.44
  -6   0  -4    4.77    0.48
  -6   0  -4    5.44    0.71
   6   0   4    3.90    0.58
   6   0   4    4.97    0.51
   6   0   4    4.42    0.61
  -7   0  -4    2.75    0.45
  -7   0  -4    3.41    0.66
   8  -1  -4    5.80    0.95
   8  -1  -4    6.87    0.98
  -8   1   4    6.18    0.91
  -8   1   4    6.72    0.63
   7  -1  -4    1.79    0.42
   7  -1  -4    2.30    0.54
   7  -1  -4    2.41    0.56
  -7   1   4    1.76    0.41
  -7   1   4    2.18    0.39
  -7   1   4    2.23    0.55
   6  -1  -4    1.11    0.39
   6  -1  -4    0.73    0.28
   6  -1  -4    0.72    0.34
  -6   1   4    0.49    0.23
  -6   1   4    0.70    0.27
  -6   1   4    0.76    0.16
  -6   1   4    1.47    0.42
   5  -1  -4    4.23    0.51
   5  -1  -4    3.83    0.53
   5  -1  -4    4.06    0.54
   5  -1  -4    3.52    0.48
  -5   1   4    3.57    0.22
  -5   1   4    3.80    0.43
  -5   1   4    3.22    0.51
  -5   1   4    3.67    0.40
  -5   1   4    4.02    0.35
   4  -1  -4   63.47    1.45
   4  -1  -4   63.71    1.61
   4  -1  -4   61.64    1.62
   4  -1  -4   61.15    1.65
   4  -1  -4   61.63    1.72
   4  -1  -4   60.11    1.75
   4  -1  -4   64.67    2.22
  -4   1   4   61.67    1.74
  -4   1   4   64.75    1.49
  -4   1   4   61.92    1.53
  -4   1   4   63.21    1.81
  -4   1   4   63.65    1.61
  -4   1   4   63.81    1.18
  -4   1   4   63.30    1.62
   3  -1  -4   11.01    0.51
   3  -1  -4   11.63    0.43
   3  -1  -4   12.19    0.57
   3  -1  -4   12.20    0.54
   3  -1  -4   11.68    0.57
   3  -1  -4   12.65    0.56
   3  -1  -4   10.86    0.57
   3  -1  -4   10.74    0.53
  -3   1   4   11.73    0.55
  -3   1   4   12.13    0.58
  -3   1   4   12.43    0.49
  -3   1   4   12.42    0.52
  -3   1   4   12.69    0.48
  -3   1   4   11.43    0.62
  -3   1   4   12.14    0.61
   2  -1  -4    0.74    0.16
   2  -1  -4    0.58    0.14
   2  -1  -4    0.51    0.14
   2  -1  -4    0.67    0.16
   2  -1  -4    0.85    0.17
   2  -1  -4    0.59    0.16
   2  -1  -4    0.95    0.17
   2  -1  -4    0.69    0.10
  -2   1   4    0.95    0.22
  -2   1   4    0.78    0.18
  -2   1   4    0.55    0.13
  -2   1   4    0.70    0.17
  -2   1   4    0.65    0.13
  -2   1   4    0.76    0.21
  -2   1   4    0.99    0.17
  -2   1   4    0.97    0.11
  -2   1   4    0.64    0.16
   1  -1  -4   39.38    1.01
   1  -1  -4   38.81    0.97
   1  -1  -4   40.05    0.98
   1  -1  -4   37.52    0.93
   1  -1  -4   37.37    0.97
   1  -1  -4   41.47    1.08
   1  -1  -4   36.83    0.97
   1  -1  -4   38.11    0.94
  -1   1   4   38.61    0.98
  -1   1   4   38.89    1.05
  -1   1   4   40.14    0.92
  -1   1   4   39.80    0.95
  -1   1   4   40.11    0.98
  -1   1   4   38.43    1.02
  -1   1   4   37.52    1.03
  -1   1   4   40.76    1.02
   0  -1  -4    9.20    0.44
   0  -1  -4    9.35    0.40
   0  -1  -4    9.87    0.43
   0  -1  -4    8.86    0.37
   0  -1  -4    9.98    0.39
   0  -1  -4    8.89    0.38
   0  -1  -4    9.31    0.42
   0  -1  -4    9.37    0.41
   0   1   4    9.72    0.41
   0   1   4    9.35    0.41
   0   1   4    8.58    0.44
   0   1   4    9.17    0.39
   0   1   4    9.34    0.42
   0   1   4    8.79    0.40
   0   1   4    8.64    0.43
   0   1   4    9.72    0.39
   0   1   4    9.16    0.41
  -1  -1  -4   16.03    0.56
  -1  -1  -4   16.86    0.64
  -1  -1  -4   15.55    0.62
  -1  -1  -4   16.03    0.63
  -1  -1  -4   14.69    0.55
  -1  -1  -4   16.07    0.58
  -1  -1  -4   15.26    0.51
   1   1   4   15.29    0.59
   1   1   4   16.04    0.52
   1   1   4   17.11    0.68
   1   1   4   16.41    0.40
   1   1   4   16.08    0.59
   1   1   4   15.78    0.58
   1   1   4   15.68    0.61
  -2  -1  -4   30.47    0.90
  -2  -1  -4   29.76    0.89
  -2  -1  -4   29.74    1.02
  -2  -1  -4   30.04    0.93
  -2  -1  -4   28.50    0.79
  -2  -1  -4   28.53    0.98
  -2  -1  -4   29.09    1.01
   2   1   4   30.77    0.97
   2   1   4   28.79    0.94
   2   1   4   30.89    0.96
   2   1   4   29.58    0.81
   2   1   4   28.89    0.63
   2   1   4   28.97    0.78
   2   1   4   29.71    0.93
   2   1   4   31.61    1.09
   2   1   4   29.53    1.00
  -3  -1  -4   55.77    1.28
  -3  -1  -4   54.89    1.48
  -3  -1  -4   53.04    1.41
  -3  -1  -4   53.77    1.58
  -3  -1  -4   55.61    1.65
  -3  -1  -4   55.67    1.46
   3   1   4   52.22    1.58
   3   1   4   54.00    1.48
   3   1   4   54.89    1.69
   3   1   4   53.34    1.52
   3   1   4   51.17    1.31
   3   1   4   53.77    1.51
   3   1   4   53.44    1.30
  -4  -1  -4    6.63    0.58
  -4  -1  -4    7.11    0.64
  -4  -1  -4    7.40    0.50
  -4  -1  -4    7.72    0.56
   4   1   4    7.67    0.59
   4   1   4    8.20    0.60
   4   1   4    7.46    0.56
   4   1   4    6.52    0.61
   4   1   4    7.90    0.46
  -5  -1  -4    5.07    0.47
  -5  -1  -4    4.84    0.57
  -5  -1  -4    4.47    0.61
   5   1   4    6.02    0.46
   5   1   4    4.93    0.62
   5   1   4    4.65    0.58
  -6  -1  -4    8.16    0.63
  -6  -1  -4    9.25    0.84
   6   1   4   10.01    0.83
   6   1   4    8.61    0.61
   6   1   4    9.26    0.78
  -7  -1  -4   10.00    0.96
   7   1   4    8.41    0.88
   8  -2  -4    1.80    0.48
   8  -2  -4    2.59    0.61
   8  -2  -4    2.99    0.67
  -8   2   4    1.85    0.55
   7  -2  -4    0.80    0.37
   7  -2  -4    1.24    0.38
   7  -2  -4    0.84    0.38
  -7   2   4    1.16    0.37
  -7   2   4    1.57    0.46
  -7   2   4    0.81    0.26
   6  -2  -4    5.99    0.62
   6  -2  -4    5.63    0.55
   6  -2  -4    5.89    0.62
  -6   2   4    6.42    0.66
  -6   2   4    6.40    0.54
  -6   2   4    6.26    0.35
  -6   2   4    6.14    0.47
   5  -2  -4   61.22    1.56
   5  -2  -4   63.31    1.92
   5  -2  -4   62.24    1.87
   5  -2  -4   66.82    1.81
   5  -2  -4   66.03    1.79
  -5   2   4   66.19    1.52
  -5   2   4   65.70    1.65
  -5   2   4   67.24    1.98
  -5   2   4   67.31    1.86
  -5   2   4   65.42    1.73
  -5   2   4   65.55    1.31
   4  -2  -4   61.16    1.57
   4  -2  -4   57.99    1.54
   4  -2  -4   60.51    1.69
   4  -2  -4   59.87    1.63
   4  -2  -4   60.74    2.09
   4  -2  -4   60.30    1.36
  -4   2   4   62.55    1.80
  -4   2   4   58.18    1.61
  -4   2   4   56.98    1.70
  -4   2   4   54.17    1.55
  -4   2   4   59.26    1.49
  -4   2   4   60.47    1.52
  -4   2   4   59.06    1.34
   3  -2  -4   25.07    0.86
   3  -2  -4   26.17    0.84
   3  -2  -4   25.18    0.65
   3  -2  -4   24.25    0.80
   3  -2  -4   25.83    0.83
   3  -2  -4   25.19    0.85
   3  -2  -4   24.90    0.88
  -3   2   4   25.19    0.80
  -3   2   4   24.65    0.97
  -3   2   4   24.86    0.68
  -3   2   4   24.88    0.78
  -3   2   4   23.66    0.79
  -3   2   4   25.73    0.88
  -3   2   4   25.33    0.93
  -3   2   4   22.57    0.82
  -3   2   4   25.73    0.75
   2  -2  -4    5.96    0.34
   2  -2  -4    4.97    0.33
   2  -2  -4    5.60    0.18
   2  -2  -4    5.86    0.39
   2  -2  -4    5.37    0.34
   2  -2  -4    5.81    0.34
   2  -2  -4    6.04    0.34
   2  -2  -4    5.70    0.34
   2  -2  -4    5.98    0.35
   2  -2  -4    5.67    0.20
  -2   2   4    6.51    0.37
  -2   2   4    5.34    0.34
  -2   2   4    6.15    0.40
  -2   2   4    6.19    0.32
  -2   2   4    6.31    0.38
  -2   2   4    6.35    0.29
  -2   2   4    5.81    0.31
  -2   2   4    6.15    0.43
   1  -2  -4   13.60    0.57
   1  -2  -4   12.81    0.49
   1  -2  -4   12.44    0.49
   1  -2  -4   13.61    0.58
   1  -2  -4   13.23    0.49
   1  -2  -4   14.25    0.50
   1  -2  -4   12.66    0.51
   1  -2  -4   13.03    0.51
  -1   2   4   12.50    0.49
  -1   2   4   13.66    0.56
  -1   2   4   13.31    0.54
  -1   2   4   12.79    0.58
  -1   2   4   12.52    0.55
  -1   2   4   14.12    0.48
  -1   2   4   13.87    0.50
   0  -2  -4   48.17    1.17
   0  -2  -4   46.46    1.20
   0  -2  -4   48.74    1.10
   0  -2  -4   48.40    1.16
   0  -2  -4   48.18    1.25
   0  -2  -4   47.58    1.14
   0  -2  -4   45.17    1.22
   0  -2  -4   50.00    1.22
   0   2   4   48.91    1.14
   0   2   4   46.49    1.25
   0   2   4   45.62    1.22
   0   2   4   47.54    1.16
   0   2   4   48.80    1.20
   0   2   4   48.01    1.18
  -1  -2  -4    8.93    0.49
  -1  -2  -4    9.67    0.44
  -1  -2  -4    9.20    0.41
  -1  -2  -4    8.71    0.43
  -1  -2  -4    8.37    0.44
  -1  -2  -4    9.61    0.51
  -1  -2  -4    8.94    0.51
   1   2   4    9.33    0.53
   1   2   4    8.96    0.45
   1   2   4    9.38    0.50
   1   2   4    9.47    0.33
   1   2   4    8.54    0.45
   1   2   4    9.68    0.47
   1   2   4    9.12    0.38
   1   2   4    9.10    0.49
  -2  -2  -4    2.72    0.33
  -2  -2  -4    2.38    0.37
  -2  -2  -4    2.12    0.27
  -2  -2  -4    2.61    0.26
  -2  -2  -4    2.70    0.26
  -2  -2  -4    2.89    0.38
   2   2   4    2.92    0.41
   2   2   4    3.26    0.32
   2   2   4    2.70    0.22
   2   2   4    2.51    0.36
   2   2   4    2.01    0.31
   2   2   4    2.51    0.32
   2   2   4    3.18    0.32
   2   2   4    2.62    0.23
  -3  -2  -4   18.59    0.81
  -3  -2  -4   17.88    0.87
  -3  -2  -4   17.70    0.69
  -3  -2  -4   17.88    0.92
  -3  -2  -4   18.03    0.73
  -3  -2  -4   18.81    0.78
   3   2   4   19.36    0.98
   3   2   4   19.12    0.63
   3   2   4   17.91    0.67
   3   2   4   20.68    0.86
   3   2   4   19.69    0.85
   3   2   4   20.73    0.89
   3   2   4   18.85    0.93
  -4  -2  -4    0.26    0.25
  -4  -2  -4    0.19    0.16
  -4  -2  -4    0.49    0.27
  -4  -2  -4    0.23    0.16
  -4  -2  -4    0.20    0.20
   4   2   4    0.23    0.34
   4   2   4    0.12    0.22
   4   2   4    0.54    0.18
   4   2   4    0.06    0.19
   4   2   4    0.29    0.24
  -5  -2  -4    1.92    0.36
  -5  -2  -4    2.40    0.53
  -5  -2  -4    1.46    0.36
   5   2   4    1.97    0.44
   5   2   4    1.38    0.38
   5   2   4    1.96    0.29
   5   2   4    2.06    0.44
  -6  -2  -4   12.78    0.81
  -6  -2  -4   12.15    0.97
   6   2   4   12.06    0.92
   6   2   4   12.64    0.95
   8  -3  -4    9.97    0.86
   8  -3  -4   10.01    0.97
  -8   3   4    9.00    0.92
   7  -3  -4    2.96    0.56
   7  -3  -4    3.23    0.52
   7  -3  -4    4.36    0.68
  -7   3   4    3.83    0.57
  -7   3   4    3.45    0.60
   6  -3  -4    4.02    0.56
   6  -3  -4    3.32    0.54
   6  -3  -4    3.45    0.49
  -6   3   4    3.86    0.35
  -6   3   4    3.57    0.48
  -6   3   4    4.54    0.62
   5  -3  -4    7.43    0.54
   5  -3  -4    6.44    0.40
   5  -3  -4    6.71    0.57
   5  -3  -4    7.48    0.58
   5  -3  -4    7.20    0.52
  -5   3   4    6.70    0.52
  -5   3   4    7.83    0.55
  -5   3   4    7.12    0.34
  -5   3   4    7.58    0.63
  -5   3   4    6.61    0.51
  -5   3   4    6.49    0.64
  -5   3   4    7.05    0.42
   4  -3  -4   36.84    1.11
   4  -3  -4   35.17    0.92
   4  -3  -4   37.30    1.19
   4  -3  -4   37.00    1.12
   4  -3  -4   34.47    1.19
  -4   3   4   35.96    1.25
  -4   3   4   35.97    1.00
  -4   3   4   35.82    1.11
  -4   3   4   35.69    1.13
  -4   3   4   38.46    1.18
  -4   3   4   36.39    1.38
  -4   3   4   36.66    0.87
   3  -3  -4   34.99    0.99
   3  -3  -4   33.27    0.97
   3  -3  -4   33.51    1.00
   3  -3  -4   33.53    0.76
   3  -3  -4   32.94    0.97
  -3   3   4   31.96    0.79
  -3   3   4   34.31    0.93
  -3   3   4   31.82    0.97
  -3   3   4   34.77    1.04
  -3   3   4   34.26    1.23
  -3   3   4   34.02    0.98
  -3   3   4   32.96    1.09
   2  -3  -4   21.12    0.83
   2  -3  -4   21.21    0.69
   2  -3  -4   20.52    0.56
   2  -3  -4   21.42    0.73
   2  -3  -4   20.32    0.71
   2  -3  -4   21.25    0.72
   2  -3  -4   20.88    0.68
   2  -3  -4   21.03    0.69
  -2   3   4   20.50    0.71
  -2   3   4   20.90    0.65
  -2   3   4   19.77    0.71
  -2   3   4   21.17    0.68
  -2   3   4   19.30    0.76
  -2   3   4   19.94    0.75
  -2   3   4   20.86    0.60
  -2   3   4   21.51    0.65
  -2   3   4   21.52    0.88
   1  -3  -4   97.41    2.09
   1  -3  -4   95.66    1.99
   1  -3  -4   94.55    2.04
   1  -3  -4   97.22    2.03
   1  -3  -4   94.54    2.19
   1  -3  -4   99.23    2.02
   1  -3  -4   94.33    1.96
   1  -3  -4   94.55    1.96
  -1   3   4   96.66    2.07
  -1   3   4   96.56    1.99
  -1   3   4   97.38    1.97
  -1   3   4   93.91    2.21
  -1   3   4   96.37    1.83
  -1   3   4   92.72    2.07
  -1   3   4   97.96    2.04
   0  -3  -4   29.91    0.94
   0  -3  -4   30.50    0.93
   0  -3  -4   29.43    0.93
   0  -3  -4   30.06    0.88
   0  -3  -4   29.45    1.00
   0  -3  -4   29.01    0.85
   0  -3  -4   29.99    0.91
   0  -3  -4   30.15    0.80
   0   3   4   28.43    0.90
   0   3   4   30.62    0.59
   0   3   4   28.38    0.85
   0   3   4   29.83    0.87
   0   3   4   28.02    0.95
   0   3   4   29.44    0.99
   0   3   4   28.16    0.95
  -1  -3  -4   19.55    0.73
  -1  -3  -4   18.96    0.63
  -1  -3  -4   19.57    0.81
  -1  -3  -4   20.44    0.72
  -1  -3  -4   19.43    0.73
  -1  -3  -4   19.41    0.78
   1   3   4   18.22    0.71
   1   3   4   20.38    0.55
   1   3   4   18.91    0.84
   1   3   4   18.00    0.69
   1   3   4   18.79    0.73
   1   3   4   20.21    0.63
   1   3   4   20.69    0.80
   1   3   4   19.62    0.82
  -2  -3  -4   10.70    0.63
  -2  -3  -4   10.18    0.48
  -2  -3  -4   10.04    0.54
  -2  -3  -4   10.15    0.55
  -2  -3  -4   10.74    0.58
  -2  -3  -4    9.90    0.65
   2   3   4   10.23    0.69
   2   3   4   11.27    0.74
   2   3   4   10.51    0.64
   2   3   4   10.90    0.59
   2   3   4   10.26    0.56
   2   3   4   10.26    0.44
   2   3   4   10.39    0.42
  -3  -3  -4    0.45    0.28
  -3  -3  -4    0.28    0.19
  -3  -3  -4    0.12    0.21
  -3  -3  -4    0.06    0.23
  -3  -3  -4    0.48    0.18
  -3  -3  -4    0.51    0.18
   3   3   4   -0.15    0.19
   3   3   4    0.22    0.25
   3   3   4    0.27    0.13
   3   3   4    0.30    0.32
   3   3   4    0.21    0.21
   3   3   4    0.34    0.15
  -4  -3  -4    1.50    0.33
  -4  -3  -4    2.05    0.44
  -4  -3  -4    1.35    0.35
   4   3   4    1.29    0.34
   4   3   4    1.28    0.21
   4   3   4    0.87    0.31
   4   3   4    1.54    0.38
  -5  -3  -4    3.76    0.52
   5   3   4    2.90    0.54
   5   3   4    3.39    0.59
   6   3   4   11.28    0.96
   8  -4  -4    0.66    0.41
   8  -4  -4    0.48    0.46
  -8   4   4    0.32    0.46
   7  -4  -4    3.95    0.58
   7  -4  -4    4.18    0.66
   7  -4  -4    4.17    0.66
  -7   4   4    2.95    0.55
  -7   4   4    3.22    0.55
   6  -4  -4    4.12    0.60
   6  -4  -4    4.72    0.62
   6  -4  -4    3.80    0.52
  -6   4   4    4.27    0.56
  -6   4   4    5.02    0.64
   5  -4  -4    3.87    0.31
   5  -4  -4    3.84    0.39
   5  -4  -4    4.39    0.52
   5  -4  -4    3.88    0.51
   5  -4  -4    4.06    0.41
  -5   4   4    4.06    0.61
  -5   4   4    2.64    0.45
  -5   4   4    4.10    0.24
  -5   4   4    4.02    0.49
  -5   4   4    3.89    0.39
   4  -4  -4    7.46    0.35
   4  -4  -4    7.66    0.49
   4  -4  -4    6.91    0.45
   4  -4  -4    7.95    0.50
   4  -4  -4    8.14    0.54
  -4   4   4    7.53    0.50
  -4   4   4    7.30    0.32
  -4   4   4    7.30    0.28
  -4   4   4    8.13    0.69
  -4   4   4    7.54    0.46
  -4   4   4    8.25    0.57
  -4   4   4    7.18    0.47
   3  -4  -4   17.63    0.49
   3  -4  -4   17.71    0.45
   3  -4  -4   18.84    0.68
   3  -4  -4   18.21    0.73
   3  -4  -4   17.66    0.69
   3  -4  -4   17.39    0.68
   3  -4  -4   17.02    0.66
  -3   4   4   17.82    0.92
  -3   4   4   17.62    0.76
  -3   4   4   18.38    0.69
  -3   4   4   17.51    0.69
  -3   4   4   18.55    0.56
  -3   4   4   17.52    0.70
   2  -4  -4   20.31    0.70
   2  -4  -4   18.88    0.67
   2  -4  -4   18.89    0.71
   2  -4  -4   18.89    0.66
   2  -4  -4   21.27    0.71
   2  -4  -4   19.11    0.75
   2  -4  -4   18.84    0.72
  -2   4   4   19.35    0.61
  -2   4   4   19.40    0.57
  -2   4   4   19.93    0.71
  -2   4   4   20.11    0.72
  -2   4   4   19.24    0.65
  -2   4   4   20.58    0.92
  -2   4   4   19.01    0.75
   1  -4  -4   13.02    0.69
   1  -4  -4   13.56    0.60
   1  -4  -4   12.73    0.51
   1  -4  -4   12.25    0.51
   1  -4  -4   13.09    0.60
   1  -4  -4   12.83    0.55
   1  -4  -4   12.22    0.55
   1  -4  -4   12.17    0.53
  -1   4   4   12.97    0.68
  -1   4   4   12.12    0.58
  -1   4   4   10.98    0.56
  -1   4   4   12.12    0.49
  -1   4   4   12.56    0.42
  -1   4   4   12.06    0.48
  -1   4   4   12.53    0.54
   0  -4  -4  111.71    2.31
   0  -4  -4  112.51    2.43
   0  -4  -4  111.73    2.45
   0  -4  -4  110.14    2.20
   0  -4  -4  110.51    2.43
   0  -4  -4  111.44    2.34
   0  -4  -4  114.43    2.78
   0   4   4  114.28    2.35
   0   4   4  110.54    2.52
   0   4   4  109.40    2.57
   0   4   4  111.94    2.34
   0   4   4  113.26    2.29
  -1  -4  -4    1.08    0.27
  -1  -4  -4    0.56    0.18
  -1  -4  -4    0.79    0.21
  -1  -4  -4    0.79    0.17
  -1  -4  -4    0.62    0.21
  -1  -4  -4    0.95    0.22
   1   4   4    0.73    0.14
   1   4   4    1.15    0.30
   1   4   4    0.56    0.17
   1   4   4    0.46    0.21
   1   4   4    0.44    0.15
   1   4   4    0.91    0.21
  -2  -4  -4    1.12    0.27
  -2  -4  -4    1.79    0.26
  -2  -4  -4    1.78    0.36
  -2  -4  -4    0.96    0.28
  -2  -4  -4    1.53    0.29
  -2  -4  -4    1.89    0.31
   2   4   4    1.50    0.35
   2   4   4    1.15    0.27
   2   4   4    1.12    0.26
   2   4   4    1.57    0.22
   2   4   4    1.23    0.36
  -3  -4  -4    1.57    0.33
  -3  -4  -4    1.27    0.31
  -3  -4  -4    1.22    0.29
  -3  -4  -4    0.76    0.29
   3   4   4    1.70    0.52
   3   4   4    1.45    0.20
   3   4   4    0.78    0.33
   3   4   4    0.96    0.29
  -4  -4  -4    6.47    0.56
  -4  -4  -4    5.62    0.58
   4   4   4    6.94    0.69
   4   4   4    5.33    0.56
  -5  -4  -4    2.85    0.51
   5   4   4    1.96    0.46
   5   4   4    2.17    0.54
   7  -5  -4    3.11    0.59
   7  -5  -4    2.82    0.54
   7  -5  -4    1.94    0.43
  -7   5   4    3.11    0.56
  -7   5   4    2.65    0.49
   6  -5  -4    0.04    0.23
   6  -5  -4   -0.10    0.19
   6  -5  -4   -0.17    0.18
  -6   5   4    0.05    0.22
  -6   5   4    0.15    0.28
   5  -5  -4    8.21    0.61
   5  -5  -4    7.55    0.55
   5  -5  -4    8.81    0.61
  -5   5   4    8.07    0.59
  -5   5   4    7.21    0.73
  -5   5   4    7.80    0.56
  -5   5   4    7.52    0.62
   4  -5  -4   -0.10    0.14
   4  -5  -4   -0.01    0.08
   4  -5  -4    0.02    0.12
   4  -5  -4    0.00    0.13
   4  -5  -4   -0.09    0.12
  -4   5   4   -0.15    0.11
  -4   5   4    0.05    0.19
  -4   5   4   -0.04    0.12
  -4   5   4   -0.08    0.21
  -4   5   4   -0.09    0.13
   3  -5  -4    3.87    0.33
   3  -5  -4    4.22    0.28
   3  -5  -4    4.09    0.33
   3  -5  -4    4.19    0.38
   3  -5  -4    4.24    0.37
  -3   5   4    4.89    0.62
  -3   5   4    3.64    0.33
  -3   5   4    3.97    0.34
  -3   5   4    4.18    0.40
  -3   5   4    3.29    0.33
   2  -5  -4   20.02    0.79
   2  -5  -4   20.12    0.76
   2  -5  -4   20.44    0.73
   2  -5  -4   19.82    0.80
   2  -5  -4   20.34    0.70
   2  -5  -4   20.92    0.74
  -2   5   4   19.80    0.75
  -2   5   4   19.77    0.52
  -2   5   4   20.52    0.69
  -2   5   4   21.32    1.01
  -2   5   4   19.62    0.53
  -2   5   4   20.13    0.79
  -2   5   4   22.09    0.75
   1  -5  -4   23.98    0.80
   1  -5  -4   23.48    0.74
   1  -5  -4   23.01    0.77
   1  -5  -4   23.55    0.89
   1  -5  -4   24.28    0.87
   1  -5  -4   23.14    0.84
  -1   5   4   22.53    0.63
  -1   5   4   23.71    0.70
  -1   5   4   22.14    0.84
  -1   5   4   23.94    1.02
  -1   5   4   23.84    0.88
  -1   5   4   23.64    0.79
  -1   5   4   23.68    0.71
   0  -5  -4   19.66    0.84
   0  -5  -4   20.04    0.81
   0  -5  -4   19.11    0.64
   0  -5  -4   19.17    0.74
   0  -5  -4   18.54    0.81
   0  -5  -4   19.64    0.75
   0   5   4   20.09    0.69
   0   5   4   19.86    0.90
   0   5   4   19.94    0.75
   0   5   4   20.01    0.94
   0   5   4   22.15    0.92
   0   5   4   22.03    0.76
  -1  -5  -4   28.01    1.04
  -1  -5  -4   27.26    0.79
  -1  -5  -4   27.05    0.95
  -1  -5  -4   27.63    1.04
  -1  -5  -4   27.50    0.97
  -1  -5  -4   26.93    1.10
   1   5   4   28.06    0.96
   1   5   4   27.69    1.07
   1   5   4   27.51    0.90
   1   5   4   27.56    1.15
   1   5   4   25.52    0.95
   1   5   4   25.60    0.72
   1   5   4   26.37    1.12
  -2  -5  -4    0.71    0.25
  -2  -5  -4    0.86    0.24
  -2  -5  -4    0.70    0.25
   2   5   4    0.13    0.22
   2   5   4    0.76    0.23
   2   5   4    0.36    0.18
  -3  -5  -4    4.82    0.49
  -3  -5  -4    4.50    0.49
  -3  -5  -4    5.18    0.53
   3   5   4    4.54    0.49
   3   5   4    4.09    0.60
  -4  -5  -4    1.42    0.38
  -4  -5  -4    1.17    0.33
  -4  -5  -4    1.28    0.33
   4   5   4    1.89    0.41
   4   5   4    0.80    0.35
   5   5   4    5.97    0.86
   7  -6  -4    3.07    0.51
  -7   6   4    3.52    0.57
   6  -6  -4    8.41    0.69
   6  -6  -4    7.82    0.69
   6  -6  -4    6.99    0.60
  -6   6   4    7.28    0.64
  -6   6   4    7.36    0.66
   5  -6  -4    2.60    0.41
   5  -6  -4    3.54    0.49
   5  -6  -4    2.27    0.37
  -5   6   4    2.81    0.45
  -5   6   4    3.73    0.53
  -5   6   4    2.27    0.54
   4  -6  -4    0.13    0.18
   4  -6  -4    0.14    0.14
   4  -6  -4   -0.05    0.13
   4  -6  -4   -0.03    0.12
  -4   6   4    0.32    0.28
  -4   6   4    0.14    0.16
  -4   6   4    0.00    0.12
  -4   6   4   -0.25    0.17
   3  -6  -4   36.11    1.06
   3  -6  -4   37.38    1.09
   3  -6  -4   36.38    1.11
   3  -6  -4   37.36    1.20
   3  -6  -4   35.27    1.05
  -3   6   4   35.51    1.00
  -3   6   4   37.88    1.09
  -3   6   4   36.29    1.12
  -3   6   4   34.07    1.46
  -3   6   4   36.00    1.16
   2  -6  -4   15.18    0.66
   2  -6  -4   15.21    0.69
   2  -6  -4   14.99    0.64
   2  -6  -4   16.37    0.77
   2  -6  -4   15.59    0.63
  -2   6   4   14.51    0.89
  -2   6   4   15.70    0.69
  -2   6   4   14.43    0.58
  -2   6   4   14.67    0.68
  -2   6   4   14.88    0.61
   1  -6  -4    9.14    0.49
   1  -6  -4    8.95    0.45
   1  -6  -4    9.38    0.57
   1  -6  -4   10.82    0.54
   1  -6  -4   10.42    0.63
  -1   6   4   10.29    0.60
  -1   6   4    9.46    0.50
  -1   6   4    9.73    0.37
  -1   6   4    9.56    0.38
  -1   6   4    9.00    0.69
  -1   6   4    9.67    0.57
   0  -6  -4    3.29    0.35
   0  -6  -4    2.57    0.40
   0  -6  -4    3.69    0.41
   0  -6  -4    3.59    0.35
   0  -6  -4    3.59    0.28
   0   6   4    3.20    0.58
   0   6   4    3.23    0.47
   0   6   4    3.01    0.28
   0   6   4    3.70    0.48
  -1  -6  -4    1.97    0.32
  -1  -6  -4    2.00    0.38
  -1  -6  -4    1.98    0.33
   1   6   4    2.26    0.31
   1   6   4    2.13    0.43
   1   6   4    2.37    0.43
  -2  -6  -4    0.94    0.30
  -2  -6  -4    0.54    0.22
  -2  -6  -4    0.71    0.26
   2   6   4    0.66    0.25
   2   6   4    0.64    0.22
   2   6   4    0.35    0.28
  -3  -6  -4    2.04    0.40
  -3  -6  -4    1.34    0.36
  -3  -6  -4    2.12    0.43
   3   6   4    1.43    0.44
   3   6   4    2.23    0.40
   3   6   4    1.57    0.35
  -4  -6  -4    6.68    0.67
  -4  -6  -4    6.28    0.62
   4   6   4    6.50    0.64
   4   6   4    6.58    0.77
   6  -7  -4    3.38    0.50
  -6   7   4    3.13    0.51
  -6   7   4    3.29    0.48
   5  -7  -4    4.69    0.48
   5  -7  -4    4.80    0.49
  -5   7   4    3.79    0.54
  -5   7   4    4.92    0.80
  -5   7   4    4.31    0.50
   4  -7  -4    9.02    0.59
   4  -7  -4   10.44    0.65
   4  -7  -4    9.66    0.57
  -4   7   4    9.04    0.60
  -4   7   4   10.58    0.61
  -4   7   4    9.42    0.89
  -4   7   4    9.25    0.62
   3  -7  -4   10.55    0.55
   3  -7  -4   11.16    0.67
   3  -7  -4   10.68    0.58
  -3   7   4   10.46    0.61
  -3   7   4   10.40    0.58
  -3   7   4   10.85    0.88
  -3   7   4   10.00    0.54
   2  -7  -4    9.76    0.53
   2  -7  -4   10.16    0.53
   2  -7  -4    9.89    0.64
  -2   7   4    9.54    0.58
  -2   7   4    8.97    0.57
  -2   7   4    9.10    0.77
   1  -7  -4    3.92    0.37
   1  -7  -4    3.70    0.35
   1  -7  -4    4.54    0.48
  -1   7   4    4.72    0.44
  -1   7   4    3.51    0.56
   0  -7  -4    4.97    0.44
   0  -7  -4    6.63    0.49
   0  -7  -4    6.02    0.56
   0   7   4    5.72    0.61
   0   7   4    5.86    0.73
   0   7   4    5.37    0.51
  -1  -7  -4    5.28    0.55
  -1  -7  -4    6.58    0.53
  -1  -7  -4    5.47    0.49
   1   7   4    6.44    0.60
   1   7   4    5.20    0.62
   1   7   4    6.02    0.42
  -2  -7  -4    2.52    0.42
  -2  -7  -4    1.78    0.35
  -2  -7  -4    2.14    0.42
   2   7   4    2.20    0.35
   2   7   4    1.55    0.40
   2   7   4    2.05    0.53
  -3  -7  -4    3.15    0.54
  -3  -7  -4    1.94    0.45
  -3  -7  -4    2.52    0.46
   3   7   4    1.94    0.42
   3   7   4    1.88    0.53
   3   7   4    1.66    0.37
  -6   8   4    2.08    0.44
  -6   8   4    1.60    0.33
   5  -8  -4    3.00    0.45
  -5   8   4    2.92    0.47
  -5   8   4    3.36    0.42
   4  -8  -4    1.47    0.33
   4  -8  -4    1.82    0.33
  -4   8   4    2.28    0.59
  -4   8   4    2.54    0.37
  -4   8   4    2.21    0.38
   3  -8  -4    0.65    0.20
   3  -8  -4    0.50    0.25
  -3   8   4    0.37    0.35
  -3   8   4    0.55    0.26
   2  -8  -4    1.94    0.33
   2  -8  -4    2.44    0.35
   2  -8  -4    1.63    0.37
  -2   8   4    1.93    0.36
  -2   8   4    1.13    0.37
   1  -8  -4    3.48    0.37
   1  -8  -4    3.03    0.38
   1  -8  -4    3.08    0.47
  -1   8   4    2.02    0.47
  -1   8   4    3.04    0.44
   0  -8  -4   15.32    0.90
   0  -8  -4   15.32    0.76
   0  -8  -4   14.60    0.74
   0   8   4   15.27    1.01
   0   8   4   14.96    0.81
   0   8   4   14.79    0.98
  -1  -8  -4    7.07    0.57
  -1  -8  -4    6.77    0.67
  -1  -8  -4    7.10    0.57
   1   8   4    8.29    0.75
   1   8   4    5.60    0.76
  -2  -8  -4    9.82    0.72
  -2  -8  -4   10.65    1.05
   2   8   4    9.30    0.80
  -4   9   4    7.70    0.53
  -3   9   4    2.25    0.61
  -3   9   4    2.89    0.41
   2  -9  -4    3.40    0.77
  -2   9   4    2.06    0.37
  -2   9   4    1.71    0.46
  -1   9   4    9.59    0.66
  -1   9   4    9.44    0.88
   0  -9  -4    0.94    0.29
   0   9   4    1.10    0.36
   0   9   4    0.60    0.34
  -1  -9  -4    2.00    0.42
   1   9   4    1.87    0.47
   0 -13   5    3.66    0.55
  -1  13  -5    3.97    0.68
   1 -13   5    4.44    0.62
   2 -13   5   10.04    0.74
   3 -13   5    0.08    0.20
   3 -13   5    0.01    0.25
   1  12  -5   -0.24    0.19
  -1 -12   5   -0.08    0.15
   0  12  -5    5.71    0.64
   0 -12   5    5.74    0.55
   0 -12   5    5.28    0.45
  -1  12  -5    5.41    0.62
   1 -12   5    4.61    0.35
   1 -12   5    5.16    0.52
   2 -12   5    0.56    0.24
   3 -12   5    0.41    0.21
   3 -12   5    0.62    0.29
   3 -12   5    0.69    0.27
   4 -12   5   -0.09    0.20
   4 -12   5    0.09    0.20
   5 -12   5    1.51    0.52
  -3 -11   5    4.09    0.64
   2  11  -5    2.53    0.50
  -2 -11   5    3.21    0.51
  -2 -11   5    3.85    0.57
  -2 -11   5    3.21    0.53
   1  11  -5    1.50    0.43
  -1 -11   5    1.66    0.36
  -1 -11   5    1.11    0.28
  -1 -11   5    2.17    0.41
   0  11  -5    1.13    0.32
   0  11  -5    1.45    0.25
   0 -11   5    0.95    0.28
   0 -11   5    1.85    0.33
  -1  11  -5    3.00    0.47
   1 -11   5    3.55    0.31
   1 -11   5    3.77    0.29
   1 -11   5    3.15    0.31
   1 -11   5    4.70    0.59
   2 -11   5   14.72    0.48
   2 -11   5   13.78    0.82
   2 -11   5   15.08    0.41
   2 -11   5   14.87    0.72
   3 -11   5    2.11    0.38
   3 -11   5    2.99    0.51
   3 -11   5    2.66    0.43
   4 -11   5   11.20    0.62
   4 -11   5   10.91    0.76
   4 -11   5   10.41    0.74
   5 -11   5    3.57    0.56
   5 -11   5    4.38    0.62
  -4 -10   5    0.27    0.34
  -4 -10   5    0.18    0.28
   3  10  -5    1.03    0.36
  -3 -10   5    2.13    0.48
  -3 -10   5    0.96    0.30
  -3 -10   5    1.17    0.36
   2  10  -5    0.92    0.39
   2  10  -5    2.14    0.49
  -2 -10   5    1.10    0.33
  -2 -10   5    1.26    0.36
  -2 -10   5    0.98    0.30
   1  10  -5    9.59    0.74
   1  10  -5    9.19    0.82
  -1 -10   5    8.53    0.61
  -1 -10   5    9.01    0.63
  -1 -10   5    8.89    0.61
   0  10  -5   10.14    0.83
   0  10  -5    8.02    0.45
   0  10  -5    7.47    0.62
   0 -10   5    8.12    0.52
   0 -10   5    7.78    0.49
   0 -10   5    8.21    0.52
   0 -10   5    7.95    0.37
   0 -10   5    8.10    0.59
  -1  10  -5   24.57    1.08
  -1  10  -5   25.52    1.30
   1 -10   5   27.07    0.88
   1 -10   5   25.97    0.85
   1 -10   5   27.20    1.10
   1 -10   5   25.61    0.77
   1 -10   5   25.52    0.85
   1 -10   5   26.78    0.96
  -2  10  -5    7.14    0.68
   2 -10   5    7.19    0.56
   2 -10   5    6.95    0.28
   2 -10   5    7.66    0.51
   2 -10   5    7.22    0.35
   3 -10   5    5.64    0.46
   3 -10   5    4.92    0.49
   3 -10   5    5.47    0.52
   4 -10   5   11.41    0.77
   4 -10   5   11.81    0.58
   4 -10   5   11.10    0.75
  -5  10  -5    1.15    0.41
   5 -10   5    1.11    0.17
   5 -10   5    1.73    0.43
   5 -10   5    0.83    0.14
  -6  10  -5   -0.02    0.33
   5   9  -5    0.42    0.26
  -5  -9   5    0.28    0.32
   4   9  -5    2.41    0.51
   4   9  -5    2.89    0.46
  -4  -9   5    2.84    0.56
  -4  -9   5    2.90    0.55
  -4  -9   5    3.03    0.45
   3   9  -5    3.69    0.40
   3   9  -5    3.33    0.62
   3   9  -5    4.34    0.67
  -3  -9   5    3.00    0.42
  -3  -9   5    4.94    0.64
  -3  -9   5    4.71    0.64
   2   9  -5   24.67    0.76
   2   9  -5   23.02    1.13
   2   9  -5   24.64    1.25
  -2  -9   5   23.97    1.02
  -2  -9   5   23.63    1.07
  -2  -9   5   25.31    1.12
   1   9  -5    2.36    0.48
   1   9  -5    1.44    0.25
   1   9  -5    1.53    0.29
   1   9  -5    1.73    0.39
  -1  -9   5    2.05    0.35
  -1  -9   5    1.63    0.31
  -1  -9   5    2.02    0.38
  -1  -9   5    1.12    0.27
  -1  -9   5    1.69    0.16
   0   9  -5    7.14    0.42
   0   9  -5    6.79    0.56
   0   9  -5    5.95    0.63
   0   9  -5    6.78    0.32
   0  -9   5    7.12    0.53
   0  -9   5    6.95    0.45
   0  -9   5    7.22    0.44
   0  -9   5    6.92    0.47
   0  -9   5    7.68    0.39
   0  -9   5    6.56    0.46
   0  -9   5    7.09    0.36
   0  -9   5    7.16    0.47
  -1   9  -5   11.22    0.80
  -1   9  -5   10.97    0.65
   1  -9   5   11.63    0.56
   1  -9   5   12.12    0.69
   1  -9   5   12.31    0.53
   1  -9   5   11.99    0.50
   1  -9   5   11.71    0.46
   1  -9   5   11.80    0.60
   1  -9   5   11.56    0.53
  -2   9  -5   21.30    1.08
   2  -9   5   21.67    0.87
   2  -9   5   20.78    0.64
   2  -9   5   22.02    0.96
   2  -9   5   21.80    0.64
   2  -9   5   22.00    0.63
   2  -9   5   21.00    0.56
  -3   9  -5    4.23    0.61
   3  -9   5    4.34    0.25
   3  -9   5    4.31    0.25
   3  -9   5    5.22    0.48
   3  -9   5    4.31    0.56
   3  -9   5    4.10    0.24
   3  -9   5    3.80    0.22
  -4   9  -5    0.48    0.28
   4  -9   5    0.31    0.12
   4  -9   5    0.30    0.11
   4  -9   5    0.11    0.11
   4  -9   5    0.04    0.20
  -5   9  -5    4.59    0.68
   5  -9   5    4.31    0.29
   5  -9   5    5.93    0.71
   5  -9   5    5.05    0.37
  -6   9  -5    1.70    0.48
   6  -9   5    0.70    0.35
   6  -9   5    1.05    0.21
  -7   9  -5    4.62    0.36
   5   8  -5    7.08    0.80
   5   8  -5    6.17    0.75
  -5  -8   5    7.03    0.66
  -5  -8   5    6.20    0.80
  -5  -8   5    8.27    0.85
   4   8  -5    1.03    0.33
   4   8  -5    0.87    0.33
   4   8  -5    0.85    0.35
  -4  -8   5    0.61    0.28
  -4  -8   5    0.82    0.32
  -4  -8   5    1.60    0.45
   3   8  -5    5.46    0.49
   3   8  -5    6.35    0.75
   3   8  -5    6.52    0.63
  -3  -8   5    4.83    0.63
  -3  -8   5    5.26    0.65
  -3  -8   5    4.88    0.47
   2   8  -5   10.29    0.53
   2   8  -5    9.95    0.65
   2   8  -5   10.45    0.41
   2   8  -5   10.52    0.48
   2   8  -5   10.49    0.64
   2   8  -5    9.85    0.75
   2   8  -5   10.37    0.71
  -2  -8   5   10.51    0.69
  -2  -8   5   11.23    0.69
  -2  -8   5   10.35    0.63
  -2  -8   5   10.67    0.69
  -2  -8   5   11.24    0.75
   1   8  -5    7.65    0.32
   1   8  -5    8.52    0.49
   1   8  -5    7.66    0.50
   1   8  -5    8.12    0.30
   1   8  -5    7.77    0.41
   1   8  -5    7.83    0.67
   1   8  -5    7.61    0.56
  -1  -8   5    7.96    0.54
  -1  -8   5    7.59    0.51
  -1  -8   5    7.38    0.50
  -1  -8   5    8.32    0.57
  -1  -8   5    7.62    0.33
  -1  -8   5    7.87    0.54
   0   8  -5    6.40    0.38
   0   8  -5    5.30    0.45
   0   8  -5    5.28    0.55
   0   8  -5    6.51    0.35
   0  -8   5    6.02    0.40
   0  -8   5    5.98    0.43
   0  -8   5    5.47    0.41
   0  -8   5    5.53    0.45
   0  -8   5    6.65    0.35
   0  -8   5    6.95    0.43
   0  -8   5    6.56    0.36
  -1   8  -5   31.51    1.29
  -1   8  -5   32.69    1.07
   1  -8   5   31.32    0.91
   1  -8   5   29.93    1.09
   1  -8   5   31.17    0.83
   1  -8   5   30.49    0.85
   1  -8   5   32.88    0.98
   1  -8   5   30.45    1.03
   1  -8   5   31.61    0.89
   1  -8   5   32.05    0.89
  -2   8  -5   12.64    0.79
   2  -8   5   12.88    0.65
   2  -8   5   14.45    0.73
   2  -8   5   12.77    0.48
   2  -8   5   13.02    0.45
   2  -8   5   13.35    0.65
   2  -8   5   12.89    0.45
   2  -8   5   12.09    0.70
   2  -8   5   13.29    0.43
  -3   8  -5   28.45    1.21
  -3   8  -5   27.93    1.15
   3  -8   5   26.68    1.08
   3  -8   5   27.50    0.70
   3  -8   5   27.75    0.74
   3  -8   5   28.52    0.74
   3  -8   5   26.70    1.07
   3  -8   5   27.15    0.98
   3  -8   5   28.66    0.74
  -4   8  -5    7.01    0.66
  -4   8  -5    7.67    0.59
   4  -8   5    7.69    0.36
   4  -8   5    7.51    0.40
   4  -8   5    7.16    0.34
   4  -8   5    7.94    0.42
   4  -8   5    7.14    0.36
   4  -8   5    8.17    0.64
   4  -8   5    6.62    0.53
  -5   8  -5    6.94    0.38
  -5   8  -5    6.48    0.68
   5  -8   5    7.38    0.47
   5  -8   5    6.30    0.39
   5  -8   5    7.48    0.69
   5  -8   5    6.93    0.47
  -6   8  -5    1.41    0.26
  -6   8  -5    1.29    0.42
   6  -8   5    1.50    0.44
   6  -8   5    0.77    0.22
  -7   8  -5    6.71    0.50
  -7   8  -5    5.82    0.90
   6   7  -5    1.98    0.69
   5   7  -5    9.68    0.76
   5   7  -5   10.35    0.83
  -5  -7   5   11.70    0.88
  -5  -7   5   10.36    0.71
  -5  -7   5   10.94    0.91
   4   7  -5   16.71    0.94
   4   7  -5   14.95    0.88
  -4  -7   5   15.54    0.94
  -4  -7   5   15.14    0.81
  -4  -7   5   16.10    0.99
   3   7  -5    5.39    0.48
   3   7  -5    6.62    0.59
   3   7  -5    7.41    0.64
   3   7  -5    5.81    0.30
   3   7  -5    5.72    0.50
  -3  -7   5    5.72    0.55
  -3  -7   5    6.10    0.59
  -3  -7   5    6.35    0.51
  -3  -7   5    5.63    0.54
  -3  -7   5    6.44    0.63
   2   7  -5    6.86    0.47
   2   7  -5    7.74    0.66
   2   7  -5    7.86    0.37
   2   7  -5    5.72    0.48
   2   7  -5    7.48    0.56
   2   7  -5    7.66    0.56
   2   7  -5    8.43    0.44
  -2  -7   5    6.98    0.50
  -2  -7   5    7.86    0.55
  -2  -7   5    8.20    0.63
  -2  -7   5    8.46    0.58
  -2  -7   5    7.94    0.59
   1   7  -5   86.60    2.03
   1   7  -5   87.49    1.84
   1   7  -5   86.29    1.70
   1   7  -5   84.11    2.30
   1   7  -5   83.64    1.80
   1   7  -5   86.77    2.01
   1   7  -5   86.51    2.12
  -1  -7   5   83.39    1.70
  -1  -7   5   81.37    2.07
  -1  -7   5   83.96    2.10
  -1  -7   5   86.03    2.08
  -1  -7   5   86.56    2.06
  -1  -7   5   85.66    2.02
  -1  -7   5   85.63    2.02
   0   7  -5    1.78    0.25
   0   7  -5    1.67    0.30
   0   7  -5    1.91    0.27
   0   7  -5    1.98    0.26
   0   7  -5    1.58    0.37
   0  -7   5    2.28    0.34
   0  -7   5    1.96    0.24
   0  -7   5    1.95    0.27
   0  -7   5    1.49    0.27
   0  -7   5    2.24    0.28
   0  -7   5    2.19    0.31
   0  -7   5    2.29    0.28
  -1   7  -5   12.96    0.43
  -1   7  -5   12.24    0.73
  -1   7  -5   12.36    0.63
  -1   7  -5   12.73    0.57
   1  -7   5   13.43    0.58
   1  -7   5   13.51    0.47
   1  -7   5   13.37    0.53
   1  -7   5   13.83    0.53
   1  -7   5   13.18    0.62
   1  -7   5   12.66    0.50
   1  -7   5   13.84    0.49
   1  -7   5   12.71    0.56
   1  -7   5   13.09    0.65
  -2   7  -5   16.41    0.84
  -2   7  -5   14.44    0.79
   2  -7   5   16.42    0.51
   2  -7   5   17.50    0.91
   2  -7   5   16.32    0.50
   2  -7   5   16.58    0.76
   2  -7   5   17.01    0.73
   2  -7   5   16.46    0.54
   2  -7   5   15.42    0.51
   2  -7   5   16.48    0.66
   2  -7   5   16.46    0.55
  -3   7  -5   11.08    0.69
  -3   7  -5   11.00    0.46
  -3   7  -5   12.66    0.76
   3  -7   5   12.28    0.68
   3  -7   5   12.33    0.58
   3  -7   5   12.30    0.45
   3  -7   5   11.72    0.45
   3  -7   5   12.74    0.48
   3  -7   5   11.40    0.46
   3  -7   5   11.76    0.42
   3  -7   5   11.50    0.45
  -4   7  -5   17.59    0.93
  -4   7  -5   18.09    0.62
  -4   7  -5   18.11    0.83
   4  -7   5   19.13    0.69
   4  -7   5   17.44    0.61
   4  -7   5   18.19    0.63
   4  -7   5   17.90    0.47
   4  -7   5   17.43    0.68
   4  -7   5   16.89    0.89
   4  -7   5   17.95    0.75
   4  -7   5   19.17    0.64
  -5   7  -5   36.66    1.06
  -5   7  -5   40.84    1.53
   5  -7   5   39.17    1.20
   5  -7   5   37.85    1.10
   5  -7   5   35.47    1.20
   5  -7   5   42.11    1.55
  -6   7  -5   14.48    0.69
  -6   7  -5   14.93    0.97
   6  -7   5   15.24    0.99
   6  -7   5   16.18    0.83
   6  -7   5   15.14    0.72
  -7   7  -5    4.58    0.47
  -7   7  -5    6.57    0.72
   6   6  -5    9.33    0.87
  -6  -6   5    8.35    0.80
  -6  -6   5    9.74    0.73
   5   6  -5   16.62    0.90
   5   6  -5   16.78    1.02
  -5  -6   5   17.36    1.09
  -5  -6   5   17.15    0.88
  -5  -6   5   16.97    1.03
   4   6  -5   27.90    1.21
   4   6  -5   27.63    1.07
   4   6  -5   27.59    1.19
   4   6  -5   29.91    1.30
  -4  -6   5   25.88    1.19
  -4  -6   5   28.61    1.09
  -4  -6   5   34.09    1.45
  -4  -6   5   29.14    1.31
   3   6  -5    2.88    0.46
   3   6  -5    2.35    0.44
   3   6  -5    2.04    0.39
   3   6  -5    3.63    0.47
   3   6  -5    1.94    0.32
   3   6  -5    2.54    0.22
  -3  -6   5    1.58    0.29
  -3  -6   5    2.41    0.42
  -3  -6   5    2.07    0.40
  -3  -6   5    2.05    0.41
  -3  -6   5    3.40    0.54
   2   6  -5    0.18    0.13
   2   6  -5    0.83    0.28
   2   6  -5    0.94    0.24
   2   6  -5    0.50    0.20
   2   6  -5    0.59    0.22
   2   6  -5    0.79    0.18
   2   6  -5    0.47    0.13
  -2  -6   5    0.68    0.23
  -2  -6   5    1.12    0.26
  -2  -6   5    0.58    0.20
  -2  -6   5    1.19    0.27
  -2  -6   5    0.59    0.25
   1   6  -5   22.04    0.70
   1   6  -5   22.64    0.66
   1   6  -5   21.82    0.82
   1   6  -5   22.90    0.82
   1   6  -5   21.52    0.82
   1   6  -5   21.61    0.75
   1   6  -5   22.40    0.74
   1   6  -5   21.93    0.95
  -1  -6   5   21.40    0.81
  -1  -6   5   22.34    0.88
  -1  -6   5   22.87    0.87
  -1  -6   5   20.17    0.81
  -1  -6   5   21.04    0.86
  -1  -6   5   21.73    0.80
  -1  -6   5   22.09    0.63
  -1  -6   5   22.73    0.81
  -1  -6   5   21.89    0.91
   0   6  -5   35.89    0.89
   0   6  -5   37.31    0.88
   0   6  -5   36.73    1.04
   0   6  -5   36.64    1.26
   0   6  -5   36.51    0.80
   0   6  -5   37.49    1.03
   0   6  -5   38.71    1.07
   0   6  -5   39.26    1.01
   0  -6   5   37.55    1.06
   0  -6   5   36.37    1.17
   0  -6   5   34.86    1.14
   0  -6   5   35.57    0.99
   0  -6   5   36.71    0.98
   0  -6   5   36.67    1.07
   0  -6   5   36.52    1.02
   0  -6   5   36.53    1.12
   0  -6   5   35.20    0.95
  -1   6  -5   21.91    0.92
  -1   6  -5   20.85    0.67
  -1   6  -5   22.13    0.90
  -1   6  -5   21.54    0.58
  -1   6  -5   21.49    0.82
  -1   6  -5   22.31    0.66
   1  -6   5   22.61    0.86
   1  -6   5   22.47    0.76
   1  -6   5   22.59    0.65
   1  -6   5   21.00    0.81
   1  -6   5   21.16    0.82
   1  -6   5   22.04    0.63
   1  -6   5   22.10    0.66
   1  -6   5   21.82    0.68
   1  -6   5   22.11    0.71
  -2   6  -5    6.95    0.51
  -2   6  -5    6.29    0.29
  -2   6  -5    5.95    0.46
  -2   6  -5    6.06    0.34
  -2   6  -5    6.37    0.29
  -2   6  -5    6.03    0.48
   2  -6   5    6.41    0.32
   2  -6   5    6.19    0.34
   2  -6   5    6.26    0.30
   2  -6   5    6.33    0.32
   2  -6   5    7.58    0.47
   2  -6   5    6.74    0.35
   2  -6   5    6.41    0.30
  -3   6  -5   16.48    0.81
  -3   6  -5   16.56    0.77
  -3   6  -5   17.02    0.51
  -3   6  -5   17.14    0.59
   3  -6   5   15.51    0.53
   3  -6   5   16.93    0.62
   3  -6   5   16.12    0.58
   3  -6   5   16.62    0.47
   3  -6   5   16.17    0.59
   3  -6   5   17.20    0.79
   3  -6   5   16.43    0.57
   3  -6   5   16.47    0.58
  -4   6  -5    6.07    0.46
  -4   6  -5    6.88    0.56
  -4   6  -5    6.20    0.39
  -4   6  -5    6.09    0.31
   4  -6   5    6.12    0.37
   4  -6   5    5.86    0.40
   4  -6   5    5.97    0.38
   4  -6   5    5.92    0.53
   4  -6   5    6.29    0.41
   4  -6   5    5.70    0.41
  -5   6  -5    6.68    0.40
  -5   6  -5    6.14    0.44
  -5   6  -5    7.29    0.64
  -5   6  -5    6.21    0.43
   5  -6   5    6.39    0.49
   5  -6   5    5.97    0.44
   5  -6   5    5.50    0.48
   5  -6   5    7.54    0.65
  -6   6  -5   38.57    1.25
  -6   6  -5   37.51    1.50
   6  -6   5   38.60    1.28
   6  -6   5   37.32    1.35
   6  -6   5   36.50    1.53
  -7   6  -5    0.53    0.37
  -7   6  -5    0.90    0.34
   7  -6   5    1.61    0.44
   7  -6   5    1.11    0.34
   7  -6   5    2.98    0.58
  -7  -5   5    2.96    0.49
   6   5  -5    7.27    0.78
  -6  -5   5    6.85    0.60
  -6  -5   5    8.32    0.75
   5   5  -5    4.62    0.58
   5   5  -5    4.14    0.62
   5   5  -5    4.35    0.65
  -5  -5   5    2.90    0.41
  -5  -5   5    3.64    0.56
  -5  -5   5    3.40    0.60
  -5  -5   5    3.86    0.62
   4   5  -5   19.61    1.02
   4   5  -5   18.33    1.01
   4   5  -5   21.00    1.04
   4   5  -5   18.23    0.62
   4   5  -5   18.15    0.90
  -4  -5   5   18.45    0.82
  -4  -5   5   18.95    1.06
  -4  -5   5   19.23    0.99
  -4  -5   5   18.47    1.01
  -4  -5   5   16.89    0.93
   3   5  -5   39.57    1.35
   3   5  -5   37.77    0.95
   3   5  -5   39.51    1.34
   3   5  -5   40.24    1.38
   3   5  -5   38.52    1.19
   3   5  -5   38.57    1.29
   3   5  -5   38.49    1.37
  -3  -5   5   37.46    1.30
  -3  -5   5   39.30    1.43
  -3  -5   5   38.62    1.20
  -3  -5   5   37.88    1.37
  -3  -5   5   37.67    1.32
   2   5  -5    7.87    0.53
   2   5  -5    8.35    0.44
   2   5  -5    7.74    0.56
   2   5  -5    8.80    0.38
   2   5  -5    7.85    0.48
   2   5  -5    7.83    0.49
   2   5  -5    7.41    0.50
   2   5  -5    7.85    0.51
  -2  -5   5    7.37    0.53
  -2  -5   5    7.78    0.50
  -2  -5   5    6.91    0.54
  -2  -5   5    8.59    0.49
  -2  -5   5    8.42    0.52
  -2  -5   5    8.46    0.55
  -2  -5   5    8.18    0.51
   1   5  -5   53.73    1.57
   1   5  -5   54.74    1.39
   1   5  -5   57.80    1.31
   1   5  -5   55.45    1.36
   1   5  -5   55.61    1.42
   1   5  -5   54.74    1.48
   1   5  -5   58.24    1.29
   1   5  -5   55.67    1.44
  -1  -5   5   59.84    1.54
  -1  -5   5   57.10    1.49
  -1  -5   5   58.00    1.26
  -1  -5   5   57.66    1.43
  -1  -5   5   58.72    1.45
  -1  -5   5   57.38    1.47
  -1  -5   5   57.90    1.46
  -1  -5   5   55.69    1.52
   0   5  -5   28.95    0.88
   0   5  -5   29.76    0.88
   0   5  -5   30.84    1.07
   0   5  -5   28.57    0.82
   0   5  -5   29.72    0.74
   0   5  -5   29.35    0.85
   0   5  -5   29.83    0.78
   0   5  -5   31.88    0.83
   0  -5   5   29.90    0.89
   0  -5   5   30.55    0.93
   0  -5   5   31.15    0.95
   0  -5   5   28.88    0.84
   0  -5   5   30.74    0.86
   0  -5   5   28.71    0.92
   0  -5   5   27.53    0.92
   0  -5   5   31.09    0.85
   0  -5   5   29.73    0.82
   0  -5   5   29.22    0.84
  -1   5  -5    8.77    0.39
  -1   5  -5    8.27    0.52
  -1   5  -5    9.12    0.35
  -1   5  -5    8.39    0.32
  -1   5  -5    8.68    0.48
  -1   5  -5    8.32    0.50
  -1   5  -5    9.55    0.36
   1  -5   5    8.37    0.43
   1  -5   5    7.89    0.40
   1  -5   5    7.93    0.47
   1  -5   5    8.44    0.36
   1  -5   5    8.31    0.41
   1  -5   5    8.30    0.39
   1  -5   5    8.91    0.47
   1  -5   5    8.18    0.47
   1  -5   5    8.59    0.36
   1  -5   5    8.27    0.36
  -2   5  -5   71.22    1.49
  -2   5  -5   75.03    1.84
  -2   5  -5   72.43    1.40
  -2   5  -5   74.80    1.86
  -2   5  -5   72.06    1.58
  -2   5  -5   70.71    1.40
  -2   5  -5   72.14    1.52
  -2   5  -5   74.16    1.81
   2  -5   5   71.02    1.46
   2  -5   5   71.19    1.46
   2  -5   5   70.32    1.47
   2  -5   5   71.15    1.53
   2  -5   5   69.78    1.56
   2  -5   5   71.00    1.54
   2  -5   5   71.18    1.51
   2  -5   5   70.23    1.73
   2  -5   5   72.91    1.68
   2  -5   5   73.33    1.75
  -3   5  -5    4.85    0.23
  -3   5  -5    4.36    0.32
  -3   5  -5    4.21    0.24
  -3   5  -5    4.51    0.42
  -3   5  -5    4.85    0.28
  -3   5  -5    4.13    0.38
   3  -5   5    4.26    0.31
   3  -5   5    4.61    0.29
   3  -5   5    4.74    0.29
   3  -5   5    4.33    0.33
   3  -5   5    4.67    0.42
   3  -5   5    4.73    0.33
  -4   5  -5    0.78    0.15
  -4   5  -5    0.52    0.11
  -4   5  -5    0.43    0.17
  -4   5  -5    0.78    0.20
  -4   5  -5    0.54    0.15
  -4   5  -5    0.42    0.22
   4  -5   5    0.90    0.23
   4  -5   5    0.71    0.21
   4  -5   5    0.79    0.26
   4  -5   5    0.78    0.21
  -5   5  -5   10.92    0.42
  -5   5  -5   10.76    0.49
  -5   5  -5   11.16    0.74
  -5   5  -5   10.82    0.61
   5  -5   5   12.36    0.68
   5  -5   5   10.04    0.72
   5  -5   5   10.44    0.60
   5  -5   5   10.90    0.67
  -6   5  -5    7.29    0.68
  -6   5  -5    7.89    0.61
   6  -5   5    7.32    0.69
   6  -5   5    8.11    0.66
   6  -5   5    7.47    0.59
  -7   5  -5    0.21    0.28
  -7   5  -5    0.68    0.36
   7  -5   5    0.42    0.34
   7  -5   5    0.25    0.28
   7  -5   5    0.32    0.31
  -7  -4   5    2.99    0.50
   6   4  -5    4.30    0.67
   6   4  -5    4.09    0.62
  -6  -4   5    3.78    0.48
  -6  -4   5    5.26    0.79
  -6  -4   5    4.56    0.65
   5   4  -5    5.87    0.64
   5   4  -5    6.46    0.69
   5   4  -5    6.12    0.52
  -5  -4   5    7.43    0.76
  -5  -4   5    5.88    0.49
  -5  -4   5    7.06    0.67
  -5  -4   5    6.21    0.65
  -5  -4   5    8.07    0.69
   4   4  -5    8.51    0.41
   4   4  -5    9.15    0.60
   4   4  -5    7.44    0.63
   4   4  -5    8.48    0.62
   4   4  -5    7.65    0.64
   4   4  -5    8.50    0.65
  -4  -4   5    7.48    0.50
  -4  -4   5    6.99    0.58
  -4  -4   5    8.49    0.67
  -4  -4   5    6.08    0.63
  -4  -4   5    7.62    0.60
   3   4  -5   15.42    0.74
   3   4  -5   14.86    0.67
   3   4  -5   12.67    0.73
   3   4  -5   14.29    0.78
   3   4  -5   13.79    0.75
   3   4  -5   14.21    0.72
   3   4  -5   14.01    0.51
  -3  -4   5   13.99    0.72
  -3  -4   5   14.25    0.73
  -3  -4   5   14.12    0.77
  -3  -4   5   13.99    0.63
  -3  -4   5   12.08    0.76
   2   4  -5   30.25    0.91
   2   4  -5   29.49    0.80
   2   4  -5   29.34    0.94
   2   4  -5   28.27    1.05
   2   4  -5   28.73    1.01
   2   4  -5   29.04    0.96
   2   4  -5   30.23    1.04
   2   4  -5   31.00    1.06
  -2  -4   5   31.33    1.02
  -2  -4   5   30.29    1.01
  -2  -4   5   31.76    1.02
  -2  -4   5   31.97    0.96
  -2  -4   5   31.54    1.12
  -2  -4   5   30.95    1.01
  -2  -4   5   30.28    1.06
   1   4  -5    2.74    0.30
   1   4  -5    2.55    0.25
   1   4  -5    2.44    0.22
   1   4  -5    2.54    0.28
   1   4  -5    2.95    0.35
   1   4  -5    2.80    0.23
   1   4  -5    2.54    0.27
   1   4  -5    2.40    0.23
  -1  -4   5    2.32    0.26
  -1  -4   5    2.55    0.35
  -1  -4   5    2.02    0.23
  -1  -4   5    2.14    0.24
  -1  -4   5    2.75    0.34
  -1  -4   5    2.04    0.27
  -1  -4   5    2.66    0.33
  -1  -4   5    2.13    0.24
  -1  -4   5    2.38    0.20
  -1  -4   5    1.94    0.26
   0   4  -5    8.23    0.31
   0   4  -5    8.14    0.45
   0   4  -5    8.36    0.41
   0   4  -5    7.25    0.38
   0   4  -5    8.66    0.49
   0   4  -5    7.93    0.34
   0   4  -5    7.64    0.39
   0   4  -5    7.78    0.36
   0  -4   5    7.54    0.38
   0  -4   5    8.10    0.43
   0  -4   5    7.63    0.39
   0  -4   5    7.75    0.42
   0  -4   5    7.75    0.37
   0  -4   5    7.55    0.40
   0  -4   5    6.97    0.35
   0  -4   5    7.27    0.36
   0  -4   5    7.38    0.39
   0  -4   5    7.45    0.37
  -1   4  -5   33.42    0.87
  -1   4  -5   33.95    1.02
  -1   4  -5   34.49    0.85
  -1   4  -5   33.47    0.88
  -1   4  -5   34.04    1.02
  -1   4  -5   33.25    0.94
  -1   4  -5   33.85    0.86
  -1   4  -5   33.64    1.04
   1  -4   5   34.70    0.94
   1  -4   5   34.63    0.96
   1  -4   5   35.59    0.96
   1  -4   5   34.66    1.00
   1  -4   5   35.63    0.92
   1  -4   5   32.75    0.88
   1  -4   5   34.33    0.86
   1  -4   5   33.59    0.83
   1  -4   5   34.93    0.86
   1  -4   5   34.99    0.91
  -2   4  -5    2.71    0.22
  -2   4  -5    2.90    0.35
  -2   4  -5    3.46    0.26
  -2   4  -5    2.77    0.21
  -2   4  -5    3.43    0.25
  -2   4  -5    3.57    0.33
  -2   4  -5    2.83    0.26
  -2   4  -5    2.75    0.31
   2  -4   5    3.06    0.24
   2  -4   5    2.53    0.28
   2  -4   5    2.64    0.13
   2  -4   5    2.94    0.25
   2  -4   5    2.90    0.25
   2  -4   5    2.54    0.24
   2  -4   5    2.93    0.33
   2  -4   5    2.79    0.21
   2  -4   5    2.87    0.26
   2  -4   5    2.49    0.15
  -3   4  -5    3.79    0.27
  -3   4  -5    3.85    0.37
  -3   4  -5    4.79    0.64
  -3   4  -5    4.12    0.33
  -3   4  -5    4.07    0.26
  -3   4  -5    3.81    0.30
  -3   4  -5    3.50    0.33
   3  -4   5    3.84    0.32
   3  -4   5    3.70    0.28
   3  -4   5    4.09    0.32
   3  -4   5    3.56    0.32
   3  -4   5    3.88    0.33
   3  -4   5    4.01    0.38
  -4   4  -5   39.40    1.00
  -4   4  -5   40.72    1.30
  -4   4  -5   39.90    1.07
  -4   4  -5   41.22    1.17
  -4   4  -5   39.70    1.10
  -4   4  -5   40.24    1.21
   4  -4   5   40.65    1.19
   4  -4   5   38.50    1.24
   4  -4   5   41.43    1.36
   4  -4   5   40.55    1.23
  -5   4  -5   11.06    0.61
  -5   4  -5   11.45    0.73
  -5   4  -5   10.68    0.49
  -5   4  -5   11.58    0.66
  -5   4  -5   10.45    0.43
   5  -4   5   11.03    0.72
   5  -4   5   10.79    0.72
   5  -4   5   12.10    0.72
   5  -4   5   11.28    0.65
  -6   4  -5    5.45    0.55
  -6   4  -5    6.52    0.42
  -6   4  -5    7.64    0.65
   6  -4   5    6.37    0.65
   6  -4   5    6.31    0.58
   6  -4   5    7.53    0.65
  -7   4  -5   10.82    0.85
  -7   4  -5   11.09    0.81
   7  -4   5   10.24    0.83
   7  -4   5    9.33    0.76
   7  -4   5   10.44    0.86
   7   3  -5   10.88    0.99
  -7  -3   5    9.35    0.82
  -7  -3   5    7.93    1.06
  -7  -3   5   10.23    0.73
   6   3  -5    3.11    0.43
   6   3  -5    3.75    0.65
   6   3  -5    4.17    0.69
  -6  -3   5    2.93    0.41
  -6  -3   5    4.20    0.50
  -6  -3   5    3.55    0.66
  -6  -3   5    4.11    0.59
   5   3  -5   14.63    0.74
   5   3  -5   15.73    0.96
   5   3  -5   14.37    0.87
   5   3  -5   14.31    0.50
   5   3  -5   13.88    0.94
  -5  -3   5   13.96    0.86
  -5  -3   5   14.66    0.93
  -5  -3   5   16.14    0.76
  -5  -3   5   13.70    0.85
  -5  -3   5   14.18    0.98
   4   3  -5    7.81    0.42
   4   3  -5    7.46    0.58
   4   3  -5    7.44    0.62
   4   3  -5    8.02    0.62
   4   3  -5    7.72    0.52
   4   3  -5    8.05    0.65
  -4  -3   5    7.86    0.68
  -4  -3   5    7.42    0.62
  -4  -3   5    8.00    0.61
  -4  -3   5    8.50    0.60
  -4  -3   5    7.83    0.48
   3   3  -5   12.89    0.71
   3   3  -5   13.29    0.67
   3   3  -5   13.26    0.64
   3   3  -5   12.98    0.71
   3   3  -5   13.17    0.62
   3   3  -5   12.41    0.68
   3   3  -5   12.15    0.71
   3   3  -5   11.53    0.56
   3   3  -5   12.44    0.49
  -3  -3   5   11.86    0.63
  -3  -3   5   12.41    0.71
  -3  -3   5   13.12    0.67
  -3  -3   5   12.00    0.60
  -3  -3   5   14.35    0.69
  -3  -3   5   12.22    0.55
  -3  -3   5   12.01    0.74
   2   3  -5    6.22    0.38
   2   3  -5    6.32    0.33
   2   3  -5    6.19    0.40
   2   3  -5    6.57    0.44
   2   3  -5    5.72    0.44
   2   3  -5    5.99    0.38
   2   3  -5    6.01    0.44
   2   3  -5    5.54    0.44
  -2  -3   5    6.58    0.40
  -2  -3   5    6.14    0.28
  -2  -3   5    6.20    0.48
  -2  -3   5    6.41    0.41
  -2  -3   5    7.02    0.45
  -2  -3   5    5.65    0.43
  -2  -3   5    6.06    0.36
  -2  -3   5    6.89    0.36
  -2  -3   5    6.41    0.42
   1   3  -5   19.31    0.66
   1   3  -5   19.51    0.66
   1   3  -5   19.38    0.63
   1   3  -5   19.31    0.70
   1   3  -5   18.87    0.73
   1   3  -5   20.09    0.73
   1   3  -5   19.85    0.62
   1   3  -5   19.46    0.72
  -1  -3   5   19.38    0.61
  -1  -3   5   19.12    0.71
  -1  -3   5   19.73    0.69
  -1  -3   5   19.27    0.66
  -1  -3   5   19.83    0.76
  -1  -3   5   18.35    0.70
  -1  -3   5   19.70    0.66
  -1  -3   5   21.02    0.69
  -1  -3   5   19.00    0.60
  -1  -3   5   20.83    0.67
   0   3  -5   37.07    0.99
   0   3  -5   37.93    0.94
   0   3  -5   38.07    0.99
   0   3  -5   36.76    0.98
   0   3  -5   35.33    1.02
   0   3  -5   38.12    1.00
   0   3  -5   37.03    0.92
   0   3  -5   37.27    0.99
   0   3  -5   34.94    0.97
   0  -3   5   36.91    0.98
   0  -3   5   35.90    0.98
   0  -3   5   37.84    0.99
   0  -3   5   38.98    0.95
   0  -3   5   36.36    0.92
   0  -3   5   36.66    0.96
   0  -3   5   36.04    0.93
   0  -3   5   37.19    0.90
   0  -3   5   37.65    0.94
   0  -3   5   38.08    1.04
  -1   3  -5  185.80    3.56
  -1   3  -5  188.20    3.42
  -1   3  -5  187.00    3.41
  -1   3  -5  182.74    3.40
  -1   3  -5  183.38    3.50
  -1   3  -5  184.32    3.49
   1  -3   5  185.01    3.43
   1  -3   5  185.20    3.47
   1  -3   5  183.79    3.39
   1  -3   5  190.12    3.37
   1  -3   5  181.48    3.47
   1  -3   5  184.39    3.48
   1  -3   5  188.53    3.21
   1  -3   5  181.64    3.43
   1  -3   5  185.38    3.37
  -2   3  -5   37.34    0.95
  -2   3  -5   38.25    1.09
  -2   3  -5   39.53    1.06
  -2   3  -5   38.29    1.17
  -2   3  -5   36.13    1.04
  -2   3  -5   39.19    1.05
   2  -3   5   40.15    0.73
   2  -3   5   39.46    1.03
   2  -3   5   38.46    1.03
   2  -3   5   38.16    1.04
   2  -3   5   39.22    1.06
   2  -3   5   39.10    0.98
   2  -3   5   39.02    1.11
   2  -3   5   39.01    1.09
  -3   3  -5   32.25    0.92
  -3   3  -5   30.93    0.99
  -3   3  -5   32.06    1.00
  -3   3  -5   31.55    1.12
  -3   3  -5   30.00    0.85
  -3   3  -5   31.70    1.02
  -3   3  -5   29.76    0.99
   3  -3   5   31.67    1.00
   3  -3   5   29.69    0.94
   3  -3   5   31.29    1.04
   3  -3   5   29.75    0.92
   3  -3   5   31.13    0.99
   3  -3   5   30.04    0.94
  -4   3  -5   25.51    0.97
  -4   3  -5   24.85    0.78
  -4   3  -5   26.71    0.80
  -4   3  -5   25.50    0.97
  -4   3  -5   25.58    0.95
   4  -3   5   26.61    0.99
   4  -3   5   25.86    0.95
   4  -3   5   25.76    1.01
   4  -3   5   24.00    0.98
  -5   3  -5   15.26    0.63
  -5   3  -5   15.04    0.48
  -5   3  -5   17.85    0.84
  -5   3  -5   15.94    0.83
  -5   3  -5   15.19    0.80
   5  -3   5   15.22    0.83
   5  -3   5   15.53    0.84
   5  -3   5   16.40    0.82
   5  -3   5   14.57    0.98
  -6   3  -5   10.00    0.55
  -6   3  -5    9.29    0.70
  -6   3  -5    9.77    0.72
   6  -3   5   10.66    0.78
   6  -3   5    9.65    0.73
   6  -3   5   10.20    0.75
  -7   3  -5    0.86    0.41
  -7   3  -5    0.96    0.26
  -7   3  -5    0.89    0.38
   7  -3   5    0.88    0.41
   7  -3   5    1.03    0.39
   7  -3   5    1.06    0.40
   7   2  -5    4.12    0.74
   7   2  -5    5.63    0.85
  -7  -2   5    4.07    0.62
  -7  -2   5    3.84    0.79
  -7  -2   5    3.42    0.50
   6   2  -5   15.39    1.05
   6   2  -5   15.19    1.04
   6   2  -5   15.53    0.73
  -6  -2   5   15.97    0.80
  -6  -2   5   14.42    0.90
  -6  -2   5   15.04    1.07
   5   2  -5    7.58    0.63
   5   2  -5    6.50    0.66
   5   2  -5    7.08    0.66
   5   2  -5    6.83    0.39
   5   2  -5    7.11    0.50
   5   2  -5    5.80    0.61
  -5  -2   5    7.69    0.67
  -5  -2   5    7.18    0.60
  -5  -2   5    6.65    0.69
  -5  -2   5    6.11    0.47
   4   2  -5   24.42    1.08
   4   2  -5   25.41    0.85
   4   2  -5   26.59    1.14
   4   2  -5   25.61    1.07
   4   2  -5   26.74    0.74
   4   2  -5   27.62    1.11
   4   2  -5   25.32    1.03
   4   2  -5   25.02    0.91
  -4  -2   5   25.27    0.86
  -4  -2   5   26.10    1.11
  -4  -2   5   28.81    1.12
  -4  -2   5   24.68    1.15
  -4  -2   5   26.35    1.03
   3   2  -5   27.31    0.81
   3   2  -5   27.50    1.01
   3   2  -5   27.12    1.03
   3   2  -5   28.40    0.99
   3   2  -5   26.62    1.00
   3   2  -5   26.68    1.05
   3   2  -5   26.77    0.86
   3   2  -5   26.66    0.92
  -3  -2   5   26.46    1.02
  -3  -2   5   28.79    1.12
  -3  -2   5   27.40    0.94
  -3  -2   5   27.76    0.87
  -3  -2   5   25.70    0.97
  -3  -2   5   25.53    0.80
  -3  -2   5   26.28    0.82
   2   2  -5   12.88    0.49
   2   2  -5   12.50    0.60
   2   2  -5   13.00    0.58
   2   2  -5   11.97    0.60
   2   2  -5   12.29    0.58
   2   2  -5   12.63    0.51
   2   2  -5   12.14    0.53
   2   2  -5   12.00    0.61
  -2  -2   5   12.70    0.62
  -2  -2   5   12.75    0.56
  -2  -2   5   13.89    0.61
  -2  -2   5   13.52    0.53
  -2  -2   5   13.39    0.50
  -2  -2   5   12.67    0.47
  -2  -2   5   13.47    0.43
  -2  -2   5   13.73    0.64
  -2  -2   5   12.83    0.55
  -2  -2   5   12.14    0.64
   1   2  -5   40.08    1.12
   1   2  -5   40.73    0.97
   1   2  -5   41.23    1.07
   1   2  -5   38.96    1.08
   1   2  -5   40.69    1.11
   1   2  -5   42.39    1.01
   1   2  -5   42.16    1.05
   1   2  -5   40.53    1.00
  -1  -2   5   41.37    1.05
  -1  -2   5   43.33    1.14
  -1  -2   5   42.25    1.17
  -1  -2   5   42.72    1.07
  -1  -2   5   40.59    1.02
  -1  -2   5   42.20    1.10
  -1  -2   5   40.74    1.01
  -1  -2   5   43.29    1.01
  -1  -2   5   41.12    1.12
  -1  -2   5   43.86    0.92
   0   2  -5    6.53    0.34
   0   2  -5    6.30    0.33
   0   2  -5    5.85    0.38
   0   2  -5    7.02    0.36
   0   2  -5    6.04    0.34
   0   2  -5    6.34    0.35
   0   2  -5    6.72    0.33
   0   2  -5    6.54    0.34
   0  -2   5    6.77    0.34
   0  -2   5    6.46    0.36
   0  -2   5    6.58    0.37
   0  -2   5    6.55    0.28
   0  -2   5    6.78    0.35
   0  -2   5    6.74    0.34
   0  -2   5    6.59    0.32
   0  -2   5    6.19    0.38
   0  -2   5    6.40    0.27
   0  -2   5    6.33    0.33
  -1   2  -5   22.09    0.74
  -1   2  -5   21.63    0.74
  -1   2  -5   22.23    0.71
  -1   2  -5   21.30    0.68
  -1   2  -5   21.77    0.58
  -1   2  -5   22.35    0.68
  -1   2  -5   22.35    0.67
  -1   2  -5   21.32    0.69
   1  -2   5   21.13    0.72
   1  -2   5   21.65    0.67
   1  -2   5   20.65    0.68
   1  -2   5   20.99    0.73
   1  -2   5   20.68    0.69
   1  -2   5   21.74    0.70
   1  -2   5   21.81    0.65
   1  -2   5   22.04    0.53
  -2   2  -5    7.10    0.36
  -2   2  -5    6.54    0.40
  -2   2  -5    6.71    0.41
  -2   2  -5    6.62    0.41
  -2   2  -5    6.97    0.45
  -2   2  -5    6.91    0.24
  -2   2  -5    6.36    0.36
  -2   2  -5    6.60    0.38
   2  -2   5    6.05    0.39
   2  -2   5    6.16    0.35
   2  -2   5    6.44    0.40
   2  -2   5    6.57    0.36
   2  -2   5    6.51    0.39
   2  -2   5    5.59    0.38
   2  -2   5    6.15    0.42
   2  -2   5    6.55    0.26
  -3   2  -5   21.23    0.71
  -3   2  -5   21.62    0.83
  -3   2  -5   22.29    0.87
  -3   2  -5   22.32    0.88
  -3   2  -5   20.51    0.73
  -3   2  -5   21.74    0.89
   3  -2   5   20.82    0.83
   3  -2   5   20.42    0.70
   3  -2   5   20.74    0.79
   3  -2   5   20.98    0.81
   3  -2   5   21.77    0.83
  -4   2  -5   27.62    0.88
  -4   2  -5   29.07    0.96
  -4   2  -5   26.66    1.07
  -4   2  -5   27.67    1.05
  -4   2  -5   28.67    0.97
   4  -2   5   28.85    1.07
   4  -2   5   28.76    1.04
   4  -2   5   26.84    1.01
   4  -2   5   27.12    0.88
   4  -2   5   28.69    1.11
  -5   2  -5    1.32    0.29
  -5   2  -5    1.92    0.30
  -5   2  -5    1.70    0.18
  -5   2  -5    2.09    0.42
   5  -2   5    2.20    0.41
   5  -2   5    2.03    0.39
   5  -2   5    1.79    0.36
  -6   2  -5   14.12    0.82
  -6   2  -5   14.51    0.92
  -6   2  -5   15.22    0.72
   6  -2   5   14.08    0.88
   6  -2   5   15.75    0.89
   6  -2   5   14.11    0.91
  -7   2  -5    1.02    0.28
  -7   2  -5    0.85    0.47
   7  -2   5    0.19    0.33
   7  -2   5    0.65    0.39
   7  -2   5    0.33    0.31
  -8  -1   5    1.58    0.55
  -8  -1   5    1.59    0.61
   7   1  -5    6.72    0.89
   7   1  -5    6.77    0.89
  -7  -1   5    7.65    0.69
  -7  -1   5    6.14    0.86
  -7  -1   5    6.90    0.63
   6   1  -5    9.34    0.82
   6   1  -5    9.00    0.79
   6   1  -5    8.41    0.73
   6   1  -5    8.97    0.55
  -6  -1   5    9.17    0.85
  -6  -1   5    8.65    0.69
  -6  -1   5    8.43    0.60
   5   1  -5    1.16    0.35
   5   1  -5    1.22    0.36
   5   1  -5    1.62    0.25
   5   1  -5    1.89    0.42
   5   1  -5    1.39    0.34
  -5  -1   5    1.92    0.39
  -5  -1   5    1.82    0.46
  -5  -1   5    1.66    0.40
  -5  -1   5    1.48    0.27
   4   1  -5   51.08    1.57
   4   1  -5   52.75    1.38
   4   1  -5   55.22    1.67
   4   1  -5   54.09    1.31
   4   1  -5   53.11    1.57
   4   1  -5   50.71    1.66
  -4  -1   5   53.06    1.66
  -4  -1   5   52.32    1.52
  -4  -1   5   54.08    1.66
  -4  -1   5   54.47    1.75
  -4  -1   5   54.88    1.36
  -4  -1   5   52.14    1.45
  -4  -1   5   53.73    1.59
   3   1  -5   15.47    0.59
   3   1  -5   14.96    0.59
   3   1  -5   16.56    0.75
   3   1  -5   15.07    0.75
   3   1  -5   14.53    0.70
   3   1  -5   16.11    0.72
   3   1  -5   15.01    0.68
   3   1  -5   15.48    0.67
  -3  -1   5   14.71    0.77
  -3  -1   5   16.50    0.58
  -3  -1   5   15.72    0.74
  -3  -1   5   17.42    0.70
  -3  -1   5   14.87    0.58
  -3  -1   5   15.67    0.71
  -3  -1   5   15.22    0.42
  -3  -1   5   15.83    0.64
  -3  -1   5   15.34    0.63
   2   1  -5    2.10    0.21
   2   1  -5    2.33    0.25
   2   1  -5    2.15    0.30
   2   1  -5    1.98    0.20
   2   1  -5    2.31    0.26
   2   1  -5    2.29    0.29
   2   1  -5    2.26    0.28
   2   1  -5    1.97    0.27
  -2  -1   5    2.24    0.21
  -2  -1   5    2.70    0.26
  -2  -1   5    2.69    0.29
  -2  -1   5    2.42    0.20
  -2  -1   5    2.11    0.29
  -2  -1   5    2.34    0.23
  -2  -1   5    2.47    0.12
  -2  -1   5    2.66    0.29
  -2  -1   5    2.37    0.34
  -2  -1   5    3.23    0.26
   1   1  -5   27.52    0.66
   1   1  -5   26.35    0.90
   1   1  -5   26.75    0.84
   1   1  -5   27.78    0.81
   1   1  -5   26.11    0.82
   1   1  -5   26.99    0.77
   1   1  -5   27.18    0.70
   1   1  -5   27.25    0.79
   1   1  -5   25.19    0.82
   1   1  -5   27.46    0.80
  -1  -1   5   26.73    0.82
  -1  -1   5   27.73    0.85
  -1  -1   5   27.21    0.79
  -1  -1   5   26.66    0.76
  -1  -1   5   28.24    0.86
  -1  -1   5   28.70    0.71
  -1  -1   5   27.36    0.72
  -1  -1   5   25.93    0.78
  -1  -1   5   27.66    0.89
   0   1  -5   35.48    0.86
   0   1  -5   36.62    0.80
   0   1  -5   35.50    0.95
   0   1  -5   36.64    0.97
   0   1  -5   36.46    0.97
   0   1  -5   35.28    0.94
   0   1  -5   36.10    0.88
   0   1  -5   34.60    1.02
   0   1  -5   37.23    0.97
   0  -1   5   35.92    0.91
   0  -1   5   36.31    0.99
   0  -1   5   38.16    0.86
   0  -1   5   36.20    0.93
   0  -1   5   34.98    0.96
   0  -1   5   36.32    0.94
   0  -1   5   37.27    1.02
   0  -1   5   37.48    0.87
   0  -1   5   37.32    1.04
  -1   1  -5   24.18    0.78
  -1   1  -5   23.74    0.73
  -1   1  -5   23.19    0.60
  -1   1  -5   23.95    0.81
  -1   1  -5   24.80    0.79
  -1   1  -5   25.05    0.75
  -1   1  -5   24.23    0.78
  -1   1  -5   24.46    0.68
   1  -1   5   24.36    0.77
   1  -1   5   24.33    0.64
   1  -1   5   24.45    0.58
   1  -1   5   22.99    0.80
   1  -1   5   25.01    0.77
   1  -1   5   24.38    0.73
   1  -1   5   23.60    0.76
   1  -1   5   23.38    0.72
  -2   1  -5   66.12    1.64
  -2   1  -5   64.87    1.24
  -2   1  -5   62.65    1.61
  -2   1  -5   66.94    1.53
  -2   1  -5   68.27    1.65
  -2   1  -5   63.04    1.48
  -2   1  -5   67.22    1.65
   2  -1   5   63.34    1.56
   2  -1   5   64.49    1.54
   2  -1   5   66.31    1.68
   2  -1   5   66.12    1.53
   2  -1   5   65.20    1.59
   2  -1   5   64.41    1.41
   2  -1   5   65.70    1.58
   2  -1   5   64.21    1.38
  -3   1  -5   25.68    0.98
  -3   1  -5   26.35    0.56
  -3   1  -5   25.27    0.99
  -3   1  -5   25.48    0.97
  -3   1  -5   25.21    0.95
  -3   1  -5   24.49    0.81
  -3   1  -5   25.51    0.87
   3  -1   5   25.18    0.92
   3  -1   5   24.73    0.74
   3  -1   5   24.53    0.96
   3  -1   5   25.06    0.80
   3  -1   5   25.63    0.94
   3  -1   5   25.04    0.87
  -4   1  -5   12.26    0.37
  -4   1  -5   11.90    0.31
  -4   1  -5   11.76    0.70
  -4   1  -5   12.06    0.58
  -4   1  -5   12.29    0.63
   4  -1   5   12.59    0.76
   4  -1   5   11.47    0.63
   4  -1   5   12.10    0.69
   4  -1   5   12.06    0.51
   4  -1   5   11.64    0.70
  -5   1  -5    7.25    0.64
  -5   1  -5    7.32    0.50
   5  -1   5    8.31    0.59
   5  -1   5    8.02    0.66
   5  -1   5    8.42    0.68
  -6   1  -5   10.17    0.73
  -6   1  -5   11.04    0.86
  -6   1  -5   10.59    0.64
   6  -1   5   12.21    0.77
   6  -1   5   12.32    0.85
   6  -1   5   10.76    0.80
  -7   1  -5    4.54    0.50
  -7   1  -5    4.75    0.74
   7  -1   5    4.00    0.64
   7  -1   5    6.11    0.63
   8   0  -5    3.70    0.77
  -8   0   5    3.13    0.53
  -8   0   5    2.14    0.69
   7   0  -5    1.29    0.44
   7   0  -5    1.13    0.38
   7   0  -5    1.47    0.48
  -7   0   5    1.47    0.38
  -7   0   5    1.11    0.35
  -7   0   5    1.45    0.55
   6   0  -5    5.29    0.59
   6   0  -5    5.94    0.75
   6   0  -5    6.05    0.76
  -6   0   5    5.88    0.35
  -6   0   5    5.84    0.52
  -6   0   5    4.50    0.68
  -6   0   5    5.47    0.56
   5   0  -5   13.68    0.87
   5   0  -5   14.79    0.81
   5   0  -5   14.44    0.82
   5   0  -5   13.83    0.67
   5   0  -5   14.20    0.86
  -5   0   5   15.33    0.79
  -5   0   5   14.52    0.85
  -5   0   5   14.41    0.92
  -5   0   5   14.77    0.70
  -5   0   5   14.49    0.41
   4   0  -5   37.18    1.24
   4   0  -5   38.33    1.26
   4   0  -5   36.43    1.31
   4   0  -5   36.72    1.33
   4   0  -5   37.10    1.06
   4   0  -5   37.19    1.08
  -4   0   5   35.25    1.35
  -4   0   5   36.16    1.22
  -4   0   5   36.34    1.23
  -4   0   5   38.33    1.12
  -4   0   5   38.05    1.17
  -4   0   5   36.54    0.69
  -4   0   5   37.85    1.02
  -4   0   5   36.99    1.31
   3   0  -5   38.40    1.22
   3   0  -5   35.19    1.08
   3   0  -5   36.69    1.17
   3   0  -5   36.65    0.95
   3   0  -5   34.45    1.09
   3   0  -5   36.70    1.11
   3   0  -5   37.09    1.15
  -3   0   5   35.76    1.12
  -3   0   5   36.08    1.24
  -3   0   5   36.53    1.07
  -3   0   5   36.08    1.02
  -3   0   5   37.53    1.14
  -3   0   5   36.86    1.15
  -3   0   5   35.49    0.98
  -3   0   5   38.07    0.92
  -3   0   5   36.24    1.18
   2   0  -5    1.34    0.21
   2   0  -5    1.46    0.24
   2   0  -5    1.49    0.15
   2   0  -5    1.74    0.26
   2   0  -5    1.00    0.19
   2   0  -5    1.42    0.20
   2   0  -5    2.13    0.28
  -2   0   5    1.26    0.24
  -2   0   5    1.33    0.14
  -2   0   5    1.51    0.21
  -2   0   5    1.61    0.24
  -2   0   5    1.64    0.28
  -2   0   5    1.41    0.21
  -2   0   5    1.16    0.23
  -2   0   5    1.26    0.19
  -2   0   5    1.27    0.22
   1   0  -5   10.44    0.48
   1   0  -5   10.53    0.47
   1   0  -5   10.96    0.55
   1   0  -5   11.68    0.47
   1   0  -5   10.38    0.49
   1   0  -5   11.47    0.46
   1   0  -5   11.02    0.50
   1   0  -5   11.09    0.33
   1   0  -5   11.30    0.49
   1   0  -5   10.17    0.44
  -1   0   5   11.85    0.52
  -1   0   5   11.43    0.44
  -1   0   5   11.16    0.54
  -1   0   5   11.00    0.49
  -1   0   5   11.02    0.48
  -1   0   5   12.02    0.50
  -1   0   5   12.32    0.45
  -1   0   5   11.21    0.52
  -1   0   5   12.10    0.48
  -1   0   5   11.75    0.36
   0   0  -5   14.69    0.61
   0   0  -5   14.58    0.57
   0   0  -5   15.13    0.51
   0   0  -5   14.38    0.55
   0   0  -5   15.62    0.58
   0   0  -5   14.54    0.54
   0   0  -5   14.43    0.54
   0   0  -5   14.55    0.48
   0   0   5   14.22    0.51
   0   0   5   14.91    0.58
   0   0   5   14.51    0.52
   0   0   5   14.77    0.55
   0   0   5   14.22    0.56
   0   0   5   14.72    0.44
   0   0   5   14.40    0.53
   0   0   5   13.46    0.60
   0   0   5   15.49    0.61
  -1   0  -5   17.77    0.63
  -1   0  -5   19.10    0.67
  -1   0  -5   17.84    0.71
  -1   0  -5   18.30    0.66
  -1   0  -5   20.05    0.72
  -1   0  -5   18.28    0.53
  -1   0  -5   18.23    0.69
   1   0   5   18.58    0.68
   1   0   5   19.15    0.59
   1   0   5   17.93    0.64
   1   0   5   18.25    0.67
   1   0   5   18.62    0.68
   1   0   5   18.16    0.73
   1   0   5   17.70    0.61
  -2   0  -5    3.38    0.21
  -2   0  -5    3.52    0.35
  -2   0  -5    3.51    0.36
  -2   0  -5    3.47    0.32
  -2   0  -5    3.58    0.31
  -2   0  -5    3.17    0.28
  -2   0  -5    3.51    0.41
   2   0   5    3.38    0.33
   2   0   5    3.96    0.39
   2   0   5    3.99    0.30
   2   0   5    3.22    0.32
   2   0   5    3.34    0.30
   2   0   5    3.55    0.34
   2   0   5    3.79    0.30
   2   0   5    3.69    0.23
  -3   0  -5   96.72    2.17
  -3   0  -5   93.35    2.35
  -3   0  -5   96.22    2.24
  -3   0  -5   92.92    1.81
  -3   0  -5   90.54    2.27
  -3   0  -5   94.02    2.10
   3   0   5   93.25    2.06
   3   0   5   91.18    2.32
   3   0   5   95.63    2.43
   3   0   5   94.90    2.24
   3   0   5   91.36    1.83
   3   0   5   94.15    2.12
   3   0   5   92.90    2.22
  -4   0  -5    1.44    0.27
  -4   0  -5    1.29    0.17
  -4   0  -5    1.03    0.34
  -4   0  -5    1.28    0.28
   4   0   5    1.26    0.31
   4   0   5    1.35    0.28
   4   0   5    1.31    0.20
   4   0   5    1.76    0.38
   4   0   5    1.60    0.32
   4   0   5    1.12    0.29
  -5   0  -5   26.19    1.19
  -5   0  -5   23.75    0.96
   5   0   5   23.44    0.95
   5   0   5   23.29    1.05
   5   0   5   25.78    1.14
   5   0   5   25.26    1.15
  -6   0  -5    5.61    0.54
  -6   0  -5    5.65    0.73
   6   0   5    4.40    0.64
   6   0   5    6.03    0.55
   6   0   5    6.47    0.71
  -7   0  -5    5.42    0.81
   8  -1  -5    2.06    0.49
   8  -1  -5    1.58    0.52
  -8   1   5    1.57    0.52
   7  -1  -5    7.24    0.79
   7  -1  -5    7.40    0.91
   7  -1  -5    8.82    0.79
  -7   1   5    8.43    0.86
  -7   1   5    8.95    0.70
  -7   1   5    8.19    0.65
   6  -1  -5    9.04    0.77
   6  -1  -5    7.08    0.65
   6  -1  -5    9.74    0.81
  -6   1   5    8.43    0.79
  -6   1   5    8.74    0.64
  -6   1   5    9.27    0.64
   5  -1  -5   48.23    1.54
   5  -1  -5   50.14    1.71
   5  -1  -5   50.23    1.58
   5  -1  -5   49.67    1.66
  -5   1   5   50.44    1.49
  -5   1   5   47.49    1.33
  -5   1   5   48.31    1.72
  -5   1   5   47.39    1.42
   4  -1  -5    4.92    0.40
   4  -1  -5    4.64    0.48
   4  -1  -5    5.10    0.34
   4  -1  -5    5.40    0.44
   4  -1  -5    4.56    0.42
   4  -1  -5    4.44    0.45
  -4   1   5    5.72    0.55
  -4   1   5    5.48    0.51
  -4   1   5    5.21    0.48
  -4   1   5    5.96    0.42
  -4   1   5    5.36    0.36
  -4   1   5    5.27    0.45
  -4   1   5    4.80    0.45
   3  -1  -5   15.52    0.67
   3  -1  -5   16.84    0.69
   3  -1  -5   16.98    0.74
   3  -1  -5   14.85    0.71
   3  -1  -5   16.70    0.53
   3  -1  -5   15.77    0.67
  -3   1   5   18.28    0.79
  -3   1   5   17.76    0.93
  -3   1   5   15.74    0.78
  -3   1   5   15.96    0.62
  -3   1   5   16.87    0.76
  -3   1   5   16.46    0.72
  -3   1   5   16.18    0.58
  -3   1   5   16.82    0.70
   2  -1  -5   11.59    0.50
   2  -1  -5   11.99    0.36
   2  -1  -5   12.06    0.55
   2  -1  -5   11.63    0.51
   2  -1  -5   12.74    0.58
   2  -1  -5   11.54    0.54
   2  -1  -5   11.62    0.53
   2  -1  -5   12.46    0.53
  -2   1   5   10.83    0.58
  -2   1   5   12.03    0.46
  -2   1   5   11.67    0.50
  -2   1   5   11.37    0.54
  -2   1   5   11.67    0.34
  -2   1   5   12.59    0.60
  -2   1   5   12.43    0.56
  -2   1   5   12.11    0.50
  -2   1   5   11.80    0.57
   1  -1  -5   79.71    1.77
   1  -1  -5   84.71    1.80
   1  -1  -5   82.54    1.72
   1  -1  -5   79.82    1.79
   1  -1  -5   83.61    1.74
   1  -1  -5   82.87    1.91
   1  -1  -5   81.94    1.80
   1  -1  -5   82.07    1.79
  -1   1   5   79.61    1.73
  -1   1   5   80.91    1.83
  -1   1   5   81.35    1.84
  -1   1   5   78.58    1.84
  -1   1   5   82.61    1.70
  -1   1   5   82.80    1.78
  -1   1   5   78.31    1.79
  -1   1   5   78.81    1.87
   0  -1  -5    1.89    0.25
   0  -1  -5    2.01    0.29
   0  -1  -5    1.92    0.24
   0  -1  -5    1.97    0.25
   0  -1  -5    1.59    0.23
   0  -1  -5    1.71    0.22
   0  -1  -5    1.93    0.19
   0  -1  -5    1.86    0.25
   0   1   5    1.81    0.24
   0   1   5    1.73    0.22
   0   1   5    2.20    0.24
   0   1   5    1.78    0.29
   0   1   5    1.87    0.13
   0   1   5    2.05    0.29
   0   1   5    1.76    0.25
   0   1   5    2.01    0.22
   0   1   5    1.77    0.25
  -1  -1  -5    2.78    0.27
  -1  -1  -5    2.54    0.28
  -1  -1  -5    2.47    0.25
  -1  -1  -5    2.63    0.26
  -1  -1  -5    2.52    0.22
  -1  -1  -5    2.62    0.34
  -1  -1  -5    2.42    0.31
   1   1   5    2.25    0.33
   1   1   5    2.49    0.32
   1   1   5    2.67    0.28
   1   1   5    1.70    0.25
   1   1   5    2.13    0.22
   1   1   5    2.72    0.27
  -2  -1  -5   16.77    0.77
  -2  -1  -5   15.82    0.66
  -2  -1  -5   15.98    0.65
  -2  -1  -5   16.78    0.76
  -2  -1  -5   17.15    0.57
  -2  -1  -5   16.36    0.68
   2   1   5   14.93    0.53
   2   1   5   16.49    0.68
   2   1   5   15.08    0.73
   2   1   5   15.40    0.80
   2   1   5   15.09    0.41
   2   1   5   16.43    0.60
   2   1   5   15.00    0.68
   2   1   5   14.83    0.69
  -3  -1  -5   21.27    0.87
  -3  -1  -5   22.04    0.88
  -3  -1  -5   24.72    1.07
  -3  -1  -5   23.26    0.71
  -3  -1  -5   23.22    0.99
  -3  -1  -5   21.34    0.83
   3   1   5   22.75    0.93
   3   1   5   20.51    0.74
   3   1   5   22.85    0.93
   3   1   5   21.43    0.99
   3   1   5   21.72    1.06
   3   1   5   21.72    0.88
   3   1   5   23.20    0.77
  -4  -1  -5    8.76    0.43
  -4  -1  -5    9.17    0.70
  -4  -1  -5    8.54    0.61
  -4  -1  -5    9.18    0.58
   4   1   5    8.02    0.63
   4   1   5    9.24    0.65
   4   1   5    9.75    0.53
   4   1   5    8.66    0.72
   4   1   5    8.63    0.63
  -5  -1  -5   17.24    1.01
  -5  -1  -5   15.92    0.83
   5   1   5   17.06    0.93
   5   1   5   16.53    0.75
   5   1   5   15.54    0.94
   5   1   5   17.89    0.99
  -6  -1  -5    8.28    0.83
  -6  -1  -5    8.38    0.65
   6   1   5    9.32    0.88
   6   1   5    8.21    0.79
   8  -2  -5    0.60    0.38
  -8   2   5    1.33    0.53
   7  -2  -5   10.57    0.92
   7  -2  -5   10.24    0.83
   7  -2  -5    8.37    0.86
  -7   2   5   11.62    0.80
  -7   2   5   10.35    0.65
  -7   2   5   11.70    0.96
   6  -2  -5   11.81    0.85
   6  -2  -5   10.08    0.83
   6  -2  -5   11.90    0.79
  -6   2   5   10.28    0.63
  -6   2   5   11.25    0.72
  -6   2   5   10.38    0.84
   5  -2  -5   11.70    0.69
   5  -2  -5   10.95    0.74
   5  -2  -5   11.58    0.55
   5  -2  -5   11.93    0.69
   5  -2  -5   10.68    0.74
  -5   2   5   11.81    0.81
  -5   2   5   12.32    0.84
  -5   2   5   10.60    0.50
  -5   2   5   10.93    0.71
  -5   2   5   12.04    0.65
  -5   2   5   10.79    0.64
   4  -2  -5   85.92    1.79
   4  -2  -5   87.05    2.07
   4  -2  -5   83.37    2.13
   4  -2  -5   84.09    2.19
   4  -2  -5   86.87    2.07
  -4   2   5   85.09    2.02
  -4   2   5   82.42    1.79
  -4   2   5   85.68    2.25
  -4   2   5   85.81    1.99
  -4   2   5   81.77    2.13
  -4   2   5   82.40    2.27
   3  -2  -5   19.68    0.75
   3  -2  -5   18.67    0.77
   3  -2  -5   19.86    0.75
   3  -2  -5   19.62    0.55
   3  -2  -5   19.95    0.81
  -3   2   5   20.92    0.77
  -3   2   5   21.07    0.83
  -3   2   5   19.26    0.88
  -3   2   5   19.75    0.63
  -3   2   5   19.46    0.70
  -3   2   5   19.57    0.86
   2  -2  -5   27.83    0.85
   2  -2  -5   25.80    0.81
   2  -2  -5   25.96    0.88
   2  -2  -5   24.81    0.90
   2  -2  -5   23.84    0.81
   2  -2  -5   26.35    0.85
   2  -2  -5   26.20    0.83
  -2   2   5   25.90    0.86
  -2   2   5   25.64    0.78
  -2   2   5   26.55    0.74
  -2   2   5   25.60    0.93
  -2   2   5   27.06    0.86
  -2   2   5   25.87    0.75
  -2   2   5   26.17    0.97
  -2   2   5   25.00    0.86
   1  -2  -5   43.22    1.24
   1  -2  -5   43.16    1.10
   1  -2  -5   44.53    1.17
   1  -2  -5   42.68    1.16
   1  -2  -5   43.86    1.24
   1  -2  -5   42.74    1.13
   1  -2  -5   44.67    1.16
   1  -2  -5   41.88    1.11
  -1   2   5   43.87    1.08
  -1   2   5   44.17    1.12
  -1   2   5   42.45    1.20
  -1   2   5   41.65    1.24
  -1   2   5   43.89    1.19
  -1   2   5   44.12    1.25
  -1   2   5   42.29    1.14
  -1   2   5   43.82    1.21
   0  -2  -5   29.53    0.90
   0  -2  -5   29.95    0.96
   0  -2  -5   28.41    0.92
   0  -2  -5   28.09    0.95
   0  -2  -5   29.24    0.85
   0  -2  -5   28.66    0.87
   0  -2  -5   27.91    0.83
   0  -2  -5   29.94    0.94
   0   2   5   27.66    0.97
   0   2   5   29.23    0.93
   0   2   5   27.91    0.90
   0   2   5   29.19    0.90
   0   2   5   28.18    0.90
   0   2   5   29.11    0.87
   0   2   5   29.70    0.98
  -1  -2  -5   21.06    0.84
  -1  -2  -5   20.54    0.74
  -1  -2  -5   21.26    0.71
  -1  -2  -5   20.76    0.72
  -1  -2  -5   20.93    0.85
  -1  -2  -5   22.25    0.78
   1   2   5   21.16    0.78
   1   2   5   20.37    0.78
   1   2   5   19.44    0.75
   1   2   5   20.92    0.80
   1   2   5   21.02    0.88
   1   2   5   20.39    0.55
   1   2   5   19.94    0.67
   1   2   5   20.36    0.81
  -2  -2  -5    2.58    0.35
  -2  -2  -5    1.95    0.31
  -2  -2  -5    2.32    0.26
  -2  -2  -5    2.13    0.30
  -2  -2  -5    2.43    0.38
  -2  -2  -5    2.89    0.43
   2   2   5    2.04    0.32
   2   2   5    1.89    0.24
   2   2   5    2.63    0.44
   2   2   5    1.96    0.36
   2   2   5    1.98    0.33
   2   2   5    2.26    0.33
   2   2   5    1.74    0.19
  -3  -2  -5    3.47    0.43
  -3  -2  -5    3.90    0.33
  -3  -2  -5    3.23    0.43
  -3  -2  -5    3.74    0.53
  -3  -2  -5    3.96    0.51
  -3  -2  -5    4.03    0.39
   3   2   5    3.56    0.43
   3   2   5    4.25    0.61
   3   2   5    3.80    0.31
   3   2   5    3.23    0.44
   3   2   5    3.88    0.47
   3   2   5    3.52    0.30
  -4  -2  -5   20.23    0.97
  -4  -2  -5   21.37    1.08
  -4  -2  -5   22.28    0.80
  -4  -2  -5   21.31    0.93
   4   2   5   21.33    1.01
   4   2   5   21.33    1.02
   4   2   5   19.67    0.73
   4   2   5   21.33    1.01
  -5  -2  -5    0.06    0.29
  -5  -2  -5    0.35    0.25
   5   2   5    0.47    0.33
   5   2   5    0.57    0.33
   6   2   5    6.56    0.78
   7  -3  -5    1.95    0.52
   7  -3  -5    2.47    0.49
   7  -3  -5    2.57    0.56
  -7   3   5    2.15    0.55
  -7   3   5    2.80    0.53
   6  -3  -5    5.34    0.56
   6  -3  -5    5.37    0.68
   6  -3  -5    4.16    0.63
  -6   3   5    3.87    0.60
  -6   3   5    4.58    0.39
  -6   3   5    4.19    0.54
   5  -3  -5    1.44    0.24
   5  -3  -5    2.05    0.37
   5  -3  -5    2.29    0.44
  -5   3   5    1.82    0.29
  -5   3   5    2.01    0.36
  -5   3   5    1.79    0.45
  -5   3   5    1.47    0.39
   4  -3  -5    2.16    0.32
   4  -3  -5    2.79    0.42
   4  -3  -5    1.91    0.30
   4  -3  -5    2.53    0.38
   4  -3  -5    2.14    0.22
  -4   3   5    2.30    0.43
  -4   3   5    2.04    0.32
  -4   3   5    2.50    0.32
  -4   3   5    1.70    0.36
  -4   3   5    2.30    0.20
  -4   3   5    2.06    0.31
  -4   3   5    2.43    0.37
   3  -3  -5    6.71    0.44
   3  -3  -5    7.18    0.47
   3  -3  -5    7.45    0.26
   3  -3  -5    6.55    0.48
   3  -3  -5    6.91    0.44
  -3   3   5    7.84    0.51
  -3   3   5    7.15    0.46
  -3   3   5    7.70    0.44
  -3   3   5    7.22    0.35
  -3   3   5    6.78    0.53
  -3   3   5    6.95    0.43
  -3   3   5    6.92    0.58
   2  -3  -5   10.69    0.54
   2  -3  -5   11.85    0.54
   2  -3  -5   10.32    0.52
   2  -3  -5   11.22    0.54
   2  -3  -5   10.29    0.51
   2  -3  -5    9.62    0.58
   2  -3  -5   10.66    0.63
  -2   3   5    9.93    0.57
  -2   3   5   11.06    0.45
  -2   3   5   10.16    0.50
  -2   3   5    9.61    0.63
  -2   3   5   10.92    0.46
  -2   3   5   11.24    0.55
  -2   3   5    9.97    0.54
   1  -3  -5   19.40    0.70
   1  -3  -5   18.90    0.78
   1  -3  -5   19.01    0.67
   1  -3  -5   19.39    0.82
   1  -3  -5   18.82    0.72
   1  -3  -5   18.36    0.70
   1  -3  -5   19.66    0.72
   1  -3  -5   20.17    0.86
  -1   3   5   18.23    0.82
  -1   3   5   21.03    0.81
  -1   3   5   20.70    0.76
  -1   3   5   19.42    0.70
  -1   3   5   20.35    0.57
   0  -3  -5   21.02    0.83
   0  -3  -5   20.29    0.69
   0  -3  -5   20.67    0.82
   0  -3  -5   20.62    0.76
   0  -3  -5   21.40    0.78
   0  -3  -5   21.82    0.88
   0  -3  -5   22.06    0.76
   0   3   5   22.22    0.86
   0   3   5   21.55    0.47
   0   3   5   22.12    0.77
   0   3   5   22.41    0.88
   0   3   5   20.74    0.85
   0   3   5   21.78    0.77
   0   3   5   20.62    0.77
   0   3   5   21.77    0.87
  -1  -3  -5    0.59    0.18
  -1  -3  -5    0.41    0.15
  -1  -3  -5    0.30    0.18
  -1  -3  -5    0.29    0.15
  -1  -3  -5    0.21    0.19
  -1  -3  -5    0.27    0.15
   1   3   5    0.16    0.12
   1   3   5    0.53    0.19
   1   3   5    0.34    0.15
   1   3   5    0.07    0.17
   1   3   5    0.31    0.17
   1   3   5    0.36    0.09
   1   3   5    0.24    0.18
  -2  -3  -5    0.80    0.20
  -2  -3  -5    1.08    0.30
  -2  -3  -5    0.99    0.26
  -2  -3  -5    0.24    0.22
  -2  -3  -5    0.88    0.22
  -2  -3  -5    0.72    0.23
   2   3   5    0.81    0.29
   2   3   5    0.69    0.22
   2   3   5    1.51    0.29
   2   3   5    0.83    0.18
   2   3   5    0.71    0.16
   2   3   5    0.89    0.27
  -3  -3  -5    5.43    0.48
  -3  -3  -5    6.99    0.50
  -3  -3  -5    5.12    0.55
  -3  -3  -5    5.97    0.45
  -3  -3  -5    5.45    0.51
   3   3   5    5.56    0.51
   3   3   5    6.01    0.54
   3   3   5    6.24    0.58
   3   3   5    5.56    0.36
  -4  -3  -5    0.75    0.32
  -4  -3  -5    0.91    0.25
  -4  -3  -5    0.89    0.27
  -4  -3  -5    1.12    0.35
   4   3   5    1.19    0.34
   4   3   5    1.24    0.35
   4   3   5    0.65    0.32
  -5  -3  -5    4.78    0.60
   5   3   5    4.73    0.62
   5   3   5    5.57    0.73
   7  -4  -5    3.42    0.57
   7  -4  -5    3.44    0.64
   7  -4  -5    3.41    0.62
  -7   4   5    3.37    0.55
  -7   4   5    2.77    0.57
   6  -4  -5    6.84    0.61
   6  -4  -5    6.77    0.66
   6  -4  -5    5.98    0.65
  -6   4   5    5.65    0.71
  -6   4   5    6.10    0.58
   5  -4  -5    0.59    0.25
   5  -4  -5    0.96    0.27
   5  -4  -5    0.42    0.25
  -5   4   5    0.27    0.28
  -5   4   5    0.50    0.24
  -5   4   5    0.28    0.33
  -5   4   5    0.77    0.17
   4  -4  -5    0.26    0.11
   4  -4  -5    0.21    0.17
   4  -4  -5    0.70    0.22
   4  -4  -5    0.61    0.21
   4  -4  -5    0.54    0.21
  -4   4   5    0.29    0.10
  -4   4   5    0.21    0.17
  -4   4   5    0.52    0.27
  -4   4   5    0.44    0.14
  -4   4   5    0.70    0.32
  -4   4   5    0.32    0.17
  -4   4   5    0.35    0.19
   3  -4  -5   19.32    0.81
   3  -4  -5   19.81    0.78
   3  -4  -5   18.47    0.46
   3  -4  -5   18.35    0.76
   3  -4  -5   19.38    0.74
  -3   4   5   19.15    0.76
  -3   4   5   18.33    0.77
  -3   4   5   18.29    0.97
  -3   4   5   19.42    0.85
  -3   4   5   19.59    0.74
  -3   4   5   18.69    0.65
   2  -4  -5   19.57    0.73
   2  -4  -5   20.63    0.84
   2  -4  -5   18.28    0.73
   2  -4  -5   19.29    0.76
   2  -4  -5   18.88    0.75
  -2   4   5   18.35    0.64
  -2   4   5   18.76    0.75
  -2   4   5   19.33    0.78
  -2   4   5   18.88    0.68
  -2   4   5   17.76    0.79
  -2   4   5   18.32    0.93
  -2   4   5   19.22    0.62
   1  -4  -5   12.67    0.59
   1  -4  -5   11.12    0.58
   1  -4  -5   12.18    0.64
   1  -4  -5   12.13    0.56
   1  -4  -5   11.50    0.52
   1  -4  -5   12.17    0.61
  -1   4   5   11.69    0.62
  -1   4   5   11.42    0.62
  -1   4   5   12.98    0.73
  -1   4   5   12.15    0.55
  -1   4   5   12.06    0.42
  -1   4   5   10.91    0.51
  -1   4   5   11.52    0.57
   0  -4  -5    8.07    0.54
   0  -4  -5    8.07    0.54
   0  -4  -5    7.70    0.41
   0  -4  -5    7.63    0.49
   0  -4  -5    7.67    0.46
   0  -4  -5    7.94    0.48
   0   4   5    8.20    0.55
   0   4   5    7.94    0.47
   0   4   5    6.56    0.51
   0   4   5    8.37    0.57
   0   4   5    8.52    0.47
   0   4   5    7.10    0.54
   0   4   5    7.96    0.49
  -1  -4  -5   12.95    0.65
  -1  -4  -5   12.89    0.57
  -1  -4  -5   13.15    0.74
  -1  -4  -5   13.00    0.72
  -1  -4  -5   11.80    0.61
  -1  -4  -5   12.82    0.66
   1   4   5   13.98    0.65
   1   4   5   13.29    0.72
   1   4   5   13.54    0.44
   1   4   5   14.21    0.78
   1   4   5   13.46    0.79
   1   4   5   11.58    0.80
   1   4   5   13.52    0.67
  -2  -4  -5    2.57    0.33
  -2  -4  -5    1.84    0.39
  -2  -4  -5    1.78    0.32
  -2  -4  -5    2.10    0.35
  -2  -4  -5    1.98    0.33
   2   4   5    2.49    0.38
   2   4   5    2.12    0.43
  -3  -4  -5   10.08    0.63
  -3  -4  -5    9.57    0.68
  -3  -4  -5    8.11    0.61
   3   4   5   11.34    0.70
   3   4   5   10.57    0.78
  -4  -4  -5   14.81    0.85
  -4  -4  -5   13.73    0.75
  -4  -4  -5   13.59    0.86
   4   4   5   14.87    0.98
   4   4   5   14.14    0.88
   5   4   5    5.26    0.76
   7  -5  -5    7.82    0.73
   7  -5  -5    7.88    0.84
  -7   5   5    6.49    0.79
   6  -5  -5    1.29    0.40
   6  -5  -5    0.84    0.30
   6  -5  -5    1.21    0.39
  -6   5   5    0.78    0.30
  -6   5   5    0.52    0.32
   5  -5  -5    1.39    0.35
   5  -5  -5    1.88    0.38
   5  -5  -5    1.65    0.35
  -5   5   5    1.81    0.49
  -5   5   5    1.20    0.32
  -5   5   5    1.86    0.42
   4  -5  -5    1.98    0.35
   4  -5  -5    1.69    0.33
   4  -5  -5    1.40    0.33
  -4   5   5    1.13    0.37
  -4   5   5    1.24    0.34
  -4   5   5    1.54    0.31
   3  -5  -5    5.02    0.45
   3  -5  -5    5.57    0.45
   3  -5  -5    5.36    0.42
   3  -5  -5    5.31    0.40
   3  -5  -5    5.30    0.44
  -3   5   5    5.24    0.43
  -3   5   5    5.11    0.42
  -3   5   5    5.49    0.69
  -3   5   5    4.93    0.25
  -3   5   5    4.77    0.47
  -3   5   5    4.84    0.39
   2  -5  -5   21.55    0.93
   2  -5  -5   21.97    0.87
   2  -5  -5   22.96    0.84
   2  -5  -5   21.48    0.83
   2  -5  -5   21.16    0.80
  -2   5   5   22.92    0.88
  -2   5   5   22.17    0.90
  -2   5   5   20.71    0.64
  -2   5   5   21.57    1.08
  -2   5   5   20.95    0.71
  -2   5   5   21.75    0.68
  -2   5   5   22.22    0.83
   1  -5  -5    4.70    0.43
   1  -5  -5    4.59    0.43
   1  -5  -5    5.21    0.44
   1  -5  -5    4.99    0.38
   1  -5  -5    4.73    0.38
  -1   5   5    4.14    0.43
  -1   5   5    4.45    0.33
  -1   5   5    4.61    0.44
  -1   5   5    5.08    0.41
  -1   5   5    4.59    0.25
  -1   5   5    4.95    0.36
  -1   5   5    5.07    0.53
   0  -5  -5   12.58    0.71
   0  -5  -5   13.83    0.65
   0  -5  -5   13.69    0.66
   0  -5  -5   12.85    0.68
   0  -5  -5   13.12    0.57
   0  -5  -5   14.24    1.05
   0   5   5   12.86    0.71
   0   5   5   13.51    0.63
   0   5   5   12.89    0.78
   0   5   5   12.75    0.79
   0   5   5   13.90    0.61
  -1  -5  -5   10.22    0.61
  -1  -5  -5   10.27    0.60
  -1  -5  -5   10.51    0.64
   1   5   5    9.10    0.55
   1   5   5    9.27    0.70
   1   5   5    9.14    0.65
  -2  -5  -5    2.99    0.42
  -2  -5  -5    2.61    0.41
  -2  -5  -5    2.75    0.42
   2   5   5    3.94    0.58
   2   5   5    2.39    0.43
   2   5   5    3.21    0.42
  -3  -5  -5    0.86    0.32
  -3  -5  -5    0.78    0.28
  -3  -5  -5    0.50    0.26
   3   5   5    1.35    0.33
   3   5   5    1.80    0.44
  -4  -5  -5    7.07    0.67
  -4  -5  -5    7.42    0.65
   4   5   5    6.89    0.77
   4   5   5    6.84    0.65
   6  -6  -5    6.88    0.64
   6  -6  -5    8.88    1.07
  -6   6   5    7.07    0.66
  -6   6   5    7.43    0.71
   5  -6  -5    1.28    0.35
   5  -6  -5    1.06    0.33
   5  -6  -5    1.72    0.34
  -5   6   5    1.27    0.49
  -5   6   5    1.23    0.34
  -5   6   5    0.95    0.30
   4  -6  -5    6.52    0.52
   4  -6  -5    4.35    0.46
   4  -6  -5    5.05    0.48
  -4   6   5    5.06    0.55
  -4   6   5    5.51    0.49
  -4   6   5    4.77    0.72
   3  -6  -5    8.81    0.57
   3  -6  -5    9.67    0.62
   3  -6  -5    9.71    0.56
  -3   6   5    7.94    0.58
  -3   6   5    7.91    0.76
  -3   6   5    7.66    0.50
   2  -6  -5    1.23    0.29
   2  -6  -5    0.97    0.24
   2  -6  -5    1.40    0.27
  -2   6   5    1.08    0.29
  -2   6   5    0.80    0.18
  -2   6   5    1.24    0.39
   1  -6  -5    5.20    0.41
   1  -6  -5    6.19    0.52
   1  -6  -5    6.45    0.47
  -1   6   5    5.21    0.34
  -1   6   5    6.90    0.66
  -1   6   5    4.27    0.47
   0  -6  -5   35.63    1.27
   0  -6  -5   36.61    1.20
   0  -6  -5   37.21    1.19
   0   6   5   34.19    1.25
   0   6   5   38.36    1.47
   0   6   5   37.28    1.44
   0   6   5   36.11    1.06
  -1  -6  -5    1.37    0.32
  -1  -6  -5    1.37    0.29
  -1  -6  -5    1.24    0.29
   1   6   5    1.29    0.36
   1   6   5    1.11    0.36
   1   6   5    0.91    0.24
  -2  -6  -5    4.28    0.53
  -2  -6  -5    5.08    0.52
  -2  -6  -5    4.52    0.54
   2   6   5    4.86    0.49
   2   6   5    4.85    0.69
   2   6   5    3.53    0.52
  -3  -6  -5    3.31    0.49
  -3  -6  -5    3.83    0.54
  -3  -6  -5    3.67    0.54
   3   6   5    2.64    0.50
   3   6   5    3.12    0.45
   3   6   5    3.08    0.60
  -6   7   5    1.37    0.39
  -6   7   5    1.87    0.41
   5  -7  -5    0.70    0.31
   5  -7  -5    0.09    0.23
  -5   7   5    0.26    0.30
  -5   7   5    0.69    0.29
  -5   7   5   -0.04    0.37
   4  -7  -5    8.93    0.64
   4  -7  -5    7.24    0.57
   4  -7  -5    8.46    0.61
  -4   7   5    8.06    0.86
  -4   7   5    8.79    0.64
  -4   7   5    7.23    0.57
   3  -7  -5    2.65    0.39
   3  -7  -5    2.28    0.34
   3  -7  -5    2.02    0.38
  -3   7   5    2.31    0.51
  -3   7   5    1.89    0.38
   2  -7  -5    1.07    0.26
   2  -7  -5    1.02    0.31
   2  -7  -5    0.74    0.23
  -2   7   5    1.11    0.30
  -2   7   5    1.54    0.48
   1  -7  -5    4.46    0.43
   1  -7  -5    4.47    0.50
   1  -7  -5    4.18    0.41
  -1   7   5    3.51    0.58
  -1   7   5    4.81    0.55
   0  -7  -5   13.41    0.73
   0  -7  -5   14.53    0.83
   0  -7  -5   13.67    0.73
   0   7   5   14.16    0.96
   0   7   5   14.13    0.94
   0   7   5   16.42    0.87
  -1  -7  -5    9.13    0.71
  -1  -7  -5    8.49    0.62
  -1  -7  -5    9.62    0.66
   1   7   5    9.23    0.82
   1   7   5    8.83    0.74
  -2  -7  -5    2.30    0.44
  -2  -7  -5    1.38    0.37
  -2  -7  -5    1.57    0.39
   2   7   5    1.38    0.45
   2   7   5    1.62    0.40
  -5   8   5    0.66    0.31
  -4   8   5    3.84    0.51
   3  -8  -5    2.52    0.40
   3  -8  -5    2.66    0.47
  -3   8   5    3.28    0.64
  -3   8   5    2.46    0.43
   2  -8  -5   10.88    0.69
   2  -8  -5   11.68    0.78
   2  -8  -5   10.31    0.63
  -2   8   5   10.56    0.93
  -2   8   5   12.49    0.73
   1  -8  -5    3.75    0.46
   1  -8  -5    4.41    0.59
   1  -8  -5    4.01    0.43
  -1   8   5    2.36    0.53
  -1   8   5    3.81    0.51
   0  -8  -5    0.39    0.26
   0  -8  -5    0.25    0.24
   0  -8  -5   -0.09    0.25
   0   8   5    0.02    0.34
   0   8   5    0.51    0.30
   0   8   5    0.08    0.32
  -1  -8  -5    9.66    0.70
   1   8   5    9.66    0.84
   1   8   5    9.41    0.77
  -3   9   5    0.99    0.35
  -2   9   5    2.27    0.43
   0  13  -6    0.17    0.26
  -1  13  -6    2.36    0.48
   1 -13   6    3.03    0.56
   2 -13   6    6.52    0.65
   3 -13   6    0.35    0.29
   1  12  -6    0.39    0.26
  -1 -12   6    0.04    0.18
   0  12  -6    7.07    0.68
   0 -12   6    8.20    0.56
   0 -12   6    7.30    0.63
  -1  12  -6    6.25    0.62
   1 -12   6    5.90    0.58
   1 -12   6    7.05    0.46
   2 -12   6    1.10    0.36
   2 -12   6    1.30    0.16
   2 -12   6    1.52    0.31
   2 -12   6    1.16    0.18
   3 -12   6    9.96    0.75
   3 -12   6   10.66    0.71
   3 -12   6   10.89    0.70
   4 -12   6    2.29    0.45
   4 -12   6    2.87    0.57
   3  11  -6    0.84    0.49
  -3 -11   6    1.26    0.39
   2  11  -6    5.34    0.77
   2  11  -6    4.36    0.66
  -2 -11   6    5.05    0.56
  -2 -11   6    5.39    0.69
  -2 -11   6    5.19    0.54
   1  11  -6    2.31    0.45
   1  11  -6    3.16    0.67
  -1 -11   6    2.61    0.44
  -1 -11   6    2.35    0.40
  -1 -11   6    3.17    0.49
   0  11  -6    6.53    0.45
   0  11  -6    8.02    1.00
   0  11  -6    5.55    0.58
   0 -11   6    6.14    0.57
   0 -11   6    6.52    0.50
   0 -11   6    7.20    0.58
  -1  11  -6    0.85    0.40
  -1  11  -6    0.63    0.27
   1 -11   6    1.06    0.21
   1 -11   6    1.05    0.23
   1 -11   6    1.19    0.26
   1 -11   6    1.32    0.32
  -2  11  -6   30.47    1.46
   2 -11   6   30.26    1.11
   2 -11   6   33.16    1.31
   2 -11   6   30.59    0.77
   2 -11   6   30.96    0.89
  -3  11  -6    0.53    0.30
   3 -11   6    0.54    0.13
   3 -11   6    0.49    0.24
   3 -11   6    0.77    0.11
   3 -11   6    1.22    0.35
   4 -11   6    2.49    0.43
   4 -11   6    3.53    0.52
   5 -11   6   -0.13    0.21
   5 -11   6    0.28    0.26
   5 -11   6    0.33    0.10
   5 -11   6    0.27    0.12
   4  10  -6    5.06    0.77
  -4 -10   6    5.44    0.79
  -4 -10   6    5.75    0.81
   3  10  -6    0.50    0.35
   3  10  -6    0.55    0.41
  -3 -10   6    0.08    0.24
  -3 -10   6    1.08    0.35
  -3 -10   6    0.66    0.31
   2  10  -6    7.86    0.81
   2  10  -6    9.55    0.76
  -2 -10   6   10.82    0.75
  -2 -10   6    9.85    0.74
  -2 -10   6    9.24    0.67
   1  10  -6   15.24    0.91
   1  10  -6   18.01    1.11
  -1 -10   6   17.46    0.88
  -1 -10   6   16.97    0.89
  -1 -10   6   16.61    0.85
   0  10  -6    5.69    0.53
   0  10  -6    6.73    0.70
   0  10  -6    6.76    0.42
   0 -10   6    5.86    0.47
   0 -10   6    6.19    0.54
   0 -10   6    6.48    0.47
   0 -10   6    5.45    0.42
   0 -10   6    6.29    0.37
  -1  10  -6    1.06    0.38
  -1  10  -6    0.71    0.25
   1 -10   6    0.68    0.21
   1 -10   6    0.97    0.19
   1 -10   6    0.78    0.23
   1 -10   6    0.81    0.26
   1 -10   6    0.66    0.19
   1 -10   6    0.74    0.20
  -2  10  -6    5.82    0.73
   2 -10   6    6.30    0.38
   2 -10   6    6.43    0.48
   2 -10   6    6.77    0.38
   2 -10   6    6.25    0.56
   2 -10   6    6.47    0.31
  -3  10  -6    9.48    0.78
   3 -10   6    8.68    0.40
   3 -10   6    8.49    0.66
   3 -10   6    9.02    0.63
   3 -10   6    8.87    0.36
  -4  10  -6    2.28    0.47
   4 -10   6    2.93    0.25
   4 -10   6    1.67    0.39
   4 -10   6    2.47    0.22
   4 -10   6    2.73    0.50
  -5  10  -6    2.26    0.52
   5 -10   6    1.88    0.23
   5 -10   6    2.34    0.30
   5 -10   6    2.58    0.51
   5   9  -6    2.00    0.46
   5   9  -6    1.17    0.44
  -5  -9   6    2.36    0.59
   4   9  -6    6.26    0.58
   4   9  -6    5.89    0.69
   4   9  -6    5.82    0.79
  -4  -9   6    5.35    0.56
  -4  -9   6    5.80    0.75
  -4  -9   6    7.63    0.77
   3   9  -6    3.90    0.65
   3   9  -6    2.51    0.39
   3   9  -6    2.16    0.46
  -3  -9   6    3.66    0.60
  -3  -9   6    3.38    0.54
  -3  -9   6    3.08    0.43
   2   9  -6    6.95    0.71
   2   9  -6    6.06    0.60
   2   9  -6    5.88    0.39
  -2  -9   6    5.28    0.54
  -2  -9   6    5.88    0.52
  -2  -9   6    5.37    0.67
   1   9  -6   10.89    0.71
   1   9  -6   11.76    0.64
   1   9  -6   10.54    0.84
  -1  -9   6   11.44    0.67
  -1  -9   6   11.10    0.68
  -1  -9   6   12.58    0.47
  -1  -9   6   10.24    0.62
  -1  -9   6   10.33    0.67
   0   9  -6   13.53    0.54
   0   9  -6   13.95    0.60
   0   9  -6   14.19    0.76
   0   9  -6   13.47    0.90
   0  -9   6   13.45    0.65
   0  -9   6   12.40    0.66
   0  -9   6   14.02    0.55
   0  -9   6   13.13    0.75
   0  -9   6   13.92    0.55
   0  -9   6   13.97    0.62
   0  -9   6   14.18    0.73
  -1   9  -6   11.40    0.82
  -1   9  -6   12.02    0.64
   1  -9   6   11.27    0.56
   1  -9   6   10.92    0.51
   1  -9   6   12.03    0.70
   1  -9   6   11.28    0.61
   1  -9   6   10.70    0.47
   1  -9   6   11.15    0.55
   1  -9   6   10.60    0.53
   1  -9   6   11.64    0.54
  -2   9  -6   10.05    0.77
   2  -9   6   11.51    0.71
   2  -9   6   11.18    0.47
   2  -9   6   10.91    0.49
   2  -9   6   11.86    0.64
   2  -9   6   11.85    0.64
   2  -9   6   11.22    0.43
   2  -9   6   11.93    0.48
  -3   9  -6    7.07    0.65
  -3   9  -6    7.74    0.71
   3  -9   6    6.58    0.57
   3  -9   6    7.15    0.35
   3  -9   6    6.72    0.37
   3  -9   6    7.11    0.36
   3  -9   6    7.56    0.57
   3  -9   6    6.91    0.36
   3  -9   6    6.99    0.50
  -4   9  -6    0.82    0.31
  -4   9  -6    0.85    0.37
   4  -9   6    0.50    0.16
   4  -9   6    0.55    0.15
   4  -9   6    0.48    0.25
   4  -9   6    0.67    0.19
   4  -9   6    0.53    0.15
  -5   9  -6    1.10    0.41
   5  -9   6    0.68    0.32
   5  -9   6    0.98    0.19
  -6   9  -6    4.21    0.36
  -6   9  -6    3.84    0.64
   6  -9   6    4.96    0.77
   6  -9   6    3.10    0.45
   5   8  -6    1.06    0.39
   5   8  -6    0.85    0.37
   5   8  -6    0.66    0.35
  -5  -8   6    0.78    0.40
  -5  -8   6    0.69    0.43
  -5  -8   6    0.58    0.34
   4   8  -6    1.11    0.34
   4   8  -6    1.30    0.41
   4   8  -6    1.37    0.39
  -4  -8   6    1.09    0.29
  -4  -8   6    1.12    0.37
  -4  -8   6    1.83    0.44
   3   8  -6    5.53    0.58
   3   8  -6    6.30    0.66
   3   8  -6    5.58    0.50
  -3  -8   6    5.99    0.52
  -3  -8   6    5.45    0.57
  -3  -8   6    6.73    0.64
   2   8  -6    4.35    0.33
   2   8  -6    4.35    0.60
   2   8  -6    4.59    0.49
   2   8  -6    4.39    0.61
   2   8  -6    4.45    0.33
   2   8  -6    4.50    0.40
  -2  -8   6    4.14    0.53
  -2  -8   6    4.11    0.53
  -2  -8   6    5.02    0.47
  -2  -8   6    4.70    0.50
   1   8  -6   34.44    1.40
   1   8  -6   33.40    1.19
   1   8  -6   32.77    1.11
   1   8  -6   34.12    0.82
   1   8  -6   34.47    1.03
   1   8  -6   33.05    1.10
   1   8  -6   33.43    0.90
  -1  -8   6   33.46    1.21
  -1  -8   6   32.22    1.17
  -1  -8   6   32.71    1.14
  -1  -8   6   32.58    0.88
  -1  -8   6   31.63    1.19
   0   8  -6    8.98    0.70
   0   8  -6    6.75    0.41
   0   8  -6    7.83    0.44
   0   8  -6    8.15    0.49
   0   8  -6    7.19    0.49
   0  -8   6    7.48    0.40
   0  -8   6    8.10    0.47
   0  -8   6    6.71    0.44
   0  -8   6    7.35    0.48
   0  -8   6    7.96    0.46
   0  -8   6    7.64    0.41
   0  -8   6    7.06    0.50
   0  -8   6    7.18    0.52
  -1   8  -6    6.36    0.33
  -1   8  -6    6.78    0.61
  -1   8  -6    6.13    0.42
  -1   8  -6    6.42    0.50
   1  -8   6    7.16    0.37
   1  -8   6    6.96    0.44
   1  -8   6    6.58    0.51
   1  -8   6    6.01    0.37
   1  -8   6    7.16    0.42
   1  -8   6    6.91    0.48
   1  -8   6    6.81    0.38
   1  -8   6    7.06    0.43
  -2   8  -6   12.19    0.78
  -2   8  -6   10.88    0.77
   2  -8   6   12.94    0.49
   2  -8   6   12.63    0.52
   2  -8   6   11.65    0.48
   2  -8   6   12.00    0.69
   2  -8   6   12.47    0.65
   2  -8   6   13.16    0.60
   2  -8   6   12.24    0.46
   2  -8   6   12.40    0.52
  -3   8  -6   17.97    0.97
  -3   8  -6   16.48    0.91
   3  -8   6   17.56    0.62
   3  -8   6   18.78    0.60
   3  -8   6   16.81    0.71
   3  -8   6   19.30    0.63
   3  -8   6   20.54    0.94
   3  -8   6   18.63    0.63
   3  -8   6   19.00    0.89
   3  -8   6   17.91    0.63
  -4   8  -6    0.14    0.16
  -4   8  -6    0.23    0.20
  -4   8  -6    0.21    0.29
   4  -8   6    0.36    0.15
   4  -8   6    0.25    0.09
   4  -8   6    0.40    0.16
   4  -8   6    0.28    0.21
   4  -8   6    0.40    0.16
   4  -8   6    0.19    0.22
  -5   8  -6   15.85    1.01
  -5   8  -6   15.06    0.64
  -5   8  -6   15.49    0.81
   5  -8   6   14.69    0.93
   5  -8   6   15.18    0.65
   5  -8   6   16.00    0.72
  -6   8  -6    7.59    0.81
  -6   8  -6    7.86    0.52
   6  -8   6    7.33    0.51
   6  -8   6    7.99    0.77
  -7   8  -6    1.26    0.31
   5   7  -6    2.51    0.53
   5   7  -6    3.34    0.55
  -5  -7   6    2.94    0.48
  -5  -7   6    3.02    0.57
  -5  -7   6    4.03    0.69
   4   7  -6    3.41    0.57
   4   7  -6    2.68    0.48
  -4  -7   6    2.46    0.48
  -4  -7   6    2.82    0.55
  -4  -7   6    2.41    0.41
   3   7  -6    8.91    0.75
   3   7  -6    8.59    0.62
   3   7  -6    6.95    0.67
   3   7  -6    7.78    0.40
   3   7  -6    8.31    0.64
  -3  -7   6    8.61    0.72
  -3  -7   6    7.12    0.62
  -3  -7   6    6.68    0.53
  -3  -7   6    7.35    0.65
  -3  -7   6    8.47    0.81
   2   7  -6    5.39    0.36
   2   7  -6    4.54    0.46
   2   7  -6    5.33    0.45
   2   7  -6    4.83    0.46
   2   7  -6    6.09    0.59
   2   7  -6    5.14    0.34
  -2  -7   6    5.30    0.54
  -2  -7   6    5.18    0.46
  -2  -7   6    4.76    0.50
  -2  -7   6    5.72    0.49
  -2  -7   6    5.08    0.47
   1   7  -6   27.44    1.01
   1   7  -6   27.65    1.00
   1   7  -6   29.09    0.79
   1   7  -6   29.21    0.92
   1   7  -6   29.16    0.91
   1   7  -6   26.94    1.19
   1   7  -6   29.09    1.00
  -1  -7   6   29.21    1.06
  -1  -7   6   29.21    1.02
  -1  -7   6   30.15    1.09
  -1  -7   6   28.22    0.81
  -1  -7   6   28.34    1.10
   0   7  -6   16.88    0.71
   0   7  -6   15.96    0.66
   0   7  -6   15.56    0.63
   0   7  -6   15.89    0.87
   0   7  -6   15.37    0.51
   0   7  -6   15.83    0.46
   0   7  -6   16.15    0.67
   0  -7   6   15.70    0.74
   0  -7   6   15.48    0.76
   0  -7   6   17.45    0.74
   0  -7   6   17.22    0.65
   0  -7   6   16.92    0.62
   0  -7   6   16.80    0.68
   0  -7   6   16.01    0.70
   0  -7   6   15.48    0.64
  -1   7  -6   17.31    0.78
  -1   7  -6   17.72    0.91
  -1   7  -6   17.03    0.62
  -1   7  -6   16.75    0.62
   1  -7   6   18.89    0.71
   1  -7   6   18.01    0.80
   1  -7   6   16.55    0.61
   1  -7   6   17.37    0.69
   1  -7   6   18.05    0.62
   1  -7   6   17.01    0.74
   1  -7   6   16.48    0.58
   1  -7   6   16.98    0.66
  -2   7  -6   15.75    0.83
  -2   7  -6   14.50    0.81
  -2   7  -6   14.78    0.52
   2  -7   6   15.98    0.77
   2  -7   6   15.50    0.58
   2  -7   6   15.35    0.54
   2  -7   6   15.77    0.57
   2  -7   6   16.11    0.72
   2  -7   6   15.22    0.53
   2  -7   6   14.34    0.61
   2  -7   6   15.77    0.60
   2  -7   6   15.87    0.59
  -3   7  -6   10.35    0.67
  -3   7  -6   11.89    0.53
  -3   7  -6   12.64    0.79
   3  -7   6   12.49    0.53
   3  -7   6   11.45    0.51
   3  -7   6   11.50    0.50
   3  -7   6   11.62    0.46
   3  -7   6   11.80    0.47
   3  -7   6   11.59    0.67
   3  -7   6   10.84    0.49
   3  -7   6   11.87    0.51
  -4   7  -6   13.13    0.72
  -4   7  -6   13.65    0.58
  -4   7  -6   12.27    0.81
   4  -7   6   11.89    0.58
   4  -7   6   11.13    0.58
   4  -7   6   11.96    0.54
   4  -7   6   13.62    0.79
   4  -7   6   11.86    0.57
  -5   7  -6    0.27    0.19
  -5   7  -6    0.91    0.40
  -5   7  -6    0.14    0.16
   5  -7   6    0.35    0.23
   5  -7   6    0.22    0.18
   5  -7   6    0.29    0.28
  -6   7  -6   12.26    0.91
  -6   7  -6   10.48    0.63
   6  -7   6   11.20    0.65
   6  -7   6   11.52    0.87
   6  -7   6   11.70    0.73
  -7   7  -6    7.18    0.59
   6   6  -6    3.14    0.59
  -6  -6   6    4.37    0.87
  -6  -6   6    2.96    0.51
   5   6  -6    2.68    0.49
   5   6  -6    3.46    0.60
  -5  -6   6    2.10    0.39
  -5  -6   6    4.14    0.66
  -5  -6   6    3.80    0.68
   4   6  -6    9.75    0.51
   4   6  -6   11.56    0.94
   4   6  -6   10.61    0.78
   4   6  -6   10.21    0.74
  -4  -6   6   10.67    0.87
  -4  -6   6   10.13    0.80
  -4  -6   6   10.07    0.75
  -4  -6   6    9.68    0.64
   3   6  -6   59.21    1.81
   3   6  -6   56.60    1.81
   3   6  -6   56.48    1.81
   3   6  -6   58.42    1.37
   3   6  -6   57.84    1.76
  -3  -6   6   58.33    1.63
  -3  -6   6   54.09    1.81
  -3  -6   6   56.98    1.89
  -3  -6   6   59.53    1.79
  -3  -6   6   61.68    1.79
   2   6  -6   19.03    0.86
   2   6  -6   18.88    0.95
   2   6  -6   18.46    0.70
   2   6  -6   17.91    0.83
   2   6  -6   20.14    0.69
  -2  -6   6   20.08    0.86
  -2  -6   6   20.03    0.83
  -2  -6   6   20.57    0.87
  -2  -6   6   19.63    0.92
  -2  -6   6   19.37    0.94
  -2  -6   6   19.64    0.95
   1   6  -6   22.10    0.69
   1   6  -6   21.87    0.88
   1   6  -6   21.01    0.80
   1   6  -6   22.35    0.75
   1   6  -6   21.81    0.99
   1   6  -6   22.62    0.81
  -1  -6   6   21.95    0.86
  -1  -6   6   20.58    0.86
  -1  -6   6   21.33    0.68
  -1  -6   6   21.97    0.82
  -1  -6   6   22.64    0.84
  -1  -6   6   22.98    0.92
  -1  -6   6   21.52    0.92
  -1  -6   6   22.40    0.84
  -1  -6   6   22.62    0.88
   0   6  -6   64.18    1.59
   0   6  -6   67.09    1.55
   0   6  -6   65.24    1.48
   0   6  -6   63.97    1.35
   0   6  -6   62.70    1.47
   0   6  -6   66.36    1.85
   0   6  -6   62.97    1.58
   0  -6   6   64.52    1.51
   0  -6   6   62.73    1.47
   0  -6   6   65.12    1.67
   0  -6   6   64.02    1.60
   0  -6   6   63.06    1.63
   0  -6   6   61.86    1.63
   0  -6   6   64.93    1.55
   0  -6   6   63.95    1.64
   0  -6   6   63.39    1.52
  -1   6  -6   36.75    1.02
  -1   6  -6   37.21    0.91
  -1   6  -6   39.45    0.87
  -1   6  -6   39.03    1.27
  -1   6  -6   36.02    1.27
  -1   6  -6   37.66    1.20
   1  -6   6   36.24    1.24
   1  -6   6   38.63    1.09
   1  -6   6   38.79    1.02
   1  -6   6   39.82    1.21
   1  -6   6   40.51    1.07
   1  -6   6   37.65    0.98
   1  -6   6   38.49    1.00
   1  -6   6   38.60    1.08
   1  -6   6   37.16    1.08
  -2   6  -6    3.33    0.18
  -2   6  -6    4.06    0.52
  -2   6  -6    2.82    0.17
  -2   6  -6    3.13    0.30
  -2   6  -6    2.35    0.38
   2  -6   6    3.16    0.28
   2  -6   6    3.04    0.38
   2  -6   6    3.36    0.24
   2  -6   6    3.13    0.24
   2  -6   6    3.23    0.42
   2  -6   6    3.22    0.29
   2  -6   6    2.88    0.24
   2  -6   6    3.20    0.22
   2  -6   6    3.25    0.27
  -3   6  -6    5.40    0.51
  -3   6  -6    5.27    0.47
  -3   6  -6    5.41    0.38
  -3   6  -6    5.49    0.33
   3  -6   6    5.82    0.37
   3  -6   6    5.53    0.32
   3  -6   6    6.44    0.40
   3  -6   6    5.62    0.37
   3  -6   6    5.63    0.37
   3  -6   6    6.12    0.23
   3  -6   6    5.58    0.48
   3  -6   6    5.50    0.33
   3  -6   6    5.83    0.22
  -4   6  -6    0.93    0.33
  -4   6  -6    1.03    0.27
  -4   6  -6    0.64    0.15
  -4   6  -6    0.88    0.22
   4  -6   6    0.63    0.18
   4  -6   6    1.13    0.31
   4  -6   6    0.98    0.22
   4  -6   6    1.27    0.25
   4  -6   6    0.94    0.22
  -5   6  -6    3.56    0.36
  -5   6  -6    3.23    0.51
  -5   6  -6    3.10    0.40
   5  -6   6    4.40    0.45
   5  -6   6    4.58    0.59
   5  -6   6    3.86    0.39
  -6   6  -6    8.98    0.80
  -6   6  -6    6.65    0.55
   6  -6   6    7.67    0.74
   6  -6   6    7.59    0.59
   6  -6   6    7.74    0.63
  -7   6  -6    2.73    0.46
   7  -6   6    2.65    0.49
   6   5  -6    6.22    0.82
  -6  -5   6   10.08    0.85
  -6  -5   6    8.75    0.67
   5   5  -6    1.59    0.37
   5   5  -6    1.53    0.43
  -5  -5   6    2.14    0.54
  -5  -5   6    1.96    0.46
  -5  -5   6    1.91    0.36
  -5  -5   6    0.71    0.31
   4   5  -6    4.15    0.63
   4   5  -6    5.46    0.36
   4   5  -6    6.03    0.70
   4   5  -6    5.22    0.54
   4   5  -6    5.41    0.69
  -4  -5   6    4.32    0.66
  -4  -5   6    4.43    0.43
  -4  -5   6    5.01    0.63
  -4  -5   6    4.68    0.61
  -4  -5   6    6.10    0.74
   3   5  -6    9.53    0.66
   3   5  -6    9.66    0.68
   3   5  -6   10.07    0.46
   3   5  -6    8.34    0.62
   3   5  -6    9.63    0.66
  -3  -5   6    9.30    0.56
  -3  -5   6    9.81    0.65
  -3  -5   6    9.23    0.72
  -3  -5   6    8.95    0.61
  -3  -5   6    9.89    0.70
   2   5  -6   38.40    1.27
   2   5  -6   40.38    1.36
   2   5  -6   39.99    1.19
   2   5  -6   40.84    1.29
   2   5  -6   39.54    1.05
   2   5  -6   37.99    1.10
   2   5  -6   38.65    1.32
  -2  -5   6   40.51    1.20
  -2  -5   6   38.57    1.05
  -2  -5   6   39.33    1.31
  -2  -5   6   39.68    1.37
  -2  -5   6   41.58    1.20
  -2  -5   6   38.76    1.25
   1   5  -6   43.54    1.17
   1   5  -6   43.77    1.25
   1   5  -6   44.89    1.17
   1   5  -6   44.58    1.27
   1   5  -6   43.10    1.38
   1   5  -6   44.63    1.11
  -1  -5   6   43.85    1.10
  -1  -5   6   43.00    1.23
  -1  -5   6   43.31    1.30
  -1  -5   6   43.61    1.23
  -1  -5   6   42.42    1.33
  -1  -5   6   46.42    1.29
  -1  -5   6   45.11    1.27
  -1  -5   6   45.53    1.23
  -1  -5   6   43.52    1.23
   0   5  -6   11.03    0.52
   0   5  -6   10.84    0.53
   0   5  -6   11.33    0.54
   0   5  -6   10.26    0.49
   0   5  -6   11.06    0.44
   0   5  -6   11.21    0.41
   0   5  -6   11.94    0.47
   0   5  -6   10.32    0.61
   0  -5   6   10.32    0.47
   0  -5   6   11.20    0.56
   0  -5   6   10.64    0.52
   0  -5   6   10.91    0.51
   0  -5   6   10.31    0.49
   0  -5   6   11.77    0.51
   0  -5   6   11.60    0.54
   0  -5   6    9.99    0.54
   0  -5   6   10.56    0.47
  -1   5  -6   23.24    0.92
  -1   5  -6   23.73    0.90
  -1   5  -6   24.11    0.69
  -1   5  -6   24.41    0.74
  -1   5  -6   22.59    0.75
  -1   5  -6   23.54    0.71
  -1   5  -6   23.99    0.89
  -1   5  -6   23.85    0.82
   1  -5   6   21.76    0.78
   1  -5   6   22.61    0.79
   1  -5   6   23.82    0.72
   1  -5   6   22.60    0.70
   1  -5   6   23.61    0.77
   1  -5   6   22.55    0.73
   1  -5   6   24.50    0.87
   1  -5   6   23.84    0.81
   1  -5   6   23.21    0.71
  -2   5  -6   25.76    0.85
  -2   5  -6   26.15    0.76
  -2   5  -6   26.10    0.79
  -2   5  -6   26.56    0.77
  -2   5  -6   26.03    0.98
  -2   5  -6   25.02    0.96
   2  -5   6   26.54    0.82
   2  -5   6   26.44    0.85
   2  -5   6   27.15    0.95
   2  -5   6   26.14    0.76
   2  -5   6   25.45    0.78
   2  -5   6   26.23    0.63
   2  -5   6   26.56    0.82
   2  -5   6   27.77    0.95
  -3   5  -6    2.66    0.29
  -3   5  -6    3.54    0.42
  -3   5  -6    2.55    0.24
  -3   5  -6    2.55    0.39
  -3   5  -6    2.58    0.26
  -3   5  -6    2.48    0.22
   3  -5   6    2.45    0.31
   3  -5   6    2.37    0.30
   3  -5   6    2.28    0.19
   3  -5   6    2.94    0.34
   3  -5   6    2.34    0.35
   3  -5   6    2.42    0.25
   3  -5   6    2.81    0.35
  -4   5  -6    7.19    0.49
  -4   5  -6    7.04    0.41
  -4   5  -6    7.16    0.58
  -4   5  -6    7.79    0.45
  -4   5  -6    7.12    0.49
  -4   5  -6    7.14    0.37
   4  -5   6    7.26    0.52
   4  -5   6    7.59    0.51
   4  -5   6    7.77    0.49
   4  -5   6    7.67    0.58
  -5   5  -6   13.51    0.83
  -5   5  -6   12.59    0.58
  -5   5  -6   11.45    0.49
  -5   5  -6   11.78    0.67
   5  -5   6   11.92    0.67
   5  -5   6   11.66    0.78
   5  -5   6   12.53    0.72
  -6   5  -6    2.88    0.51
  -6   5  -6    2.60    0.45
   6  -5   6    2.83    0.45
   6  -5   6    3.59    0.56
   6  -5   6    2.97    0.48
  -7   5  -6    9.63    0.77
   7  -5   6   11.87    0.88
   7  -5   6   10.72    0.81
   7  -5   6   10.32    1.04
  -7  -4   6    5.70    0.76
   6   4  -6    0.75    0.42
   6   4  -6    1.00    0.31
  -6  -4   6    1.66    0.54
  -6  -4   6    1.38    0.43
  -6  -4   6    1.66    0.40
   5   4  -6    0.40    0.27
   5   4  -6    0.52    0.23
   5   4  -6    0.45    0.27
  -5  -4   6    0.08    0.19
  -5  -4   6    0.26    0.28
  -5  -4   6    0.35    0.28
  -5  -4   6    0.09    0.19
  -5  -4   6    0.69    0.31
   4   4  -6    3.91    0.54
   4   4  -6    3.28    0.52
   4   4  -6    2.91    0.39
   4   4  -6    2.64    0.43
   4   4  -6    3.58    0.49
   4   4  -6    4.02    0.58
  -4  -4   6    3.28    0.49
  -4  -4   6    3.77    0.53
  -4  -4   6    3.50    0.57
  -4  -4   6    3.42    0.37
  -4  -4   6    3.61    0.56
   3   4  -6   12.49    0.67
   3   4  -6   11.37    0.70
   3   4  -6   12.97    0.71
   3   4  -6   12.32    0.51
   3   4  -6   12.30    0.76
   3   4  -6   11.69    0.70
  -3  -4   6   10.32    0.65
  -3  -4   6   11.63    0.78
  -3  -4   6   11.66    0.59
  -3  -4   6   11.81    0.73
   2   4  -6    1.65    0.30
   2   4  -6    1.69    0.28
   2   4  -6    1.37    0.22
   2   4  -6    1.75    0.26
   2   4  -6    1.80    0.33
   2   4  -6    1.45    0.31
   2   4  -6    1.73    0.32
   2   4  -6    1.78    0.23
  -2  -4   6    2.09    0.36
  -2  -4   6    1.46    0.27
  -2  -4   6    1.97    0.29
  -2  -4   6    1.68    0.16
  -2  -4   6    1.20    0.23
  -2  -4   6    1.74    0.30
  -2  -4   6    1.82    0.36
  -2  -4   6    1.26    0.22
  -2  -4   6    1.23    0.24
   1   4  -6   10.00    0.46
   1   4  -6   10.99    0.47
   1   4  -6   10.99    0.50
   1   4  -6   10.20    0.56
   1   4  -6   10.92    0.56
   1   4  -6   10.28    0.51
   1   4  -6    9.62    0.52
   1   4  -6   11.13    0.60
  -1  -4   6    9.89    0.57
  -1  -4   6   10.16    0.50
  -1  -4   6   11.24    0.54
  -1  -4   6   10.68    0.48
  -1  -4   6   10.28    0.56
  -1  -4   6    9.99    0.50
  -1  -4   6   10.31    0.51
  -1  -4   6   10.39    0.50
  -1  -4   6   10.20    0.45
  -1  -4   6    9.55    0.52
   0   4  -6    7.96    0.28
   0   4  -6    8.80    0.40
   0   4  -6    7.72    0.43
   0   4  -6    8.37    0.40
   0   4  -6    7.61    0.43
   0   4  -6    7.69    0.45
   0   4  -6    8.03    0.51
   0   4  -6    7.95    0.44
   0  -4   6    7.58    0.39
   0  -4   6    6.91    0.42
   0  -4   6    8.08    0.43
   0  -4   6    8.12    0.41
   0  -4   6    7.76    0.47
   0  -4   6    7.74    0.44
   0  -4   6    7.66    0.42
   0  -4   6    7.86    0.40
   0  -4   6    8.07    0.41
   0  -4   6    8.81    0.40
  -1   4  -6   65.09    1.60
  -1   4  -6   63.39    1.61
  -1   4  -6   66.86    1.48
  -1   4  -6   65.81    1.64
  -1   4  -6   62.33    1.49
  -1   4  -6   66.38    1.67
  -1   4  -6   63.57    1.47
   1  -4   6   63.39    1.54
   1  -4   6   65.87    1.54
   1  -4   6   66.97    1.58
   1  -4   6   65.29    1.34
   1  -4   6   65.33    1.51
   1  -4   6   66.18    1.49
   1  -4   6   64.78    1.78
   1  -4   6   67.37    1.61
   1  -4   6   64.94    1.47
   1  -4   6   66.41    1.46
  -2   4  -6   26.71    0.89
  -2   4  -6   28.12    0.86
  -2   4  -6   26.68    0.81
  -2   4  -6   26.86    0.80
  -2   4  -6   27.87    0.96
  -2   4  -6   29.97    0.90
  -2   4  -6   26.64    1.01
  -2   4  -6   26.98    0.93
   2  -4   6   26.33    0.85
   2  -4   6   26.50    0.89
   2  -4   6   26.23    0.88
   2  -4   6   26.17    0.79
   2  -4   6   26.60    0.85
   2  -4   6   26.84    0.57
   2  -4   6   27.03    0.84
   2  -4   6   25.24    0.90
  -3   4  -6   46.15    1.19
  -3   4  -6   45.73    1.15
  -3   4  -6   47.37    1.30
  -3   4  -6   44.89    1.29
  -3   4  -6   47.35    1.29
  -3   4  -6   42.50    1.34
   3  -4   6   45.19    1.37
   3  -4   6   47.20    1.29
   3  -4   6   45.42    1.45
   3  -4   6   47.07    1.29
   3  -4   6   44.50    1.25
  -4   4  -6    2.35    0.26
  -4   4  -6    2.48    0.34
  -4   4  -6    2.51    0.36
  -4   4  -6    2.60    0.33
  -4   4  -6    2.13    0.38
  -4   4  -6    2.45    0.37
   4  -4   6    2.24    0.36
   4  -4   6    2.02    0.36
   4  -4   6    2.00    0.34
   4  -4   6    1.83    0.32
  -5   4  -6    1.08    0.22
  -5   4  -6    1.37    0.35
  -5   4  -6    1.16    0.23
  -5   4  -6    2.03    0.41
   5  -4   6    1.50    0.33
   5  -4   6    1.47    0.36
   5  -4   6    1.14    0.32
  -6   4  -6    4.51    0.39
  -6   4  -6    4.20    0.57
  -6   4  -6    3.84    0.57
   6  -4   6    4.12    0.60
   6  -4   6    3.88    0.52
   6  -4   6    4.89    0.61
  -7   4  -6    0.92    0.40
   7  -4   6    0.85    0.37
   7  -4   6    1.45    0.39
   7  -4   6    1.51    0.45
   7   3  -6    0.31    0.62
  -7  -3   6    0.15    0.28
  -7  -3   6    0.40    0.42
  -7  -3   6    0.22    0.27
   6   3  -6    0.57    0.36
   6   3  -6    1.10    0.41
   6   3  -6    0.89    0.29
  -6  -3   6    1.42    0.48
  -6  -3   6    2.02    0.49
  -6  -3   6    1.11    0.28
   5   3  -6    1.35    0.32
   5   3  -6    1.63    0.39
   5   3  -6    1.41    0.41
   5   3  -6    1.22    0.41
  -5  -3   6    1.22    0.28
  -5  -3   6    1.72    0.43
  -5  -3   6    1.84    0.42
  -5  -3   6    0.96    0.42
   4   3  -6   21.98    0.97
   4   3  -6   19.97    1.02
   4   3  -6   21.45    0.90
   4   3  -6   19.03    1.01
   4   3  -6   20.29    1.01
   4   3  -6   19.61    0.96
  -4  -3   6   19.08    0.94
  -4  -3   6   19.31    0.79
  -4  -3   6   19.20    1.01
  -4  -3   6   20.84    1.10
   3   3  -6   12.23    0.70
   3   3  -6   12.06    0.60
   3   3  -6   12.64    0.74
   3   3  -6   13.23    0.68
   3   3  -6   12.19    0.73
   3   3  -6   13.67    0.77
   3   3  -6   13.28    0.54
  -3  -3   6   13.37    0.52
  -3  -3   6   12.79    0.67
  -3  -3   6   12.55    0.52
  -3  -3   6   13.73    0.81
  -3  -3   6   11.31    0.67
  -3  -3   6   13.28    0.75
  -3  -3   6   13.69    0.60
   2   3  -6   56.52    1.59
   2   3  -6   60.42    1.63
   2   3  -6   56.52    1.42
   2   3  -6   57.25    1.49
   2   3  -6   56.98    1.36
   2   3  -6   59.88    1.57
   2   3  -6   58.16    1.62
   2   3  -6   57.65    1.45
  -2  -3   6   56.62    1.30
  -2  -3   6   56.76    1.65
  -2  -3   6   58.59    1.57
  -2  -3   6   55.19    1.27
  -2  -3   6   58.34    1.44
  -2  -3   6   55.34    1.59
  -2  -3   6   58.23    1.48
  -2  -3   6   55.81    1.53
  -2  -3   6   58.52    1.49
  -2  -3   6   59.07    1.42
   1   3  -6   13.47    0.57
   1   3  -6   13.80    0.56
   1   3  -6   14.52    0.63
   1   3  -6   14.08    0.64
   1   3  -6   13.23    0.55
   1   3  -6   13.70    0.55
   1   3  -6   14.07    0.64
  -1  -3   6   13.96    0.61
  -1  -3   6   14.13    0.58
  -1  -3   6   14.48    0.58
  -1  -3   6   15.09    0.69
  -1  -3   6   13.85    0.62
  -1  -3   6   14.07    0.54
  -1  -3   6   13.64    0.49
  -1  -3   6   14.18    0.54
  -1  -3   6   12.85    0.62
  -1  -3   6   13.96    0.57
   0   3  -6   35.49    1.02
   0   3  -6   37.29    1.02
   0   3  -6   34.75    0.96
   0   3  -6   36.61    1.11
   0   3  -6   36.56    1.04
   0   3  -6   36.80    1.04
   0   3  -6   36.18    1.03
   0   3  -6   38.27    1.03
   0   3  -6   36.38    0.98
   0  -3   6   33.59    1.00
   0  -3   6   36.10    1.09
   0  -3   6   36.75    0.88
   0  -3   6   35.89    0.90
   0  -3   6   37.11    1.06
   0  -3   6   35.07    1.03
   0  -3   6   35.50    0.96
   0  -3   6   36.49    1.01
   0  -3   6   36.45    0.98
   0  -3   6   35.59    0.98
  -1   3  -6   47.65    1.29
  -1   3  -6   46.21    1.09
  -1   3  -6   44.47    1.15
  -1   3  -6   45.07    1.20
  -1   3  -6   46.12    1.18
  -1   3  -6   46.90    1.17
  -1   3  -6   44.42    1.17
  -1   3  -6   46.17    1.25
   1  -3   6   44.33    1.22
   1  -3   6   45.57    1.15
   1  -3   6   45.39    1.19
   1  -3   6   44.19    1.11
   1  -3   6   45.86    0.95
   1  -3   6   44.02    1.18
   1  -3   6   42.70    1.17
   1  -3   6   44.86    1.24
  -2   3  -6   53.06    1.30
  -2   3  -6   54.45    1.33
  -2   3  -6   53.94    1.40
  -2   3  -6   54.77    1.42
  -2   3  -6   55.36    1.42
  -2   3  -6   52.20    1.41
  -2   3  -6   51.81    1.51
   2  -3   6   56.75    1.33
   2  -3   6   52.20    1.36
   2  -3   6   52.76    1.41
   2  -3   6   53.84    1.05
   2  -3   6   55.19    1.37
   2  -3   6   55.61    1.38
   2  -3   6   51.26    1.36
   2  -3   6   54.31    1.41
  -3   3  -6   14.72    0.61
  -3   3  -6   13.81    0.67
  -3   3  -6   14.05    0.68
  -3   3  -6   13.90    0.57
  -3   3  -6   13.44    0.67
   3  -3   6   14.28    0.62
   3  -3   6   14.61    0.67
   3  -3   6   15.05    0.70
   3  -3   6   12.37    0.62
   3  -3   6   15.03    0.71
  -4   3  -6   16.69    0.82
  -4   3  -6   18.33    0.69
  -4   3  -6   17.81    0.82
  -4   3  -6   17.51    0.68
  -4   3  -6   15.73    0.80
  -4   3  -6   17.37    0.72
   4  -3   6   17.11    0.82
   4  -3   6   16.12    0.84
   4  -3   6   17.89    0.84
   4  -3   6   16.43    0.79
  -5   3  -6    4.81    0.39
  -5   3  -6    5.24    0.53
  -5   3  -6    4.90    0.50
  -5   3  -6    4.38    0.56
   5  -3   6    4.69    0.50
   5  -3   6    5.12    0.53
   5  -3   6    4.30    0.54
  -6   3  -6    8.80    0.74
  -6   3  -6    7.75    0.52
  -6   3  -6    7.77    0.69
   6  -3   6    8.20    0.69
   6  -3   6    8.41    0.70
   6  -3   6    8.77    0.74
  -7   3  -6    0.47    0.35
  -7   3  -6    0.03    0.18
   7  -3   6    0.17    0.36
   7  -3   6    0.00    0.28
   7   2  -6   -0.13    0.32
   7   2  -6    0.09    0.33
  -7  -2   6   -0.17    0.22
  -7  -2   6    0.34    0.39
  -7  -2   6    0.17    0.26
   6   2  -6    2.23    0.55
   6   2  -6    3.03    0.42
   6   2  -6    3.17    0.61
  -6  -2   6    4.19    0.51
  -6  -2   6    2.91    0.61
  -6  -2   6    3.12    0.42
  -6  -2   6    4.04    0.63
   5   2  -6   20.95    1.09
   5   2  -6   18.55    0.99
   5   2  -6   19.90    1.11
   5   2  -6   18.97    0.86
   5   2  -6   20.31    1.09
  -5  -2   6   20.69    0.84
  -5  -2   6   20.53    1.03
  -5  -2   6   18.15    1.11
  -5  -2   6   22.73    1.13
   4   2  -6   37.42    1.42
   4   2  -6   37.00    1.39
   4   2  -6   37.45    1.37
   4   2  -6   37.84    1.31
  -4  -2   6   37.24    1.27
  -4  -2   6   35.36    1.45
  -4  -2   6   36.95    1.32
  -4  -2   6   37.22    1.13
  -4  -2   6   39.22    1.43
  -4  -2   6   37.73    1.11
   3   2  -6   18.58    0.83
   3   2  -6   18.20    0.84
   3   2  -6   19.49    0.89
   3   2  -6   19.44    0.71
   3   2  -6   18.42    0.79
   3   2  -6   16.60    0.65
   3   2  -6   18.06    0.88
  -3  -2   6   17.58    0.76
  -3  -2   6   18.14    0.82
  -3  -2   6   18.00    0.84
  -3  -2   6   17.85    0.66
  -3  -2   6   19.58    0.89
  -3  -2   6   18.27    0.92
  -3  -2   6   17.22    0.53
  -3  -2   6   18.58    0.69
   2   2  -6   14.07    0.68
   2   2  -6   15.12    0.69
   2   2  -6   13.79    0.55
   2   2  -6   14.42    0.66
   2   2  -6   14.18    0.56
   2   2  -6   14.18    0.61
   2   2  -6   13.73    0.68
   2   2  -6   15.12    0.65
  -2  -2   6   15.03    0.75
  -2  -2   6   14.33    0.56
  -2  -2   6   15.07    0.64
  -2  -2   6   14.00    0.66
  -2  -2   6   13.17    0.65
  -2  -2   6   13.28    0.68
  -2  -2   6   14.50    0.55
  -2  -2   6   15.47    0.57
  -2  -2   6   15.08    0.61
  -2  -2   6   14.51    0.43
   1   2  -6    5.03    0.35
   1   2  -6    5.22    0.33
   1   2  -6    5.04    0.37
   1   2  -6    5.04    0.38
   1   2  -6    5.09    0.29
   1   2  -6    4.70    0.36
   1   2  -6    4.99    0.36
   1   2  -6    4.86    0.30
   1   2  -6    4.92    0.33
  -1  -2   6    4.89    0.37
  -1  -2   6    4.97    0.23
  -1  -2   6    4.12    0.35
  -1  -2   6    4.81    0.29
  -1  -2   6    4.89    0.33
  -1  -2   6    5.34    0.42
  -1  -2   6    4.14    0.34
  -1  -2   6    4.22    0.30
  -1  -2   6    5.05    0.31
  -1  -2   6    4.74    0.32
   0   2  -6   35.46    1.01
   0   2  -6   34.82    0.97
   0   2  -6   34.39    0.98
   0   2  -6   34.49    1.08
   0   2  -6   36.77    0.99
   0   2  -6   34.29    0.72
   0   2  -6   35.03    0.93
   0   2  -6   34.60    0.94
   0   2  -6   35.56    1.01
   0  -2   6   32.85    0.92
   0  -2   6   33.00    0.93
   0  -2   6   33.91    1.01
   0  -2   6   35.30    1.06
   0  -2   6   34.10    0.95
   0  -2   6   32.51    0.98
   0  -2   6   34.93    0.84
   0  -2   6   33.47    0.91
   0  -2   6   34.25    1.02
  -1   2  -6    3.05    0.27
  -1   2  -6    2.81    0.30
  -1   2  -6    3.86    0.32
  -1   2  -6    3.25    0.29
  -1   2  -6    3.04    0.23
  -1   2  -6    3.20    0.29
  -1   2  -6    2.78    0.26
  -1   2  -6    3.14    0.28
   1  -2   6    3.16    0.27
   1  -2   6    2.41    0.32
   1  -2   6    2.76    0.19
   1  -2   6    2.63    0.27
   1  -2   6    2.32    0.26
   1  -2   6    2.73    0.24
   1  -2   6    2.87    0.31
   1  -2   6    3.10    0.27
  -2   2  -6   14.45    0.59
  -2   2  -6   13.52    0.65
  -2   2  -6   14.50    0.66
  -2   2  -6   13.72    0.67
  -2   2  -6   13.46    0.56
  -2   2  -6   13.66    0.42
  -2   2  -6   14.10    0.66
  -2   2  -6   14.52    0.61
   2  -2   6   13.97    0.68
   2  -2   6   13.69    0.61
   2  -2   6   13.95    0.39
   2  -2   6   12.85    0.55
   2  -2   6   14.28    0.63
   2  -2   6   13.35    0.62
   2  -2   6   13.40    0.60
  -3   2  -6   21.23    0.80
  -3   2  -6   19.78    0.85
  -3   2  -6   22.61    1.12
  -3   2  -6   19.72    0.87
  -3   2  -6   20.91    0.75
  -3   2  -6   20.37    0.44
  -3   2  -6   20.26    0.77
   3  -2   6   21.35    0.86
   3  -2   6   20.13    0.72
   3  -2   6   20.98    0.82
   3  -2   6   20.41    0.65
   3  -2   6   20.62    0.82
   3  -2   6   20.49    0.87
  -4   2  -6   14.64    0.68
  -4   2  -6   14.62    0.65
  -4   2  -6   15.05    0.72
  -4   2  -6   14.74    0.79
   4  -2   6   14.61    0.82
   4  -2   6   15.37    0.78
   4  -2   6   15.60    0.64
   4  -2   6   15.21    0.80
   4  -2   6   15.97    0.77
  -5   2  -6    6.10    0.46
  -5   2  -6    7.09    0.62
  -5   2  -6    6.94    0.58
   5  -2   6    6.90    0.62
   5  -2   6    6.30    0.57
   5  -2   6    6.03    0.58
  -6   2  -6    3.01    0.42
  -6   2  -6    3.51    0.59
  -6   2  -6    2.35    0.45
   6  -2   6    3.04    0.55
   6  -2   6    4.23    0.56
   6  -2   6    3.46    0.53
  -7   2  -6    2.36    0.40
  -7   2  -6    2.33    0.56
   7  -2   6    2.43    0.53
   7  -2   6    2.11    0.49
   7   1  -6    1.33    0.46
   7   1  -6    0.00    0.31
  -7  -1   6    1.22    0.36
  -7  -1   6    0.69    0.44
  -7  -1   6    1.37    0.40
   6   1  -6    1.21    0.44
   6   1  -6    1.01    0.35
   6   1  -6    1.04    0.42
   6   1  -6    0.72    0.28
  -6  -1   6    0.85    0.33
  -6  -1   6    0.64    0.27
  -6  -1   6    0.25    0.33
   5   1  -6    1.80    0.39
   5   1  -6    1.56    0.40
   5   1  -6    1.41    0.24
   5   1  -6    1.68    0.45
   5   1  -6    1.16    0.36
  -5  -1   6    1.36    0.42
  -5  -1   6    1.74    0.37
  -5  -1   6    2.09    0.32
  -5  -1   6    2.31    0.47
   4   1  -6   66.30    1.82
   4   1  -6   63.53    1.94
   4   1  -6   64.07    1.86
   4   1  -6   63.85    1.60
   4   1  -6   65.27    1.93
  -4  -1   6   64.63    1.93
  -4  -1   6   65.83    1.56
  -4  -1   6   62.68    1.21
  -4  -1   6   65.37    1.83
  -4  -1   6   62.80    1.73
  -4  -1   6   66.14    1.74
  -4  -1   6   62.62    1.99
   3   1  -6    5.79    0.45
   3   1  -6    5.27    0.48
   3   1  -6    5.48    0.44
   3   1  -6    6.46    0.50
   3   1  -6    5.38    0.46
   3   1  -6    5.47    0.36
  -3  -1   6    5.86    0.34
  -3  -1   6    5.92    0.47
  -3  -1   6    5.20    0.46
  -3  -1   6    5.68    0.42
  -3  -1   6    5.45    0.38
  -3  -1   6    4.81    0.39
  -3  -1   6    6.13    0.54
  -3  -1   6    6.45    0.52
   2   1  -6    1.21    0.23
   2   1  -6    1.57    0.28
   2   1  -6    1.20    0.19
   2   1  -6    1.68    0.24
   2   1  -6    1.42    0.23
   2   1  -6    1.18    0.25
   2   1  -6    1.88    0.31
  -2  -1   6    1.24    0.24
  -2  -1   6    1.30    0.20
  -2  -1   6    1.18    0.21
  -2  -1   6    1.16    0.26
  -2  -1   6    0.61    0.20
  -2  -1   6    1.12    0.17
  -2  -1   6    1.00    0.20
  -2  -1   6    1.24    0.22
  -2  -1   6    1.47    0.30
   1   1  -6   19.44    0.56
   1   1  -6   19.49    0.74
   1   1  -6   19.42    0.80
   1   1  -6   19.01    0.69
   1   1  -6   18.85    0.69
   1   1  -6   18.40    0.71
   1   1  -6   18.55    0.68
   1   1  -6   19.30    0.74
   1   1  -6   20.36    0.68
  -1  -1   6   18.94    0.74
  -1  -1   6   20.18    0.69
  -1  -1   6   19.25    0.58
  -1  -1   6   18.89    0.72
  -1  -1   6   19.79    0.70
  -1  -1   6   17.46    0.76
  -1  -1   6   19.52    0.75
  -1  -1   6   19.74    0.62
  -1  -1   6   18.97    0.65
   0   1  -6   22.47    0.77
   0   1  -6   23.43    0.77
   0   1  -6   22.35    0.76
   0   1  -6   22.94    0.60
   0   1  -6   21.71    0.75
   0   1  -6   21.11    0.73
   0   1  -6   22.03    0.83
   0   1  -6   21.18    0.65
   0   1  -6   21.52    0.68
   0  -1   6   23.05    0.80
   0  -1   6   22.33    0.83
   0  -1   6   22.04    0.70
   0  -1   6   21.76    0.65
   0  -1   6   22.67    0.74
   0  -1   6   22.27    0.65
   0  -1   6   22.59    0.73
   0  -1   6   20.86    0.78
   0  -1   6   20.80    0.75
  -1   1  -6   17.80    0.70
  -1   1  -6   16.64    0.69
  -1   1  -6   17.25    0.59
  -1   1  -6   18.31    0.68
  -1   1  -6   17.55    0.73
  -1   1  -6   18.25    0.66
  -1   1  -6   18.04    0.54
  -1   1  -6   18.08    0.71
   1  -1   6   17.50    0.69
   1  -1   6   17.46    0.68
   1  -1   6   18.17    0.58
   1  -1   6   17.74    0.74
   1  -1   6   17.26    0.65
   1  -1   6   17.95    0.75
   1  -1   6   18.19    0.70
  -2   1  -6   11.89    0.54
  -2   1  -6   12.04    0.61
  -2   1  -6   11.17    0.38
  -2   1  -6   12.23    0.57
  -2   1  -6   12.04    0.63
  -2   1  -6   11.07    0.62
  -2   1  -6   12.81    0.54
  -2   1  -6   10.48    0.60
   2  -1   6   11.67    0.47
   2  -1   6   11.63    0.60
   2  -1   6   12.01    0.60
   2  -1   6   12.43    0.46
   2  -1   6   12.24    0.56
   2  -1   6   11.61    0.66
   2  -1   6   11.80    0.61
  -3   1  -6   29.83    0.68
  -3   1  -6   31.98    1.03
  -3   1  -6   30.41    1.12
  -3   1  -6   31.26    0.99
  -3   1  -6   30.85    1.18
  -3   1  -6   29.71    0.97
   3  -1   6   30.32    1.09
   3  -1   6   31.78    1.08
   3  -1   6   30.23    0.86
   3  -1   6   31.08    0.92
   3  -1   6   31.08    1.01
   3  -1   6   31.56    1.16
  -4   1  -6    5.54    0.46
  -4   1  -6    6.13    0.48
  -4   1  -6    5.91    0.56
  -4   1  -6    5.06    0.19
  -4   1  -6    5.39    0.43
   4  -1   6    5.35    0.45
   4  -1   6    5.37    0.52
   4  -1   6    5.42    0.46
   4  -1   6    5.79    0.36
   4  -1   6    5.52    0.55
   4  -1   6    6.31    0.57
  -5   1  -6   -0.11    0.21
  -5   1  -6   -0.30    0.16
  -5   1  -6    0.23    0.18
   5  -1   6    0.19    0.24
   5  -1   6    0.26    0.24
   5  -1   6    0.01    0.22
   5  -1   6   -0.13    0.21
  -6   1  -6   10.24    0.75
  -6   1  -6   10.27    0.86
  -6   1  -6    9.65    0.65
   6  -1   6   11.53    0.76
   6  -1   6   10.70    0.85
   6  -1   6    9.46    0.93
   6  -1   6   10.70    0.83
   7   0  -6    3.94    0.70
   7   0  -6    2.31    0.54
   7   0  -6    3.90    0.72
  -7   0   6    3.52    0.56
  -7   0   6    4.65    0.79
  -7   0   6    3.47    0.53
   6   0  -6   20.14    1.09
   6   0  -6   17.47    1.13
   6   0  -6   18.86    1.13
  -6   0   6   17.11    0.87
  -6   0   6   17.75    1.14
  -6   0   6   17.82    0.96
   5   0  -6   21.78    1.05
   5   0  -6   22.97    1.12
   5   0  -6   21.71    1.01
   5   0  -6   23.24    1.17
  -5   0   6   23.94    1.12
  -5   0   6   22.16    1.04
  -5   0   6   21.81    1.17
  -5   0   6   22.79    1.03
  -5   0   6   19.30    0.86
   4   0  -6    4.95    0.47
   4   0  -6    4.94    0.37
   4   0  -6    4.83    0.48
   4   0  -6    5.00    0.53
   4   0  -6    4.73    0.50
  -4   0   6    5.09    0.35
  -4   0   6    5.47    0.49
  -4   0   6    4.74    0.48
  -4   0   6    4.57    0.53
  -4   0   6    4.88    0.62
  -4   0   6    5.05    0.50
   3   0  -6   24.76    0.74
   3   0  -6   22.79    0.95
   3   0  -6   23.10    0.97
   3   0  -6   24.86    0.93
   3   0  -6   22.99    0.89
  -3   0   6   24.81    0.95
  -3   0   6   24.00    0.93
  -3   0   6   25.59    0.87
  -3   0   6   24.17    1.04
  -3   0   6   26.21    1.02
  -3   0   6   25.00    0.82
  -3   0   6   25.62    0.98
  -3   0   6   24.95    0.70
   2   0  -6    4.45    0.26
   2   0  -6    4.88    0.34
   2   0  -6    4.72    0.39
   2   0  -6    3.69    0.33
   2   0  -6    4.05    0.38
   2   0  -6    4.81    0.36
   2   0  -6    4.44    0.36
   2   0  -6    4.37    0.35
  -2   0   6    4.92    0.32
  -2   0   6    4.86    0.25
  -2   0   6    4.86    0.34
  -2   0   6    4.69    0.38
  -2   0   6    4.74    0.39
  -2   0   6    4.34    0.30
  -2   0   6    3.84    0.39
  -2   0   6    4.90    0.39
  -2   0   6    4.87    0.41
   1   0  -6   20.02    0.76
   1   0  -6   20.06    0.74
   1   0  -6   20.28    0.70
   1   0  -6   21.03    0.74
   1   0  -6   19.82    0.68
   1   0  -6   19.98    0.68
   1   0  -6   19.67    0.72
   1   0  -6   20.67    0.84
   1   0  -6   20.26    0.54
  -1   0   6   19.99    0.70
  -1   0   6   19.86    0.74
  -1   0   6   20.06    0.77
  -1   0   6   20.26    0.68
  -1   0   6   20.31    0.67
  -1   0   6   19.88    0.73
  -1   0   6   20.15    0.78
  -1   0   6   19.95    0.76
  -1   0   6   20.71    0.54
  -1   0   6   19.37    0.80
   0   0  -6    6.90    0.36
   0   0  -6    5.62    0.36
   0   0  -6    6.92    0.31
   0   0  -6    6.80    0.35
   0   0  -6    5.98    0.38
   0   0  -6    6.05    0.40
   0   0  -6    7.17    0.47
   0   0  -6    7.48    0.43
   0   0  -6    6.46    0.40
   0   0   6    6.64    0.43
   0   0   6    5.66    0.28
   0   0   6    6.31    0.37
   0   0   6    6.32    0.45
   0   0   6    5.82    0.39
   0   0   6    5.91    0.35
   0   0   6    6.13    0.43
   0   0   6    6.64    0.40
   0   0   6    5.63    0.34
  -1   0  -6    0.22    0.13
  -1   0  -6    0.03    0.09
  -1   0  -6    0.14    0.09
  -1   0  -6    0.45    0.18
  -1   0  -6    0.34    0.18
  -1   0  -6   -0.01    0.13
  -1   0  -6    0.06    0.12
   1   0   6    0.42    0.14
   1   0   6    0.04    0.09
   1   0   6    0.17    0.13
   1   0   6    0.06    0.15
   1   0   6    0.32    0.15
   1   0   6    0.21    0.15
   1   0   6    0.07    0.10
   1   0   6    0.14    0.14
  -2   0  -6    5.17    0.38
  -2   0  -6    4.84    0.44
  -2   0  -6    4.88    0.41
  -2   0  -6    4.78    0.39
  -2   0  -6    5.00    0.46
  -2   0  -6    4.99    0.28
   2   0   6    5.34    0.38
   2   0   6    4.91    0.28
   2   0   6    4.86    0.42
   2   0   6    5.31    0.48
   2   0   6    6.15    0.45
   2   0   6    5.44    0.46
   2   0   6    5.25    0.36
  -3   0  -6   62.74    1.32
  -3   0  -6   64.05    1.90
  -3   0  -6   63.52    1.69
  -3   0  -6   63.25    1.63
  -3   0  -6   60.57    1.79
   3   0   6   65.84    1.76
   3   0   6   64.09    1.86
   3   0   6   65.63    1.75
   3   0   6   58.11    1.62
   3   0   6   66.78    1.60
   3   0   6   64.95    1.61
   3   0   6   61.48    1.34
  -4   0  -6    8.42    0.56
  -4   0  -6    8.08    0.67
  -4   0  -6    8.50    0.34
  -4   0  -6    8.00    0.58
   4   0   6    9.18    0.67
   4   0   6    8.85    0.59
   4   0   6    8.58    0.55
   4   0   6    8.38    0.63
   4   0   6    8.84    0.78
  -5   0  -6    2.02    0.47
  -5   0  -6    2.87    0.44
   5   0   6    2.11    0.45
   5   0   6    1.96    0.42
   5   0   6    1.85    0.40
   5   0   6    1.89    0.35
  -6   0  -6    0.83    0.30
  -6   0  -6    1.72    0.52
   6   0   6    1.11    0.33
   7  -1  -6    7.57    0.95
   7  -1  -6    6.83    0.91
   7  -1  -6    8.79    0.82
  -7   1   6    5.93    0.86
  -7   1   6    6.95    0.64
  -7   1   6    6.94    0.65
   6  -1  -6    4.16    0.60
   6  -1  -6    4.73    0.68
   6  -1  -6    3.78    0.64
  -6   1   6    4.27    0.54
  -6   1   6    4.89    0.56
  -6   1   6    4.69    0.76
   5  -1  -6    1.52    0.38
   5  -1  -6    2.50    0.42
   5  -1  -6    2.28    0.47
  -5   1   6    2.35    0.45
  -5   1   6    2.08    0.36
  -5   1   6    2.58    0.38
  -5   1   6    2.34    0.50
   4  -1  -6   50.71    1.26
   4  -1  -6   50.04    1.60
   4  -1  -6   49.27    1.51
   4  -1  -6   49.95    1.62
   4  -1  -6   50.18    1.48
  -4   1   6   49.25    1.47
  -4   1   6   50.55    1.62
  -4   1   6   48.69    1.36
  -4   1   6   48.64    1.51
  -4   1   6   51.80    1.31
  -4   1   6   51.21    1.61
  -4   1   6   48.00    1.66
   3  -1  -6   18.02    0.77
   3  -1  -6   16.39    0.80
   3  -1  -6   18.51    0.76
   3  -1  -6   16.52    0.79
   3  -1  -6   19.27    0.58
  -3   1   6   18.81    0.67
  -3   1   6   19.82    0.82
  -3   1   6   19.13    0.91
  -3   1   6   19.61    0.86
  -3   1   6   19.78    0.82
  -3   1   6   19.29    0.88
   2  -1  -6   17.24    0.71
   2  -1  -6   15.94    0.70
   2  -1  -6   15.83    0.65
   2  -1  -6   17.34    0.69
   2  -1  -6   16.50    0.72
  -2   1   6   16.94    0.42
  -2   1   6   16.13    0.70
  -2   1   6   17.28    0.65
  -2   1   6   16.83    0.77
  -2   1   6   16.84    0.60
  -2   1   6   17.36    0.76
  -2   1   6   15.52    0.76
  -2   1   6   17.00    0.72
   1  -1  -6   15.82    0.45
   1  -1  -6   16.86    0.62
   1  -1  -6   16.14    0.84
   1  -1  -6   17.70    0.69
   1  -1  -6   16.36    0.68
   1  -1  -6   17.44    0.68
   1  -1  -6   16.48    0.66
   1  -1  -6   16.25    0.63
   1  -1  -6   16.32    0.75
  -1   1   6   16.57    0.70
  -1   1   6   15.26    0.62
  -1   1   6   16.68    0.60
  -1   1   6   16.42    0.74
  -1   1   6   17.31    0.71
  -1   1   6   16.39    0.71
  -1   1   6   14.81    0.66
  -1   1   6   15.54    0.63
   0  -1  -6    4.26    0.36
   0  -1  -6    4.17    0.39
   0  -1  -6    4.85    0.36
   0  -1  -6    4.72    0.36
   0  -1  -6    4.25    0.30
   0  -1  -6    5.20    0.35
   0  -1  -6    4.23    0.33
   0   1   6    4.37    0.34
   0   1   6    4.58    0.36
   0   1   6    4.86    0.34
   0   1   6    4.56    0.35
   0   1   6    3.95    0.37
   0   1   6    4.32    0.40
   0   1   6    4.96    0.22
   0   1   6    5.12    0.39
   0   1   6    4.79    0.35
  -1  -1  -6   11.49    0.48
  -1  -1  -6   11.34    0.62
  -1  -1  -6   11.03    0.63
  -1  -1  -6   10.76    0.54
  -1  -1  -6   12.28    0.59
  -1  -1  -6   11.77    0.56
   1   1   6   10.94    0.60
   1   1   6   11.57    0.66
   1   1   6   12.71    0.62
   1   1   6   11.56    0.52
   1   1   6   11.60    0.54
   1   1   6   11.54    0.59
  -2  -1  -6   17.00    0.84
  -2  -1  -6   17.49    0.60
  -2  -1  -6   16.33    0.70
  -2  -1  -6   17.88    0.76
  -2  -1  -6   17.53    0.75
  -2  -1  -6   18.11    0.83
   2   1   6   16.44    0.77
   2   1   6   16.58    0.65
   2   1   6   16.25    0.57
   2   1   6   16.34    0.71
   2   1   6   16.82    0.44
   2   1   6   15.56    0.86
   2   1   6   15.61    0.80
   2   1   6   16.77    0.75
  -3  -1  -6    3.94    0.55
  -3  -1  -6    4.13    0.40
  -3  -1  -6    2.88    0.46
  -3  -1  -6    3.86    0.29
  -3  -1  -6    4.20    0.44
   3   1   6    3.41    0.49
   3   1   6    3.85    0.48
   3   1   6    3.95    0.49
   3   1   6    3.93    0.36
   3   1   6    3.59    0.36
   3   1   6    4.33    0.44
  -4  -1  -6   21.85    0.94
  -4  -1  -6   22.03    0.99
  -4  -1  -6   20.72    0.69
  -4  -1  -6   21.94    1.11
   4   1   6   22.78    1.04
   4   1   6   23.49    1.07
   4   1   6   21.80    0.84
   4   1   6   23.03    1.02
  -5  -1  -6    0.54    0.38
  -5  -1  -6    0.70    0.26
   5   1   6    0.44    0.33
   5   1   6    0.73    0.27
   5   1   6    0.55    0.36
   7  -2  -6   12.39    1.00
   7  -2  -6   10.74    0.95
   7  -2  -6   11.76    0.92
  -7   2   6    9.97    0.95
  -7   2   6   11.21    0.81
   6  -2  -6    4.49    0.60
   6  -2  -6    4.85    0.68
   6  -2  -6    6.27    0.82
  -6   2   6    3.53    0.51
  -6   2   6    4.35    0.68
  -6   2   6    4.33    0.47
   5  -2  -6    8.95    0.50
   5  -2  -6    9.78    0.76
   5  -2  -6    9.35    0.71
   5  -2  -6    8.60    0.64
  -5   2   6    9.22    0.77
  -5   2   6    9.13    0.60
  -5   2   6    8.59    0.59
  -5   2   6    8.84    0.75
  -5   2   6    7.81    0.49
   4  -2  -6    4.12    0.42
   4  -2  -6    3.88    0.29
   4  -2  -6    3.33    0.42
   4  -2  -6    4.03    0.52
   4  -2  -6    3.61    0.49
  -4   2   6    3.89    0.40
  -4   2   6    3.37    0.42
  -4   2   6    3.66    0.37
  -4   2   6    4.23    0.56
  -4   2   6    4.68    0.46
  -4   2   6    3.35    0.54
  -4   2   6    3.59    0.29
   3  -2  -6   61.02    1.60
   3  -2  -6   63.81    1.70
   3  -2  -6   62.87    1.61
   3  -2  -6   61.83    1.23
  -3   2   6   62.41    1.84
  -3   2   6   62.83    1.51
  -3   2   6   61.04    1.79
  -3   2   6   62.07    1.43
  -3   2   6   56.04    1.67
  -3   2   6   58.88    1.63
  -3   2   6   63.46    1.64
   2  -2  -6   49.46    1.33
   2  -2  -6   48.18    1.29
   2  -2  -6   47.93    1.41
   2  -2  -6   48.43    0.90
   2  -2  -6   49.18    1.40
   2  -2  -6   48.33    1.35
  -2   2   6   47.21    1.19
  -2   2   6   46.14    1.35
  -2   2   6   46.83    1.45
  -2   2   6   48.18    1.33
  -2   2   6   49.76    1.50
   1  -2  -6    8.19    0.50
   1  -2  -6    8.66    0.52
   1  -2  -6    8.77    0.46
   1  -2  -6    9.47    0.58
   1  -2  -6    9.29    0.50
   1  -2  -6    8.89    0.51
  -1   2   6    9.29    0.57
  -1   2   6    8.73    0.56
  -1   2   6    8.57    0.49
  -1   2   6    8.98    0.54
  -1   2   6    9.19    0.53
  -1   2   6    8.33    0.44
   0  -2  -6   35.20    1.04
   0  -2  -6   35.03    1.17
   0  -2  -6   38.62    1.16
   0  -2  -6   36.52    1.15
   0  -2  -6   35.05    1.01
   0  -2  -6   37.32    1.12
   0  -2  -6   35.03    1.07
   0   2   6   35.38    1.19
   0   2   6   35.00    1.28
   0   2   6   35.32    1.20
   0   2   6   34.66    1.08
   0   2   6   36.72    1.13
  -1  -2  -6    6.75    0.53
  -1  -2  -6    5.46    0.47
  -1  -2  -6    6.63    0.40
  -1  -2  -6    5.30    0.39
  -1  -2  -6    5.73    0.42
  -1  -2  -6    5.33    0.44
   1   2   6    6.04    0.45
   1   2   6    5.82    0.27
   1   2   6    5.80    0.51
   1   2   6    5.51    0.16
   1   2   6    6.18    0.45
   1   2   6    5.74    0.39
   1   2   6    5.54    0.44
  -2  -2  -6    3.87    0.53
  -2  -2  -6    3.23    0.43
  -2  -2  -6    3.47    0.37
  -2  -2  -6    3.39    0.32
  -2  -2  -6    4.13    0.38
  -2  -2  -6    3.58    0.51
   2   2   6    2.92    0.25
   2   2   6    3.14    0.43
   2   2   6    2.54    0.45
   2   2   6    3.48    0.40
   2   2   6    3.60    0.43
   2   2   6    2.88    0.29
  -3  -2  -6    1.43    0.32
  -3  -2  -6    1.70    0.25
  -3  -2  -6    1.78    0.32
  -3  -2  -6    1.25    0.37
   3   2   6    1.78    0.36
   3   2   6    1.74    0.29
   3   2   6    2.44    0.41
   3   2   6    2.54    0.41
  -4  -2  -6   20.16    0.99
  -4  -2  -6   19.82    1.09
  -4  -2  -6   19.78    0.79
  -4  -2  -6   20.47    0.94
   4   2   6   21.63    1.05
   4   2   6   21.13    0.79
   4   2   6   21.00    1.02
  -5  -2  -6    4.19    0.59
   5   2   6    5.08    0.69
   5   2   6    3.73    0.59
   7  -3  -6    1.25    0.46
   7  -3  -6    1.44    0.48
   7  -3  -6    0.98    0.37
  -7   3   6    1.09    0.47
  -7   3   6    0.81    0.57
   6  -3  -6   12.36    0.90
   6  -3  -6   12.86    0.86
   6  -3  -6   13.77    0.97
  -6   3   6   12.53    0.97
  -6   3   6   13.39    0.93
  -6   3   6   12.12    0.77
   5  -3  -6   11.25    0.81
   5  -3  -6   12.50    0.76
   5  -3  -6   12.78    0.81
  -5   3   6   11.51    0.90
  -5   3   6   11.95    0.86
  -5   3   6   11.48    0.70
  -5   3   6   12.86    0.65
   4  -3  -6    0.76    0.24
   4  -3  -6    0.88    0.28
   4  -3  -6    0.97    0.17
   4  -3  -6    0.66    0.26
   4  -3  -6    0.95    0.27
  -4   3   6    0.81    0.24
  -4   3   6    1.06    0.26
  -4   3   6    0.77    0.31
  -4   3   6    0.51    0.31
  -4   3   6    0.84    0.17
   3  -3  -6   16.28    0.79
   3  -3  -6   14.86    0.69
   3  -3  -6   16.34    0.73
   3  -3  -6   14.78    0.72
  -3   3   6   14.62    0.87
  -3   3   6   15.74    0.69
  -3   3   6   15.04    0.64
  -3   3   6   16.04    0.77
  -3   3   6   16.32    0.59
  -3   3   6   14.97    0.81
  -3   3   6   16.02    0.73
   2  -3  -6   23.21    0.91
   2  -3  -6   25.16    0.89
   2  -3  -6   23.11    0.85
   2  -3  -6   24.09    1.00
   2  -3  -6   25.00    0.90
  -2   3   6   23.42    0.75
  -2   3   6   24.23    1.06
  -2   3   6   22.26    0.95
  -2   3   6   23.56    0.91
  -2   3   6   24.45    0.78
  -2   3   6   24.83    0.88
   1  -3  -6    2.01    0.30
   1  -3  -6    2.53    0.34
   1  -3  -6    2.21    0.36
   1  -3  -6    2.47    0.34
   1  -3  -6    1.95    0.29
  -1   3   6    2.35    0.32
  -1   3   6    2.27    0.36
  -1   3   6    2.63    0.20
  -1   3   6    2.80    0.39
  -1   3   6    1.85    0.36
   0  -3  -6   23.26    1.02
   0  -3  -6   24.43    0.88
   0  -3  -6   24.37    0.96
   0  -3  -6   23.07    0.85
   0  -3  -6   26.08    1.00
   0  -3  -6   24.30    0.90
   0   3   6   24.03    1.00
   0   3   6   25.21    1.01
   0   3   6   25.58    0.93
   0   3   6   25.11    0.55
   0   3   6   24.27    0.99
   0   3   6   25.29    0.90
   0   3   6   25.71    0.90
  -1  -3  -6   33.58    1.05
  -1  -3  -6   32.26    1.22
  -1  -3  -6   33.46    1.22
  -1  -3  -6   34.16    1.13
  -1  -3  -6   33.05    1.04
  -1  -3  -6   34.99    1.11
   1   3   6   34.06    1.20
   1   3   6   35.12    1.15
   1   3   6   32.58    0.77
   1   3   6   33.06    1.30
   1   3   6   33.67    1.11
  -2  -3  -6    3.67    0.44
  -2  -3  -6    2.53    0.43
  -2  -3  -6    2.44    0.36
  -2  -3  -6    3.95    0.43
  -2  -3  -6    2.63    0.35
   2   3   6    2.99    0.31
   2   3   6    3.10    0.45
   2   3   6    2.89    0.42
   2   3   6    3.34    0.47
  -3  -3  -6    5.85    0.52
  -3  -3  -6    6.61    0.58
  -3  -3  -6    4.77    0.78
  -3  -3  -6    6.16    0.46
   3   3   6    5.52    0.55
   3   3   6    6.93    0.42
   3   3   6    6.16    0.61
  -4  -3  -6   -0.19    0.18
  -4  -3  -6    0.01    0.26
   4   3   6    0.09    0.29
   4   3   6    0.20    0.26
   5   3   6   13.13    0.97
   7  -4  -6    0.28    0.40
  -7   4   6   -0.06    0.31
   6  -4  -6    0.52    0.33
   6  -4  -6    0.09    0.24
   6  -4  -6    0.22    0.24
  -6   4   6   -0.08    0.33
  -6   4   6    0.06    0.23
  -6   4   6    0.67    0.45
   5  -4  -6    1.14    0.35
   5  -4  -6    1.44    0.38
   5  -4  -6    2.02    0.39
  -5   4   6    1.52    0.42
  -5   4   6    1.32    0.35
  -5   4   6    1.92    0.50
   4  -4  -6    1.18    0.32
   4  -4  -6    1.29    0.31
   4  -4  -6    1.40    0.31
  -4   4   6    1.59    0.43
  -4   4   6    1.53    0.38
  -4   4   6    1.41    0.30
  -4   4   6    1.57    0.25
   3  -4  -6   16.49    0.74
   3  -4  -6   16.41    0.75
   3  -4  -6   18.06    0.80
   3  -4  -6   16.14    0.80
  -3   4   6   15.74    1.13
  -3   4   6   17.40    0.87
  -3   4   6   16.08    0.69
  -3   4   6   16.26    0.96
  -3   4   6   17.12    0.68
   2  -4  -6    4.55    0.41
   2  -4  -6    4.15    0.41
   2  -4  -6    5.19    0.43
   2  -4  -6    3.82    0.49
   2  -4  -6    4.64    0.40
  -2   4   6    5.50    0.41
  -2   4   6    3.89    0.54
  -2   4   6    4.00    0.41
  -2   4   6    4.15    0.42
  -2   4   6    3.92    0.31
  -2   4   6    3.99    0.45
  -2   4   6    4.14    0.31
   1  -4  -6    2.30    0.33
   1  -4  -6    2.60    0.38
   1  -4  -6    2.42    0.34
   1  -4  -6    2.21    0.38
   1  -4  -6    1.96    0.30
  -1   4   6    1.85    0.30
  -1   4   6    1.93    0.40
  -1   4   6    2.19    0.20
  -1   4   6    2.14    0.30
  -1   4   6    2.01    0.32
  -1   4   6    2.34    0.40
   0  -4  -6    1.07    0.29
   0  -4  -6    1.50    0.29
   0  -4  -6    1.18    0.27
   0  -4  -6    0.95    0.26
   0  -4  -6    0.84    0.28
   0   4   6    0.51    0.26
   0   4   6    1.63    0.37
   0   4   6    0.93    0.25
   0   4   6    0.60    0.19
   0   4   6    0.16    0.24
  -1  -4  -6   27.34    1.05
  -1  -4  -6   28.86    1.03
  -1  -4  -6   28.44    1.04
   1   4   6   27.08    1.15
   1   4   6   28.62    1.16
   1   4   6   29.37    1.04
  -2  -4  -6    2.00    0.36
  -2  -4  -6    2.82    0.39
  -2  -4  -6    1.57    0.33
   2   4   6    1.81    0.40
   2   4   6    1.19    0.33
  -3  -4  -6    2.11    0.36
  -3  -4  -6    2.49    0.45
  -3  -4  -6    2.08    0.40
   3   4   6    1.22    0.36
   3   4   6    2.13    0.47
   4   4   6    1.83    0.44
   4   4   6    1.68    0.49
   6  -5  -6   11.21    0.89
   6  -5  -6   10.50    0.79
   6  -5  -6    9.51    0.81
  -6   5   6   11.54    1.06
  -6   5   6   10.41    0.75
  -6   5   6    8.79    0.83
   5  -5  -6    4.08    0.55
   5  -5  -6    5.47    0.67
   5  -5  -6    4.95    0.53
  -5   5   6    4.81    0.66
  -5   5   6    5.68    0.83
  -5   5   6    3.67    0.49
   4  -5  -6   14.98    0.83
   4  -5  -6   15.22    0.82
   4  -5  -6   15.74    0.82
  -4   5   6   15.41    0.90
  -4   5   6   14.34    1.04
  -4   5   6   14.23    0.73
   3  -5  -6    1.05    0.30
   3  -5  -6    0.70    0.22
   3  -5  -6    0.38    0.22
  -3   5   6    0.27    0.26
  -3   5   6    0.58    0.21
  -3   5   6    0.98    0.25
  -3   5   6    1.05    0.40
   2  -5  -6    8.55    0.57
   2  -5  -6    8.91    0.55
   2  -5  -6    7.77    0.55
  -2   5   6    9.37    0.76
  -2   5   6    8.81    0.63
  -2   5   6    8.85    0.48
  -2   5   6    8.63    0.43
   1  -5  -6    1.99    0.33
   1  -5  -6    2.05    0.35
   1  -5  -6    2.01    0.33
  -1   5   6    2.29    0.40
  -1   5   6    2.04    0.42
  -1   5   6    2.13    0.31
   0  -5  -6    4.44    0.44
   0  -5  -6    3.10    0.43
   0  -5  -6    3.07    0.40
   0   5   6    3.72    0.52
   0   5   6    2.88    0.46
   0   5   6    3.12    0.39
  -1  -5  -6    1.04    0.28
  -1  -5  -6    0.89    0.26
  -1  -5  -6    1.33    0.32
   1   5   6    1.00    0.37
   1   5   6    1.43    0.40
   1   5   6    0.96    0.27
  -2  -5  -6    2.87    0.45
  -2  -5  -6    2.09    0.36
  -2  -5  -6    2.15    0.38
   2   5   6    2.83    0.43
   2   5   6    2.24    0.49
   2   5   6    1.67    0.45
  -3  -5  -6   -0.02    0.23
  -3  -5  -6    0.30    0.22
  -3  -5  -6    0.35    0.28
   3   5   6    0.59    0.32
   3   5   6    0.63    0.32
  -6   6   6    1.40    0.38
  -6   6   6    1.81    0.46
   5  -6  -6    9.88    0.78
   5  -6  -6    9.28    0.74
   5  -6  -6    9.06    0.71
  -5   6   6   10.98    0.83
  -5   6   6   10.44    1.03
  -5   6   6   10.21    0.71
   4  -6  -6    5.79    0.55
   4  -6  -6    6.16    0.55
  -4   6   6    6.70    0.53
  -4   6   6    6.82    0.87
  -4   6   6    6.74    0.64
   3  -6  -6    7.75    0.59
   3  -6  -6    7.79    0.56
   3  -6  -6    6.83    0.55
  -3   6   6    7.07    0.88
  -3   6   6    6.59    0.60
  -3   6   6    5.96    0.47
   2  -6  -6    4.75    0.46
   2  -6  -6    5.72    0.48
   2  -6  -6    4.67    0.49
  -2   6   6    5.02    0.52
  -2   6   6    4.74    0.69
   1  -6  -6    2.79    0.44
   1  -6  -6    3.14    0.41
   1  -6  -6    3.06    0.40
  -1   6   6    3.08    0.53
  -1   6   6    4.02    0.52
   0  -6  -6    8.12    0.62
   0  -6  -6    7.95    0.57
   0  -6  -6    7.26    0.57
   0   6   6    7.79    0.71
   0   6   6    7.83    0.66
   0   6   6    8.47    0.52
  -1  -6  -6    0.78    0.27
  -1  -6  -6    0.42    0.25
  -1  -6  -6    0.57    0.25
   1   6   6    0.46    0.24
   1   6   6    0.82    0.35
   1   6   6    0.75    0.34
   1   6   6    0.92    0.35
  -2  -6  -6    2.94    0.49
  -2  -6  -6    3.64    0.53
  -2  -6  -6    2.67    0.45
   2   6   6    3.48    0.46
   2   6   6    3.26    0.56
   2   6   6    3.06    0.58
  -5   7   6    3.55    0.53
  -4   7   6    9.98    0.77
   3  -7  -6    3.42    0.46
   3  -7  -6    2.90    0.45
   3  -7  -6    3.01    0.43
  -3   7   6    3.31    0.49
  -3   7   6    2.98    0.63
   2  -7  -6   -0.22    0.17
   2  -7  -6    0.02    0.22
   2  -7  -6    0.10    0.20
  -2   7   6   -0.07    0.21
  -2   7   6    0.13    0.33
   1  -7  -6   10.55    0.67
   1  -7  -6    9.11    0.69
   1  -7  -6    9.81    0.65
  -1   7   6   10.07    0.73
  -1   7   6   10.11    0.89
   0  -7  -6    4.80    0.51
   0  -7  -6    6.04    0.54
   0  -7  -6    4.79    0.55
   0   7   6    4.77    0.64
   0   7   6    5.58    0.79
  -1  -7  -6    7.09    0.69
  -1  -7  -6    6.66    0.60
  -1  -7  -6    8.45    0.71
   1   7   6    7.55    0.76
   1   7   6    6.84    0.71
   1   7   6    6.65    0.75
  -3   8   6    1.23    0.39
  -2   8   6    5.62    0.64
   1  -8  -6    0.64    0.29
  -1   8   6    0.09    0.28
   0  13  -7    9.47    0.81
  -1  13  -7    2.57    0.49
   2  12  -7    6.33    0.73
   1  12  -7    1.69    0.41
  -1 -12   7    1.90    0.46
   0  12  -7    5.58    0.59
   0  12  -7    3.90    0.71
   0 -12   7    5.04    0.56
   0 -12   7    4.49    0.48
  -1  12  -7    3.01    0.63
  -1  12  -7    2.96    0.49
   1 -12   7    3.58    0.43
   1 -12   7    2.69    0.50
  -2  12  -7    4.88    0.75
   2 -12   7    5.10    0.46
   2 -12   7    4.52    0.35
   2 -12   7    5.52    0.60
  -3  12  -7    5.66    0.83
   3 -12   7    4.86    0.30
   3 -12   7    5.04    0.69
   3 -12   7    4.94    0.26
   3 -12   7    6.34    0.58
   4 -12   7    0.75    0.29
   3  11  -7    2.37    0.49
  -3 -11   7    3.78    0.64
   2  11  -7    1.49    0.44
   2  11  -7    0.80    0.30
  -2 -11   7    1.11    0.29
  -2 -11   7    1.27    0.37
  -2 -11   7    1.06    0.37
   1  11  -7   11.81    0.99
   1  11  -7   11.24    0.80
  -1 -11   7   11.74    0.76
  -1 -11   7   11.42    0.76
  -1 -11   7   11.03    0.76
   0  11  -7    5.45    0.55
   0  11  -7    6.20    0.88
   0 -11   7    5.08    0.47
   0 -11   7    5.30    0.54
   0 -11   7    4.97    0.47
  -1  11  -7    5.14    0.51
  -1  11  -7    6.17    0.80
   1 -11   7    4.21    0.54
   1 -11   7    4.60    0.41
   1 -11   7    5.78    0.43
  -2  11  -7    9.12    0.84
   2 -11   7    8.87    0.41
   2 -11   7    8.34    0.68
   2 -11   7    8.92    0.58
   2 -11   7    9.23    0.50
  -3  11  -7    3.86    0.65
   3 -11   7    5.46    0.59
   3 -11   7    5.09    0.35
   3 -11   7    4.86    0.50
   3 -11   7    5.02    0.30
  -4  11  -7    1.56    0.43
   4 -11   7    1.12    0.33
   4 -11   7    1.38    0.22
   4 -11   7    1.10    0.33
   4 -11   7    1.78    0.23
   4  10  -7    1.98    0.47
   4  10  -7    0.36    0.57
  -4 -10   7    1.99    0.68
  -4 -10   7    1.03    0.44
   3  10  -7    2.03    0.48
   3  10  -7    2.17    0.54
  -3 -10   7    1.96    0.46
  -3 -10   7    1.15    0.38
  -3 -10   7    1.84    0.41
   2  10  -7    5.45    0.59
   2  10  -7    7.11    0.76
  -2 -10   7    5.67    0.56
  -2 -10   7    5.31    0.58
  -2 -10   7    5.07    0.65
   1  10  -7    3.00    0.61
   1  10  -7    2.74    0.45
  -1 -10   7    2.35    0.43
  -1 -10   7    3.26    0.48
  -1 -10   7    3.66    0.51
  -1 -10   7    3.10    0.26
   0  10  -7    0.12    0.18
   0  10  -7   -0.16    0.23
   0  10  -7    0.07    0.14
   0 -10   7    0.58    0.27
   0 -10   7    0.28    0.19
   0 -10   7    0.15    0.15
   0 -10   7   -0.05    0.10
  -1  10  -7    7.54    0.54
  -1  10  -7    7.84    0.76
   1 -10   7    7.42    0.41
   1 -10   7    7.59    0.62
   1 -10   7    6.90    0.46
   1 -10   7    7.42    0.50
   1 -10   7    7.76    0.49
  -2  10  -7   13.72    0.95
   2 -10   7   13.63    0.60
   2 -10   7   14.24    0.54
   2 -10   7   16.14    0.90
   2 -10   7   15.40    0.75
   2 -10   7   15.18    0.65
  -3  10  -7   11.62    0.87
   3 -10   7   11.57    0.79
   3 -10   7   11.95    0.54
   3 -10   7   11.47    0.49
   3 -10   7   12.38    0.74
  -4  10  -7    1.29    0.38
  -4  10  -7    0.50    0.40
   4 -10   7    1.22    0.23
   4 -10   7    0.98    0.21
   4 -10   7    1.32    0.36
   4 -10   7    0.90    0.30
  -5  10  -7    1.95    0.52
   5 -10   7    2.23    0.50
   5 -10   7    1.89    0.46
   5 -10   7    1.44    0.23
   5   9  -7    4.43    0.66
   5   9  -7    4.61    0.74
  -5  -9   7    3.99    0.73
   4   9  -7    4.64    0.62
   4   9  -7    3.62    0.59
   4   9  -7    4.50    0.69
  -4  -9   7    5.50    0.77
  -4  -9   7    4.63    0.67
  -4  -9   7    5.29    0.57
   3   9  -7    4.00    0.51
   3   9  -7    3.20    0.52
   3   9  -7    5.72    0.78
  -3  -9   7    3.77    0.60
  -3  -9   7    4.29    0.61
  -3  -9   7    4.41    0.50
   2   9  -7    3.44    0.52
   2   9  -7    3.15    0.58
   2   9  -7    3.67    0.35
  -2  -9   7    3.37    0.54
  -2  -9   7    3.04    0.48
  -2  -9   7    3.05    0.44
   1   9  -7    8.38    0.38
   1   9  -7    9.78    0.63
   1   9  -7    9.01    0.79
   1   9  -7    9.77    0.65
  -1  -9   7    9.00    0.64
  -1  -9   7    8.94    0.44
  -1  -9   7    8.11    0.59
  -1  -9   7    8.55    0.64
   0   9  -7    2.17    0.30
   0   9  -7    2.16    0.33
   0   9  -7    2.15    0.48
   0   9  -7    3.23    0.44
   0  -9   7    2.65    0.39
   0  -9   7    2.82    0.34
   0  -9   7    2.62    0.42
   0  -9   7    2.84    0.36
   0  -9   7    3.05    0.40
   0  -9   7    2.74    0.29
  -1   9  -7    4.73    0.39
  -1   9  -7    5.30    0.70
   1  -9   7    3.92    0.44
   1  -9   7    5.00    0.45
   1  -9   7    4.93    0.34
   1  -9   7    4.74    0.39
   1  -9   7    4.83    0.38
   1  -9   7    4.25    0.37
  -2   9  -7   18.06    1.05
   2  -9   7   18.89    0.69
   2  -9   7   18.40    0.72
   2  -9   7   18.64    0.69
   2  -9   7   18.33    0.93
   2  -9   7   18.48    0.83
   2  -9   7   19.09    0.84
   2  -9   7   17.63    0.62
  -3   9  -7   10.85    0.81
  -3   9  -7   12.45    0.88
   3  -9   7   12.10    0.72
   3  -9   7   11.07    0.53
   3  -9   7   11.10    0.52
   3  -9   7   11.82    0.51
   3  -9   7   11.66    0.76
  -4   9  -7    7.14    0.64
  -4   9  -7    6.79    0.74
   4  -9   7    5.64    0.60
   4  -9   7    7.28    0.46
   4  -9   7    6.08    0.42
   4  -9   7    6.27    0.58
   4  -9   7    6.63    0.42
  -5   9  -7    1.46    0.48
  -5   9  -7    0.71    0.34
  -5   9  -7    0.68    0.21
   5  -9   7    0.69    0.20
   5  -9   7    0.75    0.30
  -6   9  -7    8.42    0.53
   5   8  -7    0.34    0.28
   5   8  -7    0.76    0.38
   5   8  -7   -0.12    0.22
  -5  -8   7    0.22    0.34
  -5  -8   7    0.06    0.35
   4   8  -7    0.94    0.37
   4   8  -7    0.53    0.29
   4   8  -7    0.58    0.30
  -4  -8   7    0.21    0.23
  -4  -8   7    1.03    0.41
  -4  -8   7    0.53    0.30
   3   8  -7    4.72    0.51
   3   8  -7    5.44    0.58
   3   8  -7    4.92    0.69
  -3  -8   7    4.70    0.60
  -3  -8   7    4.76    0.67
  -3  -8   7    3.31    0.52
   2   8  -7    4.24    0.34
   2   8  -7    3.71    0.45
   2   8  -7    4.69    0.50
   2   8  -7    4.98    0.69
   2   8  -7    4.30    0.35
  -2  -8   7    4.30    0.45
  -2  -8   7    4.35    0.56
  -2  -8   7    3.75    0.55
   1   8  -7   17.34    0.57
   1   8  -7   15.74    0.78
   1   8  -7   17.55    0.75
   1   8  -7   15.87    0.98
   1   8  -7   17.83    0.68
   1   8  -7   16.90    0.77
   1   8  -7   16.91    0.79
  -1  -8   7   16.37    0.83
  -1  -8   7   17.28    0.89
  -1  -8   7   15.94    0.83
  -1  -8   7   15.97    0.80
  -1  -8   7   16.48    0.77
  -1  -8   7   17.12    0.63
   0   8  -7    9.31    0.35
   0   8  -7    8.66    0.73
   0   8  -7   10.08    0.53
   0   8  -7    8.97    0.31
   0   8  -7    8.73    0.53
   0   8  -7    9.69    0.54
   0  -8   7    9.48    0.58
   0  -8   7    9.00    0.50
   0  -8   7    9.66    0.50
   0  -8   7    9.72    0.49
   0  -8   7    9.11    0.62
   0  -8   7    9.27    0.53
   0  -8   7    9.07    0.59
  -1   8  -7   22.55    1.12
  -1   8  -7   23.03    0.78
  -1   8  -7   21.15    0.76
   1  -8   7   23.42    0.88
   1  -8   7   23.45    0.76
   1  -8   7   24.09    0.83
   1  -8   7   22.99    0.85
   1  -8   7   22.70    0.98
   1  -8   7   22.91    0.85
   1  -8   7   22.89    0.92
   1  -8   7   21.26    0.78
  -2   8  -7   38.10    1.43
  -2   8  -7   36.02    0.96
  -2   8  -7   38.38    1.45
   2  -8   7   37.34    1.12
   2  -8   7   36.98    1.04
   2  -8   7   36.83    1.01
   2  -8   7   36.76    1.08
   2  -8   7   37.27    1.00
   2  -8   7   35.22    1.29
   2  -8   7   35.74    1.09
   2  -8   7   36.78    1.22
  -3   8  -7    2.72    0.48
  -3   8  -7    2.43    0.44
   3  -8   7    2.14    0.37
   3  -8   7    1.58    0.34
   3  -8   7    1.67    0.24
   3  -8   7    1.89    0.29
   3  -8   7    2.06    0.28
   3  -8   7    2.13    0.30
   3  -8   7    1.84    0.27
  -4   8  -7    3.17    0.57
  -4   8  -7    3.21    0.40
  -4   8  -7    2.73    0.48
   4  -8   7    2.58    0.34
   4  -8   7    3.02    0.46
   4  -8   7    2.26    0.31
   4  -8   7    3.11    0.38
  -5   8  -7    0.04    0.19
  -5   8  -7    0.37    0.35
  -5   8  -7    0.19    0.20
   5  -8   7    0.23    0.24
   5  -8   7   -0.14    0.18
   5  -8   7    0.01    0.14
  -6   8  -7    5.25    0.81
  -6   8  -7    5.00    0.48
   6  -8   7    4.83    0.92
   6  -8   7    3.97    0.57
   5   7  -7    2.43    0.51
   5   7  -7    1.84    0.49
  -5  -7   7    1.55    0.40
  -5  -7   7    1.07    0.42
  -5  -7   7    1.58    0.42
   4   7  -7   17.24    1.01
   4   7  -7   15.60    0.95
  -4  -7   7   16.27    0.86
  -4  -7   7   15.00    1.00
  -4  -7   7   13.77    0.93
   3   7  -7    6.81    0.67
   3   7  -7    6.83    0.61
   3   7  -7    6.85    0.42
  -3  -7   7    6.33    0.69
  -3  -7   7    7.20    0.62
  -3  -7   7    7.76    0.70
  -3  -7   7    7.41    0.57
   2   7  -7   16.15    0.80
   2   7  -7   15.78    0.95
   2   7  -7   14.90    0.79
   2   7  -7   15.77    0.79
   2   7  -7   15.94    0.66
   2   7  -7   15.85    0.85
   2   7  -7   15.48    0.65
  -2  -7   7   15.64    0.79
  -2  -7   7   14.88    0.61
  -2  -7   7   15.36    0.78
  -2  -7   7   16.65    0.89
  -2  -7   7   16.33    0.93
  -2  -7   7   14.27    0.79
   1   7  -7    4.83    0.43
   1   7  -7    4.35    0.40
   1   7  -7    4.49    0.37
   1   7  -7    6.15    0.73
   1   7  -7    4.50    0.40
   1   7  -7    4.80    0.32
   1   7  -7    4.24    0.42
  -1  -7   7    5.01    0.50
  -1  -7   7    4.14    0.42
  -1  -7   7    4.89    0.47
  -1  -7   7    5.28    0.43
  -1  -7   7    4.62    0.33
  -1  -7   7    5.14    0.44
   0   7  -7   67.28    2.01
   0   7  -7   65.17    1.42
   0   7  -7   68.10    1.65
   0   7  -7   66.73    1.54
   0   7  -7   65.98    1.71
   0   7  -7   65.12    1.76
   0   7  -7   66.63    1.57
   0  -7   7   65.11    1.77
   0  -7   7   67.58    1.79
   0  -7   7   66.52    1.67
   0  -7   7   65.26    1.73
   0  -7   7   65.10    1.80
   0  -7   7   67.43    1.61
   0  -7   7   65.37    1.58
  -1   7  -7    6.57    0.28
  -1   7  -7    6.05    0.30
  -1   7  -7    8.04    0.65
  -1   7  -7    6.18    0.42
  -1   7  -7    6.95    0.57
   1  -7   7    7.07    0.53
   1  -7   7    5.97    0.39
   1  -7   7    6.25    0.37
   1  -7   7    6.10    0.45
   1  -7   7    5.46    0.40
   1  -7   7    6.49    0.39
   1  -7   7    6.21    0.43
   1  -7   7    5.97    0.42
  -2   7  -7    3.86    0.53
  -2   7  -7    4.71    0.51
  -2   7  -7    4.15    0.31
   2  -7   7    3.71    0.41
   2  -7   7    4.48    0.31
   2  -7   7    4.35    0.31
   2  -7   7    4.33    0.34
   2  -7   7    5.10    0.43
   2  -7   7    3.60    0.33
   2  -7   7    4.14    0.31
   2  -7   7    4.25    0.37
  -3   7  -7    2.89    0.47
  -3   7  -7    2.71    0.50
  -3   7  -7    2.32    0.27
  -3   7  -7    2.31    0.34
   3  -7   7    2.22    0.30
   3  -7   7    2.23    0.29
   3  -7   7    2.40    0.18
   3  -7   7    2.62    0.34
   3  -7   7    2.07    0.37
   3  -7   7    2.25    0.22
   3  -7   7    2.73    0.29
  -4   7  -7    0.06    0.25
  -4   7  -7    0.29    0.18
  -4   7  -7    0.29    0.23
   4  -7   7   -0.11    0.12
   4  -7   7    0.21    0.16
   4  -7   7   -0.01    0.15
   4  -7   7   -0.13    0.17
  -5   7  -7    0.49    0.33
  -5   7  -7    0.18    0.18
  -5   7  -7    0.33    0.23
   5  -7   7   -0.23    0.17
   5  -7   7   -0.08    0.22
   5  -7   7    0.28    0.19
  -6   7  -7   12.82    0.74
  -6   7  -7   12.40    0.95
   6  -7   7   15.48    1.00
   6  -7   7   12.79    0.80
   6  -7   7   12.71    0.74
   6   6  -7    5.05    0.83
   5   6  -7    1.90    0.50
   5   6  -7    2.00    0.47
  -5  -6   7    0.92    0.42
  -5  -6   7    1.67    0.43
  -5  -6   7    1.86    0.39
   4   6  -7    2.84    0.50
   4   6  -7    2.77    0.51
  -4  -6   7    2.69    0.49
  -4  -6   7    1.76    0.46
  -4  -6   7    2.11    0.52
  -4  -6   7    2.72    0.41
   3   6  -7   38.70    1.56
   3   6  -7   37.02    1.07
   3   6  -7   37.93    1.46
   3   6  -7   39.38    1.41
   3   6  -7   36.84    1.43
  -3  -6   7   36.51    1.37
  -3  -6   7   36.68    1.52
  -3  -6   7   34.59    1.21
  -3  -6   7   35.97    1.44
   2   6  -7   19.51    0.90
   2   6  -7   19.51    0.95
   2   6  -7   19.08    0.74
   2   6  -7   20.59    0.90
   2   6  -7   20.17    0.74
   2   6  -7   20.94    1.02
  -2  -6   7   20.30    0.96
  -2  -6   7   18.29    0.96
  -2  -6   7   19.99    0.73
  -2  -6   7   19.01    0.85
  -2  -6   7   18.84    0.88
  -2  -6   7   20.15    0.86
   1   6  -7    5.80    0.43
   1   6  -7    5.34    0.39
   1   6  -7    5.10    0.45
   1   6  -7    5.38    0.44
   1   6  -7    5.50    0.35
   1   6  -7    4.73    0.51
   1   6  -7    5.46    0.38
  -1  -6   7    4.55    0.40
  -1  -6   7    5.34    0.43
  -1  -6   7    5.43    0.48
  -1  -6   7    5.00    0.43
  -1  -6   7    5.15    0.49
  -1  -6   7    5.83    0.37
  -1  -6   7    6.30    0.44
   0   6  -7   72.28    1.56
   0   6  -7   71.50    2.02
   0   6  -7   71.73    1.72
   0   6  -7   71.38    1.80
   0   6  -7   70.54    1.53
   0   6  -7   71.60    1.74
   0   6  -7   70.73    1.79
   0  -6   7   71.55    1.73
   0  -6   7   71.67    1.69
   0  -6   7   72.97    1.76
   0  -6   7   73.38    1.72
   0  -6   7   71.04    1.92
   0  -6   7   69.44    1.82
   0  -6   7   71.53    1.67
   0  -6   7   70.42    1.79
   0  -6   7   73.38    1.87
  -1   6  -7   25.86    0.87
  -1   6  -7   27.82    0.78
  -1   6  -7   25.99    1.09
  -1   6  -7   25.43    0.82
  -1   6  -7   27.53    1.06
   1  -6   7   26.04    0.82
   1  -6   7   27.12    0.95
   1  -6   7   26.30    0.90
   1  -6   7   25.62    0.98
   1  -6   7   26.63    0.83
   1  -6   7   25.78    0.89
   1  -6   7   25.56    0.82
   1  -6   7   25.28    0.85
  -2   6  -7    4.99    0.35
  -2   6  -7    4.82    0.60
  -2   6  -7    5.03    0.41
  -2   6  -7    4.08    0.30
  -2   6  -7    4.39    0.29
  -2   6  -7    4.28    0.47
   2  -6   7    4.69    0.36
   2  -6   7    5.09    0.34
   2  -6   7    4.67    0.41
   2  -6   7    4.53    0.43
   2  -6   7    4.67    0.39
   2  -6   7    4.40    0.36
   2  -6   7    5.32    0.38
   2  -6   7    5.01    0.27
  -3   6  -7    1.70    0.22
  -3   6  -7    1.74    0.23
  -3   6  -7    1.66    0.33
  -3   6  -7    1.89    0.30
  -3   6  -7    1.69    0.25
  -3   6  -7    1.86    0.41
   3  -6   7    1.80    0.28
   3  -6   7    1.62    0.27
   3  -6   7    1.96    0.30
   3  -6   7    1.45    0.27
   3  -6   7    1.68    0.34
  -4   6  -7    0.08    0.11
  -4   6  -7    0.26    0.20
  -4   6  -7    0.20    0.23
  -4   6  -7   -0.11    0.17
   4  -6   7    0.06    0.15
   4  -6   7   -0.07    0.12
   4  -6   7    0.17    0.19
   4  -6   7    0.00    0.16
  -5   6  -7    2.07    0.46
  -5   6  -7    2.95    0.46
  -5   6  -7    2.49    0.42
   5  -6   7    1.95    0.36
   5  -6   7    2.73    0.39
   5  -6   7    2.06    0.45
  -6   6  -7    3.34    0.50
  -6   6  -7    4.38    0.70
   6  -6   7    4.31    0.53
   6  -6   7    4.38    0.56
   6  -6   7    3.84    0.63
  -7   6  -7   25.59    1.22
   7  -6   7   28.23    1.32
   6   5  -7    0.60    0.47
   6   5  -7    0.60    0.38
  -6  -5   7    0.73    0.36
  -6  -5   7    0.60    0.29
   5   5  -7    0.52    0.28
   5   5  -7    0.63    0.34
  -5  -5   7    0.35    0.20
  -5  -5   7    0.42    0.27
  -5  -5   7    0.50    0.31
  -5  -5   7    0.62    0.38
   4   5  -7    8.07    0.67
   4   5  -7    8.25    0.71
   4   5  -7    7.90    0.71
  -4  -5   7    9.91    0.83
  -4  -5   7    7.92    0.72
  -4  -5   7    7.51    0.65
  -4  -5   7    7.90    0.57
   3   5  -7    4.02    0.52
   3   5  -7    3.88    0.54
   3   5  -7    4.28    0.59
   3   5  -7    4.23    0.53
  -3  -5   7    4.56    0.41
  -3  -5   7    4.12    0.44
  -3  -5   7    4.95    0.64
  -3  -5   7    4.08    0.63
  -3  -5   7    3.63    0.50
  -3  -5   7    3.41    0.37
   2   5  -7    0.67    0.18
   2   5  -7    0.44    0.23
   2   5  -7    0.71    0.25
   2   5  -7    0.12    0.15
   2   5  -7    0.44    0.24
   2   5  -7    0.27    0.14
  -2  -5   7    0.41    0.18
  -2  -5   7    0.47    0.21
  -2  -5   7    0.44    0.23
  -2  -5   7    0.21    0.15
  -2  -5   7    0.25    0.10
  -2  -5   7    0.17    0.14
  -2  -5   7    0.74    0.29
  -2  -5   7    0.39    0.17
   1   5  -7   31.58    1.12
   1   5  -7   31.76    1.06
   1   5  -7   31.42    0.99
   1   5  -7   32.74    0.95
   1   5  -7   31.45    1.09
   1   5  -7   31.87    0.99
   1   5  -7   31.84    1.18
  -1  -5   7   32.18    0.94
  -1  -5   7   31.11    1.06
  -1  -5   7   31.47    0.99
  -1  -5   7   32.56    1.03
  -1  -5   7   31.74    1.16
  -1  -5   7   31.20    1.11
  -1  -5   7   32.81    1.03
  -1  -5   7   30.64    1.04
   0   5  -7   35.27    1.09
   0   5  -7   34.23    0.96
   0   5  -7   36.38    1.02
   0   5  -7   32.46    1.07
   0   5  -7   36.30    1.16
   0   5  -7   34.64    0.80
   0   5  -7   36.40    1.25
   0   5  -7   34.86    1.07
   0  -5   7   35.08    1.11
   0  -5   7   33.74    1.05
   0  -5   7   36.05    1.16
   0  -5   7   36.41    1.04
   0  -5   7   34.96    1.10
   0  -5   7   36.19    1.01
   0  -5   7   34.60    1.02
   0  -5   7   35.86    1.04
   0  -5   7   34.97    1.01
  -1   5  -7   11.26    0.66
  -1   5  -7   11.85    0.64
  -1   5  -7   11.58    0.61
  -1   5  -7   11.64    0.51
  -1   5  -7   12.01    0.55
  -1   5  -7   12.72    0.57
   1  -5   7   11.40    0.45
   1  -5   7   10.99    0.51
   1  -5   7   10.30    0.58
   1  -5   7   11.78    0.60
   1  -5   7   11.38    0.54
   1  -5   7   10.76    0.56
   1  -5   7   10.77    0.49
   1  -5   7   11.10    0.56
   1  -5   7   11.07    0.54
  -2   5  -7   25.66    0.86
  -2   5  -7   27.04    0.85
  -2   5  -7   24.58    1.00
  -2   5  -7   27.44    1.04
  -2   5  -7   28.04    0.88
  -2   5  -7   27.99    0.97
   2  -5   7   27.22    0.90
   2  -5   7   27.08    0.62
   2  -5   7   27.43    0.88
   2  -5   7   26.37    0.93
   2  -5   7   27.48    0.97
   2  -5   7   26.61    0.90
  -3   5  -7    1.17    0.25
  -3   5  -7    0.66    0.18
  -3   5  -7    1.10    0.27
  -3   5  -7    1.05    0.21
  -3   5  -7    0.83    0.29
  -3   5  -7    1.47    0.32
   3  -5   7    0.47    0.22
   3  -5   7    0.74    0.22
   3  -5   7    0.80    0.24
   3  -5   7    0.50    0.19
   3  -5   7    0.97    0.24
  -4   5  -7    7.01    0.42
  -4   5  -7    7.15    0.49
  -4   5  -7    6.51    0.50
  -4   5  -7    7.75    0.61
  -4   5  -7    6.71    0.51
   4  -5   7    8.22    0.61
   4  -5   7    7.52    0.54
   4  -5   7    7.03    0.51
   4  -5   7    7.34    0.56
  -5   5  -7    1.20    0.22
  -5   5  -7    1.17    0.31
  -5   5  -7    1.67    0.40
   5  -5   7    1.89    0.42
   5  -5   7    1.64    0.37
   5  -5   7    1.25    0.29
  -6   5  -7    4.90    0.69
  -6   5  -7    3.23    0.49
   6  -5   7    4.40    0.61
   6  -5   7    4.43    0.56
   6  -5   7    4.25    0.58
  -7   5  -7    3.71    0.58
   7  -5   7    3.75    0.72
   6   4  -7    2.20    0.56
   6   4  -7    2.77    0.49
  -6  -4   7    2.52    0.55
  -6  -4   7    2.35    0.42
  -6  -4   7    3.81    0.73
   5   4  -7    1.79    0.45
   5   4  -7    2.10    0.43
   5   4  -7    2.69    0.56
  -5  -4   7    1.76    0.45
  -5  -4   7    2.66    0.42
  -5  -4   7    3.31    0.64
  -5  -4   7    2.03    0.47
   4   4  -7    4.67    0.63
   4   4  -7    5.09    0.53
   4   4  -7    5.20    0.91
   4   4  -7    6.12    0.63
   4   4  -7    3.91    0.52
  -4  -4   7    5.64    0.60
  -4  -4   7    4.77    0.44
  -4  -4   7    5.01    0.53
  -4  -4   7    5.62    0.75
  -4  -4   7    4.26    0.56
  -4  -4   7    5.07    0.41
   3   4  -7   15.37    0.84
   3   4  -7   14.87    0.80
   3   4  -7   14.99    0.87
   3   4  -7   13.85    0.74
   3   4  -7   13.06    0.75
  -3  -4   7   14.23    0.52
  -3  -4   7   14.74    0.90
  -3  -4   7   12.69    0.71
  -3  -4   7   13.51    0.81
  -3  -4   7   13.29    0.58
  -3  -4   7   13.92    0.77
  -3  -4   7   13.22    0.64
   2   4  -7    9.78    0.66
   2   4  -7    9.53    0.59
   2   4  -7   10.66    0.66
   2   4  -7    8.94    0.61
   2   4  -7    9.70    0.49
   2   4  -7    8.84    0.61
   2   4  -7    9.42    0.52
   2   4  -7    9.04    0.52
   2   4  -7   10.69    0.58
  -2  -4   7    9.57    0.67
  -2  -4   7    9.64    0.53
  -2  -4   7    9.59    0.46
  -2  -4   7    9.11    0.50
  -2  -4   7    9.35    0.40
  -2  -4   7   10.75    0.59
  -2  -4   7    9.30    0.62
  -2  -4   7   10.19    0.61
   1   4  -7   29.65    1.00
   1   4  -7   28.64    1.03
   1   4  -7   28.21    1.04
   1   4  -7   29.03    0.92
   1   4  -7   28.93    1.02
   1   4  -7   30.15    0.92
   1   4  -7   29.63    0.96
   1   4  -7   27.10    0.91
  -1  -4   7   26.89    1.01
  -1  -4   7   27.87    0.98
  -1  -4   7   29.34    0.90
  -1  -4   7   30.53    1.10
  -1  -4   7   28.14    0.93
  -1  -4   7   30.44    0.92
  -1  -4   7   29.66    0.86
  -1  -4   7   29.36    0.96
   0   4  -7   26.99    0.92
   0   4  -7   27.33    0.86
   0   4  -7   25.44    0.91
   0   4  -7   27.65    0.93
   0   4  -7   28.56    0.87
   0   4  -7   27.14    0.94
   0   4  -7   27.33    0.92
   0   4  -7   27.65    0.95
   0  -4   7   27.31    0.79
   0  -4   7   26.66    0.90
   0  -4   7   27.79    0.82
   0  -4   7   26.95    0.86
   0  -4   7   26.68    0.98
   0  -4   7   26.52    0.90
   0  -4   7   27.41    0.85
   0  -4   7   28.00    0.88
   0  -4   7   26.82    0.94
  -1   4  -7   37.12    1.08
  -1   4  -7   38.24    1.16
  -1   4  -7   36.00    1.05
  -1   4  -7   36.56    1.16
  -1   4  -7   35.49    1.04
  -1   4  -7   37.29    1.09
   1  -4   7   34.84    1.12
   1  -4   7   36.46    1.11
   1  -4   7   37.97    1.05
   1  -4   7   38.08    1.12
   1  -4   7   36.38    0.85
   1  -4   7   36.62    1.02
   1  -4   7   35.42    0.98
   1  -4   7   36.56    1.08
   1  -4   7   37.05    1.09
  -2   4  -7   10.31    0.54
  -2   4  -7   10.24    0.51
  -2   4  -7   10.03    0.60
  -2   4  -7   11.32    0.59
   2  -4   7   11.46    0.56
   2  -4   7    9.58    0.52
   2  -4   7   10.07    0.56
   2  -4   7    9.98    0.56
   2  -4   7   10.69    0.33
   2  -4   7   10.92    0.55
   2  -4   7   11.64    0.61
  -3   4  -7   23.71    0.81
  -3   4  -7   24.27    0.94
  -3   4  -7   23.82    0.97
  -3   4  -7   24.75    0.93
  -3   4  -7   22.90    0.90
   3  -4   7   24.52    0.92
   3  -4   7   24.45    0.96
   3  -4   7   22.99    0.90
   3  -4   7   23.29    0.88
  -4   4  -7    5.57    0.40
  -4   4  -7    4.65    0.45
  -4   4  -7    5.60    0.46
  -4   4  -7    4.25    0.46
  -4   4  -7    5.87    0.53
   4  -4   7    5.33    0.52
   4  -4   7    5.73    0.62
   4  -4   7    5.58    0.51
   4  -4   7    5.27    0.48
  -5   4  -7   12.19    0.81
  -5   4  -7   12.37    0.77
  -5   4  -7   11.19    0.59
   5  -4   7   13.66    0.83
   5  -4   7   14.15    0.83
   5  -4   7   12.81    0.76
  -6   4  -7    6.19    0.48
  -6   4  -7    7.64    0.69
  -6   4  -7    7.94    0.76
   6  -4   7    7.36    0.66
   6  -4   7    8.48    0.73
   6  -4   7    7.57    0.70
  -7   4  -7    1.40    0.43
  -7  -3   7    1.50    0.58
   6   3  -7    9.05    0.92
   6   3  -7    9.16    0.70
   6   3  -7   10.19    0.93
  -6  -3   7   11.47    0.87
  -6  -3   7   11.44    1.03
  -6  -3   7   10.02    0.67
   5   3  -7    4.32    0.65
   5   3  -7    3.06    0.57
   5   3  -7    4.18    0.52
  -5  -3   7    4.12    0.62
  -5  -3   7    3.71    0.46
  -5  -3   7    4.04    0.61
  -5  -3   7    2.96    0.61
   4   3  -7    8.95    0.72
   4   3  -7   10.55    0.68
   4   3  -7   10.65    0.69
   4   3  -7   11.15    0.78
   4   3  -7    9.69    0.75
  -4  -3   7    9.78    0.71
  -4  -3   7    8.82    0.77
  -4  -3   7   10.41    0.47
  -4  -3   7    8.53    0.73
  -4  -3   7    9.42    0.56
  -4  -3   7   11.92    0.72
  -4  -3   7   10.53    0.53
   3   3  -7   11.55    0.65
   3   3  -7   11.78    0.70
   3   3  -7   11.68    0.75
   3   3  -7   11.04    0.75
   3   3  -7   10.79    0.72
  -3  -3   7   11.59    0.53
  -3  -3   7   12.13    0.80
  -3  -3   7   10.34    0.70
  -3  -3   7   11.59    0.70
  -3  -3   7   11.81    0.64
  -3  -3   7   12.20    0.58
  -3  -3   7   11.20    0.70
  -3  -3   7   11.71    0.46
   2   3  -7   20.92    0.90
   2   3  -7   20.37    0.75
   2   3  -7   19.89    0.80
   2   3  -7   21.49    0.92
   2   3  -7   20.47    0.84
   2   3  -7   21.67    0.92
  -2  -3   7   20.10    0.81
  -2  -3   7   20.75    0.62
  -2  -3   7   20.66    0.87
  -2  -3   7   21.43    0.89
  -2  -3   7   19.37    0.67
  -2  -3   7   20.63    0.74
  -2  -3   7   18.92    0.93
  -2  -3   7   20.25    0.89
   1   3  -7    4.65    0.36
   1   3  -7    5.06    0.35
   1   3  -7    4.69    0.36
   1   3  -7    5.28    0.37
   1   3  -7    5.17    0.42
   1   3  -7    4.80    0.39
   1   3  -7    5.04    0.41
  -1  -3   7    4.75    0.31
  -1  -3   7    4.44    0.43
  -1  -3   7    5.32    0.37
  -1  -3   7    4.74    0.34
  -1  -3   7    5.44    0.43
  -1  -3   7    5.19    0.40
  -1  -3   7    5.08    0.28
  -1  -3   7    4.86    0.41
  -1  -3   7    4.68    0.35
  -1  -3   7    4.51    0.38
   0   3  -7   10.28    0.54
   0   3  -7    9.58    0.52
   0   3  -7   10.79    0.53
   0   3  -7    9.79    0.53
   0   3  -7   11.53    0.53
   0   3  -7   10.99    0.56
   0   3  -7   11.59    0.64
   0   3  -7   11.31    0.53
   0  -3   7   10.27    0.53
   0  -3   7   10.75    0.51
   0  -3   7   10.39    0.55
   0  -3   7   10.45    0.56
   0  -3   7   11.07    0.52
   0  -3   7   10.82    0.60
   0  -3   7   10.91    0.51
   0  -3   7   11.06    0.42
   0  -3   7   11.54    0.51
  -1   3  -7   20.12    0.75
  -1   3  -7   19.93    0.75
  -1   3  -7   20.75    0.69
  -1   3  -7   20.86    0.84
  -1   3  -7   20.94    0.77
  -1   3  -7   19.96    0.76
  -1   3  -7   20.08    0.76
   1  -3   7   19.47    0.75
   1  -3   7   20.18    0.74
   1  -3   7   19.96    0.57
   1  -3   7   19.93    0.74
   1  -3   7   18.55    0.79
   1  -3   7   19.98    0.78
   1  -3   7   20.12    0.74
  -2   3  -7   18.90    0.85
  -2   3  -7   18.00    0.77
  -2   3  -7   17.93    0.76
  -2   3  -7   17.80    0.55
  -2   3  -7   17.98    0.79
  -2   3  -7   17.86    0.71
  -2   3  -7   17.21    0.69
   2  -3   7   17.97    0.75
   2  -3   7   17.84    0.75
   2  -3   7   17.91    0.74
   2  -3   7   17.39    0.51
   2  -3   7   19.21    0.76
   2  -3   7   18.87    0.81
   2  -3   7   17.41    0.70
  -3   3  -7   17.31    0.70
  -3   3  -7   16.99    0.80
  -3   3  -7   17.61    0.73
  -3   3  -7   18.04    0.84
   3  -3   7   19.31    0.82
   3  -3   7   16.70    0.79
   3  -3   7   16.00    0.70
   3  -3   7   17.88    0.80
   3  -3   7   17.61    0.79
  -4   3  -7   12.79    0.74
  -4   3  -7   12.89    0.74
  -4   3  -7   11.92    0.62
  -4   3  -7   10.42    0.57
   4  -3   7   11.57    0.51
   4  -3   7   12.14    0.70
   4  -3   7   11.21    0.71
   4  -3   7   11.48    0.70
  -5   3  -7    7.98    0.66
  -5   3  -7    7.49    0.64
  -5   3  -7    7.21    0.50
   5  -3   7    7.28    0.66
   5  -3   7    7.35    0.62
   5  -3   7    8.11    0.65
  -6   3  -7    0.26    0.20
  -6   3  -7    0.59    0.28
  -6   3  -7    0.59    0.35
   6  -3   7    0.51    0.32
   6  -3   7    0.56    0.34
   6  -3   7    0.14    0.29
  -7  -2   7    1.14    0.49
  -7  -2   7    1.16    0.40
   6   2  -7    0.89    0.28
   6   2  -7    1.12    0.47
   6   2  -7    1.03    0.39
   6   2  -7    1.00    0.43
  -6  -2   7    0.74    0.42
  -6  -2   7    1.06    0.29
  -6  -2   7    0.80    0.34
   5   2  -7   15.63    0.98
   5   2  -7   17.12    1.07
   5   2  -7   15.28    0.99
  -5  -2   7   17.69    1.05
  -5  -2   7   15.98    1.08
  -5  -2   7   17.16    0.76
  -5  -2   7   16.59    0.97
   4   2  -7    2.44    0.48
   4   2  -7    2.11    0.43
   4   2  -7    2.02    0.38
   4   2  -7    1.76    0.40
  -4  -2   7    1.74    0.36
  -4  -2   7    2.15    0.18
  -4  -2   7    1.85    0.46
  -4  -2   7    2.33    0.32
  -4  -2   7    1.74    0.37
  -4  -2   7    1.71    0.40
  -4  -2   7    2.24    0.36
  -4  -2   7    1.79    0.40
   3   2  -7    6.73    0.52
   3   2  -7    7.63    0.59
   3   2  -7    7.48    0.53
   3   2  -7    6.92    0.44
   3   2  -7    7.39    0.58
   3   2  -7    6.94    0.59
  -3  -2   7    7.09    0.55
  -3  -2   7    6.48    0.60
  -3  -2   7    7.11    0.26
  -3  -2   7    7.27    0.50
  -3  -2   7    7.00    0.41
  -3  -2   7    7.37    0.47
  -3  -2   7    6.92    0.55
  -3  -2   7    7.35    0.59
   2   2  -7    0.80    0.23
   2   2  -7    1.25    0.28
   2   2  -7    1.37    0.23
   2   2  -7    0.90    0.24
   2   2  -7    1.57    0.27
   2   2  -7    0.96    0.25
  -2  -2   7    1.03    0.23
  -2  -2   7    1.09    0.12
  -2  -2   7    1.27    0.21
  -2  -2   7    1.29    0.27
  -2  -2   7    1.23    0.22
  -2  -2   7    1.55    0.31
  -2  -2   7    1.15    0.27
  -2  -2   7    1.41    0.33
   1   2  -7    6.73    0.47
   1   2  -7    6.91    0.43
   1   2  -7    7.05    0.49
   1   2  -7    6.97    0.46
   1   2  -7    6.81    0.43
   1   2  -7    6.79    0.46
   1   2  -7    6.79    0.36
   1   2  -7    7.04    0.46
  -1  -2   7    6.71    0.45
  -1  -2   7    6.77    0.36
  -1  -2   7    6.71    0.42
  -1  -2   7    7.01    0.49
  -1  -2   7    7.06    0.42
  -1  -2   7    6.77    0.51
  -1  -2   7    6.09    0.45
  -1  -2   7    7.70    0.40
  -1  -2   7    6.53    0.40
   0   2  -7   12.52    0.58
   0   2  -7   11.67    0.36
   0   2  -7   12.21    0.58
   0   2  -7   11.49    0.51
   0   2  -7   11.79    0.59
   0   2  -7   11.62    0.64
   0   2  -7   11.79    0.56
   0   2  -7   12.27    0.61
   0   2  -7   11.41    0.53
   0  -2   7   11.91    0.58
   0  -2   7   11.79    0.60
   0  -2   7   11.18    0.45
   0  -2   7   12.50    0.55
   0  -2   7   11.38    0.57
   0  -2   7   11.97    0.51
   0  -2   7   12.55    0.55
   0  -2   7   12.77    0.62
   0  -2   7   11.58    0.63
  -1   2  -7   29.43    0.92
  -1   2  -7   28.94    0.98
  -1   2  -7   29.62    0.98
  -1   2  -7   27.70    1.01
  -1   2  -7   29.08    0.95
  -1   2  -7   29.27    0.95
  -1   2  -7   29.74    0.83
   1  -2   7   29.04    0.98
   1  -2   7   30.28    0.79
   1  -2   7   28.50    1.01
   1  -2   7   29.67    0.96
   1  -2   7   30.42    1.05
   1  -2   7   28.60    0.96
   1  -2   7   28.33    0.93
  -2   2  -7   23.46    0.65
  -2   2  -7   22.38    0.83
  -2   2  -7   24.63    0.95
  -2   2  -7   21.58    0.91
  -2   2  -7   23.55    0.85
  -2   2  -7   21.98    0.81
   2  -2   7   22.30    0.78
   2  -2   7   22.68    0.89
   2  -2   7   22.07    0.87
   2  -2   7   22.62    0.92
   2  -2   7   22.34    0.83
   2  -2   7   20.97    0.84
  -3   2  -7   22.11    0.84
  -3   2  -7   24.18    0.90
  -3   2  -7   23.17    0.57
  -3   2  -7   22.80    0.99
  -3   2  -7   23.56    0.91
   3  -2   7   22.54    0.98
   3  -2   7   24.64    0.82
   3  -2   7   22.76    0.93
   3  -2   7   23.54    0.69
   3  -2   7   25.01    0.98
   3  -2   7   24.11    0.92
  -4   2  -7    4.78    0.42
  -4   2  -7    4.81    0.49
  -4   2  -7    4.74    0.50
   4  -2   7    5.62    0.55
   4  -2   7    4.64    0.50
   4  -2   7    5.15    0.40
   4  -2   7    5.55    0.50
  -5   2  -7    9.90    0.61
  -5   2  -7    9.05    0.66
  -5   2  -7    8.78    0.73
   5  -2   7   10.50    0.78
   5  -2   7    9.62    0.67
   5  -2   7    9.23    0.72
  -6   2  -7    1.28    0.32
  -6   2  -7    1.24    0.43
   6  -2   7    1.22    0.39
   6  -2   7    1.80    0.46
   6  -2   7    1.23    0.36
   7   1  -7    1.47    0.52
   7   1  -7    1.34    0.46
   7   1  -7    1.54    0.55
  -7  -1   7    1.39    0.42
  -7  -1   7    1.53    0.59
   6   1  -7    0.78    0.40
   6   1  -7    0.40    0.34
   6   1  -7    0.06    0.29
  -6  -1   7    0.17    0.34
  -6  -1   7    0.05    0.20
  -6  -1   7    0.32    0.28
   5   1  -7   12.80    0.91
   5   1  -7   13.28    0.93
   5   1  -7   13.10    0.87
  -5  -1   7   13.16    0.64
  -5  -1   7   12.49    0.96
  -5  -1   7   14.20    0.81
  -5  -1   7   14.26    0.87
   4   1  -7    2.51    0.45
   4   1  -7    1.75    0.36
   4   1  -7    2.88    0.35
   4   1  -7    2.11    0.44
   4   1  -7    1.40    0.36
  -4  -1   7    2.35    0.48
  -4  -1   7    2.84    0.31
  -4  -1   7    3.13    0.49
  -4  -1   7    2.29    0.41
  -4  -1   7    2.45    0.43
  -4  -1   7    2.36    0.40
   3   1  -7    8.16    0.62
   3   1  -7    7.05    0.56
   3   1  -7    6.48    0.54
   3   1  -7    7.58    0.42
   3   1  -7    7.03    0.51
  -3  -1   7    7.33    0.49
  -3  -1   7    7.01    0.39
  -3  -1   7    8.29    0.54
  -3  -1   7    7.72    0.57
  -3  -1   7    6.94    0.57
  -3  -1   7    7.07    0.55
  -3  -1   7    8.20    0.66
   2   1  -7    7.59    0.52
   2   1  -7    7.88    0.51
   2   1  -7    7.91    0.49
   2   1  -7    7.85    0.51
   2   1  -7    8.50    0.40
  -2  -1   7    7.60    0.58
  -2  -1   7    7.35    0.51
  -2  -1   7    7.37    0.47
  -2  -1   7    7.86    0.55
  -2  -1   7    8.48    0.48
  -2  -1   7    7.63    0.37
  -2  -1   7    6.92    0.50
   1   1  -7    2.73    0.22
   1   1  -7    3.35    0.45
   1   1  -7    3.09    0.25
   1   1  -7    2.85    0.31
   1   1  -7    3.24    0.32
   1   1  -7    2.81    0.36
   1   1  -7    2.65    0.30
  -1  -1   7    2.32    0.31
  -1  -1   7    2.72    0.34
  -1  -1   7    2.66    0.29
  -1  -1   7    2.63    0.23
  -1  -1   7    2.46    0.24
  -1  -1   7    2.97    0.39
  -1  -1   7    2.90    0.29
  -1  -1   7    2.43    0.38
  -1  -1   7    2.28    0.35
   0   1  -7    6.42    0.39
   0   1  -7    7.00    0.51
   0   1  -7    6.67    0.44
   0   1  -7    6.37    0.36
   0   1  -7    7.00    0.45
   0   1  -7    6.42    0.32
   0   1  -7    7.62    0.47
   0  -1   7    7.06    0.43
   0  -1   7    6.30    0.45
   0  -1   7    6.44    0.41
   0  -1   7    7.00    0.38
   0  -1   7    6.18    0.43
   0  -1   7    7.64    0.49
   0  -1   7    7.51    0.52
   0  -1   7    6.58    0.35
  -1   1  -7   36.74    1.12
  -1   1  -7   37.44    1.04
  -1   1  -7   38.29    1.24
  -1   1  -7   40.93    1.17
  -1   1  -7   38.99    1.21
  -1   1  -7   36.93    0.96
   1  -1   7   39.22    1.19
   1  -1   7   39.02    1.18
   1  -1   7   37.36    1.15
   1  -1   7   37.92    1.24
   1  -1   7   37.38    1.24
   1  -1   7   36.71    1.01
   1  -1   7   37.19    1.09
  -2   1  -7   41.06    0.97
  -2   1  -7   42.06    1.35
  -2   1  -7   42.20    1.24
  -2   1  -7   40.58    1.16
  -2   1  -7   41.90    1.22
  -2   1  -7   40.93    1.34
   2  -1   7   39.31    1.06
   2  -1   7   43.12    1.01
   2  -1   7   41.01    1.27
   2  -1   7   41.72    1.32
   2  -1   7   40.20    1.18
   2  -1   7   42.33    1.29
  -3   1  -7    8.55    0.53
  -3   1  -7    9.90    0.59
  -3   1  -7    8.33    0.53
  -3   1  -7    7.96    0.61
  -3   1  -7    8.43    0.33
   3  -1   7    8.28    0.61
   3  -1   7    8.72    0.54
   3  -1   7    8.75    0.47
   3  -1   7    8.43    0.62
   3  -1   7    8.90    0.62
   3  -1   7    7.56    0.41
  -4   1  -7   14.07    0.85
  -4   1  -7   13.24    0.73
  -4   1  -7   13.63    0.70
   4  -1   7   13.23    0.79
   4  -1   7   15.09    0.84
   4  -1   7   14.60    0.70
   4  -1   7   13.35    0.72
  -5   1  -7    2.98    0.44
  -5   1  -7    4.25    0.67
  -5   1  -7    3.31    0.51
   5  -1   7    3.21    0.45
   5  -1   7    3.36    0.52
   5  -1   7    3.64    0.58
  -6   1  -7    5.40    0.74
  -6   1  -7    5.84    0.58
   6  -1   7    6.57    0.62
   7   0  -7    5.03    0.83
   7   0  -7    3.41    0.62
   7   0  -7    5.00    0.81
  -7   0   7    3.84    0.73
  -7   0   7    6.03    0.66
   6   0  -7   10.36    0.85
   6   0  -7   11.10    0.92
   6   0  -7    9.33    0.86
  -6   0   7   10.82    0.72
  -6   0   7    9.60    0.74
  -6   0   7   10.46    0.96
   5   0  -7    6.77    0.68
   5   0  -7    6.66    0.68
   5   0  -7    5.83    0.59
  -5   0   7    6.34    0.50
  -5   0   7    7.42    0.65
  -5   0   7    6.68    0.84
  -5   0   7    7.28    0.64
   4   0  -7   14.05    0.86
   4   0  -7   14.78    0.83
   4   0  -7   16.51    0.90
   4   0  -7   14.49    0.62
   4   0  -7   15.97    0.80
  -4   0   7   14.89    0.82
  -4   0   7   14.77    0.86
  -4   0   7   15.75    0.96
  -4   0   7   14.76    0.80
  -4   0   7   14.79    0.59
  -4   0   7   13.93    0.82
   3   0  -7   52.38    1.25
   3   0  -7   52.35    1.64
   3   0  -7   50.94    1.53
   3   0  -7   52.09    1.51
   3   0  -7   56.27    1.66
  -3   0   7   54.33    1.66
  -3   0   7   54.09    1.21
  -3   0   7   52.77    1.56
  -3   0   7   52.56    1.58
  -3   0   7   52.92    1.58
  -3   0   7   52.15    1.71
   2   0  -7    4.64    0.45
   2   0  -7    5.18    0.41
   2   0  -7    4.49    0.38
   2   0  -7    4.26    0.41
  -2   0   7    5.65    0.40
  -2   0   7    4.68    0.42
  -2   0   7    5.28    0.27
  -2   0   7    4.38    0.43
  -2   0   7    4.81    0.44
  -2   0   7    3.98    0.44
  -2   0   7    4.83    0.43
   1   0  -7    2.25    0.20
   1   0  -7    1.68    0.29
   1   0  -7    2.31    0.27
   1   0  -7    2.28    0.31
   1   0  -7    2.27    0.34
   1   0  -7    2.39    0.28
   1   0  -7    2.55    0.42
  -1   0   7    2.04    0.31
  -1   0   7    2.07    0.31
  -1   0   7    2.79    0.38
  -1   0   7    1.79    0.33
  -1   0   7    2.45    0.35
  -1   0   7    2.35    0.19
  -1   0   7    2.22    0.30
  -1   0   7    2.25    0.30
  -1   0   7    2.16    0.34
   0   0  -7   28.86    0.99
   0   0  -7   28.86    0.99
   0   0  -7   29.46    0.98
   0   0  -7   30.37    0.88
   0   0  -7   28.74    1.07
   0   0  -7   30.45    0.88
   0   0  -7   27.97    0.79
   0   0   7   30.42    1.04
   0   0   7   30.22    0.93
   0   0   7   29.39    1.07
   0   0   7   29.04    0.75
   0   0   7   28.56    1.04
   0   0   7   27.85    0.98
   0   0   7   28.58    0.94
   0   0   7   28.30    0.96
  -1   0  -7   12.84    0.64
  -1   0  -7   12.61    0.70
  -1   0  -7   12.23    0.53
  -1   0  -7   13.54    0.69
  -1   0  -7   13.22    0.51
  -1   0  -7   13.45    0.63
   1   0   7   11.31    0.69
   1   0   7   12.41    0.65
   1   0   7   11.25    0.67
   1   0   7   11.95    0.57
   1   0   7   12.44    0.64
   1   0   7   13.13    0.67
  -2   0  -7   30.10    1.06
  -2   0  -7   31.14    0.82
  -2   0  -7   32.00    1.20
  -2   0  -7   31.13    1.04
  -2   0  -7   31.96    1.19
   2   0   7   29.23    0.91
   2   0   7   28.95    0.80
   2   0   7   29.65    1.09
   2   0   7   31.11    0.99
   2   0   7   31.24    1.11
   2   0   7   30.10    1.22
  -3   0  -7    1.55    0.36
  -3   0  -7    0.97    0.28
  -3   0  -7    0.90    0.17
  -3   0  -7    1.37    0.30
   3   0   7    0.76    0.28
   3   0   7    1.05    0.26
   3   0   7    1.04    0.26
   3   0   7    1.01    0.30
   3   0   7    0.64    0.27
  -4   0  -7   15.85    0.80
  -4   0  -7   15.41    0.93
   4   0   7   17.19    0.81
   4   0   7   16.24    0.90
   4   0   7   15.25    0.90
   4   0   7   15.47    0.76
  -5   0  -7    2.30    0.41
  -5   0  -7    2.08    0.52
   5   0   7    1.43    0.34
   5   0   7    0.88    0.36
  -6   0  -7    4.68    0.75
   7  -1  -7    4.26    0.73
   7  -1  -7    3.13    0.61
   7  -1  -7    4.68    0.79
  -7   1   7    3.36    0.52
  -7   1   7    5.37    0.88
   6  -1  -7    9.23    0.86
   6  -1  -7    7.73    0.81
   6  -1  -7    9.23    0.79
  -6   1   7    9.35    0.72
  -6   1   7    8.46    0.87
  -6   1   7    8.84    0.67
   5  -1  -7    4.96    0.57
   5  -1  -7    6.06    0.63
   5  -1  -7    5.59    0.70
  -5   1   7    5.58    0.70
  -5   1   7    5.91    0.57
  -5   1   7    6.47    0.72
  -5   1   7    6.66    0.54
   4  -1  -7   36.62    1.26
   4  -1  -7   37.01    1.01
   4  -1  -7   35.42    1.39
   4  -1  -7   37.84    1.39
   4  -1  -7   34.76    1.28
  -4   1   7   35.72    1.35
  -4   1   7   36.07    1.46
  -4   1   7   36.17    1.39
  -4   1   7   33.52    1.23
   3  -1  -7   35.06    0.87
   3  -1  -7   34.63    1.16
   3  -1  -7   36.30    1.21
   3  -1  -7   36.21    1.27
  -3   1   7   36.16    1.36
  -3   1   7   37.03    1.33
  -3   1   7   35.73    1.29
  -3   1   7   35.74    1.23
  -3   1   7   33.87    1.19
   2  -1  -7    2.14    0.35
   2  -1  -7    2.32    0.34
   2  -1  -7    2.19    0.34
   2  -1  -7    1.78    0.32
   2  -1  -7    1.84    0.30
  -2   1   7    2.03    0.33
  -2   1   7    1.54    0.34
  -2   1   7    1.87    0.37
  -2   1   7    1.27    0.23
  -2   1   7    1.87    0.36
  -2   1   7    1.70    0.32
   1  -1  -7    4.21    0.38
   1  -1  -7    4.16    0.37
   1  -1  -7    4.17    0.38
   1  -1  -7    4.15    0.24
   1  -1  -7    4.05    0.35
   1  -1  -7    4.29    0.45
   1  -1  -7    3.79    0.38
  -1   1   7    3.89    0.59
  -1   1   7    4.47    0.42
  -1   1   7    3.78    0.48
  -1   1   7    4.72    0.41
  -1   1   7    4.88    0.43
  -1   1   7    4.41    0.43
   0  -1  -7    6.48    0.52
   0  -1  -7    5.97    0.38
   0  -1  -7    6.16    0.47
   0  -1  -7    6.46    0.43
   0  -1  -7    6.02    0.44
   0  -1  -7    6.21    0.46
   0   1   7    5.59    0.43
   0   1   7    7.20    0.55
   0   1   7    6.29    0.26
   0   1   7    6.75    0.50
   0   1   7    6.28    0.47
   0   1   7    6.01    0.45
   0   1   7    7.29    0.53
  -1  -1  -7    7.50    0.50
  -1  -1  -7    7.78    0.52
  -1  -1  -7    8.36    0.44
  -1  -1  -7    8.36    0.58
  -1  -1  -7    8.16    0.59
   1   1   7    8.72    0.49
   1   1   7    8.41    0.56
   1   1   7    7.23    0.58
   1   1   7    7.45    0.46
   1   1   7    7.99    0.33
   1   1   7    7.30    0.53
   1   1   7    7.89    0.53
   1   1   7    7.42    0.58
  -2  -1  -7    6.42    0.38
  -2  -1  -7    6.15    0.47
  -2  -1  -7    6.33    0.56
  -2  -1  -7    5.91    0.49
  -2  -1  -7    6.33    0.57
   2   1   7    5.54    0.58
   2   1   7    5.16    0.49
   2   1   7    5.77    0.33
   2   1   7    5.67    0.45
   2   1   7    5.18    0.40
   2   1   7    6.02    0.53
   2   1   7    5.70    0.25
  -3  -1  -7    0.87    0.26
  -3  -1  -7    0.89    0.36
  -3  -1  -7    1.61    0.32
  -3  -1  -7    0.87    0.18
   3   1   7    0.79    0.24
   3   1   7    1.49    0.33
   3   1   7    1.16    0.33
   3   1   7    1.44    0.32
  -4  -1  -7   19.73    0.94
  -4  -1  -7   19.16    1.07
   4   1   7   19.38    0.83
   4   1   7   21.88    0.99
   4   1   7   22.70    1.10
   7  -2  -7    1.30    0.47
   7  -2  -7    1.29    0.44
  -7   2   7    0.65    0.42
   6  -2  -7    3.90    0.67
   6  -2  -7    3.98    0.69
   6  -2  -7    3.44    0.56
  -6   2   7    3.23    0.63
  -6   2   7    3.26    0.49
  -6   2   7    4.58    0.59
  -6   2   7    4.27    0.73
   5  -2  -7    3.20    0.59
   5  -2  -7    3.03    0.52
   5  -2  -7    2.35    0.42
  -5   2   7    2.69    0.53
  -5   2   7    3.64    0.63
  -5   2   7    2.40    0.42
  -5   2   7    3.74    0.46
   4  -2  -7   -0.04    0.18
   4  -2  -7   -0.08    0.19
   4  -2  -7    0.20    0.20
  -4   2   7   -0.28    0.20
  -4   2   7    0.00    0.11
  -4   2   7    0.03    0.21
  -4   2   7   -0.14    0.13
  -4   2   7    0.40    0.28
   3  -2  -7    0.19    0.20
   3  -2  -7    0.35    0.21
   3  -2  -7    0.26    0.19
  -3   2   7    0.08    0.21
  -3   2   7    0.68    0.29
  -3   2   7    0.33    0.22
  -3   2   7   -0.03    0.16
  -3   2   7    0.52    0.18
  -3   2   7    0.00    0.10
  -3   2   7    0.23    0.12
   2  -2  -7   19.54    0.80
   2  -2  -7   18.18    0.80
   2  -2  -7   19.39    0.87
   2  -2  -7   19.23    0.84
   2  -2  -7   19.51    0.45
  -2   2   7   20.02    0.94
  -2   2   7   19.24    0.85
  -2   2   7   21.40    0.91
  -2   2   7   18.85    0.71
  -2   2   7   19.96    0.96
  -2   2   7   18.85    0.82
   1  -2  -7    4.72    0.43
   1  -2  -7    4.88    0.42
   1  -2  -7    3.68    0.38
   1  -2  -7    4.78    0.50
   1  -2  -7    4.30    0.37
   1  -2  -7    4.15    0.41
  -1   2   7    4.83    0.45
  -1   2   7    5.28    0.49
  -1   2   7    4.61    0.44
  -1   2   7    4.38    0.41
  -1   2   7    5.06    0.49
   0  -2  -7   16.24    0.75
   0  -2  -7   14.66    0.72
   0  -2  -7   15.43    0.71
   0  -2  -7   16.48    0.79
   0  -2  -7   15.25    0.81
   0  -2  -7   15.70    0.66
   0   2   7   15.44    0.81
   0   2   7   15.99    0.78
   0   2   7   14.56    0.80
   0   2   7   14.42    0.71
  -1  -2  -7    8.16    0.63
  -1  -2  -7    7.25    0.51
  -1  -2  -7    7.78    0.46
  -1  -2  -7    9.05    0.58
  -1  -2  -7    7.41    0.60
   1   2   7    7.54    0.53
   1   2   7    7.19    0.60
   1   2   7    7.61    0.56
   1   2   7    6.98    0.30
   1   2   7    7.11    0.53
   1   2   7    8.96    0.52
  -2  -2  -7    1.95    0.29
  -2  -2  -7    1.34    0.31
  -2  -2  -7    2.36    0.47
  -2  -2  -7    1.67    0.34
   2   2   7    2.29    0.39
   2   2   7    2.30    0.38
   2   2   7    1.65    0.35
   2   2   7    1.76    0.30
  -3  -2  -7    6.17    0.42
  -3  -2  -7    5.76    0.62
  -3  -2  -7    6.94    0.56
  -3  -2  -7    5.57    0.55
   3   2   7    6.93    0.47
   3   2   7    7.26    0.61
   3   2   7    6.71    0.59
  -4  -2  -7    2.43    0.42
   4   2   7    2.89    0.50
   4   2   7    2.86    0.52
   7  -3  -7    2.37    0.59
  -7   3   7    2.51    0.63
   6  -3  -7    3.21    0.55
   6  -3  -7    3.24    0.63
   6  -3  -7    4.04    0.65
  -6   3   7    3.49    0.69
  -6   3   7    4.40    0.71
  -6   3   7    3.65    0.54
   5  -3  -7    2.89    0.52
   5  -3  -7    2.39    0.48
   5  -3  -7    2.77    0.48
  -5   3   7    2.97    0.42
  -5   3   7    2.51    0.41
  -5   3   7    3.03    0.59
  -5   3   7    2.47    0.54
   4  -3  -7    9.03    0.70
   4  -3  -7    8.15    0.62
   4  -3  -7    7.63    0.63
  -4   3   7   10.50    0.80
  -4   3   7    8.56    0.57
  -4   3   7    8.28    0.76
  -4   3   7    8.01    0.55
   3  -3  -7    4.12    0.44
   3  -3  -7    4.10    0.44
   3  -3  -7    4.15    0.53
  -3   3   7    4.39    0.43
  -3   3   7    5.04    0.65
  -3   3   7    4.52    0.38
  -3   3   7    4.54    0.56
  -3   3   7    4.15    0.33
   2  -3  -7   13.08    0.80
   2  -3  -7   11.99    0.67
   2  -3  -7   11.54    0.66
   2  -3  -7   11.18    0.62
   2  -3  -7   12.78    0.72
  -2   3   7   12.87    0.82
  -2   3   7   12.76    0.54
  -2   3   7   12.74    0.66
  -2   3   7   11.79    0.55
  -2   3   7   13.80    0.79
   1  -3  -7   10.47    0.64
   1  -3  -7   12.14    0.62
   1  -3  -7   12.22    0.67
   1  -3  -7   12.09    0.74
   1  -3  -7   12.09    0.66
  -1   3   7   12.11    0.45
  -1   3   7   13.65    0.80
  -1   3   7   13.37    0.76
  -1   3   7   13.07    0.68
   0  -3  -7   13.97    0.66
   0  -3  -7   14.08    0.80
   0  -3  -7   14.39    0.73
   0  -3  -7   15.02    0.73
   0   3   7   13.63    0.80
   0   3   7   14.62    0.73
   0   3   7   13.44    0.38
   0   3   7   13.63    0.79
  -1  -3  -7   24.27    0.89
  -1  -3  -7   23.81    0.98
  -1  -3  -7   24.57    1.16
  -1  -3  -7   23.17    0.95
   1   3   7   23.08    1.09
   1   3   7   24.00    1.02
   1   3   7   23.52    0.97
  -2  -3  -7    6.51    0.54
  -2  -3  -7    5.35    0.54
  -2  -3  -7    6.66    0.48
   2   3   7    6.43    0.59
   2   3   7    5.73    0.47
   2   3   7    6.56    0.58
  -3  -3  -7    1.09    0.27
  -3  -3  -7    0.46    0.26
  -3  -3  -7    0.87    0.30
   3   3   7    0.95    0.35
   3   3   7    1.24    0.39
   4   3   7    4.82    0.86
   6  -4  -7    5.55    0.87
   6  -4  -7    5.67    0.77
  -6   4   7    5.59    0.77
  -6   4   7    4.65    0.63
  -6   4   7    5.12    0.78
   5  -4  -7    5.72    0.62
   5  -4  -7    4.19    0.63
   5  -4  -7    6.02    0.61
  -5   4   7    6.03    0.84
  -5   4   7    5.51    0.72
  -5   4   7    6.19    0.58
   4  -4  -7   14.33    0.80
   4  -4  -7   13.46    0.84
   4  -4  -7   15.13    0.86
  -4   4   7   13.65    0.91
  -4   4   7   14.03    0.69
  -4   4   7   13.60    1.00
  -4   4   7   12.63    0.70
   3  -4  -7    4.26    0.53
   3  -4  -7    4.18    0.51
   3  -4  -7    3.95    0.44
  -3   4   7    3.64    0.53
  -3   4   7    4.41    0.41
  -3   4   7    4.68    0.39
  -3   4   7    4.06    0.60
   2  -4  -7    4.35    0.44
   2  -4  -7    3.13    0.43
   2  -4  -7    3.92    0.42
  -2   4   7    3.51    0.30
  -2   4   7    3.86    0.40
  -2   4   7    3.56    0.51
  -2   4   7    3.74    0.56
   1  -4  -7    9.70    0.63
   1  -4  -7    9.71    0.61
   1  -4  -7   10.68    0.64
  -1   4   7   10.10    0.70
  -1   4   7   10.73    0.62
  -1   4   7   11.33    0.81
   0  -4  -7    2.93    0.40
   0  -4  -7    3.18    0.43
   0  -4  -7    4.09    0.43
   0   4   7    2.71    0.47
   0   4   7    4.07    0.43
   0   4   7    3.37    0.53
  -1  -4  -7    8.75    0.63
  -1  -4  -7    7.86    0.59
  -1  -4  -7    7.76    0.55
   1   4   7    8.36    0.68
   1   4   7    9.28    0.69
   1   4   7    8.93    0.62
   1   4   7    7.75    0.71
  -2  -4  -7    4.49    0.46
  -2  -4  -7    3.48    0.50
  -2  -4  -7    3.80    0.50
   2   4   7    5.37    0.55
   2   4   7    4.86    0.64
  -3  -4  -7    1.16    0.46
  -3  -4  -7    1.71    0.36
  -3  -4  -7    1.91    0.43
   3   4   7    2.37    0.50
   3   4   7    1.42    0.42
   6  -5  -7    3.64    0.64
  -6   5   7    3.16    0.61
  -6   5   7    3.34    0.51
   5  -5  -7    7.47    0.72
   5  -5  -7    5.79    0.61
   5  -5  -7    4.45    0.63
  -5   5   7    6.32    0.79
  -5   5   7    6.88    0.60
  -5   5   7    6.97    0.95
   4  -5  -7    4.09    0.56
   4  -5  -7    4.24    0.55
   4  -5  -7    4.74    0.63
  -4   5   7    3.99    0.62
  -4   5   7    3.68    0.47
  -4   5   7    4.74    0.76
   3  -5  -7    0.65    0.28
   3  -5  -7    0.12    0.24
   3  -5  -7    0.29    0.22
  -3   5   7    0.22    0.28
  -3   5   7    0.35    0.28
  -3   5   7    0.36    0.17
   2  -5  -7    1.29    0.30
   2  -5  -7    0.92    0.28
   2  -5  -7    1.39    0.33
  -2   5   7    1.87    0.44
  -2   5   7    1.20    0.27
   1  -5  -7    4.60    0.47
   1  -5  -7    3.99    0.44
   1  -5  -7    4.33    0.47
  -1   5   7    3.24    0.55
  -1   5   7    5.28    0.57
  -1   5   7    4.28    0.43
   0  -5  -7    0.58    0.25
   0  -5  -7    0.70    0.27
   0  -5  -7    0.53    0.25
   0   5   7    1.10    0.28
   0   5   7    1.01    0.35
   0   5   7    1.00    0.34
  -1  -5  -7    5.53    0.54
  -1  -5  -7    5.92    0.56
  -1  -5  -7    5.75    0.53
   1   5   7    6.36    0.55
   1   5   7    5.33    0.62
   1   5   7    4.28    0.61
   1   5   7    6.57    0.69
  -2  -5  -7    4.61    0.50
  -2  -5  -7    4.13    0.55
  -2  -5  -7    4.64    0.59
   2   5   7    4.03    0.57
   2   5   7    4.57    0.56
   2   5   7    5.53    0.65
  -3  -5  -7    2.93    0.67
   3   5   7    3.27    0.77
   3   5   7    2.55    0.58
  -5   6   7    3.74    0.61
   4  -6  -7    1.79    0.42
  -4   6   7    2.09    0.48
   3  -6  -7    4.00    0.52
   3  -6  -7    4.09    0.52
   3  -6  -7    3.47    0.51
  -3   6   7    2.13    0.50
  -3   6   7    3.71    0.55
   2  -6  -7    1.00    0.34
   2  -6  -7    1.32    0.32
   2  -6  -7    0.79    0.28
  -2   6   7    1.70    0.50
  -2   6   7    1.35    0.39
   1  -6  -7    1.89    0.37
   1  -6  -7    2.43    0.44
   1  -6  -7    1.41    0.31
  -1   6   7    1.61    0.41
  -1   6   7    2.50    0.55
   0  -6  -7    0.89    0.33
   0  -6  -7    0.65    0.26
   0  -6  -7    1.18    0.31
   0   6   7    0.46    0.30
   0   6   7    0.92    0.34
  -1  -6  -7    8.79    0.70
  -1  -6  -7    9.12    0.69
  -1  -6  -7    9.67    0.71
   1   6   7   11.28    1.52
   1   6   7    8.83    0.81
   1   6   7    8.64    0.79
   3  -7  -7    1.50    0.51
  -3   7   7    2.32    0.47
   2  -7  -7    2.63    0.44
  -2   7   7    1.93    0.46
   1  -7  -7   10.73    0.73
  -1   7   7   11.57    0.85
   0  -7  -7    0.29    0.28
   0   7   7    0.65    0.39
   2  12  -8    4.02    0.66
   1  12  -8    3.46    0.55
   0  12  -8    1.93    0.43
   0 -12   8    1.30    0.37
  -1  12  -8    3.86    0.69
   1 -12   8    3.14    0.45
   1 -12   8    3.19    0.51
  -2  12  -8    7.33    0.91
   2 -12   8    7.25    0.56
   2 -12   8    7.72    0.71
   2 -12   8    7.12    0.51
  -3  12  -8   19.05    1.23
   3 -12   8   15.48    0.88
  -4  12  -8    7.97    0.84
   4 -12   8    8.18    0.76
   3  11  -8    3.89    0.61
  -3 -11   8    5.98    0.80
   2  11  -8    2.73    0.63
   2  11  -8    3.22    0.59
  -2 -11   8    4.08    0.77
  -2 -11   8    3.61    0.59
  -2 -11   8    2.80    0.54
   1  11  -8   19.43    1.03
   1  11  -8   21.61    1.32
  -1 -11   8   18.23    1.00
  -1 -11   8   18.75    0.98
  -1 -11   8   20.51    1.07
   0  11  -8    3.28    0.47
   0  11  -8    3.75    0.65
   0 -11   8    4.04    0.36
   0 -11   8    3.09    0.46
   0 -11   8    4.66    0.66
   0 -11   8    4.59    0.58
  -1  11  -8    0.81    0.26
  -1  11  -8    1.16    0.46
   1 -11   8    0.66    0.23
   1 -11   8    0.93    0.34
   1 -11   8    0.81    0.24
  -2  11  -8    0.49    0.29
   2 -11   8   -0.02    0.15
   2 -11   8    0.06    0.14
   2 -11   8    0.08    0.23
  -3  11  -8    3.39    0.61
   3 -11   8    3.58    0.62
   3 -11   8    2.45    0.43
   3 -11   8    2.97    0.32
  -4  11  -8    3.18    0.59
   4 -11   8    2.65    0.46
   4 -11   8    2.28    0.34
   4 -11   8    2.54    0.68
   4  10  -8    7.02    1.03
   4  10  -8    5.76    0.86
  -4 -10   8    9.18    1.57
   3  10  -8   12.69    1.05
   3  10  -8   11.76    0.89
  -3 -10   8   12.49    0.94
  -3 -10   8   10.96    0.88
  -3 -10   8   12.04    0.84
   2  10  -8    7.58    0.66
   2  10  -8   10.03    0.92
  -2 -10   8    8.27    0.67
  -2 -10   8    8.90    0.74
  -2 -10   8    8.31    0.69
   1  10  -8    1.42    0.35
   1  10  -8    0.95    0.42
  -1 -10   8    0.93    0.33
  -1 -10   8    0.90    0.28
  -1 -10   8    1.09    0.21
  -1 -10   8    0.62    0.25
   0  10  -8    2.89    0.62
   0  10  -8    3.55    0.47
   0 -10   8    3.65    0.48
   0 -10   8    3.59    0.34
   0 -10   8    3.95    0.52
   0 -10   8    2.79    0.44
  -1  10  -8    5.43    0.43
  -1  10  -8    4.43    0.69
   1 -10   8    5.31    0.53
   1 -10   8    5.47    0.43
   1 -10   8    5.15    0.42
   1 -10   8    4.51    0.43
  -2  10  -8    2.09    0.52
   2 -10   8    1.53    0.28
   2 -10   8    2.57    0.35
   2 -10   8    2.51    0.40
   2 -10   8    2.84    0.47
  -3  10  -8    5.12    0.71
   3 -10   8    4.23    0.37
   3 -10   8    5.52    0.73
   3 -10   8    4.53    0.48
  -4  10  -8    1.57    0.51
  -4  10  -8    0.69    0.31
   4 -10   8    0.76    0.20
   4 -10   8    0.92    0.32
   4 -10   8    0.93    0.32
   4   9  -8    2.10    0.44
   4   9  -8    1.30    0.45
   4   9  -8    1.32    0.45
  -4  -9   8    2.55    0.56
  -4  -9   8    1.91    0.54
   3   9  -8    6.69    0.58
   3   9  -8    7.01    0.66
   3   9  -8    7.42    0.78
  -3  -9   8    5.85    0.63
  -3  -9   8    6.55    0.60
  -3  -9   8    6.89    0.72
   2   9  -8    6.56    0.58
   2   9  -8    4.85    0.43
   2   9  -8    5.61    0.73
  -2  -9   8    5.63    0.61
  -2  -9   8    6.35    0.58
  -2  -9   8    5.60    0.56
   1   9  -8    0.81    0.36
   1   9  -8    0.93    0.27
   1   9  -8    0.77    0.19
  -1  -9   8    1.34    0.24
  -1  -9   8    1.18    0.33
  -1  -9   8    1.43    0.37
  -1  -9   8    0.74    0.27
   0   9  -8    8.30    0.78
   0   9  -8   10.43    0.58
   0   9  -8   10.56    0.66
   0  -9   8   10.30    0.66
   0  -9   8    9.63    0.60
   0  -9   8    9.91    0.71
   0  -9   8   10.41    0.55
   0  -9   8    9.55    0.68
  -1   9  -8    4.57    0.67
   1  -9   8    4.01    0.39
   1  -9   8    4.19    0.59
   1  -9   8    3.72    0.36
   1  -9   8    4.13    0.33
   1  -9   8    4.01    0.40
  -2   9  -8    5.79    0.71
   2  -9   8    4.69    0.38
   2  -9   8    4.71    0.44
   2  -9   8    3.97    0.33
   2  -9   8    5.08    0.53
   2  -9   8    4.03    0.37
  -3   9  -8    5.44    0.77
  -3   9  -8    4.83    0.65
   3  -9   8    5.88    0.57
   3  -9   8    6.42    0.55
   3  -9   8    5.64    0.41
   3  -9   8    5.17    0.40
  -4   9  -8   15.37    0.96
  -4   9  -8   15.13    1.03
   4  -9   8   14.93    0.88
   4  -9   8   14.51    0.69
   4  -9   8   15.03    0.93
   4  -9   8   13.44    0.66
  -5   9  -8    0.00    0.31
  -5   9  -8    0.21    0.19
   5  -9   8   -0.14    0.21
   5  -9   8    0.21    0.18
  -6   9  -8    1.26    0.31
   5   8  -8    2.68    0.59
   5   8  -8    2.75    0.55
  -5  -8   8    2.71    0.62
   4   8  -8    1.26    0.44
   4   8  -8    1.15    0.38
   4   8  -8    0.61    0.28
  -4  -8   8    1.59    0.48
  -4  -8   8    1.49    0.43
  -4  -8   8    1.50    0.35
   3   8  -8   13.62    0.85
   3   8  -8   13.02    0.83
   3   8  -8   13.70    0.98
  -3  -8   8   13.38    0.87
  -3  -8   8   14.71    0.82
  -3  -8   8   14.35    0.96
   2   8  -8    0.31    0.23
   2   8  -8    0.27    0.29
   2   8  -8    0.32    0.22
  -2  -8   8    0.60    0.21
  -2  -8   8    0.10    0.20
  -2  -8   8    0.32    0.20
  -2  -8   8    0.64    0.27
   1   8  -8    8.35    0.44
   1   8  -8    9.33    0.78
   1   8  -8    8.83    0.55
   1   8  -8    9.58    0.56
  -1  -8   8    9.92    0.64
  -1  -8   8    9.27    0.60
  -1  -8   8    9.87    0.51
  -1  -8   8    8.77    0.63
  -1  -8   8    9.55    0.67
   0   8  -8   14.65    0.75
   0   8  -8   17.42    0.75
   0   8  -8   16.52    0.63
   0   8  -8   15.49    0.54
   0   8  -8   16.10    0.66
   0   8  -8   16.58    1.01
   0  -8   8   15.76    0.80
   0  -8   8   15.83    0.69
   0  -8   8   17.02    0.78
   0  -8   8   15.34    0.69
   0  -8   8   14.68    1.22
   0  -8   8   16.47    0.86
  -1   8  -8   11.33    0.60
  -1   8  -8   10.84    0.81
   1  -8   8   12.43    0.57
   1  -8   8   11.58    0.61
   1  -8   8   12.64    0.66
   1  -8   8   13.57    0.77
   1  -8   8   12.47    0.64
   1  -8   8   12.04    0.64
  -2   8  -8    0.07    0.13
  -2   8  -8    0.17    0.24
  -2   8  -8   -0.08    0.19
   2  -8   8    0.32    0.16
   2  -8   8    0.31    0.15
   2  -8   8    0.19    0.14
   2  -8   8    0.20    0.12
   2  -8   8    0.46    0.24
   2  -8   8    0.09    0.15
  -3   8  -8    2.03    0.44
  -3   8  -8    1.78    0.43
  -3   8  -8    1.76    0.33
   3  -8   8    2.09    0.38
   3  -8   8    1.36    0.25
   3  -8   8    2.00    0.30
   3  -8   8    1.86    0.29
   3  -8   8    1.94    0.37
  -4   8  -8    9.59    0.75
  -4   8  -8    9.17    0.60
  -4   8  -8   12.42    0.91
   4  -8   8    9.96    0.60
   4  -8   8   11.08    0.76
   4  -8   8   10.04    0.58
  -5   8  -8    2.21    0.39
  -5   8  -8    2.33    0.58
   5  -8   8    1.95    0.47
   5  -8   8    2.84    0.42
   5  -8   8    2.23    0.35
  -6   8  -8    4.08    0.51
   5   7  -8    4.14    0.67
   5   7  -8    3.85    0.62
  -5  -7   8    2.93    0.61
  -5  -7   8    2.80    0.47
  -5  -7   8    2.32    0.54
   4   7  -8    3.63    0.60
   4   7  -8    4.64    0.67
  -4  -7   8    2.84    0.58
  -4  -7   8    4.63    0.69
  -4  -7   8    3.07    0.46
   3   7  -8   13.55    0.94
   3   7  -8   12.96    0.84
  -3  -7   8   13.90    0.93
  -3  -7   8   14.93    0.80
  -3  -7   8   14.04    0.88
   2   7  -8   11.39    0.71
   2   7  -8    9.97    0.62
   2   7  -8   11.91    0.85
  -2  -7   8   10.00    0.54
  -2  -7   8   11.33    0.82
  -2  -7   8   10.91    0.76
  -2  -7   8   11.77    0.73
  -2  -7   8   12.09    0.77
  -2  -7   8   10.02    0.66
   1   7  -8   28.77    1.29
   1   7  -8   29.74    1.08
   1   7  -8   31.75    1.01
   1   7  -8   29.58    1.17
   1   7  -8   29.92    0.92
  -1  -7   8   32.47    1.22
  -1  -7   8   31.47    1.09
  -1  -7   8   32.05    1.16
  -1  -7   8   29.49    1.22
  -1  -7   8   31.99    1.17
  -1  -7   8   31.33    0.97
   0   7  -8   47.27    1.18
   0   7  -8   46.88    1.15
   0   7  -8   45.79    1.34
   0   7  -8   40.90    1.58
   0   7  -8   47.04    1.43
   0   7  -8   46.52    1.30
   0  -7   8   46.35    1.47
   0  -7   8   46.41    1.44
   0  -7   8   45.52    1.29
   0  -7   8   45.85    1.37
   0  -7   8   46.67    1.50
   0  -7   8   47.92    1.31
  -1   7  -8   12.28    0.82
  -1   7  -8   11.94    0.55
  -1   7  -8   12.59    0.63
  -1   7  -8   13.38    0.52
  -1   7  -8   12.70    0.78
   1  -7   8   12.69    0.58
   1  -7   8   11.57    0.66
   1  -7   8   12.29    0.71
   1  -7   8   11.58    0.60
   1  -7   8   12.31    0.57
   1  -7   8   12.12    0.62
   1  -7   8   11.88    0.64
  -2   7  -8    3.40    0.52
  -2   7  -8    2.50    0.25
  -2   7  -8    4.26    0.60
  -2   7  -8    2.76    0.24
   2  -7   8    3.04    0.25
   2  -7   8    2.65    0.34
   2  -7   8    3.35    0.48
   2  -7   8    2.84    0.37
   2  -7   8    3.41    0.44
   2  -7   8    2.78    0.30
   2  -7   8    2.90    0.42
  -3   7  -8    8.60    0.37
  -3   7  -8    8.58    0.57
  -3   7  -8    9.04    0.71
  -3   7  -8    9.34    0.74
   3  -7   8    8.72    0.53
   3  -7   8    9.50    0.55
   3  -7   8    9.86    0.65
   3  -7   8    9.24    0.55
  -4   7  -8    1.57    0.33
  -4   7  -8    1.32    0.37
  -4   7  -8    2.09    0.48
   4  -7   8    2.27    0.43
   4  -7   8    1.85    0.32
   4  -7   8    2.09    0.35
  -5   7  -8    5.70    0.51
  -5   7  -8    4.08    0.62
   5  -7   8    5.63    0.51
   5  -7   8    5.66    0.62
   5  -7   8    4.99    0.49
  -6   7  -8    3.26    0.48
   6  -7   8    3.63    0.55
   5   6  -8    2.21    0.46
   5   6  -8    1.60    0.51
  -5  -6   8    2.22    0.50
  -5  -6   8    2.00    0.50
  -5  -6   8    1.27    0.36
   4   6  -8    0.33    0.26
   4   6  -8    0.57    0.29
  -4  -6   8    0.30    0.28
  -4  -6   8    0.29    0.23
  -4  -6   8   -0.04    0.25
   3   6  -8    2.53    0.46
   3   6  -8    1.91    0.42
   3   6  -8    2.55    0.46
  -3  -6   8    2.86    0.59
  -3  -6   8    1.64    0.40
  -3  -6   8    2.29    0.47
  -3  -6   8    2.10    0.39
   2   6  -8   27.66    1.19
   2   6  -8   27.41    1.10
   2   6  -8   26.26    1.20
   2   6  -8   28.49    1.15
  -2  -6   8   26.43    1.16
  -2  -6   8   27.17    0.94
  -2  -6   8   27.83    1.06
  -2  -6   8   29.03    1.08
  -2  -6   8   28.27    0.70
  -2  -6   8   27.56    1.13
  -2  -6   8   28.17    1.25
   1   6  -8   36.02    1.07
   1   6  -8   38.07    1.27
   1   6  -8   37.55    1.05
   1   6  -8   35.51    1.21
   1   6  -8   35.40    1.39
  -1  -6   8   38.02    1.25
  -1  -6   8   37.27    1.18
  -1  -6   8   36.94    1.30
  -1  -6   8   37.43    1.25
  -1  -6   8   37.69    1.10
  -1  -6   8   40.01    1.41
   0   6  -8   64.92    1.79
   0   6  -8   70.27    1.62
   0   6  -8   68.86    1.40
   0   6  -8   68.01    2.02
   0   6  -8   70.04    1.78
   0  -6   8   68.08    1.83
   0  -6   8   68.62    1.89
   0  -6   8   71.30    1.85
   0  -6   8   70.07    1.70
   0  -6   8   67.99    1.78
   0  -6   8   68.89    1.70
   0  -6   8   70.06    1.68
  -1   6  -8   52.58    1.69
  -1   6  -8   52.05    1.40
  -1   6  -8   54.01    1.33
  -1   6  -8   54.55    1.64
   1  -6   8   51.91    1.55
   1  -6   8   54.22    1.46
   1  -6   8   50.70    1.26
   1  -6   8   50.78    1.42
   1  -6   8   52.33    1.37
   1  -6   8   49.86    1.45
   1  -6   8   52.56    1.53
  -2   6  -8    0.84    0.29
  -2   6  -8    0.27    0.16
  -2   6  -8    0.71    0.29
  -2   6  -8    0.82    0.21
  -2   6  -8    0.61    0.24
  -2   6  -8    0.63    0.19
   2  -6   8    0.56    0.21
   2  -6   8    0.75    0.20
   2  -6   8    0.42    0.22
   2  -6   8    0.44    0.22
   2  -6   8    0.44    0.21
   2  -6   8    0.80    0.24
   2  -6   8    0.57    0.12
  -3   6  -8    2.99    0.43
  -3   6  -8    3.76    0.53
  -3   6  -8    3.96    0.54
  -3   6  -8    3.18    0.31
  -3   6  -8    3.48    0.34
   3  -6   8    2.50    0.38
   3  -6   8    2.69    0.37
   3  -6   8    3.52    0.42
   3  -6   8    3.12    0.39
  -4   6  -8   -0.17    0.16
  -4   6  -8   -0.07    0.19
  -4   6  -8    0.02    0.12
  -4   6  -8   -0.07    0.22
   4  -6   8   -0.18    0.13
   4  -6   8    0.31    0.21
   4  -6   8   -0.17    0.19
  -5   6  -8    2.66    0.44
  -5   6  -8    1.98    0.48
   5  -6   8    2.70    0.43
   5  -6   8    3.11    0.53
   5  -6   8    3.11    0.47
  -6   6  -8    4.29    0.57
   6  -6   8    5.33    0.57
   6  -6   8    6.33    0.64
   6   5  -8    1.83    0.48
   6   5  -8    1.94    0.65
  -6  -5   8    1.38    0.36
   5   5  -8   -0.15    0.22
   5   5  -8   -0.22    0.20
  -5  -5   8    0.16    0.25
  -5  -5   8   -0.14    0.27
  -5  -5   8   -0.01    0.19
  -5  -5   8    0.12    0.27
   4   5  -8    7.80    0.69
   4   5  -8    6.43    0.69
   4   5  -8    6.29    0.69
  -4  -5   8    6.67    0.74
  -4  -5   8    6.80    0.64
  -4  -5   8    6.81    0.72
  -4  -5   8    6.98    0.55
   3   5  -8   15.44    0.92
   3   5  -8   12.91    0.83
   3   5  -8   14.64    0.93
   3   5  -8   15.16    0.89
  -3  -5   8   14.91    0.52
  -3  -5   8   14.25    0.95
  -3  -5   8   14.04    0.84
  -3  -5   8   13.56    0.71
  -3  -5   8   13.89    0.88
  -3  -5   8   15.09    0.80
  -3  -5   8   14.65    0.67
   2   5  -8   33.84    1.31
   2   5  -8   34.70    1.33
   2   5  -8   34.56    1.29
   2   5  -8   34.71    1.23
  -2  -5   8   34.94    0.89
  -2  -5   8   33.94    1.30
  -2  -5   8   33.14    1.35
  -2  -5   8   32.79    1.13
  -2  -5   8   34.35    1.09
  -2  -5   8   36.82    1.21
  -2  -5   8   33.11    1.23
  -2  -5   8   32.51    1.03
   1   5  -8   34.97    1.24
   1   5  -8   36.31    1.08
   1   5  -8   36.71    1.33
   1   5  -8   36.38    1.19
   1   5  -8   35.44    1.23
  -1  -5   8   34.62    1.15
  -1  -5   8   35.89    1.26
  -1  -5   8   34.49    1.06
  -1  -5   8   37.02    1.33
  -1  -5   8   34.80    1.19
  -1  -5   8   33.83    1.11
  -1  -5   8   35.46    1.04
   0   5  -8   25.11    1.08
   0   5  -8   27.04    1.01
   0   5  -8   27.93    0.88
   0   5  -8   27.01    0.99
   0  -5   8   26.36    0.90
   0  -5   8   25.83    0.99
   0  -5   8   26.68    0.97
   0  -5   8   26.72    0.87
   0  -5   8   28.75    0.94
   0  -5   8   25.99    1.04
   0  -5   8   25.87    0.97
   0  -5   8   27.38    0.84
  -1   5  -8   19.08    0.91
  -1   5  -8   20.14    0.90
  -1   5  -8   19.69    0.88
  -1   5  -8   18.55    0.77
  -1   5  -8   19.50    0.75
   1  -5   8   19.71    0.75
   1  -5   8   20.62    0.88
   1  -5   8   20.19    0.61
   1  -5   8   20.33    0.81
   1  -5   8   18.71    0.82
   1  -5   8   18.66    0.78
   1  -5   8   18.97    0.81
  -2   5  -8   44.15    1.27
  -2   5  -8   44.03    1.27
  -2   5  -8   41.65    1.40
  -2   5  -8   42.66    1.41
  -2   5  -8   43.69    1.24
  -2   5  -8   41.18    1.34
   2  -5   8   44.15    1.34
   2  -5   8   43.68    1.39
   2  -5   8   42.63    0.92
   2  -5   8   42.73    1.26
   2  -5   8   43.90    1.31
   2  -5   8   42.16    1.29
   2  -5   8   41.32    1.33
  -3   5  -8    1.89    0.31
  -3   5  -8    2.55    0.44
  -3   5  -8    3.15    0.44
  -3   5  -8    1.83    0.32
  -3   5  -8    2.35    0.40
  -3   5  -8    1.91    0.30
   3  -5   8    3.47    0.46
   3  -5   8    2.69    0.37
   3  -5   8    2.56    0.38
   3  -5   8    2.65    0.40
   3  -5   8    2.12    0.35
  -4   5  -8    5.69    0.43
  -4   5  -8    5.86    0.53
  -4   5  -8    6.33    0.54
  -4   5  -8    6.17    0.62
   4  -5   8    5.12    0.48
   4  -5   8    5.19    0.51
   4  -5   8    5.28    0.54
  -5   5  -8    1.17    0.27
  -5   5  -8    1.24    0.43
  -5   5  -8    1.75    0.41
   5  -5   8    1.20    0.36
   5  -5   8    1.66    0.41
   5  -5   8    0.97    0.30
  -6   5  -8    5.37    0.67
   6  -5   8    4.46    0.61
   6  -5   8    3.80    0.61
   6  -5   8    4.15    0.58
   6   4  -8    0.35    0.32
   6   4  -8    0.29    0.28
  -6  -4   8    0.21    0.29
  -6  -4   8    0.41    0.25
  -6  -4   8    0.42    0.41
   5   4  -8    2.82    0.63
   5   4  -8    3.01    0.53
   5   4  -8    1.95    0.51
  -5  -4   8    2.62    0.65
  -5  -4   8    1.88    0.49
  -5  -4   8    2.71    0.55
  -5  -4   8    3.02    0.44
   4   4  -8    1.40    0.41
   4   4  -8    1.90    0.40
   4   4  -8    1.70    0.42
  -4  -4   8    1.53    0.34
  -4  -4   8    1.71    0.40
  -4  -4   8    1.03    0.41
  -4  -4   8    1.54    0.32
  -4  -4   8    2.01    0.45
   3   4  -8    1.02    0.33
   3   4  -8    0.97    0.30
   3   4  -8    0.91    0.28
   3   4  -8    1.59    0.41
   3   4  -8    0.92    0.30
   3   4  -8    1.16    0.32
  -3  -4   8    1.20    0.34
  -3  -4   8    1.11    0.37
  -3  -4   8    1.26    0.31
  -3  -4   8    1.18    0.21
  -3  -4   8    0.72    0.24
  -3  -4   8    1.27    0.22
  -3  -4   8    1.80    0.33
   2   4  -8   17.52    0.79
   2   4  -8   17.71    0.84
   2   4  -8   18.97    0.94
   2   4  -8   17.56    0.89
   2   4  -8   17.56    0.90
  -2  -4   8   18.34    0.80
  -2  -4   8   18.40    0.65
  -2  -4   8   18.41    0.76
  -2  -4   8   17.16    0.75
  -2  -4   8   17.76    0.90
  -2  -4   8   19.83    1.00
  -2  -4   8   17.79    0.86
  -2  -4   8   18.51    0.64
   1   4  -8   33.24    1.14
   1   4  -8   32.78    1.18
   1   4  -8   34.43    1.20
   1   4  -8   32.92    1.17
   1   4  -8   33.47    1.07
  -1  -4   8   34.03    1.06
  -1  -4   8   32.46    1.09
  -1  -4   8   33.97    1.07
  -1  -4   8   31.29    1.12
  -1  -4   8   32.18    0.90
  -1  -4   8   31.94    1.22
  -1  -4   8   33.56    1.03
  -1  -4   8   33.06    1.19
   0   4  -8    1.34    0.27
   0   4  -8    1.01    0.22
   0   4  -8    0.98    0.24
   0   4  -8    1.37    0.29
   0   4  -8    0.74    0.19
   0   4  -8    0.73    0.27
   0   4  -8    0.66    0.22
   0  -4   8    0.93    0.21
   0  -4   8    1.05    0.23
   0  -4   8    0.92    0.18
   0  -4   8    0.86    0.25
   0  -4   8    1.01    0.26
   0  -4   8    0.73    0.16
   0  -4   8    0.91    0.22
   0  -4   8    0.81    0.23
  -1   4  -8    3.10    0.44
  -1   4  -8    2.46    0.35
  -1   4  -8    2.65    0.30
  -1   4  -8    1.77    0.27
  -1   4  -8    2.62    0.36
  -1   4  -8    2.47    0.37
   1  -4   8    2.67    0.22
   1  -4   8    2.29    0.31
   1  -4   8    2.86    0.38
   1  -4   8    3.26    0.35
   1  -4   8    2.58    0.34
   1  -4   8    3.13    0.45
   1  -4   8    2.37    0.34
  -2   4  -8   17.07    0.81
  -2   4  -8   15.68    0.70
  -2   4  -8   16.71    0.81
  -2   4  -8   17.32    0.74
  -2   4  -8   15.99    0.75
   2  -4   8   16.32    0.75
   2  -4   8   17.69    0.79
   2  -4   8   16.67    0.49
   2  -4   8   17.21    0.81
   2  -4   8   17.32    0.77
   2  -4   8   17.47    0.76
  -3   4  -8   15.26    0.78
  -3   4  -8   15.36    0.71
  -3   4  -8   14.16    0.68
  -3   4  -8   15.67    0.80
  -3   4  -8   15.58    0.82
   3  -4   8   15.45    0.76
   3  -4   8   14.78    0.77
   3  -4   8   15.14    0.77
   3  -4   8   15.71    0.79
   3  -4   8   15.22    0.80
  -4   4  -8   13.36    0.81
  -4   4  -8   14.14    0.73
  -4   4  -8   13.70    0.67
  -4   4  -8   15.46    0.87
   4  -4   8   14.66    0.80
   4  -4   8   15.64    0.82
   4  -4   8   14.31    0.80
  -5   4  -8    2.95    0.50
  -5   4  -8    2.92    0.51
  -5   4  -8    3.08    0.39
   5  -4   8    3.72    0.55
   5  -4   8    2.75    0.47
   5  -4   8    3.18    0.50
  -6   4  -8    1.37    0.29
  -6   4  -8    2.64    0.50
   6  -4   8    1.38    0.39
   6  -4   8    1.47    0.42
   6  -4   8    2.15    0.47
  -7  -3   8   -0.11    0.39
   6   3  -8    2.83    0.50
   6   3  -8    2.18    0.60
  -6  -3   8    2.97    0.58
  -6  -3   8    2.78    0.46
  -6  -3   8    2.66    0.65
   5   3  -8    0.16    0.26
   5   3  -8    0.72    0.35
   5   3  -8   -0.12    0.25
   5   3  -8    0.06    0.24
  -5  -3   8    0.86    0.36
  -5  -3   8    0.86    0.25
  -5  -3   8    0.49    0.37
   4   3  -8    3.72    0.59
   4   3  -8    4.57    0.66
   4   3  -8    3.67    0.51
   4   3  -8    4.46    0.65
  -4  -3   8    3.89    0.55
  -4  -3   8    5.00    0.73
  -4  -3   8    4.44    0.62
  -4  -3   8    4.24    0.40
  -4  -3   8    4.12    0.41
   3   3  -8    9.67    0.72
   3   3  -8   10.30    0.64
   3   3  -8   10.56    0.67
   3   3  -8   10.38    0.74
   3   3  -8    9.98    0.74
  -3  -3   8    9.94    0.63
  -3  -3   8   10.64    0.56
  -3  -3   8   10.23    0.77
  -3  -3   8   10.08    0.39
  -3  -3   8    9.29    0.71
  -3  -3   8   10.19    0.56
  -3  -3   8   10.92    0.72
  -3  -3   8   11.20    0.93
   2   3  -8   11.56    0.63
   2   3  -8   12.07    0.71
   2   3  -8   10.92    0.69
   2   3  -8   10.89    0.65
   2   3  -8   10.87    0.55
   2   3  -8   10.47    0.68
  -2  -3   8   11.06    0.66
  -2  -3   8   11.36    0.55
  -2  -3   8   10.86    0.40
  -2  -3   8   10.16    0.53
  -2  -3   8   10.22    0.71
  -2  -3   8   10.55    0.59
  -2  -3   8   11.53    0.69
  -2  -3   8   11.89    0.73
   1   3  -8   15.01    0.62
   1   3  -8   13.48    0.72
   1   3  -8   15.23    0.68
   1   3  -8   13.40    0.69
   1   3  -8   14.99    0.74
   1   3  -8   15.17    0.76
  -1  -3   8   15.29    0.80
  -1  -3   8   13.96    0.85
  -1  -3   8   15.31    0.59
  -1  -3   8   13.83    0.70
  -1  -3   8   14.87    0.76
  -1  -3   8   14.15    0.65
  -1  -3   8   15.48    0.64
  -1  -3   8   14.96    0.67
   0   3  -8    7.97    0.50
   0   3  -8    8.19    0.53
   0   3  -8    8.13    0.60
   0   3  -8    7.89    0.48
   0   3  -8    7.44    0.49
   0   3  -8    7.89    0.52
   0  -3   8    8.04    0.39
   0  -3   8    8.18    0.54
   0  -3   8    8.51    0.53
   0  -3   8    7.06    0.46
   0  -3   8    7.73    0.46
   0  -3   8    7.81    0.56
   0  -3   8    7.89    0.47
  -1   3  -8   20.39    0.83
  -1   3  -8   18.02    0.86
  -1   3  -8   19.95    0.80
  -1   3  -8   19.23    0.79
  -1   3  -8   19.82    0.80
  -1   3  -8   20.30    0.73
   1  -3   8   19.01    0.81
   1  -3   8   19.80    0.84
   1  -3   8   18.69    0.77
   1  -3   8   19.48    0.61
   1  -3   8   19.28    0.76
   1  -3   8   19.63    0.78
   1  -3   8   20.18    0.89
  -2   3  -8    3.88    0.50
  -2   3  -8    3.93    0.38
  -2   3  -8    3.31    0.35
  -2   3  -8    3.20    0.27
  -2   3  -8    2.85    0.41
   2  -3   8    3.29    0.42
   2  -3   8    3.31    0.39
   2  -3   8    3.20    0.41
   2  -3   8    3.48    0.45
   2  -3   8    2.94    0.38
   2  -3   8    3.90    0.40
  -3   3  -8    0.52    0.21
  -3   3  -8    0.59    0.20
  -3   3  -8    0.84    0.31
  -3   3  -8    0.60    0.25
   3  -3   8    0.49    0.24
   3  -3   8    0.49    0.23
   3  -3   8    0.50    0.23
   3  -3   8    0.20    0.20
   3  -3   8    0.55    0.26
  -4   3  -8    2.01    0.40
  -4   3  -8    2.35    0.35
  -4   3  -8    1.17    0.32
   4  -3   8    1.33    0.33
   4  -3   8    2.30    0.41
   4  -3   8    2.14    0.40
  -5   3  -8    2.59    0.40
  -5   3  -8    2.18    0.48
  -5   3  -8    2.74    0.52
   5  -3   8    2.54    0.47
   5  -3   8    1.56    0.39
   5  -3   8    2.36    0.46
  -6   3  -8    5.41    0.51
  -6   3  -8    4.94    0.67
   6  -3   8    4.42    0.63
   6  -3   8    4.27    0.58
  -7  -2   8    3.39    0.75
   6   2  -8    4.47    0.61
   6   2  -8    4.03    0.67
   6   2  -8    5.99    0.88
   6   2  -8    5.30    0.78
  -6  -2   8    4.76    0.70
  -6  -2   8    5.88    0.92
  -6  -2   8    4.46    0.48
   5   2  -8    7.64    0.75
   5   2  -8    7.54    0.73
   5   2  -8    6.61    0.83
  -5  -2   8    7.75    0.53
  -5  -2   8    7.84    0.72
  -5  -2   8    8.38    0.62
  -5  -2   8    7.50    0.82
   4   2  -8    2.25    0.48
   4   2  -8    1.16    0.34
   4   2  -8    2.50    0.42
   4   2  -8    1.73    0.42
  -4  -2   8    2.30    0.43
  -4  -2   8    1.79    0.42
  -4  -2   8    2.36    0.52
  -4  -2   8    1.87    0.29
  -4  -2   8    2.29    0.37
   3   2  -8   26.71    1.14
   3   2  -8   27.44    0.92
   3   2  -8   28.04    1.07
   3   2  -8   26.86    1.16
   3   2  -8   28.66    1.22
  -3  -2   8   24.87    1.07
  -3  -2   8   27.06    1.14
  -3  -2   8   27.17    0.87
  -3  -2   8   25.98    1.00
  -3  -2   8   27.08    1.19
  -3  -2   8   28.07    1.01
  -3  -2   8   25.64    1.22
   2   2  -8    8.19    0.59
   2   2  -8    8.15    0.59
   2   2  -8    8.44    0.57
   2   2  -8    9.09    0.47
   2   2  -8    7.55    0.59
   2   2  -8    9.27    0.56
  -2  -2   8    8.80    0.66
  -2  -2   8    8.91    0.58
  -2  -2   8    8.89    0.53
  -2  -2   8    8.67    0.63
  -2  -2   8    8.67    0.52
  -2  -2   8    9.09    0.46
  -2  -2   8    8.87    0.60
   1   2  -8    1.81    0.20
   1   2  -8    1.99    0.33
   1   2  -8    2.51    0.40
   1   2  -8    1.60    0.32
   1   2  -8    2.18    0.28
   1   2  -8    1.85    0.30
  -1  -2   8    1.70    0.28
  -1  -2   8    1.51    0.32
  -1  -2   8    1.93    0.26
  -1  -2   8    1.82    0.31
  -1  -2   8    2.06    0.31
  -1  -2   8    1.64    0.32
  -1  -2   8    2.10    0.37
   0   2  -8    1.36    0.16
   0   2  -8    1.67    0.27
   0   2  -8    1.17    0.27
   0   2  -8    1.21    0.27
   0   2  -8    1.82    0.29
   0   2  -8    1.24    0.32
   0   2  -8    1.07    0.24
   0  -2   8    1.40    0.23
   0  -2   8    1.38    0.30
   0  -2   8    1.19    0.32
   0  -2   8    0.88    0.26
   0  -2   8    1.02    0.22
   0  -2   8    1.30    0.25
   0  -2   8    1.00    0.18
   0  -2   8    0.91    0.23
  -1   2  -8   21.50    0.95
  -1   2  -8   21.85    0.83
  -1   2  -8   23.06    0.77
  -1   2  -8   23.10    0.89
  -1   2  -8   22.90    0.89
  -1   2  -8   22.43    0.91
   1  -2   8   23.86    0.75
   1  -2   8   23.69    1.00
   1  -2   8   23.53    0.91
   1  -2   8   23.62    0.90
   1  -2   8   22.84    0.86
   1  -2   8   24.22    0.95
   1  -2   8   23.67    0.82
  -2   2  -8   10.73    0.60
  -2   2  -8   10.03    0.45
  -2   2  -8   10.61    0.60
  -2   2  -8    9.00    0.64
  -2   2  -8    9.95    0.58
   2  -2   8   10.51    0.69
   2  -2   8   11.87    0.67
   2  -2   8    9.47    0.52
   2  -2   8   10.23    0.63
   2  -2   8   10.74    0.64
   2  -2   8   10.46    0.59
  -3   2  -8    7.32    0.52
  -3   2  -8    7.50    0.62
  -3   2  -8    6.77    0.31
  -3   2  -8    8.27    0.55
  -3   2  -8    7.00    0.55
   3  -2   8    6.54    0.56
   3  -2   8    7.22    0.34
   3  -2   8    7.30    0.57
   3  -2   8    6.75    0.52
   3  -2   8    6.89    0.43
  -4   2  -8    1.91    0.33
  -4   2  -8    2.35    0.41
  -4   2  -8    2.86    0.48
   4  -2   8    2.20    0.40
   4  -2   8    3.08    0.48
   4  -2   8    2.94    0.47
  -5   2  -8    3.76    0.62
  -5   2  -8    2.86    0.45
  -5   2  -8    3.73    0.56
   5  -2   8    3.15    0.50
   5  -2   8    2.32    0.48
   5  -2   8    3.41    0.53
  -6   2  -8    2.97    0.57
  -6   2  -8    1.85    0.44
   6  -2   8    2.08    0.45
   6  -2   8    1.88    0.74
   7   1  -8    5.80    0.90
  -7  -1   8    5.03    0.68
  -7  -1   8    5.74    0.94
   6   1  -8    3.07    0.59
   6   1  -8    3.56    0.66
   6   1  -8    2.10    0.55
  -6  -1   8    4.52    0.78
  -6  -1   8    2.74    0.47
  -6  -1   8    3.07    0.55
   5   1  -8    6.21    0.81
   5   1  -8    4.60    0.68
   5   1  -8    4.06    0.62
  -5  -1   8    4.37    0.72
  -5  -1   8    5.01    0.42
  -5  -1   8    5.15    0.63
  -5  -1   8    5.21    0.57
   4   1  -8   12.34    0.72
   4   1  -8   12.82    1.10
   4   1  -8   14.17    0.88
   4   1  -8   13.19    0.89
   4   1  -8   12.28    0.82
  -4  -1   8   13.92    0.96
  -4  -1   8   12.96    0.77
  -4  -1   8   13.28    0.59
  -4  -1   8   13.12    0.82
  -4  -1   8   13.02    0.85
   3   1  -8    8.71    0.68
   3   1  -8    7.24    0.61
   3   1  -8    8.81    0.47
   3   1  -8    8.71    0.59
   3   1  -8    8.35    0.65
  -3  -1   8    8.47    0.60
  -3  -1   8    8.20    0.70
  -3  -1   8    9.76    0.71
  -3  -1   8    8.86    0.44
  -3  -1   8    7.98    0.62
  -3  -1   8    8.67    0.65
   2   1  -8   11.49    0.68
   2   1  -8   10.45    0.64
   2   1  -8   11.19    0.70
   2   1  -8   11.71    0.64
  -2  -1   8   11.02    0.46
  -2  -1   8    9.86    0.63
  -2  -1   8   10.43    0.58
  -2  -1   8   10.00    0.68
  -2  -1   8    9.61    0.70
  -2  -1   8   10.75    0.62
  -2  -1   8   10.92    0.66
   1   1  -8    7.38    0.58
   1   1  -8    8.52    0.57
   1   1  -8    7.03    0.51
   1   1  -8    7.92    0.51
   1   1  -8    7.54    0.41
   1   1  -8    7.00    0.49
   1   1  -8    6.77    0.37
  -1  -1   8    7.26    0.50
  -1  -1   8    7.03    0.54
  -1  -1   8    6.71    0.52
  -1  -1   8    6.96    0.51
  -1  -1   8    7.56    0.48
  -1  -1   8    7.01    0.58
  -1  -1   8    6.62    0.36
   0   1  -8   18.62    0.81
   0   1  -8   19.37    0.91
   0   1  -8   19.53    0.74
   0   1  -8   18.39    0.68
   0   1  -8   20.02    0.83
   0   1  -8   19.25    0.83
   0   1  -8   18.76    0.62
   0  -1   8   19.28    0.90
   0  -1   8   19.19    0.86
   0  -1   8   20.37    0.81
   0  -1   8   18.80    0.77
   0  -1   8   19.32    0.71
   0  -1   8   19.04    0.64
   0  -1   8   19.41    0.83
   0  -1   8   18.84    0.86
  -1   1  -8    6.79    0.41
  -1   1  -8    5.94    0.47
  -1   1  -8    5.76    0.48
  -1   1  -8    6.19    0.53
  -1   1  -8    6.07    0.41
  -1   1  -8    6.74    0.49
   1  -1   8    6.01    0.49
   1  -1   8    5.94    0.44
   1  -1   8    6.19    0.47
   1  -1   8    5.59    0.53
   1  -1   8    5.87    0.50
   1  -1   8    6.51    0.40
   1  -1   8    5.64    0.38
   1  -1   8    5.09    0.66
  -2   1  -8    6.27    0.36
  -2   1  -8    5.93    0.47
  -2   1  -8    7.16    1.03
  -2   1  -8    5.29    0.53
  -2   1  -8    5.63    0.48
  -2   1  -8    5.73    0.44
   2  -1   8    6.17    0.52
   2  -1   8    6.12    0.38
   2  -1   8    5.48    0.45
   2  -1   8    6.04    0.57
   2  -1   8    5.86    0.52
   2  -1   8    5.93    0.52
  -3   1  -8    9.03    0.60
  -3   1  -8    9.03    0.59
  -3   1  -8    8.24    0.67
  -3   1  -8    7.93    0.37
  -3   1  -8    7.72    0.55
   3  -1   8    9.01    0.58
   3  -1   8    9.14    0.66
   3  -1   8    8.30    0.45
   3  -1   8    8.58    0.63
  -4   1  -8   12.33    0.72
  -4   1  -8   12.57    0.75
  -4   1  -8   13.56    0.89
   4  -1   8   12.34    0.72
   4  -1   8   11.74    0.79
   4  -1   8   12.80    0.83
  -5   1  -8    1.32    0.35
  -5   1  -8    1.88    0.42
  -5   1  -8    2.63    0.54
   5  -1   8    1.44    0.38
   5  -1   8    1.14    0.59
   5  -1   8    2.33    0.49
   7   0  -8    6.66    0.95
  -7   0   8    5.93    0.74
  -7   0   8    4.12    0.79
   6   0  -8    8.54    0.88
   6   0  -8    8.59    0.83
   6   0  -8    9.67    0.94
  -6   0   8   11.32    0.83
  -6   0   8    9.09    0.93
  -6   0   8    9.15    0.70
   5   0  -8    7.62    0.70
   5   0  -8    7.93    0.77
   5   0  -8    8.37    0.80
  -5   0   8    8.21    0.71
  -5   0   8    8.63    0.73
  -5   0   8    9.37    0.88
   4   0  -8    1.79    0.44
   4   0  -8    1.74    0.28
   4   0  -8    1.64    0.41
   4   0  -8    2.43    0.46
  -4   0   8    2.07    0.27
  -4   0   8    2.34    0.44
  -4   0   8    2.08    0.52
  -4   0   8    2.29    0.43
   3   0  -8   21.11    0.68
   3   0  -8   19.79    0.93
   3   0  -8   19.53    1.00
   3   0  -8   20.96    1.01
   3   0  -8   21.12    0.91
  -3   0   8   21.69    1.00
  -3   0   8   20.27    1.07
  -3   0   8   21.67    0.99
  -3   0   8   20.34    0.99
  -3   0   8   21.45    1.14
  -3   0   8   21.02    0.64
   2   0  -8   10.86    0.63
   2   0  -8   11.91    0.71
   2   0  -8   11.53    0.61
   2   0  -8   12.74    0.74
   2   0  -8   11.97    0.66
  -2   0   8   11.85    0.74
  -2   0   8   11.98    0.70
  -2   0   8   12.87    0.73
  -2   0   8   10.88    0.67
  -2   0   8   11.65    0.41
  -2   0   8   11.53    0.77
   1   0  -8    3.36    0.36
   1   0  -8    3.14    0.40
   1   0  -8    3.69    0.40
   1   0  -8    3.66    0.34
   1   0  -8    3.49    0.44
   1   0  -8    3.75    0.51
   1   0  -8    3.32    0.26
  -1   0   8    2.78    0.41
  -1   0   8    3.46    0.23
  -1   0   8    2.87    0.40
  -1   0   8    3.16    0.48
  -1   0   8    3.26    0.43
  -1   0   8    3.48    0.45
  -1   0   8    4.50    0.43
   0   0  -8    9.55    0.59
   0   0  -8    9.69    0.60
   0   0  -8    8.65    0.44
   0   0  -8    8.23    0.55
   0   0  -8    9.92    0.51
   0   0  -8    9.31    0.65
   0   0  -8    9.28    0.48
   0   0   8    8.80    0.55
   0   0   8    9.46    0.60
   0   0   8    9.22    0.55
   0   0   8    9.33    0.59
   0   0   8    8.67    0.61
   0   0   8    8.84    0.39
   0   0   8    8.10    0.62
  -1   0  -8    8.15    0.46
  -1   0  -8    7.39    0.43
  -1   0  -8    7.69    0.53
  -1   0  -8    6.45    0.51
  -1   0  -8    7.81    0.59
  -1   0  -8    7.69    0.60
   1   0   8    7.72    0.62
   1   0   8    6.76    0.48
   1   0   8    6.83    0.53
   1   0   8    7.26    0.40
   1   0   8    6.35    0.57
   1   0   8    7.75    0.57
   1   0   8    7.84    0.57
  -2   0  -8    1.06    0.26
  -2   0  -8    0.58    0.22
  -2   0  -8    0.66    0.29
  -2   0  -8    1.18    0.30
  -2   0  -8    0.77    0.28
  -2   0  -8    0.99    0.19
   2   0   8    0.92    0.26
   2   0   8    0.66    0.25
   2   0   8    1.25    0.36
   2   0   8    0.48    0.24
   2   0   8    1.03    0.23
   2   0   8    0.77    0.35
  -3   0  -8    6.69    0.54
  -3   0  -8    7.22    0.55
  -3   0  -8    5.83    0.36
  -3   0  -8    6.75    0.58
  -3   0  -8    8.03    0.69
   3   0   8    6.91    0.62
   3   0   8    7.48    0.61
   3   0   8    7.19    0.50
   3   0   8    6.66    0.52
  -4   0  -8   19.94    1.11
  -4   0  -8   20.71    0.96
  -4   0  -8   18.24    0.92
   4   0   8   20.87    1.06
   4   0   8   20.06    0.90
  -5   0  -8    8.74    0.81
   5   0   8    8.37    0.66
   7  -1  -8    8.89    0.97
  -7   1   8    9.72    1.02
   6  -1  -8   22.75    1.36
   6  -1  -8   25.61    1.32
   6  -1  -8   24.35    1.36
  -6   1   8   24.90    1.33
  -6   1   8   24.01    1.12
  -6   1   8   22.08    1.39
  -6   1   8   25.25    1.18
   5  -1  -8    3.40    0.62
   5  -1  -8    3.59    0.58
   5  -1  -8    3.84    0.56
  -5   1   8    3.24    0.52
  -5   1   8    3.35    0.46
  -5   1   8    2.75    0.58
  -5   1   8    4.08    0.63
   4  -1  -8    1.75    0.43
   4  -1  -8    1.03    0.29
   4  -1  -8    1.29    0.38
  -4   1   8    0.75    0.37
  -4   1   8    1.99    0.46
  -4   1   8    1.07    0.27
  -4   1   8    1.01    0.32
   3  -1  -8    4.13    0.46
   3  -1  -8    4.83    0.59
  -3   1   8    4.88    0.62
  -3   1   8    5.47    0.56
  -3   1   8    5.54    0.66
  -3   1   8    3.87    0.51
   2  -1  -8   19.57    0.91
   2  -1  -8   19.89    0.85
   2  -1  -8   20.42    0.88
   2  -1  -8   20.24    0.94
  -2   1   8   20.45    0.97
  -2   1   8   22.01    1.00
  -2   1   8   18.32    0.98
  -2   1   8   19.85    0.90
   1  -1  -8   37.50    1.26
   1  -1  -8   37.70    1.17
   1  -1  -8   38.97    1.29
   1  -1  -8   39.08    1.21
   1  -1  -8   40.20    1.34
   1  -1  -8   38.35    0.95
   1  -1  -8   40.74    1.44
  -1   1   8   36.10    1.36
  -1   1   8   38.45    1.34
  -1   1   8   39.13    1.33
  -1   1   8   36.85    1.32
  -1   1   8   37.85    1.27
   0  -1  -8   11.47    0.75
   0  -1  -8   12.71    0.71
   0  -1  -8   13.59    0.66
   0  -1  -8   12.67    0.68
   0  -1  -8   12.07    0.51
   0  -1  -8   11.45    0.67
   0  -1  -8   12.01    0.58
   0   1   8   13.07    0.85
   0   1   8   11.65    0.37
   0   1   8   11.48    0.70
   0   1   8   11.87    0.76
   0   1   8   12.66    0.70
   0   1   8   11.62    0.64
  -1  -1  -8   12.03    0.69
  -1  -1  -8   12.39    0.79
  -1  -1  -8   12.26    0.76
  -1  -1  -8   13.29    0.70
  -1  -1  -8   12.28    0.57
   1   1   8   13.88    0.68
   1   1   8   13.49    0.82
   1   1   8   12.92    0.73
   1   1   8   11.90    0.72
  -2  -1  -8    4.43    0.46
  -2  -1  -8    5.27    0.50
  -2  -1  -8    4.61    0.60
  -2  -1  -8    4.78    0.37
   2   1   8    5.47    0.65
   2   1   8    5.57    0.45
   2   1   8    5.02    0.44
   2   1   8    5.25    0.54
  -3  -1  -8   10.35    0.75
  -3  -1  -8    9.91    0.67
  -3  -1  -8    8.89    0.78
   3   1   8   10.66    0.76
   3   1   8   11.10    0.68
   3   1   8   10.79    0.62
  -4  -1  -8    4.02    0.51
   4   1   8    4.13    0.48
   4   1   8    5.94    0.64
   6  -2  -8    1.20    0.44
   6  -2  -8    1.21    0.43
   6  -2  -8    1.80    0.49
  -6   2   8    1.79    0.49
  -6   2   8    2.03    0.58
  -6   2   8    1.35    0.37
  -6   2   8    1.17    0.48
   5  -2  -8    4.11    0.65
   5  -2  -8    4.53    0.64
   5  -2  -8    4.51    0.66
  -5   2   8    4.55    0.53
  -5   2   8    5.73    0.79
  -5   2   8    5.12    0.76
  -5   2   8    4.56    0.58
   4  -2  -8    9.16    0.75
   4  -2  -8    8.30    0.72
   4  -2  -8    9.90    0.70
  -4   2   8    9.08    0.65
  -4   2   8    9.14    0.79
  -4   2   8   10.20    0.85
  -4   2   8    8.92    0.58
   3  -2  -8    8.67    0.62
   3  -2  -8   10.07    0.69
   3  -2  -8    9.92    0.72
  -3   2   8   10.42    0.80
  -3   2   8    9.01    0.74
  -3   2   8    9.31    0.53
  -3   2   8    9.55    0.66
   2  -2  -8    2.11    0.38
   2  -2  -8    2.87    0.24
   2  -2  -8    2.80    0.44
   2  -2  -8    3.01    0.43
  -2   2   8    2.94    0.42
  -2   2   8    2.74    0.28
  -2   2   8    2.95    0.50
  -2   2   8    2.64    0.46
   1  -2  -8   19.52    0.89
   1  -2  -8   18.87    0.98
   1  -2  -8   18.32    0.87
   1  -2  -8   19.13    0.80
   1  -2  -8   18.39    0.59
  -1   2   8   20.85    0.90
  -1   2   8   19.65    0.98
  -1   2   8   19.10    0.97
   0  -2  -8   13.40    0.65
   0  -2  -8   14.83    0.77
   0  -2  -8   14.30    0.75
   0  -2  -8   13.41    0.83
   0   2   8   12.27    0.77
   0   2   8   14.54    0.77
   0   2   8   13.62    0.83
  -1  -2  -8    7.91    0.59
  -1  -2  -8    9.20    0.53
  -1  -2  -8   10.18    0.66
  -1  -2  -8    8.90    0.71
   1   2   8    8.38    0.63
   1   2   8    8.19    0.70
   1   2   8    8.43    0.57
  -2  -2  -8    2.03    0.38
  -2  -2  -8    1.74    0.28
  -2  -2  -8    1.85    0.35
   2   2   8    2.61    0.43
   2   2   8    2.65    0.41
   2   2   8    2.48    0.37
  -3  -2  -8    5.67    0.56
   3   2   8    6.03    0.48
   3   2   8    5.81    0.63
   6  -3  -8    1.18    0.43
   6  -3  -8    1.68    0.50
  -6   3   8    1.93    0.42
  -6   3   8    1.87    0.55
  -6   3   8    1.28    0.50
   5  -3  -8    4.16    0.58
   5  -3  -8    5.42    0.73
   5  -3  -8    3.68    0.63
  -5   3   8    5.39    0.79
  -5   3   8    5.25    0.55
  -5   3   8    5.43    0.76
   4  -3  -8    5.52    0.69
   4  -3  -8    5.83    0.60
   4  -3  -8    5.03    0.55
  -4   3   8    5.01    0.51
  -4   3   8    4.85    0.72
  -4   3   8    4.78    0.46
  -4   3   8    4.38    0.65
   3  -3  -8    0.58    0.27
   3  -3  -8    1.16    0.33
   3  -3  -8    0.91    0.29
  -3   3   8    0.49    0.31
  -3   3   8    0.45    0.19
  -3   3   8   -0.13    0.25
  -3   3   8    0.10    0.23
   2  -3  -8   12.77    0.76
   2  -3  -8   10.45    0.68
   2  -3  -8    9.37    0.62
  -2   3   8   10.65    0.82
  -2   3   8   10.26    0.76
  -2   3   8   10.47    0.51
  -2   3   8   10.29    0.66
   1  -3  -8    7.90    0.59
   1  -3  -8    7.77    0.55
   1  -3  -8    7.42    0.59
  -1   3   8    7.34    0.68
  -1   3   8    7.98    0.59
  -1   3   8    8.20    0.69
   0  -3  -8    8.77    0.61
   0  -3  -8    8.51    0.63
   0  -3  -8    8.87    0.57
   0   3   8    7.07    0.65
   0   3   8    9.35    0.73
   0   3   8    8.93    0.63
  -1  -3  -8   12.38    0.77
  -1  -3  -8   12.56    0.67
  -1  -3  -8   12.13    0.74
   1   3   8   15.36    0.94
   1   3   8   14.83    0.82
  -2  -3  -8   22.88    1.08
  -2  -3  -8   22.95    0.90
  -2  -3  -8   22.41    1.04
   2   3   8   24.36    1.25
   2   3   8   23.46    1.08
   2   3   8   22.99    1.06
   3   3   8    5.41    0.65
   6  -4  -8    2.09    0.53
  -6   4   8    1.85    0.61
  -6   4   8    1.60    0.66
   5  -4  -8   11.13    0.89
   5  -4  -8   13.01    0.93
  -5   4   8   12.45    1.00
  -5   4   8   15.16    1.16
  -5   4   8   12.31    0.79
   4  -4  -8    2.87    0.48
   4  -4  -8    2.70    0.52
   4  -4  -8    3.23    0.52
  -4   4   8    3.27    0.45
  -4   4   8    3.77    0.67
  -4   4   8    2.78    0.56
   3  -4  -8   -0.16    0.21
   3  -4  -8   -0.04    0.18
   3  -4  -8   -0.11    0.22
  -3   4   8    0.42    0.35
  -3   4   8    0.23    0.16
  -3   4   8    0.07    0.18
  -3   4   8    0.12    0.29
   2  -4  -8    2.32    0.38
   2  -4  -8    2.25    0.41
   2  -4  -8    2.55    0.44
  -2   4   8    2.19    0.50
  -2   4   8    2.38    0.46
  -2   4   8    2.27    0.39
   1  -4  -8    1.92    0.38
   1  -4  -8    2.11    0.37
   1  -4  -8    2.16    0.38
  -1   4   8    2.65    0.41
  -1   4   8    1.82    0.43
  -1   4   8    2.65    0.53
   0  -4  -8    0.36    0.23
   0  -4  -8    0.33    0.24
   0  -4  -8    0.44    0.25
   0   4   8    0.28    0.23
   0   4   8    0.73    0.37
   0   4   8    0.29    0.35
  -1  -4  -8    2.30    0.37
  -1  -4  -8    1.79    0.40
  -1  -4  -8    1.25    0.34
   1   4   8    2.55    0.53
   1   4   8    2.16    0.41
   1   4   8    2.13    0.50
  -2  -4  -8    9.76    0.78
  -2  -4  -8    9.33    0.64
   2   4   8    9.63    0.78
   2   4   8    9.57    0.88
   2   4   8    9.15    0.84
   2   4   8   11.99    0.80
   5  -5  -8    0.95    0.40
  -5   5   8    1.30    0.46
  -5   5   8    0.90    0.44
   4  -5  -8    6.93    0.68
   4  -5  -8    7.13    0.75
  -4   5   8    7.53    0.79
   3  -5  -8    6.10    0.64
   3  -5  -8    5.14    0.55
   3  -5  -8    5.33    0.59
  -3   5   8    6.51    0.71
  -3   5   8    6.33    0.82
   2  -5  -8   -0.11    0.22
   2  -5  -8    0.04    0.22
   2  -5  -8   -0.09    0.18
  -2   5   8   -0.11    0.27
  -2   5   8   -0.17    0.23
   1  -5  -8    1.17    0.33
   1  -5  -8    0.97    0.29
   1  -5  -8    1.06    0.30
  -1   5   8    1.62    0.49
  -1   5   8    1.81    0.58
  -1   5   8    0.90    0.39
   0  -5  -8    2.19    0.40
   0  -5  -8    2.15    0.41
   0   5   8    2.41    0.38
   0   5   8    3.15    0.60
   0   5   8    3.28    0.59
  -1  -5  -8    5.75    0.63
  -1  -5  -8    6.63    0.60
   1   5   8    5.73    0.73
   1   5   8    6.50    0.60
   4  -6  -8    1.38    0.43
   3  -6  -8    2.85    0.48
  -3   6   8    3.08    0.56
   2  -6  -8    3.38    0.49
  -2   6   8    3.89    0.63
   1  -6  -8    1.66    0.36
  -1   6   8    1.39    0.44
   0   6   8    3.23    0.56
   1 -12   9    1.11    0.45
  -2  12  -9   12.30    1.19
   2 -12   9   14.54    0.80
  -3  12  -9    9.57    0.99
   3 -12   9    8.37    0.67
   2  11  -9    2.05    0.44
  -2 -11   9    2.46    0.49
   1  11  -9    1.12    0.45
  -1 -11   9    1.51    0.40
  -1 -11   9    0.95    0.32
  -1 -11   9    1.06    0.35
   0  11  -9    0.10    0.34
   0 -11   9    0.06    0.20
   0 -11   9    0.31    0.19
   0 -11   9    0.04    0.20
   0 -11   9    0.07    0.19
  -1  11  -9    0.11    0.27
   1 -11   9    0.06    0.21
   1 -11   9    0.08    0.18
   1 -11   9    0.30    0.21
  -2  11  -9    4.78    0.76
   2 -11   9    3.94    0.41
   2 -11   9    4.52    0.47
   2 -11   9    4.56    0.69
  -3  11  -9    5.18    0.79
   3 -11   9    3.79    0.51
   3 -11   9    3.54    0.55
   3 -11   9    4.74    0.45
  -4  11  -9    7.80    0.82
   3  10  -9    3.78    0.77
   3  10  -9    2.73    0.51
  -3 -10   9    3.01    0.56
  -3 -10   9    2.65    0.56
   2  10  -9    1.67    0.49
   2  10  -9    2.52    0.44
  -2 -10   9    3.06    0.61
  -2 -10   9    2.66    0.50
  -2 -10   9    1.90    0.40
   1  10  -9    2.34    0.41
   1  10  -9    2.83    0.63
  -1 -10   9    2.75    0.34
  -1 -10   9    3.15    0.54
  -1 -10   9    2.74    0.46
  -1 -10   9    2.51    0.50
   0  10  -9    3.21    0.66
   0 -10   9    2.60    0.46
   0 -10   9    2.91    0.46
   0 -10   9    3.27    0.40
   0 -10   9    2.67    0.44
  -1  10  -9    3.70    0.65
   1 -10   9    3.92    0.49
   1 -10   9    3.99    0.60
   1 -10   9    3.84    0.40
   1 -10   9    3.16    0.44
  -2  10  -9    1.23    0.44
   2 -10   9    1.60    0.32
   2 -10   9    0.99    0.29
   2 -10   9    0.97    0.25
   2 -10   9    1.27    0.37
  -3  10  -9    5.67    0.77
  -3  10  -9    6.68    0.89
   3 -10   9    5.70    0.61
   3 -10   9    5.56    0.54
   3 -10   9    5.12    0.44
  -4  10  -9   10.78    0.87
  -4  10  -9   11.42    1.10
   4 -10   9   11.47    0.80
   4 -10   9   10.80    0.89
   4 -10   9    9.34    0.66
   4   9  -9    2.28    0.46
   4   9  -9    2.54    0.56
   4   9  -9    1.97    0.49
  -4  -9   9    3.13    0.64
  -4  -9   9    2.61    0.64
   3   9  -9    4.31    0.58
   3   9  -9    3.54    0.54
   3   9  -9    4.52    0.72
  -3  -9   9    4.13    0.68
  -3  -9   9    4.49    0.66
  -3  -9   9    3.79    0.55
   2   9  -9    1.76    0.38
   2   9  -9    2.24    0.38
   2   9  -9    1.32    0.42
  -2  -9   9    1.70    0.40
  -2  -9   9    1.77    0.43
  -2  -9   9    1.80    0.41
   1   9  -9    7.28    0.75
   1   9  -9    5.69    0.44
   1   9  -9    5.75    0.48
  -1  -9   9    5.84    0.56
  -1  -9   9    5.82    0.59
  -1  -9   9    6.19    0.58
  -1  -9   9    6.66    0.45
   0   9  -9   14.54    0.64
   0   9  -9   12.39    0.95
   0  -9   9   14.73    0.70
   0  -9   9   12.69    0.78
   0  -9   9   13.61    0.75
   0  -9   9   14.74    0.86
  -1   9  -9    1.17    0.42
   1  -9   9    1.33    0.31
   1  -9   9    1.46    0.36
   1  -9   9    0.85    0.22
   1  -9   9    0.82    0.24
  -2   9  -9    1.64    0.44
  -2   9  -9    1.11    0.41
   2  -9   9    1.51    0.30
   2  -9   9    1.39    0.31
   2  -9   9    1.81    0.31
   2  -9   9    1.76    0.40
  -3   9  -9   13.31    0.94
  -3   9  -9   12.71    0.94
   3  -9   9   11.94    0.66
   3  -9   9   12.69    0.84
   3  -9   9   13.11    0.79
   3  -9   9   11.88    0.66
  -4   9  -9    4.22    0.64
  -4   9  -9    4.40    0.71
   4  -9   9    3.58    0.47
   4  -9   9    3.78    0.56
   4  -9   9    2.99    0.40
   4  -9   9    3.65    0.54
  -5   9  -9    2.15    0.42
   5   8  -9    4.10    0.79
   5   8  -9    3.99    0.69
   4   8  -9    1.86    0.49
   4   8  -9    1.23    0.41
  -4  -8   9    1.78    0.42
  -4  -8   9    1.00    0.40
  -4  -8   9    1.93    0.48
   3   8  -9   14.24    0.90
   3   8  -9   11.47    0.77
   3   8  -9   12.80    1.01
  -3  -8   9   11.87    0.77
  -3  -8   9   13.21    0.90
  -3  -8   9   12.30    0.93
   2   8  -9   14.43    0.83
   2   8  -9   14.41    0.78
   2   8  -9   13.75    1.00
  -2  -8   9   16.02    0.87
  -2  -8   9   13.27    0.90
  -2  -8   9   15.86    0.72
  -2  -8   9   13.49    0.85
   1   8  -9    5.70    0.49
   1   8  -9    4.81    0.64
   1   8  -9    4.58    0.40
  -1  -8   9    5.41    0.54
  -1  -8   9    5.50    0.42
  -1  -8   9    4.45    0.59
  -1  -8   9    4.52    0.48
   0   8  -9   14.39    0.56
   0   8  -9   15.76    1.01
   0   8  -9   13.17    0.65
   0  -8   9   15.10    0.82
   0  -8   9   14.30    0.76
   0  -8   9   14.55    0.84
   0  -8   9   14.57    0.70
  -1   8  -9   15.30    0.97
  -1   8  -9   13.56    0.57
   1  -8   9   13.97    0.72
   1  -8   9   13.23    0.74
   1  -8   9   14.80    0.73
   1  -8   9   14.07    0.82
  -2   8  -9    0.75    0.34
  -2   8  -9    1.31    0.41
   2  -8   9    1.15    0.29
   2  -8   9    1.10    0.27
   2  -8   9    1.27    0.37
   2  -8   9    0.91    0.24
  -3   8  -9    8.32    0.61
  -3   8  -9    9.18    0.78
  -3   8  -9    8.90    0.78
   3  -8   9    7.55    0.65
   3  -8   9    8.39    0.56
   3  -8   9    8.92    0.64
   3  -8   9    8.25    0.56
  -4   8  -9    1.22    0.43
  -4   8  -9    1.23    0.33
  -4   8  -9    1.73    0.44
   4  -8   9    1.06    0.32
   4  -8   9    1.17    0.30
   4  -8   9    1.53    0.32
  -5   8  -9    7.12    0.61
  -5   8  -9    7.78    1.19
   5  -8   9    8.70    1.26
   5  -8   9    6.99    0.58
   5  -8   9    6.93    0.60
   5   7  -9    2.46    0.56
   5   7  -9    3.60    0.67
  -5  -7   9    2.68    0.69
   4   7  -9    2.12    0.52
   4   7  -9    2.47    0.55
  -4  -7   9    3.01    0.59
  -4  -7   9    2.31    0.44
  -4  -7   9    1.37    0.40
   3   7  -9    4.73    0.67
   3   7  -9    5.55    0.68
  -3  -7   9    5.64    0.62
  -3  -7   9    5.99    0.56
  -3  -7   9    6.51    0.80
   2   7  -9    4.73    0.44
   2   7  -9    5.04    0.60
   2   7  -9    4.90    0.70
  -2  -7   9    4.26    0.58
  -2  -7   9    4.50    0.42
  -2  -7   9    5.01    0.65
  -2  -7   9    4.90    0.50
   1   7  -9    4.27    0.59
   1   7  -9    5.98    0.52
   1   7  -9    5.33    0.39
   1   7  -9    4.93    0.37
  -1  -7   9    4.64    0.48
  -1  -7   9    5.03    0.41
  -1  -7   9    5.76    0.87
  -1  -7   9    5.34    0.50
  -1  -7   9    5.95    0.56
   0   7  -9    4.67    0.61
   0   7  -9    3.67    0.63
   0   7  -9    4.09    0.43
   0   7  -9    4.50    0.36
   0   7  -9    4.10    0.25
   0  -7   9    3.75    0.38
   0  -7   9    4.07    0.59
   0  -7   9    4.74    0.48
   0  -7   9    4.34    0.46
   0  -7   9    4.76    0.44
   0  -7   9    4.81    0.42
  -1   7  -9   12.61    0.64
  -1   7  -9   12.52    0.82
  -1   7  -9   12.79    0.58
  -1   7  -9   12.99    0.89
   1  -7   9   11.79    0.54
   1  -7   9   13.48    0.70
   1  -7   9   12.41    0.66
   1  -7   9   12.19    0.74
   1  -7   9   11.06    0.59
   1  -7   9   12.14    0.69
  -2   7  -9    1.55    0.27
  -2   7  -9    1.49    0.36
  -2   7  -9    1.52    0.40
  -2   7  -9    1.46    0.38
   2  -7   9    1.46    0.33
   2  -7   9    2.09    0.34
   2  -7   9    1.61    0.35
   2  -7   9    2.20    0.36
  -3   7  -9    0.27    0.16
  -3   7  -9    0.35    0.22
  -3   7  -9    1.00    0.39
  -3   7  -9    0.62    0.30
   3  -7   9    0.12    0.18
   3  -7   9    0.26    0.23
   3  -7   9   -0.01    0.18
   3  -7   9    0.60    0.29
  -4   7  -9    0.74    0.34
  -4   7  -9    1.02    0.36
  -4   7  -9    0.78    0.29
   4  -7   9    0.48    0.27
   4  -7   9    1.09    0.28
   4  -7   9    0.63    0.25
  -5   7  -9    0.40    0.34
  -5   7  -9    0.14    0.23
   5  -7   9   -0.04    0.21
   5  -7   9    0.09    0.22
   5  -7   9    0.01    0.25
  -6   7  -9    2.88    0.60
   6  -7   9    3.24    0.51
   5   6  -9    0.06    0.32
   5   6  -9    0.98    0.39
  -5  -6   9    0.53    0.28
  -5  -6   9    1.01    0.41
   4   6  -9    0.87    0.36
   4   6  -9    1.26    0.40
  -4  -6   9    2.24    0.55
  -4  -6   9    1.44    0.35
  -4  -6   9    1.09    0.36
   3   6  -9    8.51    0.75
   3   6  -9    8.66    0.73
  -3  -6   9    8.92    0.63
  -3  -6   9   10.35    0.88
  -3  -6   9    8.64    0.72
  -3  -6   9    8.46    0.74
   2   6  -9    6.87    0.67
   2   6  -9    6.91    0.62
   2   6  -9    6.83    0.61
  -2  -6   9    6.02    0.61
  -2  -6   9    6.32    0.53
  -2  -6   9    8.09    0.75
  -2  -6   9    7.72    0.52
  -2  -6   9    7.06    0.61
  -2  -6   9    6.68    0.36
   1   6  -9    4.14    0.60
   1   6  -9    3.20    0.47
   1   6  -9    3.58    0.48
   1   6  -9    3.48    0.29
   1   6  -9    3.39    0.53
  -1  -6   9    3.42    0.52
  -1  -6   9    2.36    0.35
  -1  -6   9    3.57    0.47
  -1  -6   9    2.78    0.41
  -1  -6   9    3.37    0.54
  -1  -6   9    2.82    0.36
   0   6  -9    1.84    0.28
   0   6  -9    2.03    0.38
   0   6  -9    1.45    0.38
   0   6  -9    1.87    0.34
   0  -6   9    2.03    0.34
   0  -6   9    2.23    0.38
   0  -6   9    2.44    0.36
   0  -6   9    2.51    0.35
   0  -6   9    1.93    0.38
   0  -6   9    2.45    0.36
  -1   6  -9   40.42    1.51
  -1   6  -9   38.92    1.26
  -1   6  -9   39.80    1.18
  -1   6  -9   40.85    1.43
   1  -6   9   41.76    1.41
   1  -6   9   41.41    1.28
   1  -6   9   41.79    1.38
   1  -6   9   40.89    1.31
   1  -6   9   41.49    1.05
   1  -6   9   38.70    1.32
   1  -6   9   40.16    1.22
  -2   6  -9    2.37    0.35
  -2   6  -9    2.54    0.47
  -2   6  -9    2.17    0.43
  -2   6  -9    3.30    0.49
  -2   6  -9    2.57    0.36
   2  -6   9    3.49    0.50
   2  -6   9    2.49    0.38
   2  -6   9    2.63    0.55
   2  -6   9    2.82    0.40
   2  -6   9    2.60    0.37
   2  -6   9    2.65    0.30
  -3   6  -9    8.86    0.66
  -3   6  -9    7.68    0.66
  -3   6  -9    7.74    0.51
  -3   6  -9    8.60    0.70
   3  -6   9    8.38    0.62
   3  -6   9    8.72    0.61
   3  -6   9    9.60    0.62
  -4   6  -9    1.28    0.34
  -4   6  -9    1.14    0.26
  -4   6  -9    1.37    0.43
  -4   6  -9    0.97    0.32
   4  -6   9    0.77    0.30
   4  -6   9    0.88    0.27
   4  -6   9    1.07    0.31
  -5   6  -9    4.57    0.60
  -5   6  -9    5.00    0.69
   5  -6   9    3.67    0.49
   5  -6   9    6.24    0.62
   5  -6   9    3.97    0.59
  -6   6  -9    4.68    0.66
   6  -6   9    3.09    0.54
   6   5  -9    1.46    0.48
  -6  -5   9    1.59    0.53
   5   5  -9    0.55    0.33
   5   5  -9    0.75    0.38
  -5  -5   9    0.27    0.31
  -5  -5   9    0.55    0.25
   4   5  -9    3.40    0.57
   4   5  -9    3.57    0.60
  -4  -5   9    3.77    0.67
  -4  -5   9    3.57    0.47
  -4  -5   9    2.28    0.47
  -4  -5   9    3.29    0.61
   3   5  -9    4.74    0.62
   3   5  -9    5.31    0.70
   3   5  -9    3.77    0.55
  -3  -5   9    4.71    0.64
  -3  -5   9    5.02    0.37
  -3  -5   9    5.28    0.70
  -3  -5   9    4.93    0.62
  -3  -5   9    4.40    0.44
   2   5  -9   14.01    0.84
   2   5  -9   14.09    0.86
   2   5  -9   13.36    0.86
  -2  -5   9   12.89    0.58
  -2  -5   9   12.71    0.78
  -2  -5   9   13.20    0.69
  -2  -5   9   12.06    0.86
  -2  -5   9   12.46    0.82
  -2  -5   9   13.30    0.56
  -2  -5   9   13.25    0.71
  -2  -5   9   14.51    0.73
   1   5  -9   16.19    0.91
   1   5  -9   14.77    0.78
   1   5  -9   15.89    0.84
   1   5  -9   17.17    0.86
  -1  -5   9   16.34    0.73
  -1  -5   9   15.80    0.91
  -1  -5   9   16.13    0.78
  -1  -5   9   15.83    0.87
  -1  -5   9   16.10    0.82
  -1  -5   9   16.48    0.65
  -1  -5   9   18.56    0.79
   0   5  -9    8.28    0.66
   0   5  -9    7.84    0.57
   0   5  -9    7.13    0.55
   0  -5   9    7.79    0.55
   0  -5   9    8.51    0.44
   0  -5   9    8.57    0.60
   0  -5   9    8.02    0.52
   0  -5   9    7.73    0.63
   0  -5   9    7.99    0.56
   0  -5   9    8.13    0.51
  -1   5  -9   81.01    2.06
  -1   5  -9   77.65    2.55
  -1   5  -9   80.65    2.07
  -1   5  -9   84.17    2.23
  -1   5  -9   79.24    2.23
  -1   5  -9   83.28    2.17
   1  -5   9   80.17    2.17
   1  -5   9   83.74    2.07
   1  -5   9   82.89    2.04
   1  -5   9   82.41    2.12
   1  -5   9   85.98    2.11
   1  -5   9   81.64    1.70
   1  -5   9   83.05    1.99
  -2   5  -9   66.17    1.91
  -2   5  -9   66.82    1.90
  -2   5  -9   65.43    1.74
  -2   5  -9   68.48    1.97
   2  -5   9   63.32    1.79
   2  -5   9   64.98    1.83
   2  -5   9   65.89    1.79
   2  -5   9   66.56    1.85
   2  -5   9   63.32    1.35
   2  -5   9   67.35    1.80
   2  -5   9   64.29    1.87
  -3   5  -9    0.53    0.21
  -3   5  -9    0.23    0.25
  -3   5  -9    0.15    0.21
  -3   5  -9    0.65    0.32
   3  -5   9    0.46    0.25
   3  -5   9    0.33    0.22
   3  -5   9    0.42    0.22
  -4   5  -9    3.46    0.52
  -4   5  -9    3.09    0.52
  -4   5  -9    4.19    0.55
  -4   5  -9    3.23    0.41
   4  -5   9    3.70    0.51
   4  -5   9    3.61    0.49
   4  -5   9    3.78    0.53
  -5   5  -9    2.17    0.50
  -5   5  -9    1.29    0.40
  -5   5  -9    1.32    0.29
   5  -5   9    2.28    0.43
   5  -5   9    1.72    0.42
   5  -5   9    1.47    0.43
  -6   5  -9    1.05    0.40
   6   4  -9    1.20    0.40
  -6  -4   9    0.63    0.31
   5   4  -9   16.60    1.13
   5   4  -9   14.89    0.95
  -5  -4   9   14.17    1.15
  -5  -4   9   15.96    1.05
  -5  -4   9   16.63    0.84
   4   4  -9    2.04    0.50
   4   4  -9    3.15    0.61
   4   4  -9    3.28    0.62
   4   4  -9    3.06    0.56
  -4  -4   9    2.39    0.51
  -4  -4   9    2.65    0.40
  -4  -4   9    2.73    0.36
  -4  -4   9    1.64    0.46
  -4  -4   9    1.41    0.39
   3   4  -9    7.12    0.68
   3   4  -9    6.83    0.67
   3   4  -9    8.45    0.71
  -3  -4   9    6.63    0.70
  -3  -4   9    7.02    0.48
  -3  -4   9    8.25    0.73
  -3  -4   9    7.87    0.67
  -3  -4   9    7.17    0.52
  -3  -4   9    7.51    0.58
   2   4  -9   38.63    1.43
   2   4  -9   39.70    1.38
   2   4  -9   38.71    1.45
   2   4  -9   39.51    1.46
  -2  -4   9   37.21    1.50
  -2  -4   9   39.16    1.21
  -2  -4   9   40.59    1.29
  -2  -4   9   38.42    1.38
  -2  -4   9   39.42    1.46
  -2  -4   9   37.93    0.99
  -2  -4   9   40.45    1.29
  -2  -4   9   38.83    1.12
   1   4  -9   10.50    0.68
   1   4  -9   10.70    0.69
   1   4  -9   10.83    0.66
   1   4  -9   10.74    0.70
  -1  -4   9   11.36    0.69
  -1  -4   9   10.73    0.60
  -1  -4   9   10.53    0.71
  -1  -4   9    9.40    0.71
  -1  -4   9   10.80    0.60
  -1  -4   9    9.71    0.44
  -1  -4   9   10.84    0.60
   0   4  -9   13.39    0.82
   0   4  -9   13.77    0.74
   0   4  -9   13.99    0.70
   0   4  -9   13.86    0.74
   0   4  -9   13.82    0.73
   0  -4   9   15.20    0.57
   0  -4   9   15.07    0.79
   0  -4   9   13.84    0.68
   0  -4   9   15.25    0.83
   0  -4   9   14.39    0.74
   0  -4   9   14.57    0.70
   0  -4   9   14.18    0.68
  -1   4  -9   33.60    1.08
  -1   4  -9   34.01    1.16
  -1   4  -9   32.43    1.16
  -1   4  -9   32.99    1.26
  -1   4  -9   34.28    1.18
   1  -4   9   32.64    1.12
   1  -4   9   32.69    1.17
   1  -4   9   33.63    1.13
   1  -4   9   34.28    1.27
   1  -4   9   33.40    0.89
   1  -4   9   34.08    1.21
   1  -4   9   32.99    1.11
  -2   4  -9    8.97    0.58
  -2   4  -9   10.18    0.69
  -2   4  -9    9.89    0.67
  -2   4  -9   10.55    0.62
   2  -4   9   10.92    0.68
   2  -4   9    9.25    0.67
   2  -4   9    9.23    0.40
   2  -4   9    9.84    0.63
   2  -4   9   10.59    0.68
   2  -4   9   10.26    0.65
   2  -4   9   10.68    0.63
  -3   4  -9    5.01    0.53
  -3   4  -9    3.80    0.41
  -3   4  -9    4.96    0.60
   3  -4   9    4.51    0.47
   3  -4   9    4.28    0.52
   3  -4   9    3.51    0.45
  -4   4  -9    1.70    0.38
  -4   4  -9    2.07    0.46
  -4   4  -9    2.32    0.50
  -4   4  -9    1.73    0.34
   4  -4   9    1.83    0.40
   4  -4   9    1.61    0.36
   4  -4   9    1.94    0.40
  -5   4  -9    1.65    0.41
  -5   4  -9    2.29    0.38
  -5   4  -9    2.23    0.50
   5  -4   9    2.75    0.50
   5  -4   9    2.18    0.41
   5  -4   9    2.27    0.47
   6   3  -9    3.12    0.53
  -6  -3   9    3.19    0.62
  -6  -3   9    2.51    0.73
  -6  -3   9    2.99    0.44
   5   3  -9    4.27    0.75
   5   3  -9    3.09    0.58
   5   3  -9    1.92    0.41
   5   3  -9    4.05    0.67
  -5  -3   9    2.35    0.38
  -5  -3   9    3.11    0.67
  -5  -3   9    3.63    0.58
   4   3  -9   15.30    1.02
   4   3  -9   15.78    1.03
   4   3  -9   13.42    0.95
  -4  -3   9   15.55    0.96
  -4  -3   9   15.30    1.07
  -4  -3   9   13.82    0.70
  -4  -3   9   16.08    0.79
  -4  -3   9   15.59    1.01
   3   3  -9    5.61    0.58
   3   3  -9    5.51    0.52
   3   3  -9    5.77    0.61
   3   3  -9    5.47    0.67
  -3  -3   9    4.91    0.64
  -3  -3   9    5.60    0.57
  -3  -3   9    4.84    0.41
  -3  -3   9    5.17    0.48
  -3  -3   9    4.42    0.44
  -3  -3   9    4.68    0.67
   2   3  -9    6.85    0.52
   2   3  -9    6.78    0.55
   2   3  -9    6.93    0.60
   2   3  -9    7.24    0.62
   2   3  -9    6.78    0.58
  -2  -3   9    6.59    0.63
  -2  -3   9    5.89    0.43
  -2  -3   9    5.85    0.54
  -2  -3   9    6.74    0.51
  -2  -3   9    6.95    0.61
  -2  -3   9    7.05    0.48
   1   3  -9    2.96    0.38
   1   3  -9    3.49    0.25
   1   3  -9    3.29    0.49
   1   3  -9    3.91    0.52
   1   3  -9    3.38    0.45
   1   3  -9    3.55    0.35
  -1  -3   9    3.18    0.45
  -1  -3   9    4.00    0.40
  -1  -3   9    3.15    0.39
  -1  -3   9    2.40    0.42
  -1  -3   9    2.81    0.34
  -1  -3   9    3.24    0.53
   0   3  -9   14.87    0.69
   0   3  -9   13.93    0.83
   0   3  -9   13.86    0.74
   0   3  -9   14.26    0.71
   0   3  -9   13.43    0.75
   0  -3   9   13.85    0.57
   0  -3   9   14.99    0.67
   0  -3   9   14.79    0.84
   0  -3   9   13.42    0.75
   0  -3   9   13.89    0.68
   0  -3   9   13.38    0.73
   0  -3   9   14.30    0.69
  -1   3  -9    5.89    0.49
  -1   3  -9    6.04    0.48
  -1   3  -9    6.12    0.45
  -1   3  -9    5.98    0.50
  -1   3  -9    5.59    0.56
   1  -3   9    7.04    0.51
   1  -3   9    6.34    0.52
   1  -3   9    6.31    0.37
   1  -3   9    5.57    0.46
   1  -3   9    6.99    0.48
   1  -3   9    6.52    0.58
   1  -3   9    6.55    0.54
  -2   3  -9   11.35    0.74
  -2   3  -9   11.76    0.69
  -2   3  -9   10.02    0.63
  -2   3  -9   10.88    0.64
  -2   3  -9   11.08    0.52
   2  -3   9   12.01    0.94
   2  -3   9   11.67    0.70
   2  -3   9   10.10    0.67
   2  -3   9   11.58    0.75
   2  -3   9   10.90    0.65
  -3   3  -9    0.33    0.25
  -3   3  -9    0.35    0.26
  -3   3  -9    0.48    0.22
   3  -3   9    0.13    0.21
   3  -3   9    0.21    0.22
   3  -3   9    0.45    0.25
  -4   3  -9    4.50    0.64
  -4   3  -9    5.33    0.50
  -4   3  -9    5.41    0.58
   4  -3   9    5.31    0.55
   4  -3   9    5.47    0.58
   4  -3   9    5.92    0.58
  -5   3  -9    2.50    0.52
  -5   3  -9    3.16    0.57
  -5   3  -9    2.38    0.41
   5  -3   9    2.59    0.51
   5  -3   9    2.40    0.48
   5  -3   9    2.76    0.49
   6   2  -9    1.81    0.59
   6   2  -9    2.74    0.51
   6   2  -9    2.65    0.64
  -6  -2   9    2.93    0.72
  -6  -2   9    3.44    0.63
  -6  -2   9    3.61    0.46
   5   2  -9    0.76    0.37
   5   2  -9    0.42    0.33
   5   2  -9    0.64    0.36
  -5  -2   9    0.24    0.27
  -5  -2   9    0.71    0.33
  -5  -2   9    0.68    0.25
  -5  -2   9    1.16    0.48
   4   2  -9    1.03    0.37
   4   2  -9    1.02    0.36
   4   2  -9    1.17    0.40
  -4  -2   9    0.46    0.25
  -4  -2   9    0.46    0.27
  -4  -2   9    0.35    0.36
  -4  -2   9    0.75    0.23
   3   2  -9    2.24    0.40
   3   2  -9    2.07    0.46
   3   2  -9    1.98    0.31
   3   2  -9    2.06    0.44
   3   2  -9    1.83    0.44
  -3  -2   9    1.24    0.40
  -3  -2   9    1.98    0.29
  -3  -2   9    2.28    0.47
  -3  -2   9    2.35    0.38
  -3  -2   9    2.36    0.44
   2   2  -9    2.60    0.46
   2   2  -9    1.93    0.40
   2   2  -9    1.84    0.32
  -2  -2   9    2.16    0.45
  -2  -2   9    1.85    0.37
  -2  -2   9    2.69    0.45
  -2  -2   9    2.60    0.37
  -2  -2   9    2.80    0.33
  -2  -2   9    2.10    0.35
  -2  -2   9    2.20    0.39
   1   2  -9   11.92    0.69
   1   2  -9   11.79    0.54
   1   2  -9   11.87    0.50
   1   2  -9   13.94    0.80
   1   2  -9   12.02    0.72
   1   2  -9   12.06    0.67
  -1  -2   9   12.50    0.76
  -1  -2   9   13.16    0.74
  -1  -2   9   13.23    0.82
  -1  -2   9   11.52    0.64
  -1  -2   9   13.50    0.58
  -1  -2   9   11.50    0.66
   0   2  -9   13.58    0.71
   0   2  -9   13.61    0.68
   0   2  -9   13.77    0.64
   0   2  -9   13.83    0.74
   0   2  -9   14.75    0.77
   0   2  -9   14.22    0.83
   0  -2   9   13.52    0.78
   0  -2   9   13.78    0.68
   0  -2   9   13.11    0.80
   0  -2   9   14.44    0.76
   0  -2   9   13.36    0.69
   0  -2   9   14.66    0.62
  -1   2  -9    5.74    0.55
  -1   2  -9    6.36    0.47
  -1   2  -9    5.08    0.48
  -1   2  -9    6.37    0.44
  -1   2  -9    5.29    0.49
   1  -2   9    5.58    0.53
   1  -2   9    5.37    0.56
   1  -2   9    6.04    0.47
   1  -2   9    5.32    0.42
   1  -2   9    5.87    0.40
   1  -2   9    5.63    0.49
   1  -2   9    5.90    0.51
  -2   2  -9   13.34    0.81
  -2   2  -9   12.43    0.70
  -2   2  -9   13.04    0.56
  -2   2  -9   13.05    0.73
  -2   2  -9   12.94    0.71
   2  -2   9   13.57    0.84
   2  -2   9   13.23    0.77
   2  -2   9   12.52    0.63
   2  -2   9   12.40    0.68
   2  -2   9   13.32    0.78
  -3   2  -9    2.81    0.47
  -3   2  -9    3.31    0.46
  -3   2  -9    3.09    0.45
   3  -2   9    2.68    0.42
   3  -2   9    2.68    0.53
   3  -2   9    2.37    0.43
   3  -2   9    2.94    0.46
  -4   2  -9    0.85    0.29
  -4   2  -9    1.19    0.36
  -4   2  -9    0.83    0.35
   4  -2   9    1.07    0.33
   4  -2   9    0.84    0.36
   4  -2   9    1.16    0.35
  -5   2  -9    0.21    0.23
  -5   2  -9    0.10    0.32
   5  -2   9    0.63    0.53
   5  -2   9    0.22    0.30
   6   1  -9    2.41    0.65
   6   1  -9    3.57    0.74
   6   1  -9    2.99    0.63
  -6  -1   9    3.07    0.56
  -6  -1   9    4.87    0.68
  -6  -1   9    3.37    0.71
   5   1  -9    1.16    0.41
   5   1  -9    0.83    0.39
   5   1  -9    0.32    0.37
  -5  -1   9    0.54    0.22
  -5  -1   9    0.80    0.37
  -5  -1   9    1.22    0.47
  -5  -1   9    1.11    0.35
   4   1  -9   10.81    0.82
   4   1  -9    9.70    0.82
   4   1  -9   12.61    0.90
  -4  -1   9   12.72    0.83
  -4  -1   9   11.51    0.78
  -4  -1   9   11.52    0.56
  -4  -1   9   10.25    0.90
   3   1  -9   18.51    0.75
   3   1  -9   18.22    1.03
   3   1  -9   18.25    0.96
   3   1  -9   19.02    1.02
  -3  -1   9   20.08    1.05
  -3  -1   9   19.87    0.96
  -3  -1   9   21.28    1.03
  -3  -1   9   19.34    0.68
  -3  -1   9   17.69    1.06
   2   1  -9   15.57    0.82
   2   1  -9   16.35    0.70
   2   1  -9   17.49    0.91
   2   1  -9   16.14    0.81
   2   1  -9   15.21    0.89
  -2  -1   9   17.96    1.29
  -2  -1   9   16.99    0.83
  -2  -1   9   16.86    0.92
  -2  -1   9   17.66    0.99
  -2  -1   9   17.07    0.59
  -2  -1   9   15.90    0.86
   1   1  -9    8.65    0.59
   1   1  -9    8.48    0.69
   1   1  -9    9.01    0.47
   1   1  -9    8.66    0.45
   1   1  -9    9.25    0.63
   1   1  -9    8.36    0.63
   1   1  -9    8.60    0.58
  -1  -1   9    8.81    0.63
  -1  -1   9    9.18    0.72
  -1  -1   9    9.08    0.61
  -1  -1   9    8.86    0.60
  -1  -1   9   10.21    0.66
  -1  -1   9    8.65    0.65
  -1  -1   9   10.09    0.45
   0   1  -9   15.50    0.57
   0   1  -9   15.89    0.91
   0   1  -9   17.64    0.75
   0   1  -9   16.49    0.68
   0   1  -9   16.81    0.82
   0   1  -9   15.19    0.79
   0   1  -9   17.02    0.84
   0  -1   9   16.19    0.83
   0  -1   9   16.27    0.90
   0  -1   9   15.34    0.77
   0  -1   9   16.70    0.87
   0  -1   9   16.12    1.31
   0  -1   9   16.29    0.61
   0  -1   9   17.34    0.79
  -1   1  -9    5.47    0.41
  -1   1  -9    5.59    0.58
  -1   1  -9    5.33    0.50
  -1   1  -9    5.81    0.50
  -1   1  -9    5.48    0.58
  -1   1  -9    5.90    0.46
   1  -1   9    5.65    0.58
   1  -1   9    6.20    0.56
   1  -1   9    5.28    0.46
   1  -1   9    6.10    0.53
   1  -1   9    5.74    0.53
   1  -1   9    5.60    0.41
  -2   1  -9    3.81    0.34
  -2   1  -9    4.83    0.46
  -2   1  -9    4.72    0.62
  -2   1  -9    4.22    0.52
  -2   1  -9    3.76    0.48
   2  -1   9    4.58    0.61
   2  -1   9    4.06    0.51
   2  -1   9    5.15    0.54
   2  -1   9    5.25    0.46
  -3   1  -9   14.39    0.92
  -3   1  -9   12.92    0.76
  -3   1  -9   12.47    0.76
   3  -1   9   12.91    0.83
   3  -1   9   14.29    0.93
   3  -1   9   13.35    0.84
   3  -1   9   13.39    0.74
  -4   1  -9    3.04    0.49
  -4   1  -9    3.96    0.62
  -4   1  -9    3.19    0.49
   4  -1   9    3.45    0.48
   4  -1   9    3.19    0.50
  -5   1  -9    1.72    0.51
   5  -1   9    0.85    0.36
   6   0  -9   -0.15    0.32
   6   0  -9    0.34    0.37
  -6   0   9    0.21    0.34
  -6   0   9   -0.27    0.29
  -6   0   9    0.20    0.31
  -6   0   9    0.29    0.43
   5   0  -9    0.10    0.25
   5   0  -9    0.31    0.30
   5   0  -9    0.29    0.35
  -5   0   9    0.00    0.23
  -5   0   9    0.31    0.32
  -5   0   9   -0.13    0.33
   4   0  -9    2.26    0.47
   4   0  -9    2.72    0.48
   4   0  -9    3.19    0.53
  -4   0   9    3.16    0.54
  -4   0   9    3.04    0.59
  -4   0   9    2.93    0.48
   3   0  -9   17.59    0.98
   3   0  -9   16.36    0.96
   3   0  -9   16.15    0.89
  -3   0   9   16.40    0.91
  -3   0   9   16.17    0.54
  -3   0   9   16.29    0.94
  -3   0   9   15.24    1.00
   2   0  -9   21.56    1.03
   2   0  -9   19.94    0.93
   2   0  -9   20.96    1.00
   2   0  -9   18.36    0.85
  -2   0   9   22.59    1.02
  -2   0   9   21.75    0.58
  -2   0   9   21.72    1.02
  -2   0   9   20.52    1.09
  -2   0   9   19.58    1.01
   1   0  -9    5.27    0.35
   1   0  -9    5.32    0.68
   1   0  -9    5.71    0.55
   1   0  -9    5.24    0.42
   1   0  -9    4.87    0.49
   1   0  -9    5.22    0.47
   1   0  -9    5.28    0.50
  -1   0   9    4.57    0.60
  -1   0   9    5.74    0.54
  -1   0   9    4.86    0.52
  -1   0   9    5.06    0.26
  -1   0   9    5.32    0.55
   0   0  -9    9.31    0.50
   0   0  -9    9.02    0.62
   0   0  -9    8.09    0.68
   0   0  -9    9.54    0.67
   0   0  -9    9.71    0.65
   0   0  -9    8.66    0.53
   0   0   9    8.50    0.69
   0   0   9    9.08    0.60
   0   0   9    8.92    0.39
   0   0   9    7.92    0.61
   0   0   9    9.41    0.68
  -1   0  -9    7.34    0.46
  -1   0  -9    8.92    0.62
  -1   0  -9    7.57    0.66
  -1   0  -9    7.26    0.50
  -1   0  -9    7.80    0.60
   1   0   9    8.36    0.45
   1   0   9    7.88    0.63
   1   0   9    7.19    0.60
   1   0   9    8.72    0.71
   1   0   9    8.53    0.57
  -2   0  -9    0.11    0.14
  -2   0  -9    0.08    0.18
  -2   0  -9    0.22    0.26
  -2   0  -9    0.14    0.20
  -2   0  -9    0.25    0.22
   2   0   9    0.12    0.21
   2   0   9    0.32    0.25
   2   0   9    0.27    0.30
   2   0   9    0.18    0.22
  -3   0  -9   11.18    0.86
  -3   0  -9   11.52    0.71
  -3   0  -9    9.23    0.69
   3   0   9   10.69    0.66
   3   0   9   10.55    0.78
  -4   0  -9   -0.36    0.22
  -4   0  -9    0.04    0.48
   4   0   9   -0.28    0.25
   6  -1  -9    1.90    0.76
   6  -1  -9    1.87    0.53
  -6   1   9    2.24    0.47
  -6   1   9    2.83    0.68
  -6   1   9    2.90    0.63
   5  -1  -9    2.34    0.53
   5  -1  -9    2.12    0.53
   5  -1  -9    1.31    0.43
  -5   1   9    3.22    0.54
  -5   1   9    3.04    0.65
  -5   1   9    2.62    0.54
  -5   1   9    2.08    0.38
   4  -1  -9   14.93    0.91
   4  -1  -9   15.02    0.97
   4  -1  -9   14.03    0.96
  -4   1   9   16.06    0.79
  -4   1   9   15.25    1.08
  -4   1   9   15.52    0.91
  -4   1   9   16.09    1.02
   3  -1  -9    5.74    0.59
   3  -1  -9    4.46    0.52
  -3   1   9    5.28    0.68
  -3   1   9    4.49    0.65
  -3   1   9    4.41    0.55
   2  -1  -9    1.08    0.34
   2  -1  -9    1.12    0.31
   2  -1  -9    1.53    0.38
  -2   1   9    1.43    0.33
  -2   1   9    1.06    0.35
  -2   1   9    0.76    0.35
   1  -1  -9   10.16    0.81
   1  -1  -9   11.06    0.65
   1  -1  -9   10.76    0.48
   1  -1  -9   10.93    0.73
   1  -1  -9   11.28    0.71
  -1   1   9   10.49    0.69
  -1   1   9   10.44    0.78
  -1   1   9   11.89    0.77
   0  -1  -9   -0.10    0.18
   0  -1  -9    0.08    0.24
   0  -1  -9    0.01    0.16
   0  -1  -9   -0.07    0.18
   0  -1  -9   -0.10    0.12
   0   1   9    0.17    0.26
   0   1   9   -0.14    0.20
  -1  -1  -9    1.84    0.44
  -1  -1  -9    2.23    0.34
  -1  -1  -9    2.28    0.34
  -1  -1  -9    2.92    0.45
  -1  -1  -9    2.10    0.41
   1   1   9    1.64    0.44
   1   1   9    2.92    0.45
   1   1   9    2.29    0.38
  -2  -1  -9   10.35    0.74
  -2  -1  -9   10.51    0.56
  -2  -1  -9   11.46    0.67
  -2  -1  -9   12.31    0.76
   2   1   9   13.13    0.94
   2   1   9   13.33    0.72
   2   1   9   13.07    0.81
  -3  -1  -9    0.40    0.26
  -3  -1  -9    0.37    0.28
   3   1   9    0.55    0.27
   3   1   9    0.61    0.32
   6  -2  -9    0.41    0.46
  -6   2   9   -0.18    0.35
  -6   2   9    0.22    0.49
   5  -2  -9   15.77    1.04
   5  -2  -9   15.41    1.07
   5  -2  -9   15.81    1.12
  -5   2   9   15.93    0.94
  -5   2   9   15.81    1.17
  -5   2   9   15.11    1.12
  -5   2   9   14.95    0.85
   4  -2  -9    4.35    0.62
   4  -2  -9    4.29    0.65
   4  -2  -9    4.13    0.58
  -4   2   9    4.19    0.69
  -4   2   9    4.38    0.58
  -4   2   9    4.88    0.72
  -4   2   9    4.46    0.46
   3  -2  -9    0.55    0.30
   3  -2  -9    0.49    0.28
   3  -2  -9    0.85    0.35
  -3   2   9    0.51    0.21
  -3   2   9    0.52    0.34
  -3   2   9    0.97    0.38
  -3   2   9    0.70    0.29
   2  -2  -9   -0.04    0.21
   2  -2  -9    0.13    0.21
   2  -2  -9   -0.13    0.20
  -2   2   9    0.08    0.14
  -2   2   9   -0.04    0.27
  -2   2   9   -0.14    0.22
  -2   2   9    0.13    0.22
   1  -2  -9    3.52    0.49
   1  -2  -9    4.13    0.46
   1  -2  -9    3.80    0.53
  -1   2   9    2.83    0.51
  -1   2   9    3.27    0.55
  -1   2   9    4.21    0.54
   0  -2  -9    5.32    0.47
   0  -2  -9    3.82    0.50
   0  -2  -9    3.68    0.49
   0  -2  -9    4.40    0.38
   0   2   9    4.82    0.67
   0   2   9    4.29    0.55
   0   2   9    5.31    0.65
  -1  -2  -9   32.35    1.10
  -1  -2  -9   34.55    1.34
  -1  -2  -9   32.39    1.28
   1   2   9   36.75    1.50
   1   2   9   36.80    1.37
  -2  -2  -9    6.44    0.50
  -2  -2  -9    6.08    0.61
  -2  -2  -9    6.64    0.66
   2   2   9    6.12    0.56
   2   2   9    7.91    0.71
   2   2   9    7.54    0.81
   3   2   9    6.24    0.84
   5  -3  -9    1.65    0.48
   5  -3  -9    1.34    0.44
  -5   3   9    1.02    0.47
  -5   3   9    0.66    0.43
  -5   3   9    1.29    0.38
   4  -3  -9    4.51    0.69
   4  -3  -9    3.31    0.50
   4  -3  -9    3.22    0.57
  -4   3   9    4.97    0.77
  -4   3   9    3.04    0.46
  -4   3   9    3.03    0.42
  -4   3   9    2.85    0.65
   3  -3  -9    6.06    0.62
   3  -3  -9    5.22    0.55
   3  -3  -9    5.06    0.66
  -3   3   9    5.00    0.44
  -3   3   9    5.45    0.55
  -3   3   9    5.60    0.75
  -3   3   9    5.82    0.76
   2  -3  -9    0.91    0.31
   2  -3  -9    1.62    0.40
   2  -3  -9    0.61    0.27
  -2   3   9    0.45    0.38
  -2   3   9    0.88    0.40
  -2   3   9    0.85    0.32
   1  -3  -9    1.80    0.35
   1  -3  -9    2.16    0.41
   1  -3  -9    2.00    0.42
  -1   3   9    2.14    0.41
  -1   3   9    1.31    0.43
  -1   3   9    3.01    0.54
   0  -3  -9    5.86    0.58
   0  -3  -9    6.11    0.59
   0  -3  -9    5.55    0.50
   0   3   9    6.51    0.72
   0   3   9    6.54    0.59
   0   3   9    6.76    0.70
  -1  -3  -9   14.00    0.74
  -1  -3  -9   13.53    0.87
  -1  -3  -9   15.10    0.87
   1   3   9   14.93    0.98
   1   3   9   14.42    0.88
   1   3   9   16.80    1.05
   2   3   9   28.34    1.27
   2   3   9   28.76    1.45
   5  -4  -9   11.31    1.12
  -5   4   9   10.22    1.04
  -5   4   9   11.08    0.97
   4  -4  -9    0.68    0.34
   4  -4  -9    0.55    0.36
  -4   4   9    1.02    0.45
   3  -4  -9    2.09    0.47
   3  -4  -9    2.27    0.47
   3  -4  -9    2.34    0.45
  -3   4   9    1.51    0.46
  -3   4   9    2.21    0.57
   2  -4  -9    1.26    0.36
   2  -4  -9    1.16    0.38
   2  -4  -9    0.71    0.29
  -2   4   9    1.03    0.42
  -2   4   9    0.62    0.30
  -2   4   9    1.70    0.50
   1  -4  -9    0.92    0.30
   1  -4  -9    1.14    0.37
   1  -4  -9    0.71    0.28
  -1   4   9    1.16    0.41
  -1   4   9    1.67    0.48
  -1   4   9    1.60    0.39
   0  -4  -9    2.97    0.50
   0  -4  -9    2.53    0.41
   0  -4  -9    2.93    0.47
   0   4   9    2.76    0.56
   0   4   9    2.49    0.44
  -1  -4  -9    4.52    0.52
  -1  -4  -9    4.26    0.60
   1   4   9    3.74    0.63
   1   4   9    4.43    0.59
   3  -5  -9    0.56    0.31
  -3   5   9    0.31    0.37
   2  -5  -9    0.01    0.25
  -2   5   9    0.03    0.36
   1  -5  -9    0.24    0.41
   1  -5  -9   -0.17    0.43
  -1   5   9   -0.28    0.31
   1 -12  10    3.93    0.50
   2 -12  10    1.50    0.37
  -2 -11  10    0.77    0.32
  -1 -11  10    3.50    0.57
   0  11 -10    6.41    0.97
   0 -11  10    5.82    0.61
   0 -11  10    6.70    0.51
   0 -11  10    5.31    0.75
   0 -11  10    7.20    0.63
  -1  11 -10    1.51    0.50
   1 -11  10    2.02    0.41
   1 -11  10    1.81    0.44
   1 -11  10    2.12    0.38
  -2  11 -10    5.14    0.83
   2 -11  10    4.64    0.50
  -3  11 -10    3.87    0.69
   3 -11  10    3.44    0.54
  -4  11 -10    5.99    0.85
  -3 -10  10    2.10    0.51
  -3 -10  10    1.90    0.50
   2  10 -10   10.73    1.01
  -2 -10  10    9.77    0.81
  -2 -10  10   10.38    0.89
  -2 -10  10   11.08    0.84
   1  10 -10    2.51    0.58
  -1 -10  10    3.57    0.38
  -1 -10  10    2.84    0.51
  -1 -10  10    2.92    0.53
  -1 -10  10    2.84    0.49
   0  10 -10    0.45    0.33
   0 -10  10    0.45    0.27
   0 -10  10    0.49    0.21
   0 -10  10    0.57    0.25
   0 -10  10    0.31    0.22
  -1  10 -10   10.14    0.95
   1 -10  10   10.11    0.78
   1 -10  10    9.28    0.68
   1 -10  10   10.34    0.69
   1 -10  10   10.39    0.65
  -2  10 -10    3.97    0.68
   2 -10  10    3.63    0.59
   2 -10  10    3.58    0.48
   2 -10  10    5.13    0.50
   2 -10  10    4.75    0.48
  -3  10 -10    1.27    0.49
   3 -10  10    0.19    0.28
   3 -10  10    0.50    0.23
   3 -10  10    0.31    0.24
  -4  10 -10    6.67    0.81
   4   9 -10    3.11    0.56
   4   9 -10    2.26    0.53
  -4  -9  10    3.13    0.66
   3   9 -10    9.41    0.78
   3   9 -10   10.70    0.91
   3   9 -10   10.79    0.99
  -3  -9  10    9.31    0.75
  -3  -9  10   11.23    0.96
  -3  -9  10    9.68    0.84
   2   9 -10    4.11    0.67
   2   9 -10    3.52    0.52
  -2  -9  10    5.74    0.59
  -2  -9  10    4.65    0.64
  -2  -9  10    3.40    0.61
   1   9 -10    8.04    0.58
   1   9 -10    8.27    0.84
  -1  -9  10    7.96    0.70
  -1  -9  10    8.20    0.53
  -1  -9  10    8.03    0.66
  -1  -9  10    6.64    0.61
   0   9 -10    3.28    0.62
   0  -9  10    3.58    0.45
   0  -9  10    2.81    0.47
   0  -9  10    2.97    0.46
   0  -9  10    3.77    0.54
  -1   9 -10    0.63    0.38
   1  -9  10    0.69    0.28
   1  -9  10    0.56    0.24
   1  -9  10    0.26    0.23
   1  -9  10    0.55    0.21
  -2   9 -10    5.80    0.80
  -2   9 -10    5.09    0.73
   2  -9  10    4.35    0.46
   2  -9  10    4.26    0.58
   2  -9  10    5.52    0.53
   2  -9  10    4.40    0.46
  -3   9 -10    4.20    0.70
  -3   9 -10    4.13    0.66
   3  -9  10    3.11    0.44
   3  -9  10    3.45    0.57
   3  -9  10    2.89    0.50
   3  -9  10    2.51    0.39
  -4   9 -10    1.20    0.35
  -4   9 -10    2.38    0.54
   4  -9  10    2.51    0.65
   4  -9  10    1.89    0.57
   4  -9  10    2.57    0.41
   4  -9  10    2.50    0.68
   4   8 -10    6.33    0.88
   4   8 -10    6.81    0.74
  -4  -8  10    5.43    0.75
  -4  -8  10    6.87    1.08
  -4  -8  10    7.18    0.94
   3   8 -10    0.61    0.26
   3   8 -10    0.43    0.31
   3   8 -10    0.36    0.35
  -3  -8  10    0.33    0.28
  -3  -8  10    0.32    0.28
  -3  -8  10    0.09    0.30
   2   8 -10   31.06    1.17
   2   8 -10   29.40    1.48
   2   8 -10   33.30    1.32
  -2  -8  10   31.50    1.38
  -2  -8  10   30.99    1.28
  -2  -8  10   33.25    1.46
  -2  -8  10   34.47    1.18
   1   8 -10    7.03    0.86
   1   8 -10    6.94    0.59
  -1  -8  10    6.42    0.49
  -1  -8  10    6.98    0.62
  -1  -8  10    6.49    0.61
  -1  -8  10    6.61    0.64
   0   8 -10   10.75    0.64
   0   8 -10   11.37    0.91
   0  -8  10   10.51    0.74
   0  -8  10   11.23    0.64
   0  -8  10   10.47    0.71
   0  -8  10   11.19    0.76
  -1   8 -10    8.23    0.80
  -1   8 -10    6.59    0.48
   1  -8  10    7.27    0.57
   1  -8  10    8.45    0.59
   1  -8  10    8.35    0.63
   1  -8  10    7.50    0.64
  -2   8 -10    1.87    0.50
  -2   8 -10    1.17    0.42
   2  -8  10    1.39    0.33
   2  -8  10    0.76    0.26
   2  -8  10    1.31    0.35
   2  -8  10    1.13    0.31
  -3   8 -10    1.02    0.31
  -3   8 -10    1.43    0.45
  -3   8 -10    1.73    0.48
   3  -8  10    0.94    0.32
   3  -8  10    1.34    0.31
   3  -8  10    1.40    0.31
   3  -8  10    0.85    0.32
  -4   8 -10    2.45    0.56
  -4   8 -10    2.06    0.47
  -4   8 -10    2.18    0.45
   4  -8  10    1.69    0.35
   4  -8  10    2.03    0.44
   4  -8  10    3.03    0.48
   4  -8  10    3.02    0.52
  -5   8 -10   11.82    0.80
   5  -8  10   12.70    0.83
   5   7 -10   18.01    1.22
   4   7 -10   11.57    0.95
   4   7 -10   12.24    1.00
  -4  -7  10   11.83    1.00
  -4  -7  10   10.44    0.74
  -4  -7  10   11.20    0.92
   3   7 -10    3.34    0.60
   3   7 -10    4.01    0.66
  -3  -7  10    3.62    0.55
  -3  -7  10    2.79    0.52
  -3  -7  10    2.27    0.51
   2   7 -10    1.85    0.49
   2   7 -10    2.03    0.33
   2   7 -10    1.77    0.41
  -2  -7  10    2.31    0.46
  -2  -7  10    2.34    0.42
  -2  -7  10    1.37    0.39
  -2  -7  10    1.49    0.31
   1   7 -10    3.79    0.58
   1   7 -10    4.69    0.57
  -1  -7  10    3.96    0.53
  -1  -7  10    4.15    0.40
  -1  -7  10    4.02    0.53
  -1  -7  10    4.07    0.58
   0   7 -10    2.88    0.52
   0   7 -10    3.84    0.50
   0  -7  10    3.53    0.47
   0  -7  10    2.86    0.41
   0  -7  10    2.76    0.46
   0  -7  10    2.77    0.46
  -1   7 -10   13.55    0.73
  -1   7 -10   13.04    0.86
  -1   7 -10   14.25    0.96
   1  -7  10   13.46    0.76
   1  -7  10   13.85    0.74
   1  -7  10   13.28    0.78
   1  -7  10   14.09    0.83
  -2   7 -10   31.36    1.41
  -2   7 -10   29.98    1.25
  -2   7 -10   28.66    1.04
  -2   7 -10   31.05    1.35
   2  -7  10   27.64    1.14
   2  -7  10   28.72    1.15
   2  -7  10   30.16    1.24
   2  -7  10   29.79    1.15
  -3   7 -10    0.41    0.20
  -3   7 -10    0.76    0.35
  -3   7 -10    0.58    0.29
  -3   7 -10    0.88    0.41
   3  -7  10    0.54    0.28
   3  -7  10    0.76    0.29
   3  -7  10    0.28    0.24
   3  -7  10    0.73    0.26
  -4   7 -10    4.64    0.61
  -4   7 -10    5.58    0.67
  -4   7 -10    5.17    0.73
   4  -7  10    5.99    0.61
   4  -7  10    5.59    0.57
   4  -7  10    4.17    0.51
  -5   7 -10    1.64    0.42
   5  -7  10    1.74    0.39
   5   6 -10    4.16    0.70
   5   6 -10    4.66    1.00
  -5  -6  10    3.82    0.55
   4   6 -10    0.75    0.34
   4   6 -10    0.91    0.41
  -4  -6  10    1.35    0.42
  -4  -6  10    1.25    0.35
  -4  -6  10    1.10    0.42
   3   6 -10    6.01    0.78
   3   6 -10    6.92    0.73
  -3  -6  10    5.81    0.75
  -3  -6  10    6.10    0.55
  -3  -6  10    5.20    0.68
   2   6 -10    8.61    0.76
   2   6 -10    8.30    0.70
  -2  -6  10    9.25    0.71
  -2  -6  10    8.41    0.46
  -2  -6  10    7.13    0.69
  -2  -6  10    8.77    0.62
  -2  -6  10    7.02    0.54
   1   6 -10    9.51    0.50
   1   6 -10    9.32    0.69
   1   6 -10    6.91    0.69
  -1  -6  10    7.50    0.66
  -1  -6  10    6.63    0.95
  -1  -6  10    7.83    0.54
  -1  -6  10    7.77    0.62
  -1  -6  10    7.79    0.59
   0   6 -10    6.16    0.56
   0   6 -10    5.83    0.72
   0   6 -10    5.46    0.54
   0  -6  10    5.88    0.48
   0  -6  10    6.70    0.57
   0  -6  10    6.40    0.58
   0  -6  10    6.74    0.55
  -1   6 -10    4.05    0.57
  -1   6 -10    3.28    0.45
  -1   6 -10    3.56    0.52
   1  -6  10    3.50    0.48
   1  -6  10    3.67    0.47
   1  -6  10    3.19    0.45
   1  -6  10    3.15    0.44
  -2   6 -10    5.40    0.59
  -2   6 -10    4.80    0.47
  -2   6 -10    6.68    0.75
  -2   6 -10    5.59    0.69
   2  -6  10    4.80    0.50
   2  -6  10    5.37    0.51
   2  -6  10    5.43    0.55
   2  -6  10    5.41    0.53
  -3   6 -10   10.04    0.75
  -3   6 -10   10.09    0.64
  -3   6 -10   10.50    0.80
  -3   6 -10   10.42    0.81
   3  -6  10   11.35    0.73
   3  -6  10    9.01    0.68
   3  -6  10   11.02    0.78
   3  -6  10   10.66    0.71
  -4   6 -10    1.13    0.39
  -4   6 -10    0.86    0.27
  -4   6 -10    0.60    0.37
  -4   6 -10    0.63    0.32
   4  -6  10    0.94    0.38
   4  -6  10    0.16    0.23
   4  -6  10    0.71    0.30
  -5   6 -10    4.12    0.59
   5  -6  10    4.72    0.61
   5  -6  10    4.50    0.58
   5   5 -10    0.71    0.45
   5   5 -10    1.35    0.43
  -5  -5  10    1.25    0.35
  -5  -5  10    0.87    0.42
   4   5 -10    3.04    0.61
   4   5 -10    2.98    0.59
  -4  -5  10    3.38    0.62
  -4  -5  10    3.20    0.62
  -4  -5  10    2.38    0.42
   3   5 -10    4.27    0.63
   3   5 -10    5.55    0.74
  -3  -5  10    5.36    0.44
  -3  -5  10    5.14    0.71
  -3  -5  10    4.24    0.45
  -3  -5  10    4.61    0.64
  -3  -5  10    4.78    0.72
   2   5 -10    2.91    0.52
   2   5 -10    3.66    0.55
   2   5 -10    2.93    0.48
  -2  -5  10    3.64    0.47
  -2  -5  10    2.32    0.46
  -2  -5  10    3.97    0.55
  -2  -5  10    3.35    0.61
  -2  -5  10    2.92    0.42
  -2  -5  10    3.51    0.36
   1   5 -10   15.31    0.90
   1   5 -10   14.43    0.86
   1   5 -10   15.04    0.87
  -1  -5  10   15.94    0.78
  -1  -5  10   14.25    0.83
  -1  -5  10   13.01    0.84
  -1  -5  10   14.93    0.94
  -1  -5  10   14.52    0.74
   0   5 -10    6.00    0.55
   0   5 -10    6.36    0.54
   0  -5  10    6.09    0.54
   0  -5  10    5.45    0.59
   0  -5  10    5.84    0.50
   0  -5  10    6.95    0.60
   0  -5  10    5.98    0.49
  -1   5 -10    4.89    0.66
  -1   5 -10    3.93    0.51
  -1   5 -10    4.74    0.58
   1  -5  10    4.36    0.65
   1  -5  10    4.66    0.46
   1  -5  10    4.01    0.32
   1  -5  10    4.03    0.53
   1  -5  10    4.67    0.48
   1  -5  10    4.45    0.48
  -2   5 -10    8.47    0.61
  -2   5 -10    9.91    0.71
  -2   5 -10    9.22    0.74
  -2   5 -10   10.06    0.76
   2  -5  10    9.76    0.68
   2  -5  10   10.72    0.72
   2  -5  10   10.17    0.67
   2  -5  10   10.58    0.70
  -3   5 -10    1.69    0.34
  -3   5 -10    2.30    0.48
  -3   5 -10    2.56    0.48
  -3   5 -10    2.48    0.47
   3  -5  10    3.40    0.51
   3  -5  10    2.75    0.47
   3  -5  10    2.67    0.45
  -4   5 -10    3.42    0.46
  -4   5 -10    1.88    0.44
  -4   5 -10    2.50    0.48
  -4   5 -10    1.93    0.46
   4  -5  10    1.72    0.41
   4  -5  10    1.89    0.41
   4  -5  10    2.82    0.48
  -5   5 -10    6.36    0.70
   5  -5  10    4.67    0.73
   5  -5  10    4.74    0.61
   6   4 -10    4.72    0.70
  -6  -4  10    4.20    0.54
   5   4 -10    3.87    0.69
   5   4 -10    4.01    0.61
  -5  -4  10    5.61    1.03
  -5  -4  10    4.89    0.51
  -5  -4  10    3.99    0.64
   4   4 -10   -0.13    0.24
   4   4 -10   -0.19    0.18
   4   4 -10    0.20    0.29
  -4  -4  10    0.29    0.27
  -4  -4  10    0.07    0.36
  -4  -4  10   -0.09    0.18
   3   4 -10    3.94    0.60
   3   4 -10    4.22    0.63
   3   4 -10    3.55    0.59
  -3  -4  10    4.39    0.62
  -3  -4  10    4.13    0.43
  -3  -4  10    4.94    0.73
  -3  -4  10    4.10    0.63
  -3  -4  10    4.30    0.44
   2   4 -10    5.65    0.61
   2   4 -10    4.73    0.64
   2   4 -10    4.70    0.61
  -2  -4  10    5.12    0.47
  -2  -4  10    5.22    0.69
  -2  -4  10    5.15    0.45
  -2  -4  10    5.71    0.56
  -2  -4  10    4.81    0.63
   1   4 -10    1.57    0.36
   1   4 -10    1.95    0.40
  -1  -4  10    1.90    0.42
  -1  -4  10    1.49    0.32
  -1  -4  10    1.36    0.34
  -1  -4  10    1.55    0.29
  -1  -4  10    1.43    0.32
  -1  -4  10    1.27    0.36
   0   4 -10   13.18    0.76
   0   4 -10   12.52    0.76
   0   4 -10   13.19    0.87
   0   4 -10   12.95    0.77
   0   4 -10   12.05    0.69
   0  -4  10   12.13    0.68
   0  -4  10   12.91    0.76
   0  -4  10   12.50    0.77
   0  -4  10   11.65    0.81
   0  -4  10   11.65    0.65
  -1   4 -10    7.25    0.52
  -1   4 -10    6.65    0.64
  -1   4 -10    7.64    0.59
  -1   4 -10    6.28    0.55
   1  -4  10    6.31    0.59
   1  -4  10    6.47    0.41
   1  -4  10    7.85    0.56
   1  -4  10    7.19    0.55
   1  -4  10    6.69    0.57
   1  -4  10    7.18    0.65
  -2   4 -10    1.14    0.37
  -2   4 -10    1.43    0.31
  -2   4 -10    1.53    0.37
   2  -4  10    1.18    0.32
   2  -4  10    0.79    0.29
   2  -4  10    1.77    0.38
   2  -4  10    1.70    0.36
  -3   4 -10    4.94    0.50
  -3   4 -10    5.36    0.66
  -3   4 -10    5.26    0.68
   3  -4  10    6.63    0.63
   3  -4  10    5.12    0.55
   3  -4  10    6.43    0.59
  -4   4 -10    2.32    0.48
  -4   4 -10    1.17    0.39
  -4   4 -10    1.14    0.45
  -4   4 -10    1.70    0.37
   4  -4  10    1.70    0.38
   4  -4  10    1.61    0.40
   4  -4  10    1.24    0.36
  -5   4 -10    4.01    0.64
  -5   4 -10    3.96    0.50
   5  -4  10    4.01    0.60
   6   3 -10    3.00    0.57
  -6  -3  10    4.13    0.89
  -6  -3  10    3.47    0.50
   5   3 -10    2.49    0.56
   5   3 -10    2.92    0.59
  -5  -3  10    2.92    0.41
  -5  -3  10    3.32    0.77
  -5  -3  10    2.09    0.52
   4   3 -10    3.37    0.60
   4   3 -10    3.18    0.58
   4   3 -10    3.94    0.69
  -4  -3  10    3.82    0.41
  -4  -3  10    3.05    0.46
  -4  -3  10    4.01    0.74
  -4  -3  10    4.50    0.64
   3   3 -10    2.28    0.48
   3   3 -10    2.69    0.52
   3   3 -10    1.28    0.40
  -3  -3  10    2.14    0.34
  -3  -3  10    1.94    0.44
  -3  -3  10    1.98    0.51
  -3  -3  10    1.72    0.43
  -3  -3  10    3.06    0.45
   2   3 -10    6.91    0.65
   2   3 -10    6.33    0.64
   2   3 -10    5.67    0.60
  -2  -3  10    7.42    0.56
  -2  -3  10    6.67    0.64
  -2  -3  10    5.69    0.51
  -2  -3  10    7.10    0.49
  -2  -3  10    7.69    0.71
  -2  -3  10    7.13    0.63
   1   3 -10   16.78    0.73
   1   3 -10   17.72    0.91
   1   3 -10   16.91    0.91
   1   3 -10   15.88    0.91
  -1  -3  10   18.79    0.85
  -1  -3  10   17.59    0.86
  -1  -3  10   15.69    0.96
  -1  -3  10   17.46    0.74
  -1  -3  10   18.47    0.98
  -1  -3  10   16.10    0.89
   0   3 -10   29.69    1.07
   0   3 -10   29.14    1.18
   0   3 -10   30.52    1.31
   0   3 -10   30.79    1.22
   0   3 -10   29.05    1.11
   0  -3  10   33.52    1.36
   0  -3  10   29.94    1.02
   0  -3  10   30.17    1.23
   0  -3  10   27.55    1.07
   0  -3  10   29.41    1.18
  -1   3 -10    0.80    0.35
  -1   3 -10    0.93    0.29
  -1   3 -10    0.62    0.26
  -1   3 -10    1.21    0.29
  -1   3 -10    1.35    0.33
   1  -3  10    0.98    0.27
   1  -3  10    1.30    0.33
   1  -3  10    1.30    0.34
   1  -3  10    1.09    0.27
   1  -3  10    1.04    0.37
  -2   3 -10    4.79    0.51
  -2   3 -10    4.14    0.56
  -2   3 -10    4.61    0.48
   2  -3  10    6.07    1.03
   2  -3  10    4.11    0.52
   2  -3  10    4.21    0.50
   2  -3  10    3.72    0.51
   2  -3  10    4.68    0.46
  -3   3 -10    2.21    0.45
  -3   3 -10    2.01    0.42
  -3   3 -10    2.48    0.41
   3  -3  10    2.51    0.47
   3  -3  10    2.86    0.51
   3  -3  10    2.16    0.41
  -4   3 -10    3.36    0.57
  -4   3 -10    3.13    0.49
  -4   3 -10    2.78    0.51
   4  -3  10    3.41    0.51
   4  -3  10    3.10    0.53
   4  -3  10    2.17    0.47
  -5   3 -10    1.66    0.50
  -6  -2  10    3.29    0.76
   5   2 -10    0.97    0.47
   5   2 -10    0.67    0.35
   5   2 -10    0.45    0.33
  -5  -2  10    0.30    0.21
  -5  -2  10    0.34    0.46
  -5  -2  10    0.43    0.33
   4   2 -10    0.15    0.30
   4   2 -10    0.68    0.37
   4   2 -10    1.39    0.40
  -4  -2  10    0.55    0.40
  -4  -2  10    0.96    0.38
  -4  -2  10    0.79    0.32
  -4  -2  10    1.14    0.26
   3   2 -10   20.33    1.10
   3   2 -10   20.13    1.14
   3   2 -10   19.93    1.10
  -3  -2  10   22.42    1.25
  -3  -2  10   22.17    1.13
  -3  -2  10   18.94    0.97
  -3  -2  10   20.81    0.77
   2   2 -10    8.77    0.71
   2   2 -10    9.75    0.75
  -2  -2  10    8.34    0.67
  -2  -2  10    9.75    0.75
  -2  -2  10   10.29    0.82
  -2  -2  10    9.02    0.65
  -2  -2  10    9.13    0.49
   1   2 -10   24.61    1.06
   1   2 -10   23.71    0.84
   1   2 -10   25.37    1.16
   1   2 -10   24.30    1.11
  -1  -2  10   23.32    1.08
  -1  -2  10   23.28    1.12
  -1  -2  10   24.18    1.04
  -1  -2  10   24.60    0.83
  -1  -2  10   24.05    1.19
   0   2 -10    6.60    0.48
   0   2 -10    5.96    0.57
   0   2 -10    5.99    0.64
   0   2 -10    6.59    0.54
   0   2 -10    6.20    0.56
   0  -2  10    5.89    0.63
   0  -2  10    6.89    0.61
   0  -2  10    6.23    0.54
   0  -2  10    6.58    0.44
   0  -2  10    5.49    0.55
   0  -2  10    6.04    0.52
  -1   2 -10    3.44    0.45
  -1   2 -10    2.94    0.45
  -1   2 -10    2.45    0.46
  -1   2 -10    3.25    0.41
  -1   2 -10    2.46    0.44
   1  -2  10    3.02    0.51
   1  -2  10    3.11    0.42
   1  -2  10    3.74    0.52
   1  -2  10    3.39    0.36
   1  -2  10    2.79    0.45
  -2   2 -10    1.59    0.35
  -2   2 -10    1.32    0.37
  -2   2 -10    1.68    0.36
   2  -2  10    1.77    0.43
   2  -2  10    1.89    0.41
   2  -2  10    1.84    0.37
   2  -2  10    2.07    0.35
   2  -2  10    1.88    0.41
  -3   2 -10    0.25    0.28
  -3   2 -10    0.38    0.26
  -3   2 -10    0.62    0.36
   3  -2  10    0.53    0.29
   3  -2  10    0.29    0.26
   3  -2  10    1.19    0.37
  -4   2 -10    0.35    0.32
  -4   2 -10    0.07    0.21
  -4   2 -10    0.31    0.33
   4  -2  10    0.38    0.33
  -6  -1  10    2.00    0.79
  -6  -1  10    1.75    0.63
   5   1 -10   -0.11    0.28
   5   1 -10    0.36    0.37
   5   1 -10    0.49    0.32
  -5  -1  10    0.33    0.41
  -5  -1  10    0.62    0.32
  -5  -1  10    0.91    0.36
   4   1 -10    4.77    0.69
   4   1 -10    3.06    0.54
   4   1 -10    3.53    0.60
  -4  -1  10    4.30    0.61
  -4  -1  10    3.69    0.58
  -4  -1  10    4.41    0.74
   3   1 -10    3.94    0.60
   3   1 -10    4.62    0.68
   3   1 -10    5.14    0.69
  -3  -1  10    4.60    0.61
  -3  -1  10    5.18    0.75
  -3  -1  10    5.45    0.65
   2   1 -10   18.14    0.96
   2   1 -10   18.75    1.03
   2   1 -10   17.42    0.98
  -2  -1  10   17.25    0.95
  -2  -1  10   18.08    0.93
  -2  -1  10   17.78    0.63
  -2  -1  10   18.23    1.10
   1   1 -10   25.73    1.06
   1   1 -10   25.77    1.16
   1   1 -10   24.65    0.84
   1   1 -10   25.38    1.13
   1   1 -10   25.59    1.27
  -1  -1  10   29.36    1.25
  -1  -1  10   26.40    1.26
  -1  -1  10   25.57    1.11
  -1  -1  10   25.62    0.77
  -1  -1  10   24.36    1.11
   0   1 -10    3.65    0.52
   0   1 -10    4.34    0.63
   0   1 -10    4.67    0.42
   0   1 -10    4.98    0.60
   0   1 -10    3.55    0.45
   0  -1  10    3.55    0.32
   0  -1  10    3.85    0.62
   0  -1  10    4.94    0.61
   0  -1  10    4.63    0.49
   0  -1  10    4.95    0.59
  -1   1 -10    0.03    0.21
  -1   1 -10    0.08    0.19
  -1   1 -10   -0.19    0.16
  -1   1 -10    0.29    0.22
  -1   1 -10    0.03    0.28
   1  -1  10    0.00    0.15
   1  -1  10    0.02    0.23
   1  -1  10    0.09    0.19
   1  -1  10   -0.02    0.21
   1  -1  10    0.15    0.28
  -2   1 -10    0.09    0.24
  -2   1 -10    0.27    0.22
  -2   1 -10    0.15    0.27
   2  -1  10    0.14    0.27
   2  -1  10    0.41    0.38
   2  -1  10    0.94    0.33
   2  -1  10   -0.03    0.18
  -3   1 -10    1.65    0.38
  -3   1 -10    1.80    0.48
  -3   1 -10    1.37    0.36
   3  -1  10    1.30    0.34
  -4   1 -10    1.78    0.54
   4  -1  10    2.09    0.46
   6   0 -10    5.63    0.89
  -6   0  10    7.19    0.79
  -6   0  10    6.82    1.09
   5   0 -10    6.44    1.06
   5   0 -10    5.80    0.78
   5   0 -10    5.05    0.77
  -5   0  10    4.18    0.54
  -5   0  10    6.81    0.73
  -5   0  10    5.54    0.85
  -5   0  10    6.66    0.81
   4   0 -10    8.38    0.77
   4   0 -10    8.06    0.78
   4   0 -10    8.41    0.83
  -4   0  10    8.11    0.86
  -4   0  10    7.02    0.71
  -4   0  10    7.95    0.77
   3   0 -10    5.69    0.73
   3   0 -10    4.94    0.67
   3   0 -10    5.41    0.61
  -3   0  10    5.05    0.73
  -3   0  10    6.33    0.67
  -3   0  10    5.40    0.65
   2   0 -10    1.87    0.39
   2   0 -10    2.09    0.44
   2   0 -10    2.19    0.48
  -2   0  10    1.77    0.40
  -2   0  10    1.50    0.41
  -2   0  10    1.13    0.39
   1   0 -10   11.19    0.80
   1   0 -10    9.86    0.81
   1   0 -10   11.36    0.71
   1   0 -10   10.99    0.76
  -1   0  10   11.21    0.77
  -1   0  10   10.24    0.76
  -1   0  10   10.56    0.85
   0   0 -10    8.49    0.69
   0   0 -10    9.50    0.55
   0   0 -10    9.88    0.71
   0   0 -10    8.07    0.75
   0   0 -10    8.53    0.60
   0   0  10    8.41    0.75
   0   0  10    8.34    0.68
   0   0  10    9.85    0.68
  -1   0 -10    1.15    0.32
  -1   0 -10    0.81    0.26
  -1   0 -10    1.38    0.31
  -1   0 -10    0.52    0.25
  -1   0 -10    0.63    0.37
   1   0  10    0.34    0.28
   1   0  10    1.21    0.42
   1   0  10    0.82    0.30
  -2   0 -10    0.90    0.31
  -2   0 -10    1.46    0.35
   2   0  10    1.13    0.45
   2   0  10    1.46    0.34
   2   0  10    0.90    0.36
  -3   0 -10    1.12    0.34
   3   0  10    0.82    0.31
   5  -1 -10    3.83    0.75
   5  -1 -10    5.80    1.08
  -5   1  10    4.46    0.79
  -5   1  10    5.01    0.66
  -5   1  10    4.69    0.60
  -5   1  10    6.27    0.84
   4  -1 -10    6.82    0.73
   4  -1 -10    9.24    0.80
   4  -1 -10    6.32    0.80
  -4   1  10    6.71    0.88
  -4   1  10    6.45    0.55
  -4   1  10    6.94    0.70
  -4   1  10    7.36    0.77
   3  -1 -10    4.24    0.63
   3  -1 -10    4.86    0.64
  -3   1  10    3.48    0.61
  -3   1  10    3.94    0.58
  -3   1  10    4.10    0.68
   2  -1 -10    4.98    0.62
   2  -1 -10    5.07    0.55
   2  -1 -10    6.48    0.67
  -2   1  10    5.96    0.61
  -2   1  10    5.56    0.74
  -2   1  10    5.67    0.73
   1  -1 -10    2.17    0.38
   1  -1 -10    2.44    0.48
   1  -1 -10    2.33    0.44
  -1   1  10    2.43    0.48
  -1   1  10    2.22    0.43
  -1   1  10    3.43    0.61
   0  -1 -10    6.72    0.71
   0  -1 -10    5.81    0.60
   0  -1 -10    7.06    0.63
   0  -1 -10    6.32    0.54
   0   1  10    6.72    0.66
   0   1  10    5.38    0.72
   0   1  10    7.33    0.69
  -1  -1 -10    0.45    0.25
  -1  -1 -10    0.37    0.26
  -1  -1 -10    0.34    0.27
  -1  -1 -10    0.19    0.21
   1   1  10    0.40    0.25
   1   1  10    0.90    0.38
   1   1  10    0.46    0.31
  -2  -1 -10   20.23    0.92
   2   1  10   19.15    0.94
   2   1  10   19.91    1.21
   2   1  10   19.80    1.09
  -3  -1 -10   -0.05    0.28
   3   1  10    0.01    0.23
   5  -2 -10    4.41    0.78
  -5   2  10    4.68    0.57
  -5   2  10    3.41    0.80
  -5   2  10    4.66    0.84
   4  -2 -10    1.42    0.49
   4  -2 -10    0.54    0.33
  -4   2  10    1.29    0.54
  -4   2  10    1.10    0.48
  -4   2  10    1.31    0.33
  -4   2  10    1.07    0.39
   3  -2 -10    0.89    0.34
   3  -2 -10    0.80    0.32
  -3   2  10    0.46    0.21
  -3   2  10    0.57    0.37
  -3   2  10    0.51    0.40
  -3   2  10    0.58    0.31
   2  -2 -10    1.80    0.42
   2  -2 -10    1.77    0.42
   2  -2 -10    1.83    0.47
  -2   2  10    2.22    0.53
  -2   2  10    2.19    0.47
  -2   2  10    1.62    0.40
   1  -2 -10    4.48    0.58
   1  -2 -10    4.78    0.52
   1  -2 -10    4.37    0.60
  -1   2  10    3.94    0.61
  -1   2  10    4.36    0.67
  -1   2  10    4.14    0.56
   0  -2 -10    4.47    0.50
   0  -2 -10    3.81    0.55
   0  -2 -10    4.02    0.56
   0   2  10    4.11    0.57
   0   2  10    3.81    0.59
   0   2  10    3.50    0.60
  -1  -2 -10    5.25    0.53
  -1  -2 -10    4.20    0.64
   1   2  10    4.96    0.72
   1   2  10    4.44    0.60
  -2  -2 -10   -0.08    0.26
   2   2  10    0.12    0.43
   2   2  10    0.15    0.30
   4  -3 -10    3.64    0.70
  -4   3  10    4.64    0.81
   3  -3 -10    1.09    0.40
   3  -3 -10    1.34    0.42
  -3   3  10    1.49    0.51
  -3   3  10    1.47    0.40
   2  -3 -10    0.86    0.30
   2  -3 -10    1.32    0.40
   2  -3 -10    1.63    0.41
  -2   3  10    1.62    0.50
  -2   3  10    1.17    0.39
   1  -3 -10   -0.17    0.24
   1  -3 -10    0.41    0.31
   1  -3 -10    0.46    0.28
  -1   3  10    0.39    0.38
  -1   3  10    0.05    0.28
   0  -3 -10    0.17    0.26
   0  -3 -10    0.37    0.27
   0   3  10    0.25    0.38
   0   3  10    0.03    0.27
  -1  -3 -10    3.90    0.49
   1   3  10    3.83    0.68
  -2   4  10    1.07    0.49
   1  -4 -10    1.34    0.47
  -1   4  10    2.30    0.58
  -1 -11  11    2.74    0.52
   0 -11  11    0.86    0.33
   0 -11  11    0.70    0.26
   1 -11  11    0.78    0.29
   2 -11  11    3.22    0.50
  -2 -10  11    9.55    0.82
  -2 -10  11    8.46    0.87
  -1 -10  11    0.18    0.32
  -1 -10  11    0.15    0.20
  -1 -10  11    0.64    0.32
  -1 -10  11    0.51    0.29
   0  10 -11    1.86    0.53
   0 -10  11    1.80    0.42
   0 -10  11    1.30    0.33
   0 -10  11    2.18    0.45
   0 -10  11    2.51    0.40
  -1  10 -11    3.99    0.65
   1 -10  11    3.16    0.53
   1 -10  11    4.73    0.60
   1 -10  11    3.82    0.51
   1 -10  11    3.24    0.51
  -2  10 -11    2.81    0.59
   2 -10  11    2.08    0.43
   2 -10  11    2.07    0.50
   2 -10  11    2.74    0.45
   2 -10  11    1.99    0.47
  -3  10 -11    3.40    0.68
   3   9 -11    5.05    0.66
  -3  -9  11    7.73    0.99
   2   9 -11    0.56    0.41
   2   9 -11    0.77    0.31
  -2  -9  11    0.27    0.32
  -2  -9  11    0.63    0.30
  -2  -9  11    0.60    0.29
   1   9 -11    6.72    0.92
   1   9 -11    7.37    0.79
  -1  -9  11    8.50    0.72
  -1  -9  11    7.53    0.56
  -1  -9  11    7.78    0.70
  -1  -9  11    7.17    0.73
   0   9 -11    0.44    0.28
   0  -9  11    1.05    0.35
   0  -9  11    1.49    0.37
   0  -9  11    1.04    0.30
   0  -9  11    0.60    0.30
  -1   9 -11    2.35    0.56
   1  -9  11    3.01    0.49
   1  -9  11    3.43    0.58
   1  -9  11    3.33    0.48
   1  -9  11    2.85    0.45
  -2   9 -11    8.79    0.91
  -2   9 -11    8.62    0.84
   2  -9  11    8.39    0.66
   2  -9  11    9.24    0.68
   2  -9  11    8.39    0.75
   2  -9  11    8.82    0.68
  -3   9 -11    1.49    0.48
  -3   9 -11    1.76    0.54
   3  -9  11    1.47    0.42
   3  -9  11    1.05    0.31
   3  -9  11    1.40    0.42
   3  -9  11    1.71    0.42
  -4   9 -11    3.65    0.93
  -4   9 -11    4.43    0.65
   4  -9  11    3.70    0.54
   4   8 -11    2.77    0.62
  -4  -8  11    2.28    0.62
   3   8 -11    5.54    0.83
   3   8 -11    6.80    0.71
  -3  -8  11    5.73    0.81
  -3  -8  11    5.48    0.74
   2   8 -11   10.40    0.80
   2   8 -11   10.42    0.95
  -2  -8  11    9.66    0.66
  -2  -8  11    8.03    0.78
  -2  -8  11    9.54    0.74
  -2  -8  11    8.43    0.77
   1   8 -11    0.10    0.22
   1   8 -11   -0.07    0.30
  -1  -8  11    0.47    0.28
  -1  -8  11    0.12    0.23
  -1  -8  11    0.14    0.26
  -1  -8  11    0.39    0.19
   0   8 -11    0.99    0.31
   0   8 -11    1.82    0.48
   0  -8  11    1.66    0.33
   0  -8  11    2.00    0.42
   0  -8  11    1.53    0.39
   0  -8  11    1.11    0.34
  -1   8 -11    2.81    0.41
  -1   8 -11    4.25    0.68
   1  -8  11    2.96    0.50
   1  -8  11    3.23    0.49
   1  -8  11    3.09    0.54
   1  -8  11    3.76    0.52
  -2   8 -11    3.00    0.57
  -2   8 -11    2.54    0.58
   2  -8  11    2.03    0.39
   2  -8  11    2.69    0.48
   2  -8  11    2.58    0.44
   2  -8  11    2.62    0.44
  -3   8 -11    1.56    0.49
  -3   8 -11    1.21    0.46
  -3   8 -11    1.51    0.40
   3  -8  11    2.53    0.45
   3  -8  11    1.76    0.42
   3  -8  11    1.04    0.36
   3  -8  11    1.32    0.41
  -4   8 -11    6.92    0.71
   4  -8  11    8.58    0.71
   4   7 -11    1.42    0.49
   4   7 -11    1.18    0.42
  -4  -7  11    1.38    0.39
   3   7 -11    7.83    0.76
   3   7 -11    6.25    0.86
  -3  -7  11    8.74    0.83
  -3  -7  11    8.73    0.69
  -3  -7  11    7.33    0.76
   2   7 -11    4.98    0.70
   2   7 -11    6.25    0.68
  -2  -7  11    6.47    0.60
  -2  -7  11    5.20    0.67
  -2  -7  11    7.59    0.76
  -2  -7  11    6.39    0.56
   1   7 -11    2.50    0.47
   1   7 -11    3.17    0.60
  -1  -7  11    2.36    0.46
  -1  -7  11    2.87    0.43
  -1  -7  11    2.27    0.42
  -1  -7  11    2.67    0.51
   0   7 -11    0.01    0.27
   0   7 -11    0.01    0.23
   0  -7  11   -0.21    0.12
   0  -7  11    0.01    0.22
   0  -7  11   -0.08    0.18
   0  -7  11   -0.11    0.20
  -1   7 -11    4.09    0.65
  -1   7 -11    6.51    0.67
  -1   7 -11    5.35    0.52
   1  -7  11    5.86    0.58
   1  -7  11    5.60    0.57
   1  -7  11    5.52    0.58
   1  -7  11    5.71    0.54
  -2   7 -11   14.89    1.03
  -2   7 -11   14.07    0.78
  -2   7 -11   15.19    0.96
  -2   7 -11   15.13    0.99
   2  -7  11   13.48    0.88
   2  -7  11   14.92    0.89
   2  -7  11   14.39    0.84
   2  -7  11   15.12    0.86
  -3   7 -11    3.79    0.64
  -3   7 -11    3.03    0.55
  -3   7 -11    3.17    0.59
   3  -7  11    3.22    0.51
   3  -7  11    2.80    0.50
   3  -7  11    3.19    0.49
   3  -7  11    3.78    0.59
  -4   7 -11    2.73    0.52
   4  -7  11    2.71    0.49
   4  -7  11    3.10    0.56
   4  -7  11    2.72    0.48
   5   6 -11    3.74    0.79
   4   6 -11    5.85    0.84
   4   6 -11    6.27    0.86
  -4  -6  11    5.55    0.58
  -4  -6  11    5.62    0.81
   3   6 -11   13.69    0.98
   3   6 -11   12.43    0.99
  -3  -6  11   13.56    0.79
  -3  -6  11   12.80    1.00
  -3  -6  11   12.30    0.91
   2   6 -11   11.17    0.90
   2   6 -11    9.99    0.82
  -2  -6  11   11.86    0.91
  -2  -6  11   10.70    0.82
  -2  -6  11   10.21    0.70
  -2  -6  11   12.25    0.75
  -2  -6  11   12.25    0.79
   1   6 -11    2.11    0.41
   1   6 -11    1.42    0.42
  -1  -6  11    1.06    0.36
  -1  -6  11    1.28    0.35
  -1  -6  11    1.92    0.39
  -1  -6  11    2.33    0.39
   0   6 -11    3.06    0.53
   0   6 -11    3.63    0.53
   0   6 -11    3.41    0.50
   0  -6  11    3.83    0.53
   0  -6  11    3.14    0.51
   0  -6  11    4.04    0.51
   0  -6  11    3.43    0.45
  -1   6 -11    3.15    0.49
  -1   6 -11    2.02    0.40
  -1   6 -11    1.71    0.44
   1  -6  11    3.62    0.51
   1  -6  11    2.56    0.47
   1  -6  11    3.54    0.52
   1  -6  11    2.59    0.41
  -2   6 -11   40.85    1.44
  -2   6 -11   41.44    1.67
  -2   6 -11   42.07    1.65
  -2   6 -11   40.79    1.61
   2  -6  11   44.05    1.57
   2  -6  11   42.21    1.50
   2  -6  11   41.22    1.46
   2  -6  11   44.00    1.55
  -3   6 -11   20.25    1.17
  -3   6 -11   23.32    1.19
  -3   6 -11   22.36    1.22
  -3   6 -11   21.23    0.99
   3  -6  11   22.24    1.11
   3  -6  11   21.45    1.06
   3  -6  11   21.95    1.07
   3  -6  11   21.45    1.09
  -4   6 -11    4.94    0.70
   4  -6  11    4.48    0.62
   4  -6  11    4.76    0.63
   5   5 -11   -0.10    0.30
  -5  -5  11   -0.31    0.22
   4   5 -11    9.27    0.86
   4   5 -11    8.85    0.87
  -4  -5  11    9.55    0.86
  -4  -5  11    8.61    0.66
   3   5 -11    2.39    0.51
   3   5 -11    2.41    0.52
  -3  -5  11    2.37    0.51
  -3  -5  11    3.59    0.62
  -3  -5  11    2.64    0.41
   2   5 -11    2.17    0.49
   2   5 -11    2.51    0.49
  -2  -5  11    2.53    0.36
  -2  -5  11    1.60    0.42
  -2  -5  11    1.24    0.36
  -2  -5  11    1.99    0.39
   1   5 -11    8.08    0.73
   1   5 -11    7.71    0.69
  -1  -5  11    8.98    0.64
  -1  -5  11    9.39    0.63
  -1  -5  11    8.85    0.71
  -1  -5  11    6.93    0.69
   0   5 -11    3.80    0.51
   0   5 -11    3.26    0.48
   0  -5  11    3.23    0.46
   0  -5  11    3.74    0.52
   0  -5  11    3.85    0.55
   0  -5  11    3.41    0.45
  -1   5 -11    4.15    0.61
  -1   5 -11    3.02    0.47
  -1   5 -11    3.75    0.54
   1  -5  11    3.07    0.50
   1  -5  11    3.98    0.49
   1  -5  11    3.10    0.46
   1  -5  11    2.88    0.44
  -2   5 -11   23.16    1.20
  -2   5 -11   21.85    1.15
  -2   5 -11   25.02    1.18
  -2   5 -11   23.10    1.06
   2  -5  11   21.84    1.03
   2  -5  11   25.01    1.16
   2  -5  11   25.13    1.14
   2  -5  11   23.42    1.07
  -3   5 -11   27.29    1.31
  -3   5 -11   24.71    1.08
  -3   5 -11   27.38    1.31
  -3   5 -11   25.70    1.28
   3  -5  11   26.65    1.19
   3  -5  11   25.74    1.16
   3  -5  11   25.73    1.19
   3  -5  11   24.28    1.14
  -4   5 -11   14.39    0.84
  -4   5 -11   18.52    1.74
  -4   5 -11   14.91    1.01
   4  -5  11   14.78    0.96
   4  -5  11   14.34    1.27
   5   4 -11    1.28    0.45
  -5  -4  11    1.64    0.36
   4   4 -11    2.59    0.60
   4   4 -11    2.60    0.61
  -4  -4  11    3.92    0.48
  -4  -4  11    2.40    0.52
   3   4 -11    5.61    0.77
   3   4 -11    5.54    0.74
  -3  -4  11    5.74    0.92
  -3  -4  11    5.55    0.72
  -3  -4  11    4.61    0.76
  -3  -4  11    4.90    0.52
  -3  -4  11    5.91    0.51
   2   4 -11    3.65    0.57
   2   4 -11    3.70    0.59
  -2  -4  11    4.03    0.57
  -2  -4  11    3.96    0.62
  -2  -4  11    3.43    0.62
  -2  -4  11    4.14    0.45
  -2  -4  11    4.44    0.52
   1   4 -11   10.68    0.80
   1   4 -11   11.09    0.81
  -1  -4  11   11.14    0.65
  -1  -4  11   10.46    0.81
  -1  -4  11   10.91    0.79
  -1  -4  11   11.51    0.89
  -1  -4  11   13.03    0.76
   0   4 -11    7.26    0.61
   0   4 -11    6.22    0.62
   0   4 -11    6.07    0.56
   0  -4  11    5.31    0.51
   0  -4  11    4.90    0.81
   0  -4  11    5.62    0.49
   0  -4  11    5.76    0.63
   0  -4  11    5.55    0.57
  -1   4 -11    7.33    0.72
  -1   4 -11    7.23    0.63
  -1   4 -11    6.70    0.55
  -1   4 -11    6.47    0.61
   1  -4  11    6.85    0.66
   1  -4  11    6.81    0.58
   1  -4  11    6.72    0.57
   1  -4  11    8.47    0.68
  -2   4 -11    2.29    0.46
  -2   4 -11    3.95    0.54
  -2   4 -11    2.60    0.47
   2  -4  11    3.00    0.49
   2  -4  11    2.68    0.48
   2  -4  11    3.01    0.45
   2  -4  11    2.49    0.45
  -3   4 -11    2.71    0.46
  -3   4 -11    2.99    0.53
  -3   4 -11    2.96    0.53
   3  -4  11    2.66    0.48
   3  -4  11    3.19    0.53
   3  -4  11    3.52    0.51
   3  -4  11    3.03    0.49
  -4   4 -11    1.82    0.41
  -4   4 -11    1.53    0.44
   4  -4  11    2.00    0.48
  -5  -3  11    0.49    0.47
   4   3 -11    1.62    0.47
   4   3 -11    1.04    0.46
  -4  -3  11    1.85    0.53
  -4  -3  11    2.04    0.52
  -4  -3  11    1.61    0.34
   3   3 -11    0.92    0.39
   3   3 -11    1.21    0.43
  -3  -3  11    0.69    0.29
  -3  -3  11    1.44    0.51
  -3  -3  11    1.35    0.41
  -3  -3  11    1.52    0.28
   2   3 -11    3.01    0.54
   2   3 -11    2.66    0.53
  -2  -3  11    3.24    0.49
  -2  -3  11    1.90    0.44
  -2  -3  11    2.64    0.57
  -2  -3  11    2.36    0.48
  -2  -3  11    2.52    0.34
   1   3 -11    6.57    0.65
   1   3 -11    5.59    0.60
   1   3 -11    6.00    0.49
  -1  -3  11    6.42    0.49
  -1  -3  11    6.31    0.71
  -1  -3  11    5.97    0.58
  -1  -3  11    6.62    0.68
  -1  -3  11    6.48    0.64
   0   3 -11   10.28    0.66
   0   3 -11   11.55    0.88
   0   3 -11    9.12    0.72
   0   3 -11   10.95    0.73
   0  -3  11   10.00    0.68
   0  -3  11   11.04    0.78
   0  -3  11   10.55    0.84
   0  -3  11   10.32    0.79
   0  -3  11    9.43    0.59
  -1   3 -11    0.43    0.27
  -1   3 -11    0.77    0.30
  -1   3 -11    0.60    0.25
  -1   3 -11    0.33    0.30
   1  -3  11    0.27    0.24
   1  -3  11    0.32    0.24
   1  -3  11    0.83    0.33
   1  -3  11    0.71    0.25
  -2   3 -11    1.77    0.38
  -2   3 -11    1.86    0.45
  -2   3 -11    2.25    0.45
   2  -3  11    2.64    0.47
   2  -3  11    2.22    0.45
   2  -3  11    2.17    0.39
   2  -3  11    2.25    0.44
  -3   3 -11    2.93    0.50
  -3   3 -11    3.19    0.48
  -3   3 -11    3.11    0.57
   3  -3  11    3.25    0.53
   3  -3  11    3.49    0.53
   3  -3  11    3.19    0.48
   3  -3  11    3.50    0.55
  -4   3 -11    0.99    0.46
  -5  -2  11    0.12    0.42
   4   2 -11    0.90    0.43
   4   2 -11    0.56    0.32
  -4  -2  11   -0.01    0.42
  -4  -2  11    0.24    0.31
  -4  -2  11   -0.08    0.30
   3   2 -11   14.31    0.98
   3   2 -11   12.84    0.99
   3   2 -11   13.31    0.96
  -3  -2  11   15.94    0.95
  -3  -2  11   12.22    0.93
  -3  -2  11   14.13    1.08
   2   2 -11    8.91    0.75
  -2  -2  11    9.60    0.77
  -2  -2  11    8.14    0.82
  -2  -2  11    8.35    0.69
   1   2 -11    8.99    0.78
   1   2 -11    7.11    0.65
  -1  -2  11    7.97    0.66
  -1  -2  11    7.69    0.77
  -1  -2  11    7.51    0.70
  -1  -2  11    8.38    0.68
   0   2 -11    6.37    0.72
   0   2 -11    6.75    0.52
   0   2 -11    6.83    0.58
   0   2 -11    5.31    0.59
   0  -2  11    6.27    0.67
   0  -2  11    6.77    0.74
   0  -2  11    7.03    0.61
   0  -2  11    6.38    0.64
  -1   2 -11   10.48    0.77
  -1   2 -11   11.16    0.90
  -1   2 -11   10.62    0.66
  -1   2 -11    8.97    0.65
   1  -2  11   10.14    0.68
   1  -2  11   11.07    1.09
   1  -2  11   10.47    0.78
   1  -2  11   12.02    0.95
  -2   2 -11    1.07    0.35
  -2   2 -11    1.90    0.41
  -2   2 -11    1.06    0.44
   2  -2  11    1.42    0.34
   2  -2  11    1.02    0.36
  -3   2 -11    1.27    0.38
  -3   2 -11    1.31    0.44
   3  -2  11    1.55    0.38
  -5  -1  11    3.16    0.90
  -5  -1  11    1.60    0.59
   4   1 -11   -0.18    0.29
   4   1 -11    0.00    0.30
   4   1 -11    0.02    0.30
  -4  -1  11   -0.04    0.28
  -4  -1  11   -0.05    0.29
  -4  -1  11    0.62    0.46
   3   1 -11    8.06    0.79
   3   1 -11    8.27    0.81
   3   1 -11    8.77    0.80
  -3  -1  11    9.35    0.82
  -3  -1  11    8.28    0.87
  -3  -1  11    7.16    0.73
   2   1 -11    4.80    0.65
   2   1 -11    4.80    0.62
   2   1 -11    5.24    0.68
  -2  -1  11    4.31    0.68
  -2  -1  11    4.25    0.61
  -2  -1  11    4.20    0.60
   1   1 -11   10.91    0.84
   1   1 -11   12.07    0.78
   1   1 -11   11.12    0.82
  -1  -1  11   10.17    0.91
  -1  -1  11   10.08    0.79
  -1  -1  11   11.39    0.80
   0   1 -11    3.38    0.52
   0   1 -11    2.60    0.43
   0   1 -11    3.51    0.63
   0  -1  11    4.16    0.66
   0  -1  11    2.65    0.46
   0  -1  11    2.86    0.50
  -1   1 -11    1.35    0.37
  -1   1 -11    2.05    0.37
  -1   1 -11    1.05    0.33
  -1   1 -11    1.32    0.47
   1  -1  11    1.24    0.33
   1  -1  11    1.91    0.49
   1  -1  11    2.03    0.45
  -2   1 -11    2.70    0.52
  -2   1 -11    3.01    0.47
   2  -1  11    3.48    0.65
   2  -1  11    1.98    0.40
  -3   1 -11    1.39    0.39
   3  -1  11    1.80    0.41
   5   0 -11   -0.03    0.33
  -5   0  11    0.40    0.45
  -5   0  11    0.90    0.48
  -5   0  11    1.22    0.60
   4   0 -11    0.19    0.30
  -4   0  11    0.46    0.46
  -4   0  11   -0.21    0.29
  -4   0  11    0.25    0.38
   3   0 -11    4.74    0.65
   3   0 -11    4.61    0.68
   3   0 -11    4.33    0.69
  -3   0  11    4.78    0.68
  -3   0  11    4.36    0.65
  -3   0  11    5.08    0.79
   2   0 -11    5.86    0.75
   2   0 -11    4.02    0.63
   2   0 -11    5.00    0.59
  -2   0  11    4.87    0.66
  -2   0  11    3.70    0.68
  -2   0  11    5.06    0.66
   1   0 -11    4.87    0.63
   1   0 -11    3.39    0.52
   1   0 -11    5.11    0.57
  -1   0  11    5.32    0.66
  -1   0  11    4.32    0.60
  -1   0  11    4.44    0.65
   0   0 -11    6.90    0.66
   0   0 -11    7.47    0.62
   0   0  11    8.43    0.74
   0   0  11    7.40    0.70
   0   0  11    7.69    0.80
  -1   0 -11    4.95    0.66
   1   0  11    6.12    0.60
   1   0  11    6.57    0.71
   1   0  11    5.71    0.77
  -2   0 -11    0.22    0.28
   2   0  11    0.02    0.27
   4  -1 -11    3.17    0.66
  -4   1  11    2.82    0.47
  -4   1  11    3.20    0.61
  -4   1  11    4.08    0.72
  -4   1  11    2.72    0.66
   3  -1 -11    5.75    0.76
   3  -1 -11    5.47    0.91
  -3   1  11    8.07    0.88
  -3   1  11    7.14    0.75
  -3   1  11    7.20    0.87
  -3   1  11    6.95    0.62
   2  -1 -11    5.93    0.77
   2  -1 -11    6.60    0.66
   2  -1 -11    5.28    0.71
  -2   1  11    4.42    0.74
  -2   1  11    7.41    0.78
  -2   1  11    6.62    0.68
   1  -1 -11    1.03    0.37
   1  -1 -11    0.63    0.32
   1  -1 -11    0.21    0.30
  -1   1  11    0.70    0.45
  -1   1  11    0.23    0.31
  -1   1  11    0.66    0.39
   0  -1 -11    5.28    0.59
   0   1  11    4.55    0.74
   0   1  11    4.49    0.60
   1   1  11    7.92    0.87
  -3   2  11    3.39    0.68
  -3   2  11    3.81    0.60
   2  -2 -11    4.76    0.85
   2  -2 -11    5.06    0.71
  -2   2  11    4.14    0.62
  -2   2  11    4.79    0.77
   1  -2 -11    2.18    0.43
   1  -2 -11    2.14    0.44
  -1   2  11    1.59    0.53
  -1   2  11    1.59    0.43
   0  -2 -11    3.60    0.52
   0   2  11    3.31    0.63
  -1 -10  12    4.05    0.62
  -1 -10  12    3.67    0.51
   0 -10  12   10.17    0.69
   0 -10  12    8.11    0.73
   1 -10  12    5.65    0.71
   1 -10  12    4.53    0.63
   2 -10  12    3.03    0.51
   2   9 -12   -0.12    0.46
  -2  -9  12    0.06    0.32
  -2  -9  12    0.43    0.36
  -1  -9  12    7.55    0.61
  -1  -9  12    6.68    0.71
  -1  -9  12    8.09    0.72
  -1  -9  12    5.66    0.77
   0   9 -12    2.63    0.70
   0  -9  12    2.60    0.47
   0  -9  12    2.64    0.47
   0  -9  12    2.46    0.51
   0  -9  12    3.01    0.49
  -1   9 -12    7.94    1.03
   1  -9  12    6.79    0.68
   1  -9  12    7.81    0.71
   1  -9  12    7.01    0.65
   1  -9  12    6.59    0.60
  -2   9 -12    2.61    0.60
  -2   9 -12    2.64    0.62
   2  -9  12    2.07    0.81
   2  -9  12    1.88    0.44
  -3   9 -12    3.65    0.68
   3  -9  12    2.46    0.47
   3   8 -12   12.24    0.98
  -3  -8  12   11.86    1.04
   2   8 -12    1.97    0.45
  -2  -8  12    1.22    0.44
  -2  -8  12    1.80    0.49
  -2  -8  12    1.76    0.47
   1   8 -12   -0.03    0.28
   1   8 -12   -0.17    0.26
  -1  -8  12    0.01    0.24
  -1  -8  12    0.02    0.23
  -1  -8  12   -0.41    0.17
  -1  -8  12    0.02    0.17
   0   8 -12    0.42    0.33
   0   8 -12    0.45    0.32
   0  -8  12    0.46    0.25
   0  -8  12    0.18    0.27
   0  -8  12    0.47    0.31
   0  -8  12    0.30    0.27
  -1   8 -12    1.97    0.55
   1  -8  12    1.91    0.45
   1  -8  12    2.24    0.44
   1  -8  12    1.59    0.40
   1  -8  12    2.01    0.42
  -2   8 -12    4.69    0.77
  -2   8 -12    2.15    0.54
   2  -8  12    2.64    0.50
   2  -8  12    2.38    0.44
   2  -8  12    2.62    0.50
   2  -8  12    2.75    0.59
  -3   8 -12    8.22    0.81
  -3   8 -12    9.14    0.94
   3  -8  12    9.20    0.74
   3   7 -12   10.20    0.90
  -3  -7  12    8.74    0.89
  -3  -7  12    9.81    0.74
   2   7 -12    2.83    0.63
   2   7 -12    3.80    0.66
  -2  -7  12    1.44    0.45
  -2  -7  12    2.97    0.50
  -2  -7  12    2.71    0.54
   1   7 -12    1.25    0.50
   1   7 -12    1.23    0.36
  -1  -7  12    1.28    0.34
  -1  -7  12    1.25    0.44
  -1  -7  12    1.25    0.38
  -1  -7  12    1.32    0.39
   0   7 -12    1.56    0.47
   0   7 -12    2.03    0.47
   0  -7  12    1.53    0.40
   0  -7  12    1.48    0.35
   0  -7  12    2.03    0.44
   0  -7  12    1.48    0.40
  -1   7 -12    3.50    0.61
  -1   7 -12    2.85    0.48
  -1   7 -12    2.63    0.52
   1  -7  12    3.09    0.53
   1  -7  12    2.30    0.46
   1  -7  12    2.87    0.47
   1  -7  12    2.95    0.54
  -2   7 -12    0.40    0.37
  -2   7 -12    0.32    0.24
  -2   7 -12    1.03    0.41
   2  -7  12    0.53    0.36
   2  -7  12    0.59    0.29
   2  -7  12    0.50    0.30
   2  -7  12    0.79    0.36
  -3   7 -12   13.52    1.01
  -3   7 -12   12.35    1.09
  -3   7 -12   13.29    1.04
   3  -7  12   12.15    0.88
   3  -7  12   13.91    0.91
   3  -7  12   13.65    0.93
  -4  -6  12    6.13    0.63
   3   6 -12    5.17    0.81
   3   6 -12    4.36    0.73
  -3  -6  12    4.22    0.53
   2   6 -12    0.16    0.32
   2   6 -12    0.36    0.32
  -2  -6  12    0.34    0.26
  -2  -6  12    0.05    0.28
  -2  -6  12    0.27    0.31
   1   6 -12    2.61    0.52
   1   6 -12    4.17    0.73
  -1  -6  12    2.92    0.45
  -1  -6  12    2.66    0.50
  -1  -6  12    3.56    0.63
  -1  -6  12    3.16    0.48
   0   6 -12    5.61    0.70
   0   6 -12    4.40    0.68
   0   6 -12    5.38    0.60
   0  -6  12    5.81    0.62
   0  -6  12    4.83    0.53
   0  -6  12    3.75    0.57
   0  -6  12    5.44    0.54
  -1   6 -12    1.24    0.37
  -1   6 -12    1.17    0.34
  -1   6 -12    0.73    0.40
   1  -6  12    0.77    0.32
   1  -6  12    0.49    0.31
   1  -6  12    1.43    0.39
   1  -6  12    1.47    0.40
  -2   6 -12    2.47    0.50
  -2   6 -12    2.39    0.57
  -2   6 -12    3.51    0.64
  -2   6 -12    2.05    0.44
   2  -6  12    3.24    0.55
   2  -6  12    2.08    0.46
   2  -6  12    3.23    0.53
   2  -6  12    2.72    0.51
  -3   6 -12    4.14    0.69
  -3   6 -12    4.32    0.57
  -3   6 -12    3.06    0.62
  -3   6 -12    5.28    0.77
   3  -6  12    3.51    0.82
   3  -6  12    3.69    0.57
   3  -6  12    4.33    0.62
  -4  -5  12    3.82    0.50
   3   5 -12    2.20    0.55
   3   5 -12    2.50    0.57
   3   5 -12    1.34    0.46
  -3  -5  12    2.81    0.45
  -3  -5  12    2.92    0.61
   2   5 -12    0.43    0.29
   2   5 -12    0.19    0.32
  -2  -5  12    0.71    0.34
  -2  -5  12    1.01    0.38
  -2  -5  12    0.76    0.30
  -2  -5  12    0.62    0.28
   1   5 -12    8.14    0.77
   1   5 -12    6.82    0.71
  -1  -5  12    5.76    0.75
  -1  -5  12    7.19    0.63
  -1  -5  12    7.33    0.59
  -1  -5  12    7.14    0.71
   0   5 -12    4.06    0.59
   0   5 -12    3.69    0.52
   0   5 -12    4.32    0.60
   0  -5  12    2.59    0.48
   0  -5  12    3.90    0.57
   0  -5  12    3.71    0.49
   0  -5  12    4.30    0.48
  -1   5 -12    0.93    0.40
  -1   5 -12    0.72    0.31
  -1   5 -12    1.15    0.37
   1  -5  12    1.05    0.37
   1  -5  12    0.91    0.33
   1  -5  12    1.27    0.38
   1  -5  12    0.85    0.33
  -2   5 -12    4.02    0.75
  -2   5 -12    4.92    0.68
  -2   5 -12    3.26    0.53
   2  -5  12    4.63    0.62
   2  -5  12    4.37    0.59
   2  -5  12    3.88    0.55
   2  -5  12    3.57    0.56
  -3   5 -12    1.88    0.47
  -3   5 -12    1.55    0.45
  -3   5 -12    1.07    0.49
  -3   5 -12    1.39    0.38
   3  -5  12    1.78    0.48
   3  -5  12    1.19    0.40
   3   4 -12    2.53    0.55
   3   4 -12    4.10    0.69
  -3  -4  12    4.22    0.69
   2   4 -12    3.77    0.63
   2   4 -12    3.08    0.60
  -2  -4  12    2.82    0.56
  -2  -4  12    3.16    0.41
  -2  -4  12    3.33    0.51
   1   4 -12    4.50    0.64
   1   4 -12    7.29    0.72
  -1  -4  12    5.66    0.73
  -1  -4  12    6.39    0.63
  -1  -4  12    7.45    0.72
  -1  -4  12    6.32    0.53
   0   4 -12    1.74    0.40
   0   4 -12    1.88    0.45
   0   4 -12    1.93    0.44
   0  -4  12    1.17    0.33
   0  -4  12    2.26    0.48
   0  -4  12    2.05    0.34
   0  -4  12    1.54    0.39
  -1   4 -12    4.64    0.62
  -1   4 -12    4.38    0.59
  -1   4 -12    4.77    0.71
   1  -4  12    4.24    0.59
   1  -4  12    4.69    0.52
   1  -4  12    5.34    0.57
   1  -4  12    5.08    0.64
  -2   4 -12    0.59    0.33
  -2   4 -12    0.22    0.37
  -2   4 -12    0.27    0.27
   2  -4  12    0.43    0.31
   2  -4  12    0.14    0.25
   2  -4  12    0.07    0.27
   2  -4  12    0.17    0.31
  -3   4 -12    0.69    0.41
  -3   4 -12    0.79    0.38
  -3   4 -12    0.60    0.45
   3   3 -12    3.37    0.65
   3   3 -12    4.00    0.67
  -3  -3  12    4.73    0.62
  -3  -3  12    4.93    1.23
  -3  -3  12    3.60    0.65
   2   3 -12    5.45    0.76
   2   3 -12    6.62    0.75
  -2  -3  12    7.24    0.75
  -2  -3  12    7.84    1.18
  -2  -3  12    7.30    0.68
   1   3 -12    9.76    0.83
   1   3 -12    9.90    0.81
  -1  -3  12    8.63    0.71
  -1  -3  12   10.55    0.78
  -1  -3  12   10.15    0.85
   0   3 -12   11.48    0.86
   0   3 -12   11.51    0.98
   0   3 -12   10.98    0.79
   0  -3  12   12.52    0.89
   0  -3  12   11.84    0.81
  -1   3 -12    1.13    0.37
  -1   3 -12    0.56    0.38
  -1   3 -12    0.69    0.36
   1  -3  12    0.67    0.36
   1  -3  12    0.69    0.29
  -2   3 -12    1.00    0.46
  -2   3 -12    1.03    0.49
  -2   3 -12    0.99    0.36
  -3   3 -12    0.08    0.36
  -3   3 -12    0.26    0.52
  -4  -2  12    0.91    0.53
  -4  -2  12    1.03    0.67
   3   2 -12    1.70    0.51
  -3  -2  12    1.42    0.47
  -3  -2  12    2.71    0.57
  -3  -2  12    1.48    0.57
   2   2 -12   18.09    1.10
  -2  -2  12   18.73    1.05
  -2  -2  12   20.02    1.28
  -2  -2  12   16.54    1.05
   1   2 -12    7.83    0.72
   1   2 -12    9.42    0.80
  -1  -2  12    6.15    0.77
  -1  -2  12    8.32    0.74
  -1  -2  12    7.88    0.88
   0   2 -12    6.17    0.63
   0   2 -12    6.12    0.67
   0  -2  12    6.75    0.65
   0  -2  12    6.08    0.73
   1  -2  12    1.15    0.35
  -2   2 -12    0.86    0.36
  -4  -1  12    2.91    0.61
  -4  -1  12    2.11    0.66
   3   1 -12    1.64    0.57
  -3  -1  12    3.44    0.63
  -3  -1  12    2.35    0.65
   2   1 -12    4.14    0.60
  -2  -1  12    4.43    0.74
  -2  -1  12    3.35    0.59
  -2  -1  12    3.74    0.64
   1   1 -12    0.76    0.33
  -1  -1  12    1.53    0.55
  -1  -1  12    1.21    0.43
  -1  -1  12    1.17    0.42
   0   1 -12    3.30    0.51
   0  -1  12    3.77    0.58
   0  -1  12    2.73    0.53
  -3   0  12   11.05    1.10
   2   0 -12    3.76    0.60
  -2   0  12    2.56    0.63
   1   0 -12    0.37    0.31
  -1   0  12    0.33    0.39
   0   0 -12    7.36    0.73
   0   0  12    8.16    0.90
   2   8 -13    1.01    0.42
  -2  -8  13    1.34    0.52
   1   8 -13    0.59    0.38
  -1  -8  13    0.29    0.32
  -1  -8  13    0.07    0.28
   0   8 -13    2.15    0.55
   0  -8  13    2.33    0.47
   0  -8  13    1.67    0.48
   1  -8  13    0.59    0.35
   1  -8  13    0.76    0.36
   2   7 -13    1.76    0.51
  -2  -7  13    1.93    0.44
  -2  -7  13    1.39    0.49
   1   7 -13    2.11    0.52
  -1  -7  13    1.36    0.39
  -1  -7  13    1.45    0.46
   0   7 -13    0.48    0.35
   0  -7  13    0.39    0.33
   0  -7  13    0.45    0.34
  -1   7 -13    2.07    0.52
  -1   7 -13    1.63    0.45
   1  -7  13    1.85    0.42
   1  -7  13    1.54    0.40
  -2   7 -13    7.29    0.89
   2  -7  13    5.00    0.72
   2  -7  13    5.36    0.68
  -3  -6  13    0.73    0.31
   2   6 -13    3.32    0.75
  -2  -6  13    3.60    0.50
   1   6 -13    7.20    0.75
  -1  -6  13    7.52    0.81
  -1  -6  13    7.71    0.68
   0   6 -13    7.79    0.78
   0  -6  13    5.95    0.78
   0  -6  13    9.39    0.74
  -1   6 -13    3.20    0.55
  -1   6 -13    2.75    0.53
   1  -6  13    2.31    0.43
   1  -6  13    1.80    0.47
  -2   6 -13    0.59    0.39
  -2   6 -13    0.19    0.34
  -2   6 -13    0.64    0.38
   2  -6  13    0.23    0.33
   2  -6  13    0.36    0.30
   2   5 -13    0.21    0.35
   1   5 -13    3.02    0.60
   1   5 -13    5.44    0.75
  -1  -5  13    3.87    0.53
   0   5 -13    5.11    0.72
  -1   5 -13    1.16    0.48
  -1   5 -13    0.91    0.37
  -1   5 -13    1.23    0.50
   1  -5  13    1.16    0.60
  -2   5 -13    2.18    0.56
  -2   5 -13    2.58    0.61
   2   4 -13    8.08    0.88
  -2  -4  13    8.34    0.75
   1   4 -13    1.27    0.45
  -1  -4  13    0.50    0.35
  -1   4 -13    6.99    0.92
   2   3 -13    8.91    0.88
  -2  -3  13   10.08    0.85
   1   3 -13    0.71    0.38
  -1  -3  13    1.22    0.40
   2   2 -13   13.32    1.14
  -2  -2  13   14.18    1.03
   1   2 -13    0.22    0.28
   0   0   0    0.00    0.00
;
_shelx_hkl_checksum              86154
_shelx_shelxl_version_number     2014/7
_olex2_submission_special_instructions 'No special instructions were received'
loop_
_space_group_symop_operation_xyz
'x, y, z'
loop_
_atom_site_label
_atom_site_type_symbol
_atom_site_fract_x
_atom_site_fract_y
_atom_site_fract_z
_atom_site_U_iso_or_equiv
_atom_site_adp_type
_atom_site_occupancy
_atom_site_site_symmetry_order
_atom_site_calc_flag
_atom_site_refinement_flags_posn
S1 S 0.75431(6) 0.58600(5) 0.63231(5) 0.01824(11) Uani 1 1 d .
O1 O 0.1106(5) 1.0596(3) 0.9498(3) 0.0704(8) Uani 1 1 d .
O2 O 0.0388(4) 0.9047(3) 1.0513(3) 0.0642(7) Uani 1 1 d .
O3 O 0.8825(3) 0.67716(19) 0.57307(18) 0.0300(4) Uani 1 1 d .
O4 O 0.8597(2) 0.53237(18) 0.72543(16) 0.0237(3) Uani 1 1 d .
O5 O 0.0761(3) 1.08534(17) 0.61198(18) 0.0265(3) Uani 1 1 d .
O6 O 0.3950(3) 1.24529(17) 0.62944(17) 0.0263(3) Uani 1 1 d .
N1 N 0.1337(4) 0.9477(3) 0.9692(3) 0.0485(7) Uani 1 1 d .
N2 N 0.5983(3) 0.43174(19) 0.49532(17) 0.0162(3) Uani 1 1 d D
H2 H 0.542(4) 0.366(2) 0.527(2) 0.011(5) Uiso 1 1 d D
C1 C 0.2944(4) 0.8617(3) 0.8880(3) 0.0325(6) Uani 1 1 d .
C2 C 0.3084(4) 0.7273(3) 0.8980(3) 0.0287(5) Uani 1 1 d .
H2A H 0.2231 0.6933 0.9575 0.034 Uiso 1 1 calc R
C3 C 0.4508(3) 0.6432(2) 0.8184(2) 0.0226(4) Uani 1 1 d .
H3 H 0.4621 0.5489 0.8209 0.027 Uiso 1 1 calc R
C4 C 0.5765(4) 0.6977(2) 0.7350(2) 0.0201(4) Uani 1 1 d .
C5 C 0.5613(4) 0.8349(3) 0.7279(2) 0.0311(5) Uani 1 1 d .
H5 H 0.6490 0.8713 0.6708 0.037 Uiso 1 1 calc R
C6 C 0.4156(5) 0.9174(3) 0.8058(3) 0.0387(6) Uani 1 1 d .
H6 H 0.4004 1.0106 0.8021 0.046 Uiso 1 1 calc R
C7 C 0.4508(3) 0.4527(2) 0.3873(2) 0.0163(4) Uani 1 1 d .
H7 H 0.4261 0.5599 0.4399 0.020 Uiso 1 1 calc R
C8 C 0.2266(3) 0.3372(3) 0.3486(2) 0.0226(4) Uani 1 1 d .
H8A H 0.2475 0.2310 0.3126 0.034 Uiso 1 1 calc GR
H8B H 0.1322 0.3432 0.2707 0.034 Uiso 1 1 calc GR
H8C H 0.1569 0.3635 0.4378 0.034 Uiso 1 1 calc GR
C9 C 0.5567(3) 0.4446(2) 0.2530(2) 0.0166(4) Uani 1 1 d .
C10 C 0.6494(3) 0.3196(2) 0.1699(2) 0.0190(4) Uani 1 1 d .
C11 C 0.7518(4) 0.3208(3) 0.0517(2) 0.0246(4) Uani 1 1 d .
H11 H 0.8128 0.2359 -0.0048 0.030 Uiso 1 1 calc R
C12 C 0.7666(4) 0.4434(3) 0.0146(2) 0.0275(5) Uani 1 1 d .
H12 H 0.8377 0.4424 -0.0661 0.033 Uiso 1 1 calc R
C13 C 0.6776(4) 0.5661(3) 0.0958(2) 0.0245(4) Uani 1 1 d .
H13 H 0.6901 0.6510 0.0719 0.029 Uiso 1 1 calc R
C14 C 0.5690(3) 0.5673(2) 0.2131(2) 0.0182(4) Uani 1 1 d .
C15 C 0.6501(4) 0.1834(2) 0.2045(2) 0.0211(4) Uani 1 1 d .
H15A H 0.7085 0.1054 0.1267 0.032 Uiso 1 1 calc GR
H15B H 0.4994 0.1362 0.2079 0.032 Uiso 1 1 calc GR
H15C H 0.7428 0.2204 0.3013 0.032 Uiso 1 1 calc GR
C16 C 0.4801(3) 0.7067(2) 0.2959(2) 0.0175(4) Uani 1 1 d .
C17 C 0.2643(3) 0.6940(2) 0.3265(2) 0.0187(4) Uani 1 1 d .
H17 H 0.1651 0.5940 0.2861 0.022 Uiso 1 1 calc R
C18 C 0.1937(3) 0.8252(2) 0.4148(2) 0.0190(4) Uani 1 1 d .
H18 H 0.0485 0.8146 0.4373 0.023 Uiso 1 1 calc R
C19 C 0.3356(3) 0.9727(2) 0.4707(2) 0.0180(4) Uani 1 1 d .
C20 C 0.5451(3) 0.9878(2) 0.4324(2) 0.0203(4) Uani 1 1 d .
H20 H 0.6395 1.0886 0.4657 0.024 Uiso 1 1 calc R
C21 C 0.6162(3) 0.8558(2) 0.3456(2) 0.0209(4) Uani 1 1 d .
H21 H 0.7592 0.8671 0.3198 0.025 Uiso 1 1 calc R
C22 C 0.2752(3) 1.1151(2) 0.5768(2) 0.0190(4) Uani 1 1 d .
C23 C 0.0144(4) 1.2198(3) 0.7221(3) 0.0324(5) Uani 1 1 d .
H23A H 0.1196 1.2655 0.8153 0.049 Uiso 1 1 calc GR
H23B H -0.1336 1.1871 0.7406 0.049 Uiso 1 1 calc GR
H23C H 0.0155 1.2975 0.6849 0.049 Uiso 1 1 calc GR
loop_
_atom_site_aniso_label
_atom_site_aniso_U_11
_atom_site_aniso_U_22
_atom_site_aniso_U_33
_atom_site_aniso_U_23
_atom_site_aniso_U_13
_atom_site_aniso_U_12
S1 0.0161(2) 0.0191(2) 0.0197(2) 0.01061(18) 0.00005(17) 0.00106(17)
O1 0.0912(19) 0.0619(15) 0.0533(13) 0.0067(11) -0.0029(12) 0.0609(14)
O2 0.0494(14) 0.0519(14) 0.0729(16) 0.0049(12) 0.0265(12) 0.0226(11)
O3 0.0251(8) 0.0322(9) 0.0342(9) 0.0211(7) 0.0034(7) -0.0044(7)
O4 0.0197(7) 0.0297(8) 0.0244(7) 0.0149(6) -0.0002(6) 0.0070(6)
O5 0.0271(8) 0.0198(7) 0.0346(8) 0.0102(6) 0.0165(7) 0.0115(6)
O6 0.0354(9) 0.0169(7) 0.0280(8) 0.0108(6) 0.0109(7) 0.0060(6)
N1 0.0414(14) 0.0375(13) 0.0402(13) -0.0087(11) -0.0134(11) 0.0222(11)
N2 0.0185(8) 0.0163(8) 0.0157(7) 0.0087(6) 0.0042(6) 0.0044(6)
C1 0.0309(12) 0.0268(12) 0.0241(11) -0.0037(9) -0.0093(9) 0.0141(10)
C2 0.0217(10) 0.0251(11) 0.0268(11) 0.0018(9) -0.0011(9) 0.0036(9)
C3 0.0219(10) 0.0173(10) 0.0235(10) 0.0054(8) -0.0002(8) 0.0044(8)
C4 0.0241(10) 0.0147(9) 0.0159(9) 0.0032(7) -0.0049(8) 0.0041(8)
C5 0.0519(15) 0.0198(10) 0.0208(10) 0.0089(8) -0.0022(10) 0.0104(10)
C6 0.0649(18) 0.0234(12) 0.0238(11) 0.0041(9) -0.0089(11) 0.0232(12)
C7 0.0160(9) 0.0183(9) 0.0148(8) 0.0076(7) 0.0020(7) 0.0043(7)
C8 0.0176(10) 0.0249(11) 0.0251(10) 0.0123(9) 0.0031(8) 0.0020(8)
C9 0.0167(9) 0.0193(9) 0.0137(8) 0.0070(7) 0.0019(7) 0.0054(7)
C10 0.0210(10) 0.0198(10) 0.0167(9) 0.0080(8) 0.0019(7) 0.0070(8)
C11 0.0309(11) 0.0259(11) 0.0202(10) 0.0096(8) 0.0086(8) 0.0147(9)
C12 0.0374(13) 0.0345(12) 0.0215(10) 0.0168(9) 0.0152(9) 0.0191(10)
C13 0.0342(11) 0.0275(11) 0.0218(10) 0.0158(9) 0.0101(8) 0.0160(9)
C14 0.0193(9) 0.0209(9) 0.0166(9) 0.0086(8) 0.0035(7) 0.0093(8)
C15 0.0243(10) 0.0176(10) 0.0214(9) 0.0076(8) 0.0044(8) 0.0077(8)
C16 0.0219(9) 0.0202(10) 0.0154(9) 0.0103(8) 0.0047(7) 0.0098(8)
C17 0.0188(9) 0.0182(9) 0.0202(9) 0.0098(8) 0.0021(7) 0.0043(8)
C18 0.0176(9) 0.0214(10) 0.0238(9) 0.0138(8) 0.0062(8) 0.0076(8)
C19 0.0228(10) 0.0192(9) 0.0185(9) 0.0125(8) 0.0068(7) 0.0090(8)
C20 0.0207(10) 0.0185(10) 0.0266(10) 0.0143(8) 0.0047(8) 0.0050(8)
C21 0.0196(10) 0.0257(10) 0.0252(10) 0.0161(9) 0.0094(8) 0.0095(8)
C22 0.0251(10) 0.0179(9) 0.0204(9) 0.0128(8) 0.0066(8) 0.0081(8)
C23 0.0384(13) 0.0253(11) 0.0343(12) 0.0086(10) 0.0192(10) 0.0169(10)
loop_
_atom_type_symbol
_atom_type_description
_atom_type_scat_dispersion_real
_atom_type_scat_dispersion_imag
_atom_type_scat_source
C C 0.0033 0.0016 'International Tables Vol C Tables 4.2.6.8 and 6.1.1.4'
H H 0.0000 0.0000 'International Tables Vol C Tables 4.2.6.8 and 6.1.1.4'
N N 0.0061 0.0033 'International Tables Vol C Tables 4.2.6.8 and 6.1.1.4'
O O 0.0106 0.0060 'International Tables Vol C Tables 4.2.6.8 and 6.1.1.4'
S S 0.1246 0.1234 'International Tables Vol C Tables 4.2.6.8 and 6.1.1.4'
loop_
_geom_angle_atom_site_label_1
_geom_angle_atom_site_label_2
_geom_angle_atom_site_label_3
_geom_angle
O3 S1 O4 120.56(9)
O3 S1 N2 108.62(9)
O3 S1 C4 106.79(10)
O4 S1 N2 105.97(9)
O4 S1 C4 107.61(9)
N2 S1 C4 106.55(9)
C22 O5 C23 115.15(17)
O1 N1 C1 116.7(3)
O2 N1 O1 124.6(3)
O2 N1 C1 118.7(3)
S1 N2 H2 109.8(15)
C7 N2 S1 118.10(13)
C7 N2 H2 117.2(15)
C2 C1 N1 117.5(3)
C6 C1 N1 119.0(2)
C6 C1 C2 123.6(2)
C1 C2 H2A 121.0
C1 C2 C3 117.9(2)
C3 C2 H2A 121.0
C2 C3 H3 120.2
C2 C3 C4 119.7(2)
C4 C3 H3 120.2
C3 C4 S1 118.52(15)
C3 C4 C5 121.4(2)
C5 C4 S1 120.05(18)
C4 C5 H5 120.6
C6 C5 C4 118.8(2)
C6 C5 H5 120.6
C1 C6 C5 118.7(2)
C1 C6 H6 120.7
C5 C6 H6 120.7
N2 C7 H7 107.0
N2 C7 C8 108.70(16)
N2 C7 C9 111.94(15)
C8 C7 H7 107.0
C9 C7 H7 107.0
C9 C7 C8 114.67(16)
C7 C8 H8A 109.5
C7 C8 H8B 109.5
C7 C8 H8C 109.5
H8A C8 H8B 109.5
H8A C8 H8C 109.5
H8B C8 H8C 109.5
C10 C9 C7 121.65(17)
C10 C9 C14 118.87(17)
C14 C9 C7 119.44(16)
C9 C10 C15 123.47(17)
C11 C10 C9 119.38(18)
C11 C10 C15 117.13(18)
C10 C11 H11 119.3
C12 C11 C10 121.45(19)
C12 C11 H11 119.3
C11 C12 H12 120.3
C13 C12 C11 119.45(19)
C13 C12 H12 120.3
C12 C13 H13 119.6
C12 C13 C14 120.74(19)
C14 C13 H13 119.6
C9 C14 C16 123.07(17)
C13 C14 C9 120.06(18)
C13 C14 C16 116.80(17)
C10 C15 H15A 109.5
C10 C15 H15B 109.5
C10 C15 H15C 109.5
H15A C15 H15B 109.5
H15A C15 H15C 109.5
H15B C15 H15C 109.5
C17 C16 C14 122.53(18)
C21 C16 C14 119.21(17)
C21 C16 C17 118.26(18)
C16 C17 H17 119.5
C18 C17 C16 120.92(18)
C18 C17 H17 119.5
C17 C18 H18 120.0
C17 C18 C19 119.98(18)
C19 C18 H18 120.0
C18 C19 C20 119.65(18)
C18 C19 C22 121.97(18)
C20 C19 C22 118.30(18)
C19 C20 H20 120.0
C21 C20 C19 120.09(19)
C21 C20 H20 120.0
C16 C21 H21 119.6
C20 C21 C16 120.84(18)
C20 C21 H21 119.6
O5 C22 C19 113.01(17)
O6 C22 O5 122.97(18)
O6 C22 C19 124.00(19)
O5 C23 H23A 109.5
O5 C23 H23B 109.5
O5 C23 H23C 109.5
H23A C23 H23B 109.5
H23A C23 H23C 109.5
H23B C23 H23C 109.5
loop_
_geom_bond_atom_site_label_1
_geom_bond_atom_site_label_2
_geom_bond_distance
S1 O3 1.4305(16)
S1 O4 1.4356(14)
S1 N2 1.6157(16)
S1 C4 1.775(2)
O1 N1 1.224(3)
O2 N1 1.218(4)
O5 C22 1.334(3)
O5 C23 1.451(2)
O6 C22 1.213(3)
N1 C1 1.494(3)
N2 H2 0.860(18)
N2 C7 1.486(2)
C1 C2 1.378(4)
C1 C6 1.370(4)
C2 H2A 0.9500
C2 C3 1.387(3)
C3 H3 0.9500
C3 C4 1.387(3)
C4 C5 1.394(3)
C5 H5 0.9500
C5 C6 1.390(4)
C6 H6 0.9500
C7 H7 1.0000
C7 C8 1.534(3)
C7 C9 1.524(3)
C8 H8A 0.9800
C8 H8B 0.9800
C8 H8C 0.9800
C9 C10 1.410(3)
C9 C14 1.411(3)
C10 C11 1.393(3)
C10 C15 1.515(3)
C11 H11 0.9500
C11 C12 1.390(3)
C12 H12 0.9500
C12 C13 1.375(3)
C13 H13 0.9500
C13 C14 1.399(3)
C14 C16 1.496(3)
C15 H15A 0.9800
C15 H15B 0.9800
C15 H15C 0.9800
C16 C17 1.403(3)
C16 C21 1.397(3)
C17 H17 0.9500
C17 C18 1.386(3)
C18 H18 0.9500
C18 C19 1.393(3)
C19 C20 1.393(3)
C19 C22 1.483(3)
C20 H20 0.9500
C20 C21 1.389(3)
C21 H21 0.9500
C23 H23A 0.9800
C23 H23B 0.9800
C23 H23C 0.9800
loop_
_geom_hbond_atom_site_label_D
_geom_hbond_atom_site_label_H
_geom_hbond_atom_site_label_A
_geom_hbond_distance_DH
_geom_hbond_distance_HA
_geom_hbond_distance_DA
_geom_hbond_angle_DHA
_geom_hbond_site_symmetry_A
N2 H2 O6 0.860(18) 2.021(19) 2.870(2) 169(2) 1_545
loop_
_geom_torsion_atom_site_label_1
_geom_torsion_atom_site_label_2
_geom_torsion_atom_site_label_3
_geom_torsion_atom_site_label_4
_geom_torsion
S1 N2 C7 C8 -138.74(15)
S1 N2 C7 C9 93.57(17)
S1 C4 C5 C6 178.03(17)
O1 N1 C1 C2 -174.4(2)
O1 N1 C1 C6 4.2(3)
O2 N1 C1 C2 7.0(3)
O2 N1 C1 C6 -174.4(2)
O3 S1 N2 C7 -54.89(15)
O3 S1 C4 C3 -172.88(16)
O3 S1 C4 C5 8.68(19)
O4 S1 N2 C7 174.23(13)
O4 S1 C4 C3 -42.13(18)
O4 S1 C4 C5 139.43(17)
N1 C1 C2 C3 177.54(19)
N1 C1 C6 C5 -178.6(2)
N2 S1 C4 C3 71.17(17)
N2 S1 C4 C5 -107.27(18)
N2 C7 C9 C10 51.4(2)
N2 C7 C9 C14 -126.58(18)
C1 C2 C3 C4 1.4(3)
C2 C1 C6 C5 -0.1(4)
C2 C3 C4 S1 -179.15(16)
C2 C3 C4 C5 -0.7(3)
C3 C4 C5 C6 -0.4(3)
C4 S1 N2 C7 59.82(15)
C4 C5 C6 C1 0.8(3)
C6 C1 C2 C3 -1.0(3)
C7 C9 C10 C11 -177.51(19)
C7 C9 C10 C15 0.7(3)
C7 C9 C14 C13 176.09(18)
C7 C9 C14 C16 -0.6(3)
C8 C7 C9 C10 -73.0(2)
C8 C7 C9 C14 109.0(2)
C9 C10 C11 C12 0.6(3)
C9 C14 C16 C17 -51.7(3)
C9 C14 C16 C21 128.1(2)
C10 C9 C14 C13 -2.0(3)
C10 C9 C14 C16 -178.69(17)
C10 C11 C12 C13 -0.3(3)
C11 C12 C13 C14 -1.2(3)
C12 C13 C14 C9 2.4(3)
C12 C13 C14 C16 179.3(2)
C13 C14 C16 C17 131.5(2)
C13 C14 C16 C21 -48.8(3)
C14 C9 C10 C11 0.5(3)
C14 C9 C10 C15 178.71(19)
C14 C16 C17 C18 174.19(17)
C14 C16 C21 C20 -175.14(18)
C15 C10 C11 C12 -177.7(2)
C16 C17 C18 C19 2.0(3)
C17 C16 C21 C20 4.6(3)
C17 C18 C19 C20 2.6(3)
C17 C18 C19 C22 -174.26(17)
C18 C19 C20 C21 -3.5(3)
C18 C19 C22 O5 0.6(3)
C18 C19 C22 O6 179.1(2)
C19 C20 C21 C16 -0.1(3)
C20 C19 C22 O5 -176.27(18)
C20 C19 C22 O6 2.2(3)
C21 C16 C17 C18 -5.5(3)
C22 C19 C20 C21 173.44(18)
C23 O5 C22 O6 -1.9(3)
C23 O5 C22 C19 176.60(17)
