#------------------------------------------------------------------------------
#$Date: 2019-11-25 09:54:45 +0200 (Mon, 25 Nov 2019) $
#$Revision: 240640 $
#$URL: file:///home/coder/svn-repositories/cod/cif/4/13/00/4130048.cif $
#------------------------------------------------------------------------------
#
# This file is available in the Crystallography Open Database (COD),
# http://www.crystallography.net/
#
# All data on this site have been placed in the public domain by the
# contributors.
#
data_4130048
loop_
_publ_author_name
'Paul, Mathias'
'Breugst, Martin'
'Neud\"orfl, J\"org-Martin'
'Sunoj, Raghavan B.'
'Berkessel, Albrecht'
_publ_section_title
;
 Keto-Enol Thermodynamics of Breslow Intermediates.
;
_journal_issue                   15
_journal_name_full               'Journal of the American Chemical Society'
_journal_page_first              5044
_journal_page_last               5051
_journal_paper_doi               10.1021/jacs.5b13236
_journal_volume                  138
_journal_year                    2016
_chemical_formula_moiety         'C8 H7 Br O3'
_chemical_formula_sum            'C8 H7 Br O3'
_chemical_formula_weight         231.05
_space_group_crystal_system      orthorhombic
_space_group_IT_number           27
_space_group_name_Hall           'P 2 -2c'
_space_group_name_H-M_alt        'P c c 2'
_atom_sites_solution_hydrogens   mixed
_audit_creation_method           SHELXL-2014/7
_cell_angle_alpha                90
_cell_angle_beta                 90
_cell_angle_gamma                90
_cell_formula_units_Z            4
_cell_length_a                   7.5391(10)
_cell_length_b                   19.828(3)
_cell_length_c                   5.4014(6)
_cell_measurement_temperature    100(2)
_cell_volume                     807.43(19)
_computing_cell_refinement       'Nonius DENZO (Otwinowski, Minor 1997)'
_computing_data_collection       'Nonius COLLECT'
_computing_data_reduction        'Nonius DENZO (Otwinowski, Minor 1997)'
_computing_molecular_graphics    'SCHAKAL99 (E. Keller 1999)'
_computing_publication_material  'PLATON (A. L. Spek 1980-2015)'
_computing_structure_refinement  'SHELXL-2014/7 (Sheldrick, 2014)'
_computing_structure_solution    'SHELXS97  (Sheldrick, 1997 )'
_diffrn_ambient_temperature      100(2)
_diffrn_measured_fraction_theta_full 0.993
_diffrn_measured_fraction_theta_max 0.993
_diffrn_measurement_device_type  'Nonius KappaCCD'
_diffrn_measurement_method       'Phi-omega scans'
_diffrn_radiation_type           MoK\a
_diffrn_radiation_wavelength     0.71073
_diffrn_reflns_av_R_equivalents  0.0888
_diffrn_reflns_av_unetI/netI     0.0749
_diffrn_reflns_Laue_measured_fraction_full 0.993
_diffrn_reflns_Laue_measured_fraction_max 0.993
_diffrn_reflns_limit_h_max       8
_diffrn_reflns_limit_h_min       -8
_diffrn_reflns_limit_k_max       22
_diffrn_reflns_limit_k_min       -23
_diffrn_reflns_limit_l_max       6
_diffrn_reflns_limit_l_min       -6
_diffrn_reflns_number            3727
_diffrn_reflns_point_group_measured_fraction_full 0.982
_diffrn_reflns_point_group_measured_fraction_max 0.982
_diffrn_reflns_theta_full        25.000
_diffrn_reflns_theta_max         25.000
_diffrn_reflns_theta_min         1.027
_diffrn_source                   'sealed tube'
_exptl_absorpt_coefficient_mu    5.050
_exptl_absorpt_correction_type   none
_exptl_crystal_colour            colourless
_exptl_crystal_density_diffrn    1.901
_exptl_crystal_description       prism
_exptl_crystal_F_000             456
_exptl_crystal_size_max          0.100
_exptl_crystal_size_mid          0.070
_exptl_crystal_size_min          0.010
_refine_diff_density_max         1.496
_refine_diff_density_min         -0.469
_refine_diff_density_rms         0.124
_refine_ls_abs_structure_details
;
 Flack x determined using 352 quotients [(I+)-(I-)]/[(I+)+(I-)]
 (Parsons, Flack and Wagner, Acta Cryst. B69 (2013) 249-259).
;
_refine_ls_abs_structure_Flack   0.01(2)
_refine_ls_extinction_method     none
_refine_ls_goodness_of_fit_ref   1.108
_refine_ls_hydrogen_treatment    constr
_refine_ls_matrix_type           full
_refine_ls_number_parameters     109
_refine_ls_number_reflns         1398
_refine_ls_number_restraints     1
_refine_ls_restrained_S_all      1.107
_refine_ls_R_factor_all          0.0816
_refine_ls_R_factor_gt           0.0565
_refine_ls_shift/su_max          0.000
_refine_ls_shift/su_mean         0.000
_refine_ls_structure_factor_coef Fsqd
_refine_ls_weighting_details
'w=1/[\s^2^(Fo^2^)+(0.0908P)^2^+0.0198P] where P=(Fo^2^+2Fc^2^)/3'
_refine_ls_weighting_scheme      calc
_refine_ls_wR_factor_gt          0.1349
_refine_ls_wR_factor_ref         0.1624
_reflns_Friedel_coverage         0.758
_reflns_Friedel_fraction_full    0.969
_reflns_Friedel_fraction_max     0.969
_reflns_number_gt                1071
_reflns_number_total             1398
_reflns_threshold_expression     'I > 2\s(I)'
_cod_data_source_file            ja5b13236_si_002.cif
_cod_data_source_block           map88
_cod_database_code               4130048
_shelx_shelxl_version_number     2014/7
_shelx_space_group_comment
;
The symmetry employed for this shelxl refinement is uniquely defined
by the following loop, which should always be used as a source of
symmetry information in preference to the above space-group names.
They are only intended as comments.
;
_shelx_estimated_absorpt_t_min   0.632
_shelx_estimated_absorpt_t_max   0.951
_shelx_res_file
;

    tt2.res created by SHELXL-2014/7

TITL map88 100k .1 .07 .01?    Pcc2
CELL  0.71073    7.5391   19.8280    5.4014    90.000    90.000    90.000
ZERR        4    0.0010    0.0030    0.0006     0.000     0.000     0.000
LATT  -1
SYMM             - X ,            - Y ,              Z
SYMM             - X ,              Y ,    0.50000 + Z
SYMM               X ,            - Y ,    0.50000 + Z
SFAC  C  H Br  O
UNIT    32   28   4  12
TEMP -173
SIZE .1 .07 .01
OMIT -2 50
L.S. 5
FMAP 2
PLAN -20
ACTA
BOND $H
CONF
WGHT    0.090800    0.019800
FVAR       0.27930
BR1   3    0.222047    0.064684    0.315941    11.00000    0.07321    0.02654 =
         0.04817    0.00293    0.00372   -0.00417
O1    4    0.352546    0.376651   -0.205605    11.00000    0.03911    0.03951 =
         0.03443    0.00074   -0.00773    0.00061
O2    4    0.060019    0.417351    0.221671    11.00000    0.03455    0.04847 =
         0.05630   -0.00302    0.00110    0.00395
AFIX   3
H2X   2    0.001749    0.419331    0.074481    11.00000   -1.50000
AFIX   0
O3    4    0.308076    0.479455    0.095781    11.00000    0.05451    0.03264 =
         0.03552    0.01007   -0.00181   -0.00838
AFIX   3
H3X   2    0.291926    0.516955    0.178651    11.00000   -1.50000
AFIX   0
C1    1    0.247317    0.417901    0.186020    11.00000    0.04262    0.01638 =
         0.03338   -0.00361    0.00526   -0.00084
AFIX  13
H1    2    0.307852    0.407508    0.346274    11.00000   -1.20000
AFIX   0
C2    1    0.292969    0.362604   -0.006498    11.00000    0.01709    0.04142 =
         0.03265    0.00037    0.00486   -0.00417
C3    1    0.268792    0.290990    0.078065    11.00000    0.03423    0.02797 =
         0.01699    0.00387   -0.00646   -0.00198
C4    1    0.335509    0.239726   -0.072363    11.00000    0.02551    0.04098 =
         0.03413   -0.00114   -0.00004    0.00205
AFIX  43
H4    2    0.392192    0.251027   -0.223867    11.00000   -1.20000
AFIX   0
C5    1    0.320579    0.173310   -0.005050    11.00000    0.02296    0.04379 =
         0.04553   -0.00717   -0.00151    0.00416
AFIX  43
H5    2    0.366192    0.138923   -0.109677    11.00000   -1.20000
AFIX   0
C6    1    0.239257    0.156642    0.214686    11.00000    0.04141    0.01823 =
         0.02872    0.00179   -0.00829   -0.00564
C7    1    0.168361    0.205010    0.363975    11.00000    0.04012    0.03401 =
         0.02735   -0.00717   -0.00509   -0.00295
AFIX  43
H7    2    0.107448    0.192737    0.511201    11.00000   -1.20000
AFIX   0
C8    1    0.186174    0.273118    0.298199    11.00000    0.04093    0.02882 =
         0.02736   -0.00929   -0.01790    0.00709
AFIX  43
H8    2    0.141450    0.307201    0.404890    11.00000   -1.20000
AFIX   0
HKLF 4 1  0.0000  1.0000  0.0000  0.0000  0.0000  1.0000  1.0000  0.0000  0.0000

REM  map88 100k .1 .07 .01?    Pcc2
REM R1 =  0.0565 for    1071 Fo > 4sig(Fo)  and  0.0816 for all    1398 data
REM    109 parameters refined using      1 restraints

END

WGHT      0.0835      0.4598

REM Highest difference peak  1.496,  deepest hole -0.469,  1-sigma level  0.124
Q1    1   0.3553  0.0635  0.3127  11.00000  0.05    1.50
Q2    1   0.2310  0.1174  0.3586  11.00000  0.05    0.58
Q3    1   0.2055  0.0073  0.3022  11.00000  0.05    0.44
Q4    1  -0.0493  0.3782  0.3211  11.00000  0.05    0.42
Q5    1   0.2542  0.3304 -0.0027  11.00000  0.05    0.38
Q6    1   0.2590  0.3960  0.1057  11.00000  0.05    0.36
Q7    1   0.1523  0.4764  0.1329  11.00000  0.05    0.34
Q8    1   0.4409  0.4665  0.2653  11.00000  0.05    0.33
Q9    1   0.2819  0.4605  0.1318  11.00000  0.05    0.32
Q10   1   0.1847  0.2980  0.1434  11.00000  0.05    0.32
Q11   1   0.3554  0.4146  0.1884  11.00000  0.05    0.32
Q12   1   0.4887  0.4183 -0.3085  11.00000  0.05    0.31
Q13   1   0.4508  0.3762 -0.1764  11.00000  0.05    0.31
Q14   1   0.2166  0.2558  0.3092  11.00000  0.05    0.30
Q15   1   0.2071  0.3807 -0.1809  11.00000  0.05    0.30
Q16   1   0.1425  0.1910 -0.1859  11.00000  0.05    0.30
Q17   1   0.2435  0.2475 -0.0774  11.00000  0.05    0.30
Q18   1   0.2665  0.3955  0.3072  11.00000  0.05    0.29
Q19   1   0.2866  0.2872  0.3036  11.00000  0.05    0.28
Q20   1   0.0048  0.4202  0.4246  11.00000  0.05    0.27
;
_shelx_res_checksum              66818
_shelx_hkl_file
;
   0   0   1   -0.40    0.10   1
   0   0  -2  128.30    3.50   1
   0   0   3    8.30    0.50   1
   0   0  -3    7.10    0.50   1
   0   0   4   31.10    1.20   1
   0   0  -4   29.20    1.20   1
   0   0   5    2.10    0.60   1
   0   0  -5    2.80    0.70   1
   0   0   6  775.90   19.10   1
   0   0  -6  759.30   19.20   1
   0   0   7  581.40   14.50   1
   0   0  -7  570.70   14.70   1
   0   0   8  575.40   14.40   1
   0   0  -8  570.00   14.80   1
   0   0   9 1404.60   33.00   1
   0   0  -9 1358.10   33.00   1
   0   0  10  158.60    4.60   1
   0   0 -10  159.90    4.90   1
   0   0  11   21.20    1.40   1
   0   0 -11   18.90    1.70   1
   0   0  12   26.40    2.00   1
   0   0 -12   34.20    2.20   1
   0   0  13   89.00    4.10   1
   0   0 -13   92.70    3.80   1
   0   0  14  446.90   16.90   1
   0   0 -14  479.00   13.50   1
   0   0  15  183.60    8.40   1
   0   0 -15  199.50    6.90   1
   0   0 -16  190.90    6.90   1
   0   0 -17  299.20    9.90   1
   0   0 -18   11.30    2.60   1
   0   0 -19   63.30    3.80   1
   0   0 -20   44.30    3.70   1
   0   0 -21   19.60    3.30   1
   0   0 -22  110.20    6.10   1
   0   0 -23  149.70   13.60   1
   0   0 -24   36.10    8.00   1
   0   0 -25   13.60    6.90   1
   0   1 -25   -4.30    6.40   1
   0   1 -24    0.30    7.60   1
   0   1 -23    3.60    6.10   1
   0   1 -22    1.80    7.00   1
   0   1 -21    6.00    3.00   1
   0   1 -20    0.30    2.60   1
   0   1 -19   -1.90    2.40   1
   0   1 -18    1.30    2.40   1
   0   1 -17    2.00    2.10   1
   0   1 -16   -3.20    2.10   1
   0   1 -15   27.70    2.40   1
   0   1 -14   33.20    2.50   1
   0   1 -13   11.10    1.70   1
   0   1 -12   11.30    1.70   1
   0   1 -11   17.70    1.70   1
   0   1 -10    6.60    1.40   1
   0  -1  10    4.30    1.80   1
   0   1  -9    1.10    1.20   1
   0  -1   9   -0.20    1.60   1
   0   1  -8  204.70    6.00   1
   0  -1   8  201.60    8.40   1
   0   1  -7   18.30    1.20   1
   0   1  -6  143.20    4.40   1
   0  -1   6  143.30    6.60   1
   0   1  -5    3.60    1.40   1
   0  -1   5    5.40    1.30   1
   0  -1   4    0.00    1.00   1
   0   1  -3    2.50    1.00   1
   0  -1   3    2.60    0.80   1
   0   1  -2   30.70    1.20   1
   0   1  -1   30.50    1.60   1
   0  -1   1   30.00    1.50   1
   0   1   0   17.00    0.40   1
   0  -1   0   18.60    1.00   1
   0   1   1   31.60    0.90   1
   0  -1  -1   28.80    0.90   1
   0   1   2   31.40    0.90   1
   0  -1  -2   29.20    0.90   1
   0   1   3    3.20    0.50   1
   0  -1  -3    1.70    0.40   1
   0   1   4   -0.20    0.50   1
   0  -1  -4    2.70    0.60   1
   0   1   5    2.20    0.60   1
   0  -1  -5    4.20    0.90   1
   0   1   6  137.30    3.20   1
   0  -1  -6  140.10    4.00   1
   0   1   7   17.10    0.90   1
   0  -1  -7   18.60    1.40   1
   0   1   8  203.80    4.80   1
   0  -1  -8  188.70    5.50   1
   0   1   9    0.70    0.90   1
   0  -1  -9    0.60    1.20   1
   0   1  10    3.40    0.90   1
   0  -1 -10    4.20    1.40   1
   0   1  11   17.30    1.40   1
   0  -1 -11   16.50    1.70   1
   0   1  12   12.80    1.40   1
   0  -1 -12   13.30    1.70   1
   0   1  13   12.20    1.40   1
   0  -1 -13   11.20    1.90   1
   0   1  14   34.40    2.10   1
   0  -1 -14   29.60    2.50   1
   0   1  15   32.60    3.70   1
   0  -1 -15   25.90    2.40   1
   0   1  16   -2.90    2.90   1
   0  -1 -16    0.60    1.90   1
   0   1  17    4.40    3.20   1
   0  -1 -17    4.70    2.10   1
   0   1  18    6.00    3.40   1
   0  -1 -18    1.20    2.50   1
   0   1  19    5.50    3.80   1
   0  -1 -19    3.50    2.50   1
   0   1  20  -15.60    4.00   1
   0  -1 -20    6.10    2.80   1
   0  -1 -21    5.90    3.10   1
   0  -1 -22   -1.70    3.20   1
   0  -1 -23    8.10    3.50   1
   0  -1 -24    4.70    6.30   1
   0  -1 -25    8.20    6.50   1
   0   2 -25   20.50    8.60   1
   0   2 -24   35.90    7.80   1
   0   2 -23   73.00    8.70   1
   0   2 -22   64.50    8.70   1
   0   2 -21   27.20    5.90   1
   0   2 -20    5.10    2.90   1
   0   2 -19   13.70    2.70   1
   0   2 -18   32.20    3.00   1
   0   2 -17  129.80    6.10   1
   0   2 -16  107.90    4.90   1
   0   2 -15  152.60    5.80   1
   0   2 -14  239.30    7.80   1
   0   2 -13  115.90    4.50   1
   0   2 -12    2.40    1.50   1
   0   2 -11    2.10    1.50   1
   0   2 -10  184.80    6.50   1
   0   2  -9  789.90   32.20   1
   0  -2   9  814.90   30.70   1
   0  -2   8  361.80   13.90   1
   0   2  -7  551.60   23.10   1
   0  -2   7  578.00   21.00   1
   0   2  -6  129.90    6.70   1
   0  -2   6  130.70    6.10   1
   0   2  -5  199.90    7.00   1
   0   2  -4    9.30    1.70   1
   0  -2   3   38.30    1.90   1
   0   2  -2   92.90    5.10   1
   0  -2   2  115.70    3.80   1
   0   2   0 4010.80   92.80   1
   0  -2   0 3925.90  128.50   1
   0   2   1  498.70   11.00   1
   0  -2  -1  482.00   12.70   1
   0   2   2   84.00    2.30   1
   0  -2  -2   82.20    2.30   1
   0   2   3   23.30    1.10   1
   0  -2  -3   24.10    1.10   1
   0   2   4    6.20    0.80   1
   0  -2  -4    5.60    0.80   1
   0   2   5  223.80    5.30   1
   0  -2  -5  211.30    4.90   1
   0   2   6  139.80    3.60   1
   0  -2  -6  133.40    3.30   1
   0   2   7  533.40   11.20   1
   0  -2  -7  506.60   10.60   1
   0   2   8  342.20    7.90   1
   0  -2  -8  339.30    9.40   1
   0   2   9  780.00   16.40   1
   0  -2  -9  779.80   19.60   1
   0   2  10  168.80    5.00   1
   0  -2 -10  164.20    5.40   1
   0   2  11    6.00    1.60   1
   0  -2 -11    4.30    1.60   1
   0   2  12    6.70    2.30   1
   0  -2 -12    2.80    1.90   1
   0   2  13  120.50    6.10   1
   0  -2 -13  111.20    4.40   1
   0   2  14  227.90   10.20   1
   0  -2 -14  231.60    7.50   1
   0   2  15  140.80    7.20   1
   0  -2 -15  146.80    5.40   1
   0   2  16  107.90    6.40   1
   0  -2 -16  112.20    5.00   1
   0   2  17  141.30    7.50   1
   0  -2 -17  139.00    5.80   1
   0   2  18   35.30    4.30   1
   0  -2 -18   28.00    3.00   1
   0   2  19    7.20    3.60   1
   0  -2 -19    6.80    2.90   1
   0  -2 -20    9.70    3.00   1
   0  -2 -21   24.80    3.60   1
   0  -2 -22   85.60    5.50   1
   0  -2 -23   81.40    5.80   1
   0  -2 -24   41.30    5.00   1
   0  -2 -25   16.00    6.80   1
   0   3 -24    7.90    7.10   1
   0   3 -23    6.20    6.70   1
   0   3 -22    6.60    6.30   1
   0   3 -21   14.20    6.10   1
   0   3 -20    6.00    5.50   1
   0   3 -19   -2.50    2.60   1
   0   3 -18   15.70    2.70   1
   0   3 -17    2.20    2.30   1
   0   3 -16   14.30    2.30   1
   0   3 -15  143.00    5.80   1
   0   3 -14   65.60    3.50   1
   0   3 -13    0.80    1.90   1
   0   3 -12   -2.10    2.20   1
   0   3 -11    2.60    3.00   1
   0   3 -10    6.70    2.90   1
   0   3  -9   13.40    2.90   1
   0   3  -8  277.00   14.00   1
   0   3  -7   23.90    2.70   1
   0  -3   7   21.50    2.70   1
   0   3  -6   97.10    6.10   1
   0  -3   6  110.10    5.90   1
   0   3  -5   77.00    3.50   1
   0  -3   5   79.10    5.00   1
   0   3  -4   24.70    2.50   1
   0  -3   4   27.30    2.00   1
   0   3  -3   19.60    2.10   1
   0  -3   3   22.60    1.60   1
   0   3  -2    8.90    1.70   1
   0  -3   2   11.80    1.70   1
   0   3  -1  573.40   15.40   1
   0  -3   1  581.10   14.90   1
   0   3   0   31.70    1.10   1
   0  -3   0   38.40    3.40   1
   0   3   1  569.90   12.20   1
   0  -3  -1  562.20   14.30   1
   0   3   2    7.10    1.10   1
   0  -3  -2    7.60    0.50   1
   0   3   3   18.30    1.30   1
   0  -3  -3   17.70    0.70   1
   0   3   4   21.40    1.40   1
   0  -3  -4   23.10    1.30   1
   0   3   5   82.90    2.70   1
   0  -3  -5   85.70    2.90   1
   0   3   6  110.00    3.20   1
   0  -3  -6  103.50    3.00   1
   0   3   7   29.80    1.60   1
   0  -3  -7   27.90    1.40   1
   0   3   8  286.30    8.00   1
   0  -3  -8  285.80    8.20   1
   0   3   9   18.00    2.70   1
   0  -3  -9   14.10    1.40   1
   0  -3 -10    7.10    1.20   1
   0   3  11   -3.60    2.80   1
   0  -3 -11    5.30    1.70   1
   0   3  12    2.30    2.90   1
   0  -3 -12   -1.10    1.90   1
   0   3  13   -3.40    3.00   1
   0  -3 -13    0.50    1.90   1
   0   3  14   53.80    4.40   1
   0  -3 -14   72.70    3.80   1
   0   3  15  114.70    7.10   1
   0  -3 -15  138.70    5.60   1
   0   3  16   13.40    3.50   1
   0  -3 -16   13.30    2.70   1
   0   3  17    2.80    3.70   1
   0  -3 -17    0.80    2.60   1
   0   3  18    2.60    3.50   1
   0  -3 -18   12.90    3.00   1
   0  -3 -19   -1.10    3.10   1
   0  -3 -20   -2.10    3.20   1
   0  -3 -21   29.60    4.10   1
   0  -3 -22   16.30    4.10   1
   0  -3 -23   17.10    4.40   1
   0  -3 -24    9.30    4.80   1
   0   4 -23   28.70    7.90   1
   0   4 -22    4.70    6.80   1
   0   4 -21    5.90    6.50   1
   0   4 -20   -0.40    5.50   1
   0   4 -19    8.00    5.50   1
   0   4 -18   11.70    3.10   1
   0   4 -17   60.70    3.90   1
   0   4 -16   10.90    2.50   1
   0   4 -15   45.90    3.30   1
   0   4 -14   89.20    4.40   1
   0   4 -13    6.20    3.90   1
   0   4 -12   11.00    4.10   1
   0   4 -11   23.80    3.90   1
   0   4 -10   38.10    4.50   1
   0   4  -9  121.50    8.90   1
   0   4  -8  212.30   12.90   1
   0   4  -7   18.60    3.10   1
   0   4  -6   73.10    5.70   1
   0   4  -5   68.90    5.10   1
   0  -4   4    5.40    2.90   1
   0   4  -3   29.10    3.20   1
   0  -4   3   34.00    3.90   1
   0   4  -2  144.90    5.60   1
   0  -4   2  156.80    5.40   1
   0   4  -1  119.80    4.80   1
   0  -4   1  141.30    4.80   1
   0   4   0  238.10    8.20   1
   0  -4   0  250.10    7.50   1
   0   4   1  122.20    3.80   1
   0  -4  -1  117.60    4.40   1
   0   4   2  135.70    4.20   1
   0  -4  -2  128.30    4.50   1
   0   4   3   22.80    1.70   1
   0  -4  -3   20.10    0.90   1
   0   4   4   13.80    2.20   1
   0  -4  -4   10.50    0.60   1
   0   4   5   84.80    5.00   1
   0  -4  -5   73.40    2.00   1
   0   4   6   84.80    5.40   1
   0  -4  -6   75.50    2.80   1
   0   4   7   24.10    3.00   1
   0  -4  -7   22.00    1.80   1
   0   4   8  218.60   10.30   1
   0  -4  -8  212.60    6.00   1
   0   4   9  111.30    6.50   1
   0  -4  -9  121.80    3.80   1
   0   4  10   40.20    4.20   1
   0  -4 -10   34.90    2.00   1
   0   4  11   17.90    3.40   1
   0  -4 -11   20.30    2.00   1
   0   4  12   23.80    3.90   1
   0  -4 -12   15.20    1.80   1
   0   4  13   16.20    3.90   1
   0  -4 -13   10.90    2.40   1
   0   4  14   86.90    7.80   1
   0  -4 -14  101.10    4.90   1
   0   4  15   24.90    4.10   1
   0  -4 -15   48.40    3.40   1
   0   4  16   12.20    3.40   1
   0  -4 -16   14.00    2.80   1
   0  -4 -17   59.70    4.20   1
   0  -4 -18    7.70    3.20   1
   0  -4 -19    1.20    3.40   1
   0  -4 -20    6.80    3.50   1
   0  -4 -21   18.30    4.00   1
   0  -4 -22   20.90    4.50   1
   0  -4 -23   24.50    4.80   1
   0   5 -22   12.20    8.70   1
   0   5 -21    1.50    7.00   1
   0   5 -20   -1.90    6.30   1
   0   5 -19   -4.00    5.80   1
   0   5 -18    5.50    5.90   1
   0   5 -17    3.60    5.30   1
   0   5 -16   18.40    3.20   1
   0   5 -15   74.60    7.30   1
   0   5 -14   28.40    5.70   1
   0   5 -13    9.70    4.50   1
   0   5 -12    8.90    4.30   1
   0   5 -11    6.30    4.00   1
   0   5 -10   19.60    3.60   1
   0   5  -9   35.40    4.90   1
   0   5  -8   77.70    6.70   1
   0   5  -7   37.50    4.30   1
   0   5  -6  103.00    7.30   1
   0  -5   3   22.10    3.10   1
   0  -5   2   23.30    3.00   1
   0   5  -1  194.70    7.10   1
   0  -5   1  219.30   11.80   1
   0  -5   0   26.40    3.30   1
   0  -5  -1  199.30   10.30   1
   0   5   2   21.40    3.90   1
   0   5   3   19.60    3.80   1
   0  -5  -3   18.70    2.60   1
   0   5   4    6.40    4.00   1
   0  -5  -4    3.10    0.60   1
   0   5   5   25.20    3.80   1
   0  -5  -5   20.20    1.20   1
   0   5   6  110.10    7.10   1
   0  -5  -6  100.30    2.40   1
   0   5   7   46.10    4.70   1
   0  -5  -7   39.40    1.80   1
   0   5   8   92.50    6.70   1
   0  -5  -8   97.70    4.30   1
   0   5   9   45.90    5.10   1
   0  -5  -9   40.60    2.90   1
   0   5  10   24.70    4.20   1
   0  -5 -10   21.40    2.60   1
   0   5  11    6.00    4.40   1
   0  -5 -11    3.50    2.20   1
   0   5  12    2.60    3.90   1
   0  -5 -12    1.20    2.20   1
   0   5  13   12.60    9.30   1
   0  -5 -13   10.50    2.50   1
   0   5  14   37.40    5.20   1
   0  -5 -14   40.20    3.50   1
   0   5  15   68.80    5.90   1
   0  -5 -15   84.70    4.70   1
   0   5  16   22.50    5.50   1
   0  -5 -16   31.60    3.50   1
   0  -5 -17   -2.90    3.00   1
   0  -5 -18   13.90    3.50   1
   0  -5 -19   -7.30    6.00   1
   0  -5 -20   -1.70    3.90   1
   0  -5 -21   11.10    4.20   1
   0  -5 -22   19.20    5.10   1
   0   6 -20    2.60    7.70   1
   0   6 -19    7.60    8.10   1
   0   6 -18    3.00    6.60   1
   0   6 -17   11.10    6.30   1
   0   6 -16    1.50    5.80   1
   0   6 -14   11.70    5.40   1
   0   6 -13   10.10    5.30   1
   0   6 -12    6.50    4.80   1
   0   6 -11   20.80    4.90   1
   0   6 -10   10.50    4.40   1
   0   6  -9    3.10    4.30   1
   0   6  -7    1.90    4.00   1
   0   6  -6   24.20    4.30   1
   0  -6   5    8.20    2.90   1
   0  -6   3   13.20    3.10   1
   0   6  -2   40.80    2.20   1
   0  -6   2   40.40    4.20   1
   0  -6   0   -1.60    2.40   1
   0  -6  -1    8.90    2.90   1
   0  -6  -2   36.80    4.00   1
   0   6   4    9.00    3.80   1
   0  -6  -4   11.00    3.00   1
   0   6   5    4.70    4.40   1
   0  -6  -5    9.00    2.80   1
   0   6   6   20.20    4.90   1
   0  -6  -6   15.30    1.20   1
   0   6   7   13.60    5.30   1
   0  -6  -7    1.50    1.20   1
   0   6   8   43.50    5.50   1
   0   6   9   10.00    4.50   1
   0   6  10    4.80    4.80   1
   0  -6 -10    0.50    3.20   1
   0   6  11   20.20    5.10   1
   0  -6 -11   15.30    3.70   1
   0   6  12    5.00    5.40   1
   0  -6 -12    8.30    3.60   1
   0   6  13    5.90    7.90   1
   0  -6 -13   -1.30    2.70   1
   0   6  14   18.20    5.40   1
   0  -6 -14   21.90    3.10   1
   0  -6 -15    7.50    3.30   1
   0  -6 -16    4.00    3.30   1
   0  -6 -17    8.90    3.50   1
   0  -6 -18   -6.30    3.80   1
   0  -6 -19   -2.00    4.10   1
   0  -6 -20    5.00    4.30   1
   0   7 -13   12.80    5.80   1
   0   7 -10   15.60    5.50   1
   0   7  -9   18.50    5.30   1
   0   7  -8   18.30    5.30   1
   0   7  -7   12.00    4.80   1
   0  -7   4    4.00    3.70   1
   0  -7   3    7.50    3.70   1
   0  -7   2   23.20    4.20   1
   0  -7   1   35.90    4.80   1
   0  -7   0   54.80    5.50   1
   0  -7  -3    7.20    3.40   1
   0  -7  -4    5.70    3.40   1
   0  -7  -7   17.90    3.90   1
   0  -7  -8   22.30    4.50   1
   0   7   9   14.80    5.50   1
   0  -7  -9   15.80    4.40   1
   0   7  10    3.70    6.10   1
   0  -7 -10   15.20    4.20   1
   0   7  11   12.30    5.60   1
   0  -7 -11    1.10    3.70   1
   0   7  12   13.50    6.00   1
   0  -7 -12   14.50    4.40   1
   0   7  13   13.30    6.40   1
   0  -7 -13   15.10    4.70   1
   0  -7 -14    5.00    4.20   1
   0  -7 -15   17.20    5.00   1
   0  -7 -16   26.40    5.70   1
   0  -7 -17    5.30    5.30   1
   0   8 -14   -3.10    6.80   1
   0   8 -13   -5.30    6.80   1
   0   8 -11    2.50    6.00   1
   0   8 -10    2.20    5.80   1
   0   8  -8   -1.10    5.80   1
   0   8  -7    2.10    5.60   1
   0   8  -6   -0.90    5.40   1
   0  -8   3   -2.60    4.40   1
   0  -8   2   -7.80    4.30   1
   0  -8   1   -5.00    4.30   1
   0  -8  -1    3.30    4.50   1
   0  -8  -7    1.00    4.40   1
   0  -8  -8    9.00    4.30   1
   0  -8 -10   -0.10    4.30   1
   0  -8 -11   -4.60    4.60   1
   0  -8 -13    7.20    4.80   1
   0  -8 -14    2.80    5.10   1
   0   9  -9    9.40    7.10   1
   0   9  -7    5.10    6.40   1
   0  -9   5    2.10    5.50   1
   0  -9  -6   -3.10    5.10   1
   0  -9  -7   10.70    5.60   1
   0  -9  -9   11.10    5.80   1
   0  -9 -10    9.50    6.10   1
   1  -9  -9    2.30    6.00   1
   1  -9  -8    8.30    5.20   1
   1  -9  -7   -4.10    5.30   1
   1  -9  -6   -3.50    4.90   1
  -1   9  -9    1.80    6.60   1
   1  -8 -14    7.60    5.20   1
   1  -8 -13    5.40    4.90   1
   1  -8 -12    8.90    5.00   1
   1  -8 -11   19.20    5.10   1
   1  -8 -10    6.80    4.80   1
   1  -8  -9    3.60    4.00   1
   1  -8  -8    4.10    4.20   1
   1  -8  -7   -0.80    4.40   1
   1  -8  -1    1.70    4.30   1
   1  -8   1   10.80    4.40   1
   1  -8   2    7.60    4.50   1
   1  -8   3   12.60    4.60   1
   1  -8   4   20.10    5.20   1
  -1   8  -6    6.70    5.60   1
  -1   8  -7    2.50    5.80   1
  -1   8 -10   -2.70    6.00   1
   1  -7 -17    1.00    4.00   1
   1  -7 -16    6.10    4.00   1
   1  -7 -15    2.50    3.60   1
   1  -7 -14   -1.20    3.40   1
   1  -7 -13    4.30    3.10   1
   1  -7 -12    8.90    3.30   1
   1  -7 -11    8.20    3.10   1
   1  -7 -10    0.60    2.80   1
   1  -7  -9    1.00    2.60   1
   1  -7  -8    5.10    3.50   1
   1  -7  -7   -3.60    3.20   1
   1  -7  -4    3.20    3.20   1
   1  -7  -3    9.20    3.30   1
   1  -7  -2    2.90    3.20   1
   1  -7  -1   10.40    3.40   1
   1  -7   0    4.80    3.40   1
   1  -7   1    4.10    3.30   1
   1  -7   2    4.20    3.50   1
   1  -7   3    6.40    3.50   1
  -1   7  -3    6.00    3.00   1
  -1   7  -4   -3.40    3.70   1
   1  -7   5    4.10    3.80   1
  -1   7  -5    1.50    2.70   1
  -1   7  -6    2.40    2.80   1
  -1   7  -7   -5.30    4.90   1
  -1   7  -8   10.20    5.00   1
  -1   7  -9    1.40    5.00   1
  -1   7 -12   10.70    5.90   1
  -1   7 -13   -0.50    6.00   1
  -1   7 -15    8.80    6.40   1
  -1   7 -17    3.20    7.00   1
   1  -6 -20   20.50    5.60   1
   1  -6 -19   13.00    4.00   1
   1  -6 -18   19.10    4.30   1
   1  -6 -17    9.80    3.70   1
   1  -6 -16    3.10    3.10   1
   1  -6 -15    3.00    3.10   1
   1  -6 -14   15.30    3.50   1
   1  -6 -13   22.10    3.20   1
   1  -6 -12   21.80    3.00   1
   1  -6 -11   76.20    6.90   1
   1  -6 -10   42.10    4.60   1
   1  -6  -9   27.40    2.90   1
   1  -6  -8    3.40    2.30   1
   1  -6  -7    5.00    3.00   1
   1  -6  -6   16.80    3.60   1
   1  -6  -5   54.60    4.90   1
   1  -6  -4   56.70    5.30   1
   1  -6  -3   56.90    5.20   1
   1  -6  -2   35.40    4.30   1
   1  -6  -1   29.80    3.80   1
   1  -6   0    2.50    2.60   1
  -1   6   0    4.90    2.20   1
   1  -6   1   27.10    3.80   1
  -1   6  -1   18.10    2.40   1
   1  -6   2   29.70    4.00   1
  -1   6  -2   40.20    3.50   1
   1  -6   3   46.60    5.00   1
  -1   6  -3   58.80    4.70   1
   1  -6   4   55.70    5.40   1
  -1   6  -4   53.30    4.90   1
  -1   6  -5   57.80    5.70   1
  -1   6  -6   11.90    1.50   1
  -1   6  -7    6.90    4.10   1
  -1   6  -8    4.30    4.00   1
  -1   6  -9   30.60    5.20   1
  -1   6 -10   19.70    5.30   1
  -1   6 -11   67.30    7.30   1
  -1   6 -12    7.40    5.30   1
  -1   6 -13   19.10    5.60   1
  -1   6 -16    2.10    6.00   1
  -1   6 -17    4.70    6.40   1
  -1   6 -18   14.40    7.90   1
  -1   6 -19    6.00    7.00   1
   1  -5 -21    6.80    4.00   1
   1  -5 -20   12.90    3.90   1
   1  -5 -19   14.70    3.70   1
   1  -5 -18   12.40    3.30   1
   1  -5 -17   17.70    3.20   1
   1  -5 -16    1.60    3.60   1
   1  -5 -15    6.30    2.80   1
   1  -5 -14    4.10    2.60   1
   1  -5 -13   12.80    2.60   1
   1  -5 -12   54.90    3.70   1
   1  -5 -11   59.60    2.40   1
   1  -5 -10   18.20    1.60   1
   1  -5  -9   16.20    1.70   1
   1  -5  -8   23.70    1.60   1
   1  -5  -7    1.60    1.20   1
   1  -5  -6   36.30    1.70   1
   1  -5  -5   29.00    1.50   1
   1  -5  -4   19.70    2.10   1
   1  -5  -3  179.60    6.30   1
   1  -5  -2   25.30    2.90   1
   1  -5  -1   65.30    4.80   1
  -1   5   1   72.30    3.90   1
   1  -5   0   14.70    2.60   1
  -1   5   0    9.00    2.00   1
  -1   5  -1   49.20    3.50   1
   1  -5   2   23.00    3.00   1
  -1   5  -2   14.20    1.90   1
   1  -5   3  184.80   10.80   1
  -1   5  -3  178.50    6.20   1
   1  -5   4   19.80    3.70   1
  -1   5  -4   14.80    1.20   1
  -1   5  -5   29.80    1.70   1
  -1   5  -6   40.30    2.10   1
  -1   5  -7    0.80    1.30   1
  -1   5  -8   22.20    1.70   1
  -1   5  -9   12.10    2.70   1
  -1   5 -10   15.20    2.40   1
  -1   5 -11   52.20    3.50   1
  -1   5 -12   50.30    5.70   1
  -1   5 -13   14.90    4.80   1
  -1   5 -14    4.00    4.90   1
  -1   5 -16    8.60    5.40   1
  -1   5 -17    6.20    6.50   1
  -1   5 -18   10.90    6.00   1
  -1   5 -19    4.00    6.60   1
  -1   5 -20    6.30    8.10   1
  -1   5 -21    1.90    8.60   1
   1  -4 -23    2.70    4.40   1
   1  -4 -22    6.10    4.00   1
   1  -4 -21   12.50    3.80   1
   1  -4 -20   22.00    3.70   1
   1  -4 -19   31.30    3.90   1
   1  -4 -18    4.30    3.70   1
   1  -4 -17   13.80    3.10   1
   1  -4 -16   19.90    2.90   1
   1  -4 -15    7.70    2.40   1
   1  -4 -14    3.50    2.20   1
   1  -4 -13   69.50    3.90   1
   1  -4 -12   30.50    1.90   1
   1  -4 -11   36.70    1.90   1
   1  -4 -10  133.50    4.20   1
   1  -4  -9    3.00    1.30   1
   1  -4  -8   12.50    1.30   1
   1  -4  -7    9.40    1.10   1
   1  -4  -6   84.60    2.50   1
   1  -4  -5   58.10    1.90   1
   1  -4  -4  140.70    3.40   1
  -1   4   4  142.30    8.10   1
   1  -4  -3   23.30    1.20   1
  -1   4   3   15.70    1.70   1
   1  -4  -2  113.70    2.60   1
  -1   4   2  125.40    4.30   1
   1  -4  -1  194.80    4.50   1
  -1   4   1  207.10    5.30   1
   1  -4   0    9.50    1.30   1
  -1   4   0   11.80    1.20   1
   1  -4   1  202.40    9.90   1
  -1   4  -1  210.70    5.50   1
   1  -4   2  115.90    4.80   1
  -1   4  -2  125.60    3.70   1
   1  -4   3   26.80    2.80   1
  -1   4  -3   17.10    1.00   1
   1  -4   4  161.20    8.90   1
  -1   4  -4  173.10    5.10   1
  -1   4  -5   54.80    2.00   1
  -1   4  -6   87.60    2.90   1
  -1   4  -7    8.20    1.60   1
  -1   4  -8   11.10    1.80   1
  -1   4  -9    7.10    1.70   1
  -1   4 -10  113.40    4.80   1
  -1   4 -12   43.60    5.10   1
  -1   4 -13   71.80    4.00   1
  -1   4 -14    1.30    2.10   1
  -1   4 -15   10.10    2.10   1
  -1   4 -16   32.90    6.10   1
  -1   4 -17    7.10    5.40   1
  -1   4 -18   10.10    5.70   1
  -1   4 -19   27.30    6.60   1
  -1   4 -20   22.20    7.20   1
  -1   4 -21    9.50    7.20   1
  -1   4 -22   -0.20    8.20   1
  -1   4 -23   23.40    9.40   1
   1  -3 -24    4.00    4.40   1
   1  -3 -23    8.40    4.20   1
   1  -3 -22   14.30    3.90   1
   1  -3 -21   33.80    4.20   1
   1  -3 -20   50.50    4.30   1
   1  -3 -19   66.70    5.10   1
   1  -3 -18   37.80    3.30   1
   1  -3 -17   23.30    2.90   1
   1  -3 -16   15.70    2.60   1
   1  -3 -15    9.30    2.20   1
   1  -3 -14   34.00    2.70   1
   1  -3 -13  107.70    4.60   1
   1  -3 -12  197.90    6.60   1
   1  -3 -11  180.80    6.20   1
   1  -3 -10  210.10    7.10   1
   1  -3  -9   28.50    1.50   1
   1  -3  -8    7.00    1.00   1
  -1   3   8    5.00    1.80   1
   1  -3  -7   30.10    1.50   1
  -1   3   7   29.30    2.00   1
   1  -3  -6  109.90    2.70   1
  -1   3   6  107.00    3.80   1
   1  -3  -5  214.70    4.60   1
  -1   3   5  201.70    6.40   1
   1  -3  -4  331.90    6.40   1
  -1   3   4  354.60    9.80   1
   1  -3  -3  293.80    5.90   1
  -1   3   3  304.20    8.40   1
   1  -3  -2  297.40    5.80   1
  -1   3   2  300.60    6.90   1
   1  -3  -1  208.30    4.20   1
  -1   3   1  237.60    5.70   1
   1  -3   0   13.20    0.80   1
  -1   3   0   15.30    1.10   1
   1  -3   1  200.40    5.90   1
  -1   3  -1  230.60    5.70   1
   1  -3   2  304.00   13.00   1
  -1   3  -2  286.80    6.60   1
  -1   3  -3  319.50    7.20   1
  -1   3  -4  398.70    8.10   1
  -1   3  -5  231.20    5.10   1
  -1   3  -6  120.80    3.60   1
  -1   3  -7   42.50    1.80   1
  -1   3  -8    8.40    2.70   1
  -1   3  -9   19.30    3.30   1
  -1   3 -10  231.70   13.20   1
  -1   3 -11  162.60    6.00   1
  -1   3 -12  212.30    7.10   1
  -1   3 -13  135.30    5.00   1
  -1   3 -14   37.70    2.40   1
  -1   3 -15   11.20    1.70   1
  -1   3 -16   10.80    1.80   1
  -1   3 -17   11.20    4.70   1
  -1   3 -18   38.80    6.50   1
  -1   3 -19   72.90    8.10   1
  -1   3 -20   45.70    7.50   1
  -1   3 -21   35.40    7.30   1
  -1   3 -22   13.40    7.00   1
  -1   3 -23   -5.80    7.20   1
  -1   3 -24    7.90    8.20   1
   1  -2 -24   -0.40    4.60   1
   1  -2 -23    2.90    3.80   1
   1  -2 -22   12.80    3.80   1
   1  -2 -21   -0.30    3.10   1
   1  -2 -20   15.00    4.80   1
   1  -2 -19   25.10    3.00   1
   1  -2 -18    9.00    2.70   1
   1  -2 -17   18.50    2.50   1
   1  -2 -16    5.10    2.30   1
   1  -2 -15    1.30    2.00   1
   1  -2 -14    0.80    2.10   1
  -1   2  14    2.70    1.30   1
   1  -2 -13   40.20    2.60   1
  -1   2  13   32.50    1.90   1
   1  -2 -12   23.10    2.00   1
  -1   2  12   16.70    1.30   1
   1  -2 -11   31.30    2.10   1
  -1   2  11   37.50    1.80   1
   1  -2 -10   81.90    3.30   1
  -1   2  10   63.00    4.40   1
   1  -2  -9   20.30    1.60   1
  -1   2   9   25.50    1.90   1
   1  -2  -8   19.50    1.50   1
  -1   2   8   19.40    1.60   1
   1  -2  -7   37.50    1.30   1
  -1   2   7   37.70    2.00   1
   1  -2  -6  131.70    3.20   1
  -1   2   6  143.50    4.60   1
   1  -2  -5   62.20    1.70   1
  -1   2   5   65.50    2.40   1
   1  -2  -4   15.90    0.90   1
  -1   2   4   21.00    1.20   1
   1  -2  -3   79.80    1.80   1
  -1   2   3   90.70    2.90   1
   1  -2  -2   15.70    0.80   1
  -1   2   2    9.10    0.70   1
   1  -2  -1  594.70   12.00   1
  -1   2   1  609.20   12.60   1
   1  -2   0   12.60    0.70   1
  -1   2   0   14.30    0.90   1
   1  -2   1  652.70   13.10   1
  -1   2  -1  693.00   12.30   1
  -1   2  -2    8.70    0.70   1
  -1   2  -3  124.10    2.90   1
  -1   2  -4   25.20    0.90   1
   1  -2   5   75.50    4.10   1
  -1   2  -5   71.60    2.10   1
   1  -2   6  154.30    7.40   1
  -1   2  -6  161.10    4.70   1
   1  -2   7   41.20    3.20   1
  -1   2  -7   37.80    3.30   1
   1  -2   8   26.60    2.60   1
  -1   2  -8   20.30    1.10   1
   1  -2   9   19.60    2.60   1
  -1   2  -9   26.00    1.50   1
  -1   2 -10   78.00    2.90   1
  -1   2 -11   37.60    2.00   1
  -1   2 -12   18.20    1.50   1
  -1   2 -13   39.60    2.20   1
  -1   2 -14   -0.20    1.40   1
  -1   2 -15    0.40    1.50   1
  -1   2 -16    7.20    1.80   1
  -1   2 -17   15.80    2.00   1
  -1   2 -18    2.10    1.90   1
  -1   2 -19   26.20    6.10   1
  -1   2 -20   22.00    5.60   1
  -1   2 -21   -1.10    5.50   1
  -1   2 -22   -3.10    7.00   1
  -1   2 -23    2.20    6.60   1
  -1   2 -24    2.50    7.20   1
   1  -1 -25   29.20    5.00   1
   1  -1 -24    9.60    4.30   1
   1  -1 -23   -1.70    3.60   1
   1  -1 -22   22.70    3.80   1
   1  -1 -21   77.70    4.90   1
   1  -1 -20  182.40    7.70   1
   1  -1 -19  131.90    6.00   1
   1  -1 -18   82.80    4.50   1
   1  -1 -17   34.50    3.10   1
  -1   1  17   42.60    3.00   1
   1  -1 -16   87.00    4.20   1
  -1   1  16   72.40    3.70   1
   1  -1 -15   38.10    2.80   1
  -1   1  15   36.70    2.70   1
   1  -1 -14  258.80    9.20   1
  -1   1  14  248.50    8.90   1
   1  -1 -13  239.10    8.00   1
  -1   1  13  220.70    7.90   1
   1  -1 -12  335.50   10.00   1
  -1   1  12  348.60   11.80   1
   1  -1 -11  444.10   12.80   1
  -1   1  11  442.90    9.30   1
   1  -1 -10  218.30    6.90   1
  -1   1  10  263.70    7.20   1
   1  -1  -9  439.60   12.30   1
  -1   1   9  424.70   10.90   1
   1  -1  -8   36.50    2.00   1
  -1   1   8   34.10    1.70   1
   1  -1  -7  159.20    4.90   1
  -1   1   7  168.20    4.90   1
   1  -1  -6  143.80    4.30   1
   1  -1  -5 1075.40   25.90   1
  -1   1   5 1089.40   26.20   1
   1  -1  -4  629.50   15.60   1
  -1   1   4  590.90   14.60   1
   1  -1  -3  800.20   16.30   1
  -1   1   3  814.70   19.70   1
   1  -1  -2  889.30   18.00   1
  -1   1   2  788.30   19.10   1
   1  -1  -1  765.40   15.70   1
  -1   1   1  775.10   26.10   1
   1  -1   0    7.10    0.60   1
  -1   1   0    7.90    0.60   1
   1  -1   1  883.20   20.90   1
  -1   1  -1 1030.80   15.70   1
   1  -1   2 1082.50   25.00   1
  -1   1  -2 1067.50   17.80   1
   1  -1   3 1099.60   25.50   1
  -1   1  -3 1151.20   28.40   1
   1  -1   4  912.00   32.50   1
  -1   1  -4  800.10   21.30   1
   1  -1   5 1404.30   49.70   1
  -1   1  -5 1419.00   50.30   1
   1  -1   6  186.30    8.70   1
  -1   1  -6  144.50    7.20   1
   1  -1   7  196.70    9.20   1
  -1   1  -7  195.90    5.40   1
   1  -1   8   45.70    2.90   1
  -1   1  -8   42.50    1.60   1
   1  -1   9  439.40   18.20   1
  -1   1  -9  434.20   11.50   1
  -1   1 -10  291.20    8.30   1
  -1   1 -11  495.60   13.40   1
  -1   1 -12  407.00   11.50   1
  -1   1 -13  244.00    7.40   1
  -1   1 -14  295.10    8.90   1
  -1   1 -15   30.30    2.30   1
  -1   1 -16   74.20    3.60   1
  -1   1 -17   36.80    2.70   1
  -1   1 -18   78.40    4.10   1
  -1   1 -19  125.00    5.60   1
  -1   1 -20  188.80   12.40   1
  -1   1 -21   90.70    8.30   1
  -1   1 -22   29.40    7.40   1
  -1   1 -23    2.20    6.40   1
  -1   1 -24   11.70    7.50   1
  -1   1 -25   27.30    9.40   1
   1   0 -25    6.00    6.10   1
   1   0 -24    0.00    3.80   1
   1   0 -23   -3.30    3.50   1
   1   0 -22   -2.40    3.20   1
   1   0 -21    0.90    3.00   1
   1   0 -20   -2.50    2.90   1
   1   0 -19    1.50    2.80   1
   1   0 -18   -1.20    2.70   1
   1   0 -17   -1.90    2.50   1
  -1   0  17    2.50    3.20   1
   1   0 -16    1.30    2.10   1
  -1   0  16   -5.60    2.60   1
   1   0 -15   -4.10    2.00   1
  -1   0  15    3.30    2.30   1
   1   0 -14   -0.50    1.90   1
  -1   0  14   -5.00    2.20   1
   1   0 -13    0.50    1.70   1
  -1   0  13    2.50    2.30   1
   1   0 -12    1.10    1.60   1
  -1   0  12    3.90    1.20   1
   1   0 -11   -2.00    1.60   1
  -1   0  11    0.40    1.00   1
   1   0 -10   -0.10    1.30   1
  -1   0  10   -0.70    0.80   1
   1   0  -9    3.80    1.30   1
  -1   0   9    1.20    0.80   1
   1   0  -8   -1.80    1.30   1
  -1   0   8   -0.10    0.70   1
   1   0  -7    1.10    1.10   1
  -1   0   7   -0.40    0.60   1
   1   0  -6   -0.90    1.10   1
  -1   0   6    0.70    0.60   1
   1   0  -5    0.50    1.00   1
  -1   0   5    1.00    0.60   1
   1   0  -4    2.60    0.50   1
  -1   0   4    1.00    0.50   1
   1   0  -3    0.90    0.50   1
  -1   0   3    1.70    0.50   1
   1   0  -2   -0.10    0.40   1
  -1   0   2   -0.20    0.70   1
   1   0  -1    0.20    0.30   1
  -1   0   1    0.70    1.00   1
   1   0   0    0.50    0.20   1
  -1   0   0   -0.50    0.90   1
   1   0   1   -0.70    0.40   1
  -1   0  -1    0.40    0.30   1
   1   0   2   -0.50    0.50   1
  -1   0  -2   -0.50    0.50   1
   1   0   3    0.10    0.50   1
  -1   0  -3    0.00    0.60   1
   1   0   4    0.80    0.50   1
  -1   0  -4    0.60    0.70   1
   1   0   5   -1.20    0.60   1
  -1   0  -5    0.20    1.50   1
   1   0   6    4.10    0.60   1
  -1   0  -6    2.70    1.60   1
   1   0   7    0.20    0.60   1
  -1   0  -7    0.30    0.90   1
   1   0   8   -0.80    0.70   1
  -1   0  -8   -1.70    1.00   1
   1   0   9    0.20    0.80   1
  -1   0  -9    0.90    1.20   1
   1   0  10   -0.30    0.80   1
  -1   0 -10   -0.10    1.20   1
   1   0  11    0.90    1.00   1
  -1   0 -11   -0.70    1.30   1
   1   0  12   -0.60    1.00   1
  -1   0 -12    0.50    1.40   1
   1   0  13   -1.80    1.10   1
  -1   0 -13    0.20    1.60   1
   1   0  14   -0.30    1.20   1
  -1   0 -14   -1.50    1.70   1
   1   0  15    0.90    1.30   1
  -1   0 -15    0.10    1.80   1
   1   0  16   -0.70    1.40   1
  -1   0 -16   -2.00    1.90   1
   1   0  17    1.40    1.70   1
  -1   0 -17    1.50    2.00   1
  -1   0 -18    0.30    2.10   1
  -1   0 -19    1.80    2.30   1
  -1   0 -20   -1.50    2.50   1
  -1   0 -21    3.60    4.90   1
  -1   0 -22    4.60    5.40   1
  -1   0 -23    5.70    5.90   1
  -1   0 -24    1.70    6.70   1
  -1   0 -25    0.50    8.30   1
   1   1 -25   26.10    7.40   1
   1   1 -24    5.10    6.20   1
   1   1 -23    2.30    3.80   1
   1   1 -22   19.10    3.80   1
   1   1 -21   75.40    5.20   1
   1   1 -20  175.40    7.30   1
   1   1 -19  119.00    6.10   1
   1   1 -18   73.10    4.30   1
   1   1 -17   28.30    2.90   1
  -1  -1  17   24.10    3.90   1
   1   1 -16   80.40    4.40   1
   1   1 -15   41.50    2.90   1
  -1  -1  15   27.20    3.40   1
   1   1 -14  288.40    9.20   1
  -1  -1  14  228.00    9.90   1
   1   1 -13  281.40    8.80   1
  -1  -1  13  220.80    9.20   1
   1   1 -12  370.90   11.50   1
  -1  -1  12  360.70   13.70   1
   1   1 -11  455.70   13.30   1
  -1  -1  11  432.80   11.80   1
   1   1 -10  219.10    7.30   1
  -1  -1  10  264.20    7.10   1
   1   1  -9  439.50   13.10   1
  -1  -1   9  420.20   10.80   1
   1   1  -8   43.70    2.20   1
  -1  -1   8   45.30    2.00   1
   1   1  -7  173.90    5.70   1
  -1  -1   7  203.70    5.90   1
   1   1  -6  151.40    7.70   1
  -1  -1   6  129.70    4.00   1
   1   1  -5 1241.10   43.20   1
  -1  -1   5 1287.00   30.90   1
   1   1  -4  701.50   18.40   1
  -1  -1   4  691.60   17.40   1
   1   1  -3  859.40   18.20   1
   1   1  -2  884.30   22.60   1
  -1  -1   2  977.50   34.60   1
   1   1  -1  758.00   16.00   1
  -1  -1   1  834.70   21.30   1
   1   1   0   16.30    1.70   1
  -1  -1   0   11.60    1.00   1
   1   1   1  736.60   13.40   1
  -1  -1  -1  819.00   14.50   1
   1   1   2  889.70   18.40   1
  -1  -1  -2  819.70   17.10   1
   1   1   3  831.90   17.30   1
  -1  -1  -3  850.40   17.60   1
   1   1   4  679.40   14.30   1
  -1  -1  -4  619.60   15.90   1
   1   1   5 1136.80   22.40   1
  -1  -1  -5 1110.40   28.20   1
   1   1   6  158.60    3.90   1
   1   1   7  170.10    4.10   1
  -1  -1  -7  171.00    5.30   1
   1   1   8   41.30    1.50   1
  -1  -1  -8   36.90    1.90   1
   1   1   9  472.10   10.00   1
  -1  -1  -9  440.50   12.00   1
   1   1  10  242.20    5.50   1
  -1  -1 -10  273.40    7.90   1
   1   1  11  505.40   12.80   1
  -1  -1 -11  457.60   12.50   1
   1   1  12  388.70   10.20   1
  -1  -1 -12  377.90   10.80   1
   1   1  13  270.80    7.70   1
  -1  -1 -13  222.90    7.00   1
   1   1  14  286.90    8.60   1
  -1  -1 -14  262.10    8.00   1
   1   1  15   45.30    2.50   1
  -1  -1 -15   36.10    2.60   1
   1   1  16   87.00    4.80   1
  -1  -1 -16   75.90    3.70   1
   1   1  17   43.90    4.50   1
  -1  -1 -17   37.30    2.90   1
   1   1  18   96.50    6.50   1
  -1  -1 -18   88.80    4.40   1
   1   1  19  154.70    8.80   1
  -1  -1 -19  124.80    5.70   1
   1   1  20  203.40   11.80   1
  -1  -1 -20  174.30    7.20   1
   1   1  21   91.40    7.30   1
  -1  -1 -21   72.40    4.70   1
  -1  -1 -22   26.40    6.20   1
  -1  -1 -23    2.20    5.80   1
  -1  -1 -24   18.80    8.00   1
  -1  -1 -25   30.00    9.10   1
   1   2 -24    8.40    6.60   1
   1   2 -23    2.60    7.00   1
   1   2 -22    5.30    3.50   1
   1   2 -21   -1.90    3.30   1
   1   2 -20   14.10    3.10   1
   1   2 -19   21.30    3.10   1
   1   2 -18    3.80    2.70   1
   1   2 -17   19.80    2.90   1
   1   2 -16    8.50    2.60   1
  -1  -2  16   -4.90    4.10   1
   1   2 -15   -2.10    2.20   1
  -1  -2  15   10.50    3.60   1
   1   2 -14    3.60    2.10   1
  -1  -2  14    2.20    3.20   1
   1   2 -13   40.80    2.80   1
  -1  -2  13   29.80    3.80   1
   1   2 -12   21.70    2.40   1
  -1  -2  12   23.30    3.40   1
   1   2 -11   32.40    2.40   1
  -1  -2  11   32.30    3.40   1
   1   2 -10   85.60    3.70   1
  -1  -2  10   71.40    4.60   1
   1   2  -9   17.30    2.70   1
  -1  -2   9   21.70    1.90   1
   1   2  -8   24.80    2.70   1
  -1  -2   8   18.90    1.60   1
   1   2  -7   39.90    3.20   1
  -1  -2   7   36.40    2.20   1
   1   2  -6  134.20    7.10   1
  -1  -2   6  155.70    6.50   1
   1   2  -5   58.90    2.60   1
  -1  -2   5   66.60    3.70   1
   1   2  -4   16.80    1.40   1
  -1  -2   4   22.90    2.00   1
   1   2  -3   81.40    3.00   1
  -1  -2   3   98.70    3.30   1
   1   2  -2   17.60    1.30   1
   1   2  -1  641.50   16.40   1
  -1  -2   1  611.00   23.30   1
   1   2   0   22.40    1.20   1
  -1  -2   0   16.10    1.50   1
   1   2   1  587.50   12.50   1
  -1  -2  -1  578.30   10.20   1
   1   2   2   14.70    1.30   1
  -1  -2  -2    7.30    0.50   1
   1   2   3   82.10    3.10   1
  -1  -2  -3   89.10    2.40   1
   1   2   4   12.40    1.00   1
  -1  -2  -4   21.60    1.10   1
   1   2   5   56.10    1.90   1
  -1  -2  -5   55.60    1.80   1
   1   2   6  131.50    3.50   1
  -1  -2  -6  120.90    3.20   1
   1   2   7   41.60    1.70   1
  -1  -2  -7   37.80    2.80   1
   1   2   8   22.30    1.40   1
  -1  -2  -8   22.80    1.70   1
   1   2   9   19.40    1.40   1
  -1  -2  -9   27.10    2.00   1
   1   2  10   84.20    3.20   1
  -1  -2 -10   75.20    3.30   1
   1   2  11   34.40    2.10   1
  -1  -2 -11   36.30    2.30   1
   1   2  12   23.70    2.00   1
  -1  -2 -12   20.30    2.00   1
   1   2  13   37.30    2.30   1
  -1  -2 -13   38.20    2.60   1
   1   2  14    3.00    3.70   1
  -1  -2 -14    8.60    2.00   1
   1   2  15   -3.80    3.10   1
  -1  -2 -15    2.50    2.10   1
   1   2  16   15.60    3.90   1
  -1  -2 -16    7.00    2.40   1
   1   2  17   17.70    4.50   1
  -1  -2 -17   27.40    4.60   1
   1   2  18    2.70    3.70   1
  -1  -2 -18   -0.50    2.60   1
   1   2  19   25.90    4.60   1
  -1  -2 -19   17.20    2.90   1
   1   2  20   19.10    5.30   1
  -1  -2 -20   17.00    3.30   1
  -1  -2 -21   -4.50    3.20   1
  -1  -2 -22    5.90    3.60   1
  -1  -2 -23   -3.60    6.80   1
  -1  -2 -24   -0.40    6.40   1
   1   3 -24   13.40    6.70   1
   1   3 -23   -1.90    6.30   1
   1   3 -22   25.50    6.20   1
   1   3 -21   36.80    4.10   1
   1   3 -20   48.50    4.00   1
   1   3 -19   64.40    4.40   1
   1   3 -18   31.50    3.40   1
   1   3 -17   13.80    3.10   1
   1   3 -16   12.70    2.60   1
   1   3 -15   17.00    2.80   1
   1   3 -14   38.00    3.10   1
   1   3 -13  109.20    5.20   1
   1   3 -12  185.40   10.80   1
   1   3 -11  177.60   10.20   1
  -1  -3  11  147.40    8.10   1
   1   3 -10  186.80   10.90   1
  -1  -3  10  201.60    9.50   1
   1   3  -9   24.50    3.20   1
  -1  -3   9   15.30    3.60   1
   1   3  -8    8.50    2.50   1
  -1  -3   8    8.50    2.60   1
   1   3  -7   32.80    2.30   1
  -1  -3   7   40.10    3.80   1
   1   3  -6  122.50    5.40   1
  -1  -3   6  122.20    6.10   1
   1   3  -5  232.80    8.00   1
  -1  -3   5  220.50    9.30   1
   1   3  -4  341.80   11.00   1
  -1  -3   4  361.20   10.10   1
   1   3  -3  286.20    9.00   1
  -1  -3   3  277.10    8.10   1
   1   3  -2  285.70    8.80   1
  -1  -3   2  261.70    7.70   1
   1   3  -1  183.00    4.00   1
  -1  -3   1  208.60    6.30   1
   1   3   0   18.00    0.90   1
  -1  -3   0   16.10    1.80   1
   1   3   1  204.80    5.10   1
  -1  -3  -1  224.70    7.00   1
   1   3   2  293.30    6.90   1
  -1  -3  -2  274.40    5.20   1
   1   3   3  283.60    7.10   1
  -1  -3  -3  270.90    5.10   1
   1   3   4  327.30    8.20   1
  -1  -3  -4  309.30    7.00   1
   1   3   5  207.50    5.60   1
  -1  -3  -5  183.50    4.40   1
   1   3   6  110.60    3.60   1
  -1  -3  -6   93.30    2.60   1
   1   3   7   29.70    1.90   1
  -1  -3  -7   30.70    1.40   1
   1   3   8    8.40    1.90   1
  -1  -3  -8    5.90    1.50   1
   1   3   9   29.40    2.40   1
  -1  -3  -9   28.50    2.10   1
   1   3  10  221.10    9.50   1
  -1  -3 -10  240.30   10.40   1
   1   3  11  189.80    9.10   1
  -1  -3 -11  183.60    6.20   1
   1   3  12  196.90    9.40   1
  -1  -3 -12  197.00    6.90   1
   1   3  13  108.30    6.50   1
  -1  -3 -13  115.30    4.80   1
   1   3  14   33.40    4.80   1
  -1  -3 -14   32.00    2.70   1
   1   3  15    9.90    4.40   1
  -1  -3 -15    7.40    2.50   1
   1   3  16   22.20    4.60   1
  -1  -3 -16   15.30    2.90   1
   1   3  17   18.70    4.50   1
  -1  -3 -17   17.70    2.90   1
   1   3  18   30.50    4.90   1
  -1  -3 -18   38.20    3.50   1
  -1  -3 -19   74.50    4.70   1
  -1  -3 -20   50.10    4.20   1
  -1  -3 -21   38.30    4.30   1
  -1  -3 -22   20.50    4.50   1
  -1  -3 -23    1.80    6.20   1
  -1  -3 -24   10.90    6.90   1
   1   4 -23    7.50    7.90   1
   1   4 -22    5.70    7.60   1
   1   4 -21   15.00    5.80   1
   1   4 -20   18.80    3.50   1
   1   4 -19   35.30    3.80   1
   1   4 -18   16.00    3.20   1
   1   4 -17   14.30    3.20   1
   1   4 -16   17.20    3.10   1
   1   4 -15    6.50    2.60   1
   1   4 -14    7.60    4.00   1
   1   4 -13   59.90    5.60   1
   1   4 -12   32.10    4.50   1
   1   4 -10  126.10    8.70   1
   1   4  -9    2.90    2.90   1
   1   4  -8   11.10    2.90   1
   1   4  -7   10.10    2.80   1
   1   4  -6   77.40    6.00   1
   1   4  -4  170.30   13.30   1
   1   4  -3   25.60    3.20   1
  -1  -4   3   19.70    2.70   1
   1   4  -2  116.00    4.20   1
  -1  -4   2  126.20    6.60   1
   1   4  -1  205.40    4.50   1
  -1  -4   1  183.70    9.20   1
   1   4   0   16.70    1.40   1
  -1  -4   0   17.70    2.20   1
   1   4   1  217.80    5.50   1
  -1  -4  -1  200.60    6.60   1
   1   4   2  106.40    4.40   1
  -1  -4  -2  119.90    4.50   1
   1   4   3   21.30    3.70   1
  -1  -4  -3   15.70    1.00   1
   1   4   4  149.70    7.90   1
  -1  -4  -4  159.30    3.30   1
   1   4   5   54.90    4.20   1
  -1  -4  -5   49.90    1.40   1
   1   4   6   87.20    6.00   1
  -1  -4  -6   86.70    3.00   1
   1   4   7   15.60    3.80   1
  -1  -4  -7    6.10    1.20   1
   1   4   8   15.40    3.70   1
  -1  -4  -8    6.50    1.20   1
   1   4   9    3.60    3.90   1
  -1  -4  -9    3.30    1.30   1
   1   4  10  141.60    7.90   1
  -1  -4 -10  124.40    4.40   1
   1   4  11   43.70    4.80   1
  -1  -4 -11   51.30    4.10   1
   1   4  12   30.90    4.20   1
  -1  -4 -12   40.70    4.00   1
   1   4  13   54.70    6.00   1
  -1  -4 -13   72.30    5.40   1
   1   4  14   11.80   13.60   1
  -1  -4 -14    5.50    3.30   1
   1   4  15    8.30    4.30   1
  -1  -4 -15    4.10    3.60   1
   1   4  16   29.00    4.70   1
  -1  -4 -16   29.50    4.60   1
   1   4  17    8.00    6.50   1
  -1  -4 -17   10.40    4.10   1
   1   4  18    5.40    3.10   1
  -1  -4 -18   12.10    4.60   1
   1   4  19   27.90    6.50   1
  -1  -4 -19   39.40    5.90   1
  -1  -4 -20   20.30    5.90   1
  -1  -4 -21   10.00    5.90   1
  -1  -4 -22    1.20    6.00   1
  -1  -4 -23   -3.90    6.70   1
   1   5 -21   -2.30    6.30   1
   1   5 -20   14.90    6.10   1
   1   5 -19    9.20    3.60   1
   1   5 -18    6.70    3.20   1
   1   5 -17    6.10    3.40   1
   1   5 -16    9.80    3.20   1
   1   5 -13    8.00    4.40   1
   1   5 -11   57.70    6.00   1
   1   5 -10   18.40    4.10   1
   1   5  -9   14.70    3.60   1
   1   5  -8   26.20    3.90   1
   1   5  -7   -0.60    3.00   1
   1   5  -6   40.70    4.40   1
  -1  -5   5   27.30    3.30   1
   1   5  -3  158.50    5.30   1
  -1  -5   3  172.80   10.10   1
   1   5  -2   26.60    1.30   1
  -1  -5   2   14.60    2.50   1
   1   5  -1   47.90    1.60   1
   1   5   0   11.70    1.20   1
  -1  -5   0   10.80    2.30   1
   1   5   1   69.50    5.80   1
  -1  -5  -1   69.30    4.80   1
   1   5   2   22.90    4.00   1
  -1  -5  -2   13.60    2.50   1
   1   5   3  164.20    8.80   1
  -1  -5  -3  185.70    9.70   1
   1   5   4   11.10    3.20   1
  -1  -5  -4   12.10    2.30   1
   1   5   5   18.70    3.90   1
  -1  -5  -5   23.90    1.40   1
   1   5   6   27.50    4.70   1
  -1  -5  -6   34.60    1.80   1
   1   5   7    2.90    3.40   1
  -1  -5  -7    2.20    0.90   1
   1   5   8   19.10    4.90   1
  -1  -5  -8   18.40    2.10   1
   1   5   9   14.80    4.10   1
  -1  -5  -9   16.40    1.70   1
   1   5  10   31.00    4.80   1
  -1  -5 -10   17.40    1.80   1
   1   5  11   56.70    6.00   1
  -1  -5 -11   77.00    5.60   1
   1   5  12   39.70    5.20   1
   1   5  13    1.90    4.20   1
  -1  -5 -13   18.70    3.80   1
   1   5  14    4.70    3.90   1
  -1  -5 -14    4.80    3.60   1
   1   5  15    2.70    3.80   1
  -1  -5 -15    9.70    3.90   1
   1   5  16   -1.70    3.40   1
  -1  -5 -16    0.20    4.00   1
   1   5  17   -2.50    4.90   1
  -1  -5 -17    6.90    4.40   1
  -1  -5 -18   12.30    4.50   1
  -1  -5 -19   12.70    5.00   1
  -1  -5 -20    6.80    6.00   1
  -1  -5 -21   12.10    5.80   1
   1   6 -19    7.80    7.40   1
   1   6 -18    8.40    6.20   1
   1   6 -15   -4.80    5.40   1
   1   6 -12   22.80    5.00   1
   1   6 -11   43.70    6.00   1
   1   6 -10   27.10    4.90   1
   1   6  -9   21.30    4.80   1
   1   6  -8    7.50    3.80   1
   1   6  -7    9.90    4.00   1
   1   6  -6   19.50    4.10   1
  -1  -6   6   17.40    3.50   1
  -1  -6   5   54.40    5.70   1
   1   6  -4   40.00    2.30   1
  -1  -6   4   40.40    4.40   1
   1   6  -3   45.40    2.00   1
  -1  -6   3   57.30    5.60   1
   1   6  -2   35.10    1.90   1
  -1  -6   2   37.90    4.40   1
   1   6  -1   32.90    5.40   1
  -1  -6   1   24.20    3.50   1
   1   6   0    6.50    4.40   1
  -1  -6   0   10.60    2.70   1
   1   6   1   27.00    5.30   1
   1   6   2   38.00    5.30   1
  -1  -6  -2   39.40    4.00   1
   1   6   3   55.20    5.40   1
  -1  -6  -3   57.00    5.00   1
   1   6   4   46.50    6.00   1
  -1  -6  -4   46.20    4.40   1
   1   6   5   62.20    8.40   1
  -1  -6  -5   64.70    5.30   1
   1   6   6   17.10    4.90   1
  -1  -6  -6   10.30    1.40   1
   1   6   7   47.80   20.90   1
  -1  -6  -7    6.00    1.60   1
   1   6   8   -1.90    4.40   1
   1   6   9   21.30    5.20   1
  -1  -6  -9   31.70    4.00   1
   1   6  10   40.60    6.00   1
  -1  -6 -10   35.90    4.40   1
   1   6  11   63.70    6.90   1
  -1  -6 -11   80.20    6.20   1
   1   6  12   32.20    6.50   1
  -1  -6 -12   16.80    4.10   1
   1   6  13   15.20    5.30   1
  -1  -6 -13   22.70    4.50   1
   1   6  14   15.90    6.20   1
  -1  -6 -14   16.30    4.30   1
   1   6  15    4.20    6.20   1
  -1  -6 -15   -1.80    4.30   1
   1   6  16    0.50    6.80   1
  -1  -6 -16    5.70    4.70   1
  -1  -6 -17    7.30    5.00   1
  -1  -6 -18    9.50    5.50   1
  -1  -6 -19   18.60    6.30   1
   1   7 -15    5.80    6.10   1
   1   7 -12    8.70    5.00   1
   1   7 -11    0.90    5.20   1
   1   7 -10    4.30    4.90   1
   1   7  -9    3.80    4.80   1
   1   7  -8   10.80    4.60   1
   1   7  -7    3.10    4.30   1
   1   7  -6    4.80    4.20   1
  -1  -7   6    3.40    3.60   1
  -1  -7   5   -1.50    3.50   1
  -1  -7   3   10.70    3.50   1
  -1  -7   2    1.00    3.20   1
  -1  -7   1    9.60    3.40   1
   1   7   0   -2.20    5.10   1
  -1  -7   0    4.00    3.20   1
   1   7   1    8.70    5.90   1
  -1  -7  -1    2.40    3.40   1
   1   7   2    7.80    5.60   1
  -1  -7  -2    7.20    3.30   1
   1   7   3   10.80    6.20   1
  -1  -7  -3    8.00    3.60   1
   1   7   4    7.00    5.30   1
   1   7   5    0.40    5.90   1
   1   7   6    7.30    5.70   1
   1   7   7    2.10    9.80   1
   1   7   8    5.70    5.80   1
  -1  -7  -8   -2.10    3.70   1
   1   7   9    7.30    6.30   1
  -1  -7  -9    4.10    3.80   1
   1   7  10    7.70    7.80   1
  -1  -7 -10    3.20    3.70   1
   1   7  11   11.40    6.30   1
  -1  -7 -11    0.50    4.00   1
   1   7  12    6.80    7.00   1
  -1  -7 -12    7.90    4.30   1
   1   7  13   11.00    6.70   1
  -1  -7 -13   -2.90    4.30   1
   1   7  14    5.00    6.80   1
  -1  -7 -14    2.60    4.50   1
   1   7  15  -15.60    6.50   1
  -1  -7 -15    3.10    4.90   1
  -1  -7 -16    2.50    5.40   1
  -1  -7 -17    2.10    5.70   1
   1   8 -12    2.20    5.80   1
   1   8  -9    5.30    5.20   1
   1   8  -8   -1.60    5.40   1
  -1  -8   5    6.40    4.50   1
  -1  -8   4   14.90    4.70   1
  -1  -8   3   20.90    5.00   1
  -1  -8   1    1.10    4.40   1
  -1  -8   0   -2.10    4.20   1
   1   8   3   24.60    7.60   1
   1   8   4   29.20    6.70   1
   1   8   5   15.60    7.70   1
   1   8   6    5.30    7.50   1
   1   8   7   -0.30    8.30   1
  -1  -8  -7   11.10    4.50   1
   1   8   8    4.60    7.20   1
  -1  -8  -8    4.20    4.40   1
   1   8   9   15.70    7.60   1
  -1  -8  -9    3.00    4.50   1
   1   8  10   15.20    7.80   1
  -1  -8 -10   13.30    4.90   1
   1   8  11    0.70    6.40   1
  -1  -8 -11   16.40    5.60   1
   1   8  12    8.10    6.10   1
  -1  -8 -12   12.80    5.50   1
   1   8  13   -5.30    9.90   1
  -1  -8 -13    2.70    5.40   1
  -1  -8 -14    8.40    5.90   1
   1   9  -8   10.10    6.20   1
  -1  -9  -1   -4.10    4.60   1
  -1  -9  -6   -3.20    5.40   1
  -1  -9  -7    6.80    5.80   1
  -1  -9  -8   -3.90    5.90   1
   1   9   9    9.20    7.10   1
  -1  -9  -9   -7.20    6.00   1
   2  -9  -6    7.50    4.80   1
   2  -9  -5    2.50    5.00   1
   2  -9  -4    4.60    4.90   1
   2  -8 -12    1.20    3.40   1
   2  -8 -11    0.50    3.30   1
   2  -8 -10    3.00    3.20   1
   2  -8  -9    0.30    4.50   1
   2  -8  -7    0.40    4.10   1
   2  -8  -6    6.20    4.20   1
   2  -8  -5    0.10    4.00   1
   2  -8  -2    4.90    4.40   1
   2  -8   0    1.40    4.10   1
   2  -8   1    3.20    4.20   1
  -2   8  -4    1.00    5.20   1
  -2   8  -5    3.40    5.20   1
  -2   8  -8   -9.00    5.40   1
   2  -7 -16    5.00    3.70   1
   2  -7 -15    2.80    3.40   1
   2  -7 -14   11.50    3.90   1
   2  -7 -13    9.40    3.40   1
   2  -7 -12    0.40    3.40   1
   2  -7 -11    0.50    2.90   1
   2  -7 -10    9.40    2.90   1
   2  -7  -9   32.10    3.60   1
   2  -7  -8    7.10    4.10   1
   2  -7  -7   23.90    3.00   1
   2  -7  -6   16.40    4.00   1
   2  -7  -5   13.30    4.10   1
   2  -7  -4    8.10    2.40   1
   2  -7  -3    8.90    3.70   1
   2  -7  -2   11.90    3.80   1
   2  -7  -1   15.50    3.70   1
   2  -7   0   89.00    7.60   1
   2  -7   1   13.60    3.80   1
  -2   7  -1    1.50    3.60   1
   2  -7   2   13.50    3.80   1
  -2   7  -2   10.30    3.90   1
   2  -7   3   10.10    3.90   1
  -2   7  -3    9.40    4.40   1
   2  -7   4    6.60    3.80   1
  -2   7  -4   11.10    3.30   1
  -2   7  -5   11.40    6.10   1
  -2   7  -6    7.70    4.80   1
  -2   7  -7   25.40    5.20   1
  -2   7  -8    9.40    3.90   1
  -2   7  -9   31.80    5.90   1
  -2   7 -10    6.50    5.20   1
   2  -6 -18    2.60    3.60   1
   2  -6 -17    6.00    3.50   1
   2  -6 -16    4.20    3.20   1
   2  -6 -15    4.20    3.40   1
   2  -6 -14    0.70    2.90   1
   2  -6 -13    3.30    2.90   1
   2  -6 -12   11.90    2.90   1
   2  -6 -11    7.80    2.70   1
   2  -6 -10   12.10    2.70   1
   2  -6  -9    5.80    2.50   1
   2  -6  -8   14.60    2.40   1
   2  -6  -7   16.30    2.40   1
   2  -6  -6    1.50    1.10   1
   2  -6  -5   14.40    1.30   1
   2  -6  -4    2.00    1.00   1
   2  -6  -3    9.10    1.00   1
   2  -6  -2   36.00    3.00   1
   2  -6  -1   12.70    2.90   1
  -2   6   1   11.50    3.20   1
   2  -6   0   26.50    3.60   1
  -2   6   0   33.50    3.90   1
  -2   6  -1   15.80    4.70   1
   2  -6   2   40.20    4.60   1
  -2   6  -2   48.10    7.90   1
   2  -6   3   10.70    3.10   1
  -2   6  -3    5.50    3.60   1
  -2   6  -4    5.40    3.80   1
  -2   6  -5   19.10    3.10   1
  -2   6  -6    5.60    3.00   1
  -2   6  -7   16.30    4.40   1
  -2   6  -8   17.50    4.90   1
  -2   6  -9    8.00    4.20   1
  -2   6 -10   17.20    4.70   1
  -2   6 -16   -1.10    6.10   1
  -2   6 -17   13.00    6.40   1
  -2   6 -18    3.10    7.60   1
   2  -5 -20    7.50    3.60   1
   2  -5 -19   -0.80    5.40   1
   2  -5 -18    0.60    3.10   1
   2  -5 -17   14.70    3.20   1
   2  -5 -16   11.70    3.00   1
   2  -5 -15   37.90    3.70   1
   2  -5 -14   36.90    3.50   1
   2  -5 -13    9.60    2.50   1
   2  -5 -12   -1.20    2.30   1
   2  -5 -11    7.00    2.10   1
   2  -5 -10   11.20    2.40   1
   2  -5  -9   67.10    2.90   1
   2  -5  -8   40.20    1.90   1
   2  -5  -7   47.70    3.00   1
   2  -5  -6   19.30    1.50   1
   2  -5  -5   33.60    1.80   1
   2  -5  -4    4.30    1.10   1
   2  -5  -3    5.20    1.20   1
   2  -5  -2   27.30    1.40   1
  -2   5   2   16.20    3.20   1
   2  -5  -1   37.80    1.70   1
  -2   5   1   40.90    4.00   1
   2  -5   0  260.00    8.80   1
  -2   5   0  244.90   12.20   1
   2  -5   1   38.50    2.50   1
  -2   5  -1   45.30    4.20   1
   2  -5   2   25.30    3.50   1
  -2   5  -2   20.30    2.20   1
  -2   5  -3    3.50    2.10   1
  -2   5  -4    6.60    1.70   1
  -2   5  -5   34.00    1.70   1
  -2   5  -6   14.00    1.50   1
  -2   5  -7   72.10    2.80   1
  -2   5  -8   32.00    2.10   1
  -2   5  -9   86.60    4.00   1
  -2   5 -10   27.00    4.60   1
  -2   5 -11   -2.00    4.30   1
  -2   5 -12   -7.30    4.30   1
  -2   5 -15   32.40    5.80   1
  -2   5 -16    6.20    5.40   1
  -2   5 -17    9.50    6.90   1
  -2   5 -18    4.60    5.90   1
  -2   5 -19    5.20    6.20   1
  -2   5 -20   10.60    6.50   1
   2  -4 -22    4.90    4.50   1
   2  -4 -21   11.90    4.20   1
   2  -4 -20    1.60    3.40   1
   2  -4 -19    1.60    3.10   1
   2  -4 -18   11.70    3.30   1
   2  -4 -17   24.00    3.40   1
   2  -4 -16   30.20    3.30   1
   2  -4 -15   59.60    4.10   1
   2  -4 -14   12.30    2.70   1
   2  -4 -13   12.80    2.30   1
   2  -4 -12   20.60    2.50   1
   2  -4 -11   13.50    1.40   1
   2  -4 -10   44.00    2.10   1
   2  -4  -9   33.00    1.90   1
   2  -4  -8  115.40    3.20   1
   2  -4  -7   83.40    2.50   1
   2  -4  -6   42.40    1.90   1
   2  -4  -5   32.70    1.60   1
  -2   4   5   24.30    2.80   1
   2  -4  -4    4.80    1.00   1
  -2   4   4    2.80    1.80   1
   2  -4  -3   18.80    1.10   1
  -2   4   3   13.50    2.40   1
   2  -4  -2  107.50    3.20   1
  -2   4   2   86.20    3.10   1
   2  -4  -1  199.40    5.60   1
  -2   4   1  190.90    5.40   1
   2  -4   0   44.30    1.70   1
  -2   4   0   65.80    5.00   1
   2  -4   1  197.70    4.90   1
  -2   4  -1  204.50    5.90   1
   2  -4   2  116.60    4.10   1
  -2   4  -2  105.20    3.50   1
   2  -4   3   22.90    2.20   1
  -2   4  -3   14.70    1.40   1
  -2   4  -4    4.60    0.90   1
  -2   4  -5   27.50    1.60   1
  -2   4  -6   53.20    2.20   1
  -2   4  -7   74.70    2.70   1
  -2   4  -8  143.20    4.30   1
  -2   4  -9   45.80    2.40   1
  -2   4 -10   49.70    2.30   1
  -2   4 -11   25.60    4.30   1
  -2   4 -12   25.80    4.90   1
  -2   4 -13    7.70    4.60   1
  -2   4 -14   15.60    4.50   1
  -2   4 -15   51.40    6.20   1
  -2   4 -16   27.70    6.50   1
  -2   4 -17   24.30    5.50   1
  -2   4 -18    1.50    5.70   1
  -2   4 -19    6.50    6.00   1
  -2   4 -20   -8.20    6.20   1
  -2   4 -21    1.60    6.90   1
  -2   4 -22    7.60    7.20   1
   2  -3 -23    4.00    4.40   1
   2  -3 -22   15.20    4.00   1
   2  -3 -21    5.90    3.50   1
   2  -3 -20    2.70    3.20   1
   2  -3 -19    6.00    3.30   1
   2  -3 -18    0.80    3.20   1
   2  -3 -17   18.60    2.80   1
   2  -3 -16    2.70    2.70   1
   2  -3 -15   60.70    3.70   1
   2  -3 -14   41.60    3.00   1
   2  -3 -13    5.00    2.10   1
   2  -3 -12    6.60    1.80   1
   2  -3 -11    2.10    1.60   1
   2  -3 -10   25.20    2.20   1
   2  -3  -9   49.70    1.90   1
   2  -3  -8   94.70    2.70   1
  -2   3   8   92.80    5.50   1
   2  -3  -7   53.80    1.90   1
  -2   3   7   49.10    3.60   1
   2  -3  -6    8.80    1.20   1
  -2   3   6    8.10    1.90   1
   2  -3  -5   70.40    2.50   1
  -2   3   5   68.20    4.30   1
   2  -3  -4   40.00    1.70   1
  -2   3   4   37.70    2.10   1
   2  -3  -3    4.80    1.00   1
  -2   3   3    6.10    1.10   1
   2  -3  -2   42.70    1.70   1
  -2   3   2   29.90    1.60   1
   2  -3  -1   84.30    2.60   1
  -2   3   1   97.00    3.10   1
   2  -3   0  284.50    6.50   1
  -2   3   0  289.70    7.10   1
   2  -3   1   93.90    2.60   1
  -2   3  -1  103.00    3.20   1
   2  -3   2   51.80    1.70   1
  -2   3  -2   34.70    3.50   1
   2  -3   3    8.10    1.00   1
  -2   3  -3    8.10    0.80   1
   2  -3   4   51.20    2.70   1
  -2   3  -4   50.40    1.70   1
  -2   3  -5   90.30    2.80   1
  -2   3  -6   13.00    1.00   1
  -2   3  -7   58.40    2.00   1
  -2   3  -8  118.90    3.30   1
  -2   3  -9   81.60    5.80   1
  -2   3 -10   39.80    4.60   1
  -2   3 -11    9.90    3.80   1
  -2   3 -12    3.90    3.20   1
  -2   3 -13    4.90    4.10   1
  -2   3 -14   40.00    5.00   1
  -2   3 -15   54.80    5.60   1
  -2   3 -16    3.80    5.00   1
  -2   3 -17   24.70    5.80   1
  -2   3 -18   10.00    5.90   1
  -2   3 -19   -1.30    5.10   1
  -2   3 -20    3.50    5.60   1
  -2   3 -21    2.30    6.20   1
  -2   3 -22   21.70    8.30   1
  -2   3 -23    0.40    7.10   1
   2  -2 -24   39.10    5.10   1
   2  -2 -23   43.40    4.70   1
   2  -2 -22   29.10    4.00   1
   2  -2 -21   27.70    4.10   1
   2  -2 -20    5.10    3.10   1
   2  -2 -19    7.30    2.90   1
   2  -2 -18   44.60    3.40   1
   2  -2 -17   25.40    2.80   1
   2  -2 -16  155.50    6.00   1
   2  -2 -15  191.00    6.90   1
   2  -2 -14  101.00    4.40   1
   2  -2 -13   46.10    2.80   1
   2  -2 -12    5.40    1.70   1
   2  -2 -11   14.00    1.80   1
   2  -2 -10  125.00    4.50   1
  -2   2  10  116.70    5.80   1
   2  -2  -9  180.40    5.70   1
  -2   2   9  192.10    8.60   1
   2  -2  -8  292.70    7.30   1
  -2   2   8  285.00   11.40   1
   2  -2  -7  342.30    6.90   1
  -2   2   7  328.40   13.30   1
   2  -2  -6  349.90    8.40   1
  -2   2   6  321.10    9.30   1
   2  -2  -5   37.30    1.60   1
  -2   2   5   45.40    2.10   1
   2  -2  -4    9.60    1.00   1
  -2   2   4    7.90    1.10   1
   2  -2  -3   68.40    2.20   1
  -2   2   3   58.10    2.00   1
   2  -2  -2  129.90    3.50   1
  -2   2   2  141.50    3.80   1
   2  -2  -1  702.20   13.10   1
  -2   2   1  687.00   14.80   1
   2  -2   0  368.50    7.30   1
  -2   2   0  360.40    8.70   1
   2  -2   1  830.90   22.10   1
  -2   2  -1  809.30   17.70   1
   2  -2   2  183.80    8.30   1
  -2   2  -2  196.40    4.00   1
   2  -2   3   97.10    2.80   1
  -2   2  -3   92.00    2.30   1
   2  -2   4   10.10    0.90   1
  -2   2  -4    9.60    0.80   1
  -2   2  -5   59.30    1.60   1
   2  -2   6  475.10   18.90   1
  -2   2  -6  438.90   13.40   1
   2  -2   7  499.30   21.00   1
  -2   2  -7  417.50   12.90   1
   2  -2   8  356.20   16.80   1
  -2   2  -8  362.70   11.70   1
  -2   2  -9  262.00   12.60   1
  -2   2 -10  141.40    8.10   1
  -2   2 -11   21.30    3.90   1
  -2   2 -12    9.20    3.70   1
  -2   2 -13   52.50    5.60   1
  -2   2 -14  122.00    8.60   1
  -2   2 -15  214.30   13.60   1
  -2   2 -16  151.70    9.80   1
  -2   2 -17   20.00    4.80   1
  -2   2 -18   54.00    7.00   1
  -2   2 -19    7.20    5.00   1
  -2   2 -20    1.90    5.40   1
  -2   2 -21   25.50    7.70   1
  -2   2 -22   33.80    7.20   1
  -2   2 -23   45.20   10.20   1
  -2   2 -24   25.20    8.10   1
   2  -1 -24   -2.50    4.10   1
   2  -1 -23    0.10    3.80   1
   2  -1 -22   -3.10    3.50   1
   2  -1 -21    3.20    3.60   1
   2  -1 -20    2.80    2.80   1
   2  -1 -19   -4.80    3.10   1
   2  -1 -18    2.90    2.50   1
   2  -1 -17    9.20    2.70   1
   2  -1 -16    0.00    2.00   1
   2  -1 -15   10.10    2.30   1
   2  -1 -14    9.30    2.00   1
   2  -1 -13    0.40    1.70   1
   2  -1 -12   13.60    1.90   1
   2  -1 -11    5.40    1.50   1
  -2   1  11    6.00    2.00   1
   2  -1 -10    2.40    1.40   1
  -2   1  10    3.00    1.80   1
   2  -1  -9    8.80    1.40   1
  -2   1   9    6.20    1.70   1
   2  -1  -8   35.70    1.80   1
  -2   1   8   37.50    1.90   1
   2  -1  -7   24.20    1.00   1
  -2   1   7   16.30    1.30   1
   2  -1  -6   20.20    1.20   1
  -2   1   6   22.00    1.40   1
   2  -1  -5   29.30    1.00   1
  -2   1   5   25.70    1.40   1
   2  -1  -4   17.80    1.00   1
  -2   1   4   18.90    1.10   1
   2  -1  -3    4.30    0.70   1
  -2   1   3    4.60    0.70   1
   2  -1  -2    5.10    0.60   1
  -2   1   2    5.50    0.60   1
   2  -1  -1   19.00    1.10   1
  -2   1   1   15.20    0.70   1
   2  -1   0  102.00    2.80   1
  -2   1   0  109.80    2.80   1
   2  -1   1   22.40    1.30   1
  -2   1  -1   17.50    2.00   1
   2  -1   2    7.00    0.80   1
  -2   1  -2    6.90    0.70   1
   2  -1   3    7.00    0.70   1
  -2   1  -3    5.70    0.80   1
   2  -1   4   24.00    0.90   1
  -2   1  -4   25.60    1.40   1
   2  -1   5   37.20    1.40   1
  -2   1  -5   38.50    1.90   1
   2  -1   6   24.40    0.90   1
  -2   1  -6   33.10    1.90   1
   2  -1   7   24.80    2.30   1
  -2   1  -7   19.00    1.70   1
   2  -1   8   43.00    3.60   1
  -2   1  -8   42.70    2.40   1
   2  -1   9    6.50    2.10   1
  -2   1  -9   10.50    2.50   1
  -2   1 -10    4.30    2.90   1
  -2   1 -11    7.10    3.20   1
  -2   1 -12   18.60    3.80   1
  -2   1 -13    0.90    3.10   1
  -2   1 -14   15.80    3.90   1
  -2   1 -15   19.70    4.00   1
  -2   1 -16   -3.10    3.70   1
  -2   1 -17   11.70    5.00   1
  -2   1 -18    5.60    4.60   1
  -2   1 -19    3.20    5.10   1
  -2   1 -20    0.00    5.40   1
  -2   1 -21   -8.60    6.50   1
  -2   1 -22    3.80    6.10   1
  -2   1 -23   11.00    7.10   1
  -2   1 -24    4.10    7.10   1
   2   0 -24   33.00    4.90   1
   2   0 -23   81.20    6.20   1
   2   0 -22   36.00    4.30   1
   2   0 -21   37.60    4.00   1
   2   0 -20    7.20    2.80   1
   2   0 -19   17.10    3.20   1
   2   0 -18   50.10    4.20   1
   2   0 -17   26.60    3.10   1
   2   0 -16  264.60    9.60   1
   2   0 -15  272.70    9.50   1
   2   0 -14  184.90    6.60   1
   2   0 -13   81.20    3.70   1
  -2   0  13   65.80    2.90   1
   2   0 -12   17.50    2.10   1
  -2   0  12   19.30    1.60   1
   2   0 -11   41.70    2.60   1
  -2   0  11   53.20    2.10   1
   2   0 -10  161.90    5.60   1
  -2   0  10  145.60    4.20   1
   2   0  -9  331.90    9.70   1
  -2   0   9  347.80    8.90   1
   2   0  -8  324.00    7.40   1
  -2   0   8  349.40    8.90   1
   2   0  -7  623.20   13.20   1
  -2   0   7  542.00   20.10   1
   2   0  -6  757.40   15.70   1
  -2   0   6  817.00   28.30   1
   2   0  -5    1.20    0.80   1
  -2   0   5   -0.80    1.00   1
   2   0  -4   64.00    1.70   1
  -2   0   4   71.10    3.10   1
   2   0  -3  180.90    3.80   1
  -2   0   3  194.10    7.10   1
   2   0  -2  271.80    5.40   1
   2   0  -1  989.70   20.80   1
  -2   0   1  944.20   34.90   1
   2   0   0 1145.40   24.50   1
  -2   0   0 1224.80   44.10   1
   2   0   1  962.10   19.90   1
  -2   0  -1  986.40   23.60   1
  -2   0  -2  437.40    9.50   1
   2   0   3  208.00    6.30   1
  -2   0  -3  236.40    5.50   1
   2   0   4   71.40    2.70   1
  -2   0  -4   84.30    3.00   1
   2   0   5    1.60    1.00   1
  -2   0  -5    0.60    1.00   1
   2   0   6  801.50   30.00   1
  -2   0  -6  989.40   26.00   1
   2   0   7  652.80   16.80   1
  -2   0  -7  616.80   17.10   1
   2   0   8  356.80    9.60   1
  -2   0  -8  395.40   11.60   1
   2   0   9  338.30    8.80   1
  -2   0  -9  388.40   17.70   1
   2   0  10  175.40    5.10   1
  -2   0 -10  169.70    8.60   1
   2   0  11   50.60    2.20   1
  -2   0 -11   57.40    5.20   1
   2   0  12   15.80    1.40   1
  -2   0 -12   20.90    3.30   1
   2   0  13   81.60    3.30   1
  -2   0 -13   84.00    6.50   1
   2   0  14  193.30    7.10   1
  -2   0 -14  239.70   12.90   1
   2   0  15  298.20   10.60   1
  -2   0 -15  317.40   14.90   1
  -2   0 -16  249.20   14.60   1
  -2   0 -17   24.90    4.20   1
  -2   0 -18   55.10    6.40   1
  -2   0 -19   19.20    5.50   1
  -2   0 -20    9.30    4.80   1
  -2   0 -21   38.00    6.60   1
  -2   0 -22   47.80    7.40   1
   2   0  23  104.40   10.30   1
  -2   0 -23  119.60   12.00   1
  -2   0 -24   31.60    7.90   1
   2   1 -24    7.20    4.50   1
   2   1 -23   -3.60    4.00   1
   2   1 -22    3.30    3.80   1
   2   1 -21   -0.50    3.50   1
   2   1 -20   -2.00    3.10   1
   2   1 -19    3.20    3.10   1
   2   1 -18    0.80    2.70   1
   2   1 -17    9.60    2.70   1
   2   1 -16    1.70    2.40   1
   2   1 -15   15.80    2.70   1
  -2  -1  15    3.10    3.10   1
   2   1 -14   10.20    2.40   1
  -2  -1  14   11.70    3.10   1
   2   1 -13    0.70    2.30   1
  -2  -1  13   -6.90    2.40   1
   2   1 -12   17.40    2.20   1
  -2  -1  12   10.90    2.60   1
   2   1 -11    3.70    1.80   1
  -2  -1  11    1.80    1.40   1
   2   1 -10    0.80    1.60   1
  -2  -1  10    0.40    1.30   1
   2   1  -9    6.40    1.70   1
  -2  -1   9    5.10    1.30   1
   2   1  -8   35.90    1.70   1
  -2  -1   8   34.40    2.70   1
   2   1  -7   21.20    1.40   1
  -2  -1   7   15.20    1.40   1
   2   1  -6   22.90    1.50   1
  -2  -1   6   24.60    1.50   1
   2   1  -5   29.00    1.20   1
  -2  -1   5   25.60    2.40   1
   2   1  -4   16.80    0.90   1
  -2  -1   4   15.20    2.00   1
   2   1  -3    4.50    0.80   1
  -2  -1   3    2.20    2.00   1
   2   1  -2    4.90    0.60   1
  -2  -1   2    6.70    1.20   1
   2   1  -1   20.20    1.10   1
  -2  -1   1   15.00    1.30   1
   2   1   0   88.80    2.20   1
  -2  -1   0  101.70    3.60   1
   2   1   1   18.50    0.90   1
  -2  -1  -1   17.40    0.90   1
   2   1   2    4.80    0.80   1
  -2  -1  -2    7.40    0.70   1
   2   1   3    4.00    0.80   1
  -2  -1  -3    5.80    0.70   1
   2   1   4   19.20    1.10   1
  -2  -1  -4   20.20    1.00   1
   2   1   5   30.80    1.50   1
  -2  -1  -5   28.00    1.40   1
   2   1   6   20.80    1.60   1
  -2  -1  -6   27.10    1.50   1
   2   1   7   21.00    1.20   1
  -2  -1  -7   16.00    1.40   1
   2   1   8   35.80    1.60   1
  -2  -1  -8   38.20    2.00   1
   2   1   9    6.20    1.00   1
  -2  -1  -9    9.30    2.00   1
   2   1  10    0.10    1.20   1
  -2  -1 -10    4.10    2.00   1
   2   1  11    4.60    1.40   1
  -2  -1 -11    3.90    2.20   1
   2   1  12   17.00    1.80   1
  -2  -1 -12   16.10    2.80   1
   2   1  13    1.30    1.30   1
  -2  -1 -13    1.80    2.90   1
   2   1  14   11.50    1.60   1
  -2  -1 -14    6.10    3.30   1
   2   1  15   13.90    1.70   1
  -2  -1 -15   13.50    3.80   1
   2   1  16   -0.40    4.10   1
  -2  -1 -16   -1.50    3.10   1
   2   1  17   10.80    5.10   1
  -2  -1 -17    8.90    3.70   1
   2   1  18   -1.40    4.40   1
  -2  -1 -18    6.80    4.30   1
   2   1  19    0.20    5.00   1
  -2  -1 -19    1.40    4.30   1
   2   1  20  -13.10    5.90   1
  -2  -1 -20    0.10    4.50   1
   2   1  21    2.30    5.50   1
  -2  -1 -21    5.30    5.20   1
   2   1  22    4.30    6.40   1
  -2  -1 -22    7.90    5.90   1
   2   1  23    2.00    7.00   1
  -2  -1 -23    8.10    6.60   1
  -2  -1 -24   -4.50    7.80   1
   2   2 -24   26.70    5.30   1
   2   2 -23   26.30    4.30   1
   2   2 -22   19.70    4.20   1
   2   2 -21   24.20    4.10   1
   2   2 -20    1.50    3.40   1
   2   2 -19    4.30    3.10   1
   2   2 -18   49.20    4.20   1
   2   2 -17   33.50    3.50   1
   2   2 -16  154.00    7.10   1
   2   2 -15  175.50    7.50   1
   2   2 -14   91.60    4.50   1
   2   2 -13   43.40    3.10   1
  -2  -2  13   34.40    4.70   1
   2   2 -12    5.80    2.20   1
  -2  -2  12    8.80    3.30   1
   2   2 -11   19.10    2.40   1
  -2  -2  11   16.10    3.80   1
   2   2 -10  129.40    5.90   1
  -2  -2  10  112.10    5.10   1
   2   2  -9  174.80    6.90   1
  -2  -2   9  192.40    7.00   1
   2   2  -8  281.00    7.60   1
  -2  -2   8  272.40   11.80   1
   2   2  -7  346.80   10.80   1
  -2  -2   7  304.60   13.10   1
   2   2  -6  324.70    8.50   1
  -2  -2   6  313.60   12.80   1
   2   2  -5   26.70    1.40   1
  -2  -2   5   33.40    3.00   1
   2   2  -4    8.10    1.20   1
  -2  -2   4    4.00    2.30   1
   2   2  -3   74.30    2.60   1
  -2  -2   3   68.10    2.70   1
   2   2  -2  139.10    4.00   1
  -2  -2   2  156.80    4.90   1
   2   2  -1  674.90   13.30   1
  -2  -2   1  661.40   16.90   1
   2   2   0  319.10    6.90   1
  -2  -2   0  307.40    7.00   1
   2   2   1  671.00   12.90   1
  -2  -2  -1  638.50   13.30   1
   2   2   2  122.50    3.80   1
  -2  -2  -2  137.40    3.00   1
   2   2   3   62.50    2.30   1
  -2  -2  -3   62.00    1.70   1
   2   2   4   10.70    1.10   1
  -2  -2  -4    9.00    0.80   1
   2   2   5   38.10    1.70   1
  -2  -2  -5   48.30    1.70   1
   2   2   6  375.90   10.90   1
  -2  -2  -6  345.30    9.30   1
   2   2   7  346.80    8.30   1
  -2  -2  -7  330.30    8.80   1
   2   2   8  277.00    7.00   1
  -2  -2  -8  292.80    8.20   1
   2   2   9  183.00    6.10   1
  -2  -2  -9  215.20    9.30   1
   2   2  10  113.70    4.30   1
  -2  -2 -10  135.90    6.90   1
   2   2  11   12.30    1.90   1
  -2  -2 -11   17.70    2.80   1
   2   2  12    3.10    1.60   1
  -2  -2 -12    6.40    2.90   1
   2   2  13   50.80    3.00   1
  -2  -2 -13   56.50    4.00   1
   2   2  14  113.30    7.10   1
  -2  -2 -14  123.70    7.40   1
   2   2  15  211.50   11.00   1
  -2  -2 -15  206.70   10.30   1
   2   2  16  167.20    9.20   1
  -2  -2 -16  153.50    8.70   1
   2   2  17   37.20    5.10   1
  -2  -2 -17   18.00    4.20   1
   2   2  18   58.20    6.20   1
  -2  -2 -18   46.60    5.50   1
   2   2  19    5.90    5.10   1
  -2  -2 -19   12.20    4.50   1
   2   2  20   -0.10    5.90   1
  -2  -2 -20    7.60    5.00   1
   2   2  21   50.00   11.70   1
  -2  -2 -21   41.10    6.60   1
   2   2  22   33.40    8.10   1
  -2  -2 -22   39.10    7.10   1
  -2  -2 -23   57.90    8.10   1
  -2  -2 -24   45.60    8.60   1
   2   3 -23   -1.90    4.30   1
   2   3 -22    8.90    4.30   1
   2   3 -21    5.20    4.00   1
   2   3 -20   -1.80    3.60   1
   2   3 -19    3.10    3.40   1
   2   3 -18    3.40    3.00   1
   2   3 -17   18.50    3.20   1
   2   3 -16    3.50    2.70   1
   2   3 -15   53.90    3.90   1
   2   3 -14   35.70    3.40   1
   2   3 -13    0.90    2.50   1
   2   3 -12    5.80    2.80   1
   2   3 -11    3.10    3.20   1
   2   3 -10   23.10    3.30   1
  -2  -3  10   22.70    3.90   1
   2   3  -9   52.70    4.50   1
  -2  -3   9   35.20    4.20   1
   2   3  -8   96.20    4.30   1
  -2  -3   8   65.20    5.60   1
   2   3  -7   48.30    2.30   1
  -2  -3   7   44.90    4.80   1
   2   3  -6    9.80    1.30   1
  -2  -3   6   10.60    2.90   1
   2   3  -5   66.50    2.30   1
  -2  -3   5   49.30    4.50   1
   2   3  -4   33.70    2.00   1
  -2  -3   4   40.80    2.40   1
   2   3  -3    3.60    1.20   1
  -2  -3   3    3.40    1.40   1
   2   3  -2   43.20    2.00   1
  -2  -3   2   35.70    4.10   1
   2   3  -1   88.00    2.60   1
  -2  -3   1   86.20    5.10   1
   2   3   0  270.70    6.10   1
  -2  -3   0  229.50   10.10   1
   2   3   1   79.50    2.30   1
  -2  -3  -1   92.30    2.70   1
   2   3   2   44.20    2.00   1
  -2  -3  -2   31.70    1.40   1
   2   3   3    6.90    1.20   1
  -2  -3  -3    6.00    0.70   1
   2   3   4   39.70    1.90   1
  -2  -3  -4   35.90    1.40   1
   2   3   5   74.40    3.30   1
  -2  -3  -5   72.30    2.10   1
   2   3   6    8.20    1.50   1
  -2  -3  -6    8.60    1.00   1
   2   3   7   48.10    3.10   1
  -2  -3  -7   50.20    2.20   1
   2   3   8   98.30    7.00   1
  -2  -3  -8  111.90    5.70   1
   2   3   9   50.30    4.80   1
  -2  -3  -9   58.00    4.30   1
   2   3  10   17.60    3.60   1
  -2  -3 -10   32.60    3.50   1
   2   3  11    6.90    4.10   1
  -2  -3 -11    5.40    2.70   1
   2   3  12   13.70    4.60   1
  -2  -3 -12    7.00    2.70   1
   2   3  13    2.50    4.00   1
  -2  -3 -13    7.20    2.90   1
   2   3  14   41.80    5.10   1
  -2  -3 -14   42.60    4.40   1
   2   3  15   57.20    5.90   1
  -2  -3 -15   65.30    5.30   1
   2   3  16    1.90    4.60   1
  -2  -3 -16    7.20    4.20   1
   2   3  17   32.20    5.80   1
  -2  -3 -17   25.30    4.30   1
   2   3  18    6.90    4.80   1
  -2  -3 -18    3.80    4.30   1
   2   3  19   -3.30    5.70   1
  -2  -3 -19    9.40    5.50   1
   2   3  20   10.00    6.00   1
  -2  -3 -20    5.90    5.80   1
   2   3  21   13.60    8.20   1
  -2  -3 -21   15.70    6.60   1
  -2  -3 -22   13.80    6.40   1
  -2  -3 -23    2.10    6.00   1
   2   4 -22    2.70    4.30   1
   2   4 -21   13.10    4.30   1
   2   4 -20    0.70    3.90   1
   2   4 -19   -0.80    3.30   1
   2   4 -18   11.50    3.40   1
   2   4 -17   25.90    3.70   1
   2   4 -16   25.80    3.60   1
   2   4 -15   46.90    4.10   1
   2   4 -14   13.00    4.60   1
   2   4 -13   10.30    4.30   1
   2   4 -12   16.30    3.60   1
   2   4 -11   21.10    3.60   1
   2   4 -10   41.60    4.50   1
   2   4  -9   38.70    4.20   1
   2   4  -8  116.30    5.60   1
   2   4  -7   75.00    4.00   1
   2   4  -6   40.90    3.00   1
   2   4  -5   22.50    2.00   1
  -2  -4   5   21.20    2.70   1
   2   4  -4    4.90    2.00   1
  -2  -4   4    5.50    1.90   1
   2   4  -3   20.40    2.80   1
  -2  -4   3   18.00    2.30   1
   2   4  -2  110.20    3.70   1
   2   4  -1  181.40    5.10   1
  -2  -4   1  199.90   10.20   1
   2   4   0   49.90    2.80   1
  -2  -4   0   62.40    4.10   1
   2   4   1  183.70    6.60   1
   2   4   2   90.00    3.80   1
  -2  -4  -2   99.10    5.40   1
   2   4   3   20.80    2.00   1
  -2  -4  -3   13.00    1.20   1
   2   4   4   -2.20    3.60   1
  -2  -4  -4    2.30    0.80   1
   2   4   5   35.30    4.60   1
  -2  -4  -5   25.20    1.30   1
   2   4   6   61.80    4.70   1
  -2  -4  -6   47.70    1.80   1
   2   4   7   82.20    6.50   1
  -2  -4  -7   64.10    2.80   1
   2   4   8  116.60    8.70   1
   2   4   9   28.30    5.00   1
  -2  -4  -9   43.00    3.50   1
   2   4  10   46.60    5.60   1
  -2  -4 -10   47.40    4.00   1
   2   4  11   12.90    4.80   1
  -2  -4 -11   20.60    3.00   1
   2   4  12   22.60    4.90   1
  -2  -4 -12   24.10    3.40   1
   2   4  13    8.60    4.70   1
  -2  -4 -13   13.10    3.70   1
   2   4  14   27.10    5.20   1
  -2  -4 -14   22.20    3.80   1
   2   4  15   52.00    7.00   1
  -2  -4 -15   66.30    5.60   1
   2   4  16   22.50    5.40   1
  -2  -4 -16   39.70    5.20   1
   2   4  17    5.20    4.30   1
  -2  -4 -17   23.20    5.10   1
   2   4  18   17.30    7.20   1
  -2  -4 -18   12.30    4.90   1
   2   4  19   61.40   15.50   1
  -2  -4 -19    2.90    5.10   1
   2   4  20    1.30    6.90   1
  -2  -4 -20   11.10    6.70   1
  -2  -4 -21   33.50    7.50   1
  -2  -4 -22   12.00    6.60   1
   2   5 -20    5.90    4.00   1
   2   5 -19    0.80    3.70   1
   2   5 -18    5.30    3.80   1
   2   5 -17   10.30    3.40   1
   2   5 -16    8.60    3.30   1
   2   5 -14   21.80    4.90   1
   2   5 -13   10.60    4.20   1
   2   5 -12    4.30    3.70   1
   2   5 -11    3.90    4.20   1
   2   5 -10   20.50    3.80   1
   2   5  -9   78.00    6.50   1
   2   5  -8   35.90    4.50   1
   2   5  -7   59.50    3.80   1
   2   5  -6   14.10    2.10   1
   2   5  -5   32.70    3.30   1
  -2  -5   5   24.30    3.30   1
   2   5  -4    2.90    2.50   1
  -2  -5   4    2.30    2.10   1
   2   5  -3    6.50    1.50   1
  -2  -5   3    5.10    2.00   1
   2   5  -2   26.50    1.70   1
  -2  -5   2   17.80    2.70   1
   2   5  -1   43.20    2.20   1
  -2  -5   1   33.10    3.70   1
   2   5   0  197.30    7.50   1
  -2  -5   0  240.50   12.70   1
   2   5   1   31.60    2.50   1
  -2  -5  -1   37.60    3.50   1
   2   5   2   21.50    1.90   1
  -2  -5  -2   21.80    2.90   1
   2   5   3   -4.90    3.90   1
  -2  -5  -3    5.90    2.30   1
   2   5   4   -1.70    3.80   1
  -2  -5  -4    7.30    2.60   1
   2   5   5   33.00    5.30   1
  -2  -5  -5   23.80    1.30   1
   2   5   6   14.00    4.70   1
  -2  -5  -6   11.70    1.10   1
   2   5   7   75.80    6.50   1
  -2  -5  -7   61.00    2.20   1
   2   5   8   27.90    4.80   1
  -2  -5  -8   39.30    2.20   1
   2   5   9   66.90    6.30   1
  -2  -5  -9   80.50    3.40   1
   2   5  10   10.40    4.20   1
  -2  -5 -10   21.10    2.00   1
   2   5  11    8.70    5.30   1
  -2  -5 -11    3.10    3.00   1
   2   5  12    2.50    4.60   1
  -2  -5 -12    2.70    3.00   1
   2   5  13    6.10    4.90   1
  -2  -5 -13   11.30    3.50   1
   2   5  15   21.60    5.60   1
  -2  -5 -15   30.20    4.70   1
   2   5  16    9.60    5.90   1
  -2  -5 -16   19.30    4.50   1
   2   5  17   20.60    6.90   1
  -2  -5 -17   19.40    4.70   1
   2   5  18   -6.70    6.20   1
  -2  -5 -18    8.50    5.00   1
   2   5  19    5.10    5.80   1
  -2  -5 -19   -3.00    5.00   1
  -2  -5 -20    5.00    5.40   1
   2   6 -19    2.20    5.40   1
   2   6 -18   -2.30    4.00   1
   2   6 -17    6.60    4.70   1
   2   6 -16    8.70    5.50   1
   2   6 -12    9.70    4.50   1
   2   6 -10   41.40    7.80   1
   2   6  -9    0.90    3.90   1
   2   6  -8   16.20    4.10   1
   2   6  -7   13.90    3.90   1
   2   6  -6    0.70    3.10   1
   2   6  -5   11.60    2.10   1
  -2  -6   5    9.70    3.10   1
   2   6  -4    1.20    1.90   1
  -2  -6   4    4.70    2.90   1
   2   6  -3   14.10    2.00   1
  -2  -6   3   10.00    3.10   1
   2   6  -2   33.40    2.00   1
  -2  -6   2   36.70    4.10   1
   2   6  -1   12.80    1.90   1
  -2  -6   1   14.70    3.10   1
   2   6   0   21.90    2.00   1
  -2  -6   0   31.30    3.90   1
   2   6   1   19.30    5.10   1
   2   6   2   26.10    5.20   1
  -2  -6  -2   30.70    3.80   1
   2   6   3    4.70    5.90   1
  -2  -6  -3    9.90    3.00   1
   2   6   4  -11.10    4.50   1
  -2  -6  -4    3.00    2.60   1
   2   6   5    6.20    5.70   1
  -2  -6  -5   12.20    3.10   1
   2   6   6   -2.60    5.30   1
  -2  -6  -6    1.30    2.70   1
   2   6   7   17.10    5.00   1
   2   6   8   13.60    4.70   1
   2   6   9    8.80    4.30   1
  -2  -6  -9    5.80    3.00   1
   2   6  10   14.80    4.70   1
   2   6  11   13.50    5.70   1
  -2  -6 -11    7.00    3.60   1
   2   6  12   12.30    6.70   1
  -2  -6 -12   16.70    4.00   1
   2   6  13   32.80   16.20   1
  -2  -6 -13    2.80    3.80   1
   2   6  14   -6.30    7.60   1
  -2  -6 -14    4.80    4.10   1
   2   6  15    8.60    7.50   1
  -2  -6 -15    6.00    4.40   1
   2   6  16    9.40    6.90   1
  -2  -6 -16    5.70    4.80   1
   2   6  17    6.50    5.80   1
  -2  -6 -17   15.30    5.40   1
   2   6  18   -2.70    4.30   1
  -2  -6 -18    3.90    5.30   1
   2   7 -16    3.10    5.70   1
   2   7 -15    2.80    5.40   1
   2   7 -12    6.70    5.30   1
   2   7 -11    8.00    5.00   1
   2   7 -10   13.20    4.90   1
   2   7  -9   26.20    5.30   1
   2   7  -8    4.70    5.20   1
   2   7  -7   29.00    5.10   1
   2   7  -6   13.00    4.60   1
  -2  -7   5    2.10    3.70   1
   2   7  -4   15.70    5.70   1
  -2  -7   4    6.20    3.60   1
   2   7  -3   19.10    6.40   1
  -2  -7   3   17.40    3.80   1
   2   7  -2    9.30    6.50   1
  -2  -7   2   19.80    3.90   1
   2   7  -1   26.40    7.10   1
  -2  -7   1    9.80    3.60   1
   2   7   0   77.30    8.10   1
  -2  -7   0   88.70    7.80   1
   2   7   1    6.60    6.70   1
  -2  -7  -1   14.10    3.60   1
   2   7   2   19.50    5.40   1
  -2  -7  -2   11.00    3.60   1
   2   7   3    0.10    6.10   1
  -2  -7  -3    6.30    3.40   1
   2   7   4    5.00    6.10   1
   2   7   5   13.10    5.40   1
   2   7   6   10.00    5.80   1
   2   7   7   13.70    6.80   1
   2   7   8    1.40    6.00   1
  -2  -7  -8    6.20    3.70   1
   2   7   9   39.10    7.00   1
  -2  -7  -9   32.80    4.90   1
   2   7  10   27.30    8.20   1
  -2  -7 -10    9.10    4.00   1
   2   7  11   10.60    7.50   1
  -2  -7 -11    2.70    3.90   1
   2   7  12    0.80    8.30   1
  -2  -7 -12    0.30    4.30   1
   2   7  13    5.00    7.40   1
  -2  -7 -13    6.60    4.70   1
   2   7  14    2.20    6.80   1
  -2  -7 -14   16.30    5.30   1
   2   7  15   -0.20    7.90   1
  -2  -7 -15   11.60    5.30   1
   2   7  16   35.90   10.20   1
  -2  -7 -16    4.20    5.70   1
   2   8 -12   -0.70    5.50   1
   2   8  -9    4.10    5.40   1
   2   8  -8    1.70    5.50   1
   2   8  -7    1.10    4.90   1
  -2  -8   4   -1.40    4.40   1
  -2  -8   3    1.10    4.60   1
   2   8  -2    7.30    7.20   1
  -2  -8   2   -3.60    4.60   1
   2   8  -1   10.30    9.40   1
   2   8   0   11.70    6.90   1
  -2  -8   0    4.00    4.40   1
   2   8   1   11.10    8.10   1
  -2  -8  -1    4.10    4.50   1
   2   8   2   16.20    7.80   1
   2   8   3   24.10    8.50   1
  -2  -8  -3    6.60    4.20   1
   2   8   4   15.50    7.80   1
   2   8   5   14.50    8.20   1
  -2  -8  -5  -11.10    4.40   1
   2   8   6   14.10    8.20   1
  -2  -8  -6   -0.70    4.60   1
   2   8   7   16.10    6.20   1
  -2  -8  -7   10.20    4.80   1
   2   8   8   11.50    6.20   1
  -2  -8  -8    0.80    4.50   1
   2   8   9   17.00    7.20   1
  -2  -8  -9    1.50    4.80   1
   2   8  10    4.00    6.70   1
  -2  -8 -10    3.80    5.00   1
   2   8  11    5.50    5.80   1
  -2  -8 -11    6.60    5.20   1
   2   8  12   -5.10    7.20   1
  -2  -8 -12    0.90    5.10   1
   2   8  13   -4.90    9.80   1
   2   9  -6    8.70    6.00   1
   2   9  -5    6.90    5.50   1
  -2  -9   5    2.80    5.40   1
  -2  -9   3   -4.70    5.60   1
   2   9   1    2.50    8.10   1
   2   9   2   -5.10    7.10   1
   2   9   3   -6.20    5.80   1
   2   9   4    0.00    5.90   1
   2   9   5   -7.10    5.50   1
   2   9   6   -8.00    7.10   1
   3  -8  -9    3.60    5.10   1
   3  -8  -8    3.70    5.10   1
   3  -8  -7    4.20    3.20   1
   3  -8  -6    0.20    3.10   1
   3  -8  -5    9.40    3.40   1
   3  -8  -4   13.00    4.40   1
   3  -8  -3    5.20    4.90   1
   3  -8  -2    9.10    4.40   1
   3  -8   1   10.40    4.60   1
   3  -7 -14    0.30    3.30   1
   3  -7 -13   -0.20    3.20   1
   3  -7 -12    0.60    3.40   1
   3  -7 -11   -0.70    3.30   1
   3  -7 -10    0.00    3.30   1
   3  -7  -9   -0.20    4.70   1
   3  -7  -8   -1.70    2.80   1
   3  -7  -7    2.50    4.10   1
   3  -7  -6   -0.60    2.50   1
   3  -7  -5    3.10    2.70   1
   3  -7  -4   12.50    2.60   1
   3  -7  -3    5.40    3.60   1
   3  -7  -2    2.60    3.40   1
   3  -7  -1    5.40    3.00   1
   3  -7   0   -1.00    3.10   1
  -3   7   0   -1.30    5.40   1
   3  -7   1    1.80    3.70   1
  -3   7  -1    4.70    4.30   1
   3  -7   2   -0.80    3.40   1
  -3   7  -2    3.70    4.30   1
  -3   7  -3    5.80    3.30   1
  -3   7  -4   10.20    3.60   1
  -3   7  -5   -4.10    3.40   1
  -3   7  -6    4.60    3.70   1
  -3   7  -7    6.00    7.10   1
  -3   7  -8  -15.70    6.90   1
  -3   7  -9   13.50    7.20   1
  -3   7 -10    1.30    8.10   1
  -3   7 -11   -8.80    7.40   1
  -3   7 -12   17.10    9.00   1
  -3   7 -13   -5.80    8.60   1
   3  -6 -17    4.60    3.60   1
   3  -6 -16    8.30    3.30   1
   3  -6 -15    2.40    3.40   1
   3  -6 -14    8.70    3.20   1
   3  -6 -13    3.00    3.10   1
   3  -6 -12   16.10    3.30   1
   3  -6 -11   18.80    3.10   1
   3  -6 -10   11.00    2.70   1
   3  -6  -9    8.90    2.70   1
   3  -6  -8    6.60    3.90   1
   3  -6  -7    3.00    1.50   1
   3  -6  -6    4.90    1.60   1
   3  -6  -5   50.30    2.60   1
   3  -6  -4   36.70    2.50   1
   3  -6  -3   11.10    1.40   1
   3  -6  -2   35.60    2.10   1
   3  -6  -1    7.40    1.50   1
  -3   6   1    1.20    4.10   1
   3  -6   0    0.30    2.80   1
  -3   6   0   -2.20    3.80   1
   3  -6   1    7.30    2.20   1
  -3   6  -1    8.40    4.00   1
   3  -6   2   32.20    4.30   1
  -3   6  -2   33.60    3.60   1
  -3   6  -3   15.30    3.30   1
  -3   6  -4   40.70    5.00   1
  -3   6  -5   55.50    4.50   1
  -3   6  -6   -1.50    5.60   1
  -3   6  -7   11.30    6.00   1
  -3   6  -8    6.10    6.30   1
  -3   6  -9   11.50    6.30   1
  -3   6 -10   17.50    6.60   1
  -3   6 -13   11.60    5.80   1
  -3   6 -14   25.50    6.80   1
  -3   6 -15   12.80    6.20   1
  -3   6 -16    0.70    6.20   1
   3  -5 -19    4.90    3.60   1
   3  -5 -18    6.80    3.30   1
   3  -5 -17    5.60    3.20   1
   3  -5 -16    1.90    2.80   1
   3  -5 -15   11.60    3.20   1
   3  -5 -14    4.30    2.60   1
   3  -5 -13   16.20    2.80   1
   3  -5 -12   18.50    2.80   1
   3  -5 -11    3.40    2.50   1
   3  -5 -10   25.00    2.80   1
   3  -5  -9    0.20    2.10   1
   3  -5  -8    5.60    2.00   1
   3  -5  -7    3.30    1.70   1
   3  -5  -6   20.20    2.40   1
   3  -5  -5    9.20    1.50   1
   3  -5  -4   77.50    3.00   1
   3  -5  -3   61.20    2.50   1
   3  -5  -2    9.80    1.40   1
  -3   5   2    3.30    3.80   1
   3  -5  -1    2.30    1.30   1
  -3   5   1    7.10    4.30   1
   3  -5   0    2.50    1.80   1
  -3   5   0   -0.30    3.50   1
   3  -5   1    1.70    1.20   1
  -3   5  -1    1.10    3.60   1
   3  -5   2    8.10    2.50   1
  -3   5  -2    8.60    4.90   1
   3  -5   3   67.40    4.20   1
  -3   5  -3   69.20    4.20   1
  -3   5  -4   75.20    3.40   1
  -3   5  -5   11.10    2.60   1
  -3   5  -6   33.60    5.20   1
  -3   5  -7    4.70    4.70   1
  -3   5  -8    6.40    3.00   1
  -3   5  -9    8.40    4.20   1
  -3   5 -12   24.60    6.00   1
  -3   5 -13    9.90    5.10   1
  -3   5 -14    5.70    5.30   1
  -3   5 -15   11.80    6.30   1
  -3   5 -16   -7.10    6.10   1
  -3   5 -17    3.70    5.70   1
  -3   5 -18   -7.90    6.20   1
  -3   5 -19    0.00    7.00   1
   3  -4 -20    4.40    3.80   1
   3  -4 -19    9.20    6.90   1
   3  -4 -18    1.10    3.40   1
   3  -4 -17    7.20    3.20   1
   3  -4 -16   14.90    3.30   1
   3  -4 -15   -1.00    2.60   1
   3  -4 -14   24.50    3.10   1
   3  -4 -13   27.20    2.90   1
   3  -4 -12   30.00    3.00   1
   3  -4 -11   18.40    2.50   1
   3  -4 -10   49.30    3.40   1
   3  -4  -9   25.10    2.60   1
   3  -4  -8   -1.70    1.40   1
   3  -4  -7    6.70    1.40   1
   3  -4  -6   15.40    1.70   1
  -3   4   6   10.80    2.80   1
   3  -4  -5   94.10    4.40   1
  -3   4   5   84.80    5.20   1
   3  -4  -4   63.50    2.60   1
  -3   4   4   63.20    4.70   1
   3  -4  -3   44.80    2.00   1
  -3   4   3   36.70    2.80   1
   3  -4  -2   20.40    1.80   1
  -3   4   2   12.60    1.90   1
   3  -4  -1   15.40    1.30   1
  -3   4   1    7.50    1.90   1
   3  -4   0   -0.70    1.20   1
  -3   4   0    0.30    1.80   1
   3  -4   1   11.40    1.30   1
  -3   4  -1   10.80    1.70   1
   3  -4   2   18.60    1.50   1
  -3   4  -2   14.10    1.70   1
   3  -4   3   41.20    2.10   1
  -3   4  -3   42.00    2.40   1
   3  -4   4   62.40    3.60   1
  -3   4  -4   73.80    3.40   1
   3  -4   5  109.20    5.20   1
  -3   4  -5   97.60    3.80   1
  -3   4  -6   13.20    1.70   1
  -3   4  -7   15.50    1.70   1
  -3   4 -10   83.00    6.70   1
  -3   4 -11    9.10    3.60   1
  -3   4 -12   32.90    5.10   1
  -3   4 -13   35.30    5.50   1
  -3   4 -14   34.40    5.20   1
  -3   4 -15   -7.30    5.50   1
  -3   4 -16   15.70    6.10   1
  -3   4 -17    4.20    6.20   1
  -3   4 -18   -0.20    6.50   1
  -3   4 -19   22.70    6.60   1
  -3   4 -20   10.80    6.70   1
   3  -3 -21    4.10    4.00   1
   3  -3 -20   26.40    4.20   1
   3  -3 -19   33.90    4.20   1
   3  -3 -18   34.50    3.80   1
   3  -3 -17   12.10    3.10   1
   3  -3 -16    4.50    2.70   1
   3  -3 -15   12.90    2.60   1
   3  -3 -14   19.10    2.50   1
   3  -3 -13   80.30    4.40   1
   3  -3 -12   55.80    3.40   1
   3  -3 -11   77.70    4.00   1
   3  -3 -10   99.40    4.40   1
   3  -3  -9   18.70    1.40   1
  -3   3   9   16.50    2.80   1
   3  -3  -8    8.60    1.30   1
  -3   3   8    6.60    2.50   1
   3  -3  -7    5.50    1.40   1
  -3   3   7    6.10    2.20   1
   3  -3  -6   97.30    4.10   1
  -3   3   6  111.30    5.60   1
   3  -3  -5   91.40    3.80   1
  -3   3   5   73.20    4.10   1
   3  -3  -4  182.30    6.00   1
  -3   3   4  173.80    8.20   1
   3  -3  -3  128.50    3.90   1
  -3   3   3  118.30    4.80   1
   3  -3  -2   67.70    3.00   1
  -3   3   2   73.80    3.50   1
   3  -3  -1   52.80    2.00   1
  -3   3   1   50.10    2.80   1
   3  -3   0    3.70    1.20   1
  -3   3   0    3.90    1.10   1
   3  -3   1   49.90    2.30   1
  -3   3  -1   40.30    1.80   1
   3  -3   2   71.60    2.80   1
  -3   3  -2   76.20    2.60   1
   3  -3   3  149.00    4.60   1
  -3   3  -3  134.40    4.70   1
   3  -3   4  236.70    6.80   1
  -3   3  -4  214.10    5.70   1
   3  -3   5  115.80    4.90   1
  -3   3  -5  104.60    3.20   1
   3  -3   6  127.90    5.30   1
  -3   3  -6  153.90    6.40   1
  -3   3  -8    8.20    3.10   1
  -3   3  -9   15.90    3.50   1
  -3   3 -10  110.60    7.40   1
  -3   3 -11  104.10    7.20   1
  -3   3 -12   65.20    6.10   1
  -3   3 -13   78.60    7.10   1
  -3   3 -14   17.40    4.70   1
  -3   3 -15    6.40    5.00   1
  -3   3 -16   11.80    4.80   1
  -3   3 -17   17.40    5.50   1
  -3   3 -18   15.30    6.70   1
  -3   3 -19   31.40    7.50   1
  -3   3 -20   30.80    6.60   1
  -3   3 -21   14.30    7.90   1
   3  -2 -22   -5.40    4.00   1
   3  -2 -21    8.60    3.80   1
   3  -2 -20    2.90    3.40   1
   3  -2 -19    9.70    3.20   1
   3  -2 -18    0.00    3.00   1
   3  -2 -17    3.00    2.70   1
   3  -2 -16   12.30    2.60   1
   3  -2 -15    5.00    2.60   1
   3  -2 -14    9.10    2.40   1
   3  -2 -13   22.60    2.50   1
   3  -2 -12   15.70    2.30   1
   3  -2 -11    3.00    1.70   1
  -3   2  11   -0.40    2.40   1
   3  -2 -10   42.30    2.50   1
  -3   2  10   49.30    3.60   1
   3  -2  -9    0.90    0.80   1
  -3   2   9    4.40    2.10   1
   3  -2  -8    7.70    1.00   1
  -3   2   8    7.00    2.00   1
   3  -2  -7    1.20    0.90   1
  -3   2   7    1.50    1.80   1
   3  -2  -6   15.20    1.40   1
  -3   2   6   14.00    1.80   1
   3  -2  -5   31.90    1.80   1
  -3   2   5   35.50    2.20   1
   3  -2  -4   44.00    2.10   1
  -3   2   4   43.30    2.40   1
   3  -2  -3   43.20    3.30   1
  -3   2   3   61.70    2.30   1
   3  -2  -2   23.70    1.70   1
  -3   2   2   17.30    1.20   1
   3  -2  -1   17.40    1.60   1
  -3   2   1   11.60    1.00   1
   3  -2   0    1.40    1.10   1
  -3   2   0    1.00    0.90   1
   3  -2   1   15.30    1.40   1
  -3   2  -1   14.10    0.90   1
   3  -2   2   29.20    1.60   1
  -3   2  -2   19.00    1.20   1
   3  -2   3   59.00    2.40   1
  -3   2  -3   70.40    2.30   1
   3  -2   4   56.10    2.20   1
  -3   2  -4   56.90    2.20   1
   3  -2   5   44.10    1.80   1
  -3   2  -5   44.40    2.00   1
   3  -2   6   23.60    1.40   1
  -3   2  -6   19.50    1.60   1
   3  -2   7    1.30    0.70   1
  -3   2  -7    3.20    2.60   1
   3  -2   8    7.90    2.50   1
  -3   2  -8    5.70    2.60   1
  -3   2  -9    0.30    2.70   1
  -3   2 -10   59.80    4.80   1
  -3   2 -11   -1.90    3.20   1
  -3   2 -12   19.40    4.20   1
  -3   2 -13   31.50    4.70   1
  -3   2 -14   15.10    3.90   1
  -3   2 -15    2.80    4.40   1
  -3   2 -16   13.70    4.50   1
  -3   2 -17    4.90    5.30   1
  -3   2 -18    9.20    5.20   1
  -3   2 -19   12.40    6.10   1
  -3   2 -20    5.30    5.70   1
  -3   2 -21   -3.00    5.90   1
  -3   2 -22    3.80    7.80   1
   3  -1 -23    4.50    4.10   1
   3  -1 -22    4.90    3.70   1
   3  -1 -21   21.10    4.20   1
   3  -1 -20   74.90    5.20   1
   3  -1 -19   66.40    5.00   1
   3  -1 -18   80.10    4.80   1
   3  -1 -17   14.40    2.80   1
   3  -1 -16    9.70    2.40   1
   3  -1 -15    8.70    2.40   1
   3  -1 -14   45.80    3.10   1
   3  -1 -13  133.70    5.30   1
   3  -1 -12   76.10    3.80   1
  -3   1  12   78.50    5.30   1
   3  -1 -11  274.90    9.20   1
  -3   1  11  306.50   13.70   1
   3  -1 -10  208.60    6.40   1
   3  -1  -9   44.80    1.80   1
  -3   1   9   51.10    3.40   1
   3  -1  -8   33.00    1.50   1
  -3   1   8   27.70    2.40   1
   3  -1  -7   44.40    1.90   1
  -3   1   7   40.40    2.60   1
   3  -1  -6  156.30    4.10   1
  -3   1   6  165.20    6.70   1
   3  -1  -5  240.70    5.70   1
  -3   1   5  236.40    8.80   1
   3  -1  -4  406.60    9.00   1
  -3   1   4  353.30   12.30   1
   3  -1  -3  112.70    5.80   1
  -3   1   3  123.60    7.10   1
   3  -1  -2  338.90   10.40   1
  -3   1   2  372.20   16.60   1
   3  -1  -1  140.30    4.30   1
  -3   1   1  140.60    7.60   1
   3  -1   0    8.20    1.40   1
  -3   1   0    5.40    2.70   1
   3  -1   1  148.40    4.80   1
  -3   1  -1  128.20    3.10   1
   3  -1   2  388.90   11.30   1
  -3   1  -2  385.20   10.50   1
   3  -1   3  128.80    4.50   1
  -3   1  -3  132.40    3.90   1
   3  -1   4  485.40   11.00   1
  -3   1  -4  498.40   13.60   1
   3  -1   5  311.60    7.30   1
  -3   1  -5  334.50   10.10   1
   3  -1   6  211.00    5.30   1
  -3   1  -6  223.20    7.60   1
   3  -1   7   62.00    2.30   1
  -3   1  -7   59.00    4.20   1
   3  -1   8   37.30    1.50   1
  -3   1  -8   39.80    3.50   1
   3  -1   9   48.50    4.60   1
  -3   1  -9   64.80    5.00   1
  -3   1 -10  216.00   11.10   1
  -3   1 -11  428.90   19.10   1
  -3   1 -12  102.20    6.60   1
  -3   1 -13  153.70    9.10   1
  -3   1 -14   60.60    5.50   1
  -3   1 -15   14.10    4.10   1
  -3   1 -16   10.40    4.00   1
  -3   1 -17   17.70    4.80   1
  -3   1 -18   97.10    8.20   1
  -3   1 -19   86.30    7.80   1
  -3   1 -20   78.10    9.10   1
  -3   1 -21   17.90    6.00   1
  -3   1 -22   -2.30    6.90   1
  -3   1 -23    7.50    7.50   1
   3   0 -23    3.20    4.10   1
   3   0 -22   -7.20    3.90   1
   3   0 -21    6.80    3.80   1
   3   0 -20    1.10    3.40   1
   3   0 -19   -0.30    2.60   1
   3   0 -18   -1.00    2.80   1
   3   0 -17    0.70    2.70   1
   3   0 -16    0.80    2.30   1
   3   0 -15    0.50    2.40   1
   3   0 -14    1.60    2.20   1
   3   0 -13   -0.50    2.20   1
   3   0 -12    2.10    1.70   1
  -3   0  12   -0.10    2.20   1
   3   0 -11    2.80    1.70   1
  -3   0  11   -1.40    2.00   1
   3   0 -10   -0.60    1.10   1
  -3   0  10   -1.20    1.60   1
   3   0  -9   -1.90    1.20   1
  -3   0   9    1.40    1.60   1
   3   0  -8    0.20    1.10   1
  -3   0   8    2.60    1.40   1
   3   0  -7    2.20    1.00   1
  -3   0   7    2.30    1.30   1
   3   0  -6    0.50    0.90   1
  -3   0   6    0.80    1.10   1
   3   0  -5   -0.50    0.70   1
   3   0  -4    0.30    0.50   1
   3   0  -3    0.10    1.60   1
  -3   0   3    3.60    2.40   1
   3   0  -2   -0.90    1.00   1
  -3   0   2   -0.60    2.30   1
   3   0  -1   -0.40    1.00   1
  -3   0   1    0.50    5.80   1
   3   0   0    0.80    1.00   1
  -3   0   0   10.10    7.00   1
   3   0   1   -0.30    1.10   1
  -3   0  -1    8.30    7.00   1
   3   0   2   -3.00    1.50   1
  -3   0  -2    0.70    2.40   1
   3   0   3   -2.10    1.90   1
  -3   0  -3   -0.30    0.90   1
   3   0   4   -0.10    2.00   1
  -3   0  -4   -1.30    1.10   1
   3   0   5   -1.60    1.00   1
  -3   0  -5    0.70    1.30   1
   3   0   6   -0.90    1.20   1
  -3   0  -6   -0.90    1.30   1
   3   0   7   -0.10    1.50   1
  -3   0  -7    0.30    1.60   1
   3   0   8   -1.90    1.70   1
  -3   0  -8    1.10    1.80   1
   3   0   9   -1.00    1.10   1
  -3   0  -9    3.30    2.00   1
   3   0  10   -1.50    1.30   1
  -3   0 -10    0.70    2.40   1
   3   0  11   -0.70    1.10   1
  -3   0 -11    1.20    2.10   1
   3   0  12    0.10    1.00   1
  -3   0 -12    5.30    2.50   1
   3   0  13   -0.90    1.00   1
  -3   0 -13    0.30    3.00   1
  -3   0 -14   -5.40    3.30   1
  -3   0 -15    2.60    3.20   1
  -3   0 -16    2.80    4.00   1
  -3   0 -17    3.60    3.70   1
  -3   0 -18    0.90    4.40   1
  -3   0 -19   -3.10    5.00   1
   3   0  20    5.00    6.10   1
  -3   0 -20   -6.80    4.90   1
   3   0  21   -5.30    6.70   1
  -3   0 -21    3.60    5.30   1
   3   0  22    8.50    7.30   1
  -3   0 -22   -9.40    6.70   1
   3   0  23    5.10    8.30   1
  -3   0 -23   10.90    7.40   1
   3   1 -23    5.60    4.50   1
   3   1 -22   -1.30    4.00   1
   3   1 -21   23.00    4.30   1
   3   1 -20   69.80    5.20   1
   3   1 -19   65.60    4.80   1
   3   1 -18   79.80    4.90   1
   3   1 -17   16.00    3.00   1
   3   1 -16    4.00    2.60   1
   3   1 -15    7.20    2.60   1
   3   1 -14   48.80    3.40   1
   3   1 -13  152.50    6.30   1
   3   1 -12   87.00    4.60   1
  -3  -1  12   64.70    4.70   1
   3   1 -11  288.10   10.00   1
  -3  -1  11  275.90    9.10   1
   3   1 -10  182.90    5.50   1
  -3  -1  10  146.80    5.70   1
   3   1  -9   43.20    2.20   1
  -3  -1   9   42.00    2.50   1
   3   1  -8   27.60    1.50   1
  -3  -1   8   22.00    2.90   1
   3   1  -7   48.30    1.80   1
  -3  -1   7   38.60    3.30   1
   3   1  -6  159.80    4.00   1
  -3  -1   6  145.10    6.70   1
   3   1  -5  241.30    6.40   1
  -3  -1   5  213.50    9.10   1
   3   1  -4  387.70   11.10   1
  -3  -1   4  323.00   13.10   1
   3   1  -3   96.00    2.60   1
   3   1  -2  304.20    5.90   1
  -3  -1   2  360.80   16.30   1
   3   1  -1  113.00    2.60   1
  -3  -1   1  128.40    6.70   1
   3   1   0    1.60    0.70   1
  -3  -1   0    1.80    2.20   1
   3   1   1  129.70    3.30   1
  -3  -1  -1  130.80    4.40   1
   3   1   2  322.60    7.50   1
  -3  -1  -2  352.30    9.90   1
   3   1   3  112.20    3.60   1
  -3  -1  -3  125.40    4.10   1
   3   1   4  400.10    9.30   1
  -3  -1  -4  428.60   11.30   1
   3   1   5  245.50    6.30   1
  -3  -1  -5  278.10    7.60   1
   3   1   6  161.50    4.50   1
  -3  -1  -6  178.70    5.70   1
   3   1   7   51.70    2.60   1
  -3  -1  -7   48.20    2.40   1
   3   1   8   30.90    2.50   1
  -3  -1  -8   30.00    2.70   1
   3   1   9   49.30    2.20   1
  -3  -1  -9   61.10    3.90   1
   3   1  10  195.40    7.10   1
  -3  -1 -10  189.30    9.00   1
   3   1  11  293.00    9.70   1
  -3  -1 -11  357.90   15.60   1
   3   1  12   84.50    3.80   1
  -3  -1 -12   93.50    5.90   1
   3   1  13  136.80    5.50   1
  -3  -1 -13  143.10    8.60   1
   3   1  14   60.10    6.70   1
  -3  -1 -14   55.30    5.10   1
   3   1  15   10.50    5.90   1
  -3  -1 -15    8.90    3.40   1
   3   1  16   19.10    5.00   1
  -3  -1 -16    4.00    3.50   1
   3   1  17   36.70    7.40   1
  -3  -1 -17   17.40    4.70   1
   3   1  18   96.90    9.40   1
  -3  -1 -18   94.50    8.40   1
   3   1  19  105.30    8.50   1
  -3  -1 -19   73.10    7.30   1
   3   1  20   95.20   10.30   1
  -3  -1 -20   91.20    8.70   1
   3   1  21   32.60    8.50   1
  -3  -1 -21   21.50    6.60   1
   3   1  22   22.60    9.00   1
  -3  -1 -22    7.70    5.70   1
   3   1  23    2.50    7.00   1
  -3  -1 -23    1.60    6.10   1
   3   2 -22   -2.90    4.30   1
   3   2 -21    0.20    3.70   1
   3   2 -20    1.60    3.90   1
   3   2 -19    5.60    3.40   1
   3   2 -18    3.10    3.40   1
   3   2 -17    2.50    3.10   1
   3   2 -16    8.60    3.00   1
   3   2 -15    2.10    2.50   1
   3   2 -14    1.90    2.60   1
   3   2 -13   17.50    2.60   1
  -3  -2  13    8.80    4.60   1
   3   2 -12   24.50    2.60   1
   3   2 -11   -1.70    1.60   1
  -3  -2  11   -2.60    4.10   1
   3   2 -10   37.40    2.20   1
  -3  -2  10   32.80    4.20   1
   3   2  -9    0.70    1.30   1
  -3  -2   9   -0.70    4.30   1
   3   2  -8    6.90    1.80   1
  -3  -2   8    2.30    2.90   1
   3   2  -7    0.50    1.40   1
  -3  -2   7   -1.00    3.30   1
   3   2  -6   16.40    1.80   1
  -3  -2   6   11.90    3.10   1
   3   2  -5   31.40    2.10   1
  -3  -2   5   26.60    3.40   1
   3   2  -4   40.80    1.80   1
  -3  -2   4   32.90    3.50   1
   3   2  -3   48.40    1.80   1
  -3  -2   3   53.90    4.30   1
   3   2  -2   25.00    1.90   1
  -3  -2   2   15.40    1.40   1
   3   2  -1   15.30    1.20   1
  -3  -2   1   12.30    1.90   1
   3   2   0    1.10    0.90   1
  -3  -2   0    1.60    0.90   1
   3   2   1   12.80    1.20   1
  -3  -2  -1   15.80    1.20   1
   3   2   2   24.20    1.50   1
  -3  -2  -2   17.80    1.40   1
   3   2   3   50.20    2.20   1
  -3  -2  -3   66.90    2.60   1
   3   2   4   43.50    2.00   1
  -3  -2  -4   43.10    2.10   1
   3   2   5   31.40    1.80   1
  -3  -2  -5   35.60    1.80   1
   3   2   6   16.70    1.50   1
  -3  -2  -6   17.40    1.60   1
   3   2   7   -1.50    1.60   1
  -3  -2  -7    4.70    1.50   1
   3   2   8   10.50    3.90   1
  -3  -2  -8    7.40    1.60   1
   3   2   9   -1.60    2.10   1
  -3  -2  -9   -1.00    2.10   1
   3   2  10   36.80    2.70   1
  -3  -2 -10   49.60    3.70   1
   3   2  11   -0.70    2.10   1
  -3  -2 -11   -0.50    2.20   1
   3   2  12   18.30    2.60   1
  -3  -2 -12   16.50    3.30   1
   3   2  13   25.80    4.60   1
  -3  -2 -13   26.60    3.70   1
   3   2  14    4.40    4.60   1
  -3  -2 -14    4.90    3.00   1
   3   2  15    2.30    4.60   1
  -3  -2 -15    1.00    3.30   1
   3   2  16   20.50    5.40   1
  -3  -2 -16   14.10    4.30   1
   3   2  17   -2.30    5.90   1
  -3  -2 -17    3.30    4.20   1
   3   2  18    2.40    6.10   1
  -3  -2 -18    4.00    4.70   1
   3   2  19   30.20    7.40   1
  -3  -2 -19   22.60    5.60   1
   3   2  20   10.50    7.20   1
  -3  -2 -20    2.80    5.50   1
   3   2  21    2.60    7.40   1
  -3  -2 -21   -4.40    6.00   1
   3   2  22   24.10    8.60   1
  -3  -2 -22   12.40    6.10   1
   3   3 -21    4.40    4.40   1
   3   3 -20   28.00    4.00   1
   3   3 -19   26.70    4.30   1
   3   3 -18   19.00    3.80   1
   3   3 -17   12.80    3.20   1
   3   3 -16    5.00    3.10   1
   3   3 -15    7.80    2.80   1
   3   3 -14   19.60    3.00   1
   3   3 -13   60.10    4.20   1
   3   3 -12   43.80    3.80   1
   3   3 -11   66.40    3.60   1
   3   3 -10   75.00    4.20   1
   3   3  -9   14.00    2.30   1
   3   3  -8    5.00    1.80   1
   3   3  -7   10.20    1.60   1
   3   3  -6   97.70    4.40   1
   3   3  -5   79.30    3.30   1
   3   3  -4  168.10    5.40   1
   3   3  -3  104.70    3.30   1
  -3  -3   3  112.80    6.90   1
   3   3  -2   55.20    2.30   1
  -3  -3   2   74.20    4.60   1
   3   3  -1   40.60    1.90   1
  -3  -3   1   38.30    2.90   1
   3   3   0    5.80    1.30   1
  -3  -3   0    4.00    1.20   1
   3   3   1   54.40    2.50   1
  -3  -3  -1   47.40    3.60   1
   3   3   2   69.40    3.00   1
  -3  -3  -2   85.70    3.50   1
   3   3   3  125.00    4.30   1
  -3  -3  -3  123.60    4.90   1
   3   3   4  183.20    5.50   1
  -3  -3  -4  183.10    6.10   1
   3   3   5   87.10    3.50   1
  -3  -3  -5   76.50    3.20   1
   3   3   6   97.30    4.50   1
  -3  -3  -6  106.10    4.00   1
   3   3   7   -5.30    4.30   1
  -3  -3  -7    6.40    1.70   1
   3   3   8    2.80    4.60   1
  -3  -3  -8    3.20    1.50   1
   3   3   9   17.70    4.70   1
  -3  -3  -9   16.80    2.00   1
   3   3  10   88.10    7.70   1
  -3  -3 -10   94.50    5.20   1
   3   3  11   84.00    8.10   1
  -3  -3 -11  104.10    6.20   1
   3   3  12   40.50    6.20   1
  -3  -3 -12   57.50    4.70   1
   3   3  13   78.80    8.10   1
  -3  -3 -13   73.30    5.40   1
   3   3  14   22.30    4.60   1
  -3  -3 -14   16.00    4.00   1
   3   3  15   11.90    6.10   1
  -3  -3 -15   14.00    4.10   1
   3   3  16    2.90    5.20   1
  -3  -3 -16    9.90    3.70   1
   3   3  17   24.70    7.60   1
  -3  -3 -17   19.10    5.00   1
   3   3  18   42.10    7.70   1
  -3  -3 -18   29.90    5.00   1
   3   3  19   51.10    8.30   1
  -3  -3 -19   40.20    6.70   1
   3   3  20   29.30    8.40   1
  -3  -3 -20   41.70    6.70   1
   3   3  21   31.50    8.40   1
  -3  -3 -21   16.10    6.60   1
   3   4 -20   12.20    4.50   1
   3   4 -19   16.00    4.00   1
   3   4 -18    1.90    4.00   1
   3   4 -17    0.70    3.40   1
   3   4 -16    9.00    3.00   1
   3   4 -15    4.50    3.00   1
   3   4 -14   13.30    3.30   1
   3   4 -10   41.80    3.20   1
   3   4  -9   20.10    2.80   1
   3   4  -8    3.80    2.40   1
   3   4  -7    4.10    2.10   1
   3   4  -6   15.80    2.50   1
   3   4  -5   72.20    5.70   1
   3   4  -4   46.10    2.50   1
  -3  -4   4   51.10    4.40   1
   3   4  -3   33.40    2.30   1
   3   4  -2   16.10    2.50   1
  -3  -4   2   12.70    2.30   1
   3   4  -1   12.50    2.00   1
   3   4   0    3.10    1.70   1
  -3  -4   0    1.40    1.70   1
   3   4   1   11.20    2.00   1
   3   4   2   20.40    2.30   1
  -3  -4  -2   14.00    1.60   1
   3   4   3   41.00    3.00   1
  -3  -4  -3   42.30    2.30   1
   3   4   4   56.80    3.50   1
  -3  -4  -4   62.40    3.00   1
   3   4   5   78.50    4.20   1
  -3  -4  -5   79.10    3.50   1
   3   4   6   13.60    5.10   1
  -3  -4  -6   12.60    1.70   1
   3   4   7   19.40    4.80   1
  -3  -4  -7   12.40    1.90   1
   3   4   8   14.30    6.20   1
  -3  -4  -8    3.10    1.90   1
   3   4   9   20.10    5.00   1
  -3  -4  -9   18.70    2.00   1
   3   4  10   45.40    6.10   1
  -3  -4 -10   67.50    3.40   1
   3   4  11   14.70    5.80   1
  -3  -4 -11    7.10    2.20   1
   3   4  12   39.80    6.90   1
  -3  -4 -12   39.20    4.30   1
   3   4  13   28.10    6.80   1
  -3  -4 -13   27.60    3.80   1
   3   4  14   16.20    6.30   1
  -3  -4 -14   19.20    3.80   1
   3   4  15   -2.90    7.10   1
   3   4  16   24.60    8.80   1
  -3  -4 -16    9.40    4.60   1
   3   4  17    9.20    7.80   1
  -3  -4 -17    3.90    4.20   1
   3   4  18   10.40    7.50   1
  -3  -4 -18    3.20    4.60   1
   3   4  19    5.80    6.60   1
  -3  -4 -19   33.80    6.00   1
   3   4  20   12.80    6.30   1
  -3  -4 -20   11.90    5.70   1
   3   5 -19    6.10    4.20   1
   3   5 -18    4.00    3.90   1
   3   5 -17    5.80    3.70   1
   3   5 -16    1.30    3.60   1
   3   5 -15    9.00    5.10   1
   3   5 -14    1.00    4.50   1
   3   5 -10   19.70    3.60   1
   3   5  -9    0.00    2.80   1
   3   5  -8   -0.50    2.50   1
   3   5  -7    1.80    2.50   1
   3   5  -6   23.70    2.80   1
   3   5  -5   10.70    1.90   1
   3   5  -4   65.70    3.10   1
  -3  -5   4   65.40    5.20   1
   3   5  -3   52.40    2.80   1
   3   5  -2    6.70    2.00   1
   3   5  -1   -0.50    2.00   1
  -3  -5   1    7.10    2.30   1
   3   5   0   -1.90    1.90   1
   3   5   1    3.70    2.00   1
  -3  -5  -1    4.80    2.60   1
   3   5   2   12.10    2.20   1
  -3  -5  -2    9.60    2.80   1
   3   5   3   60.40    3.30   1
  -3  -5  -3   70.80    5.20   1
   3   5   4   79.20    3.80   1
  -3  -5  -4   60.30    3.20   1
   3   5   5   15.60    4.80   1
  -3  -5  -5    3.40    1.40   1
   3   5   6   21.60    6.20   1
  -3  -5  -6   22.90    2.00   1
   3   5   7    3.70    5.40   1
  -3  -5  -7    1.80    1.70   1
   3   5   8   10.40    5.10   1
  -3  -5  -8    6.20    2.00   1
   3   5   9    9.70    6.20   1
  -3  -5  -9    4.60    2.30   1
   3   5  10   25.90    6.60   1
  -3  -5 -10   25.70    2.50   1
   3   5  11   -3.00    7.00   1
  -3  -5 -11    1.30    2.10   1
   3   5  12   23.30    6.80   1
  -3  -5 -12   20.60    2.50   1
   3   5  13   13.70    6.70   1
  -3  -5 -13   11.30    2.90   1
   3   5  14   26.00    7.90   1
  -3  -5 -14    1.50    3.60   1
   3   5  15    5.40    7.30   1
  -3  -5 -15    7.40    4.10   1
   3   5  16   -1.80    6.90   1
  -3  -5 -16    1.30    4.20   1
   3   5  17   19.50    7.30   1
  -3  -5 -17    5.40    4.70   1
   3   5  18    9.60    5.50   1
  -3  -5 -18   11.80    4.90   1
   3   5  19    7.40    7.20   1
  -3  -5 -19   13.20    6.30   1
   3   6 -17    9.70    6.60   1
   3   6 -14    7.20    4.70   1
   3   6 -13    4.80    4.30   1
   3   6 -12   14.90    4.60   1
   3   6 -11    9.20    4.10   1
   3   6 -10    3.60    3.90   1
   3   6  -9    6.50    3.90   1
   3   6  -8    3.50    3.50   1
   3   6  -7    5.30    2.00   1
   3   6  -6    1.80    2.20   1
   3   6  -5   46.90    2.70   1
  -3  -6   5   55.60    5.40   1
   3   6  -4   27.20    6.10   1
  -3  -6   4   34.60    4.60   1
   3   6  -3   18.80    6.00   1
  -3  -6   3   11.90    3.40   1
   3   6  -2   28.80    2.70   1
  -3  -6   2   23.30    3.80   1
   3   6  -1    5.80    2.20   1
  -3  -6   1    2.80    3.30   1
   3   6   0   -0.90    7.20   1
  -3  -6   0   -2.50    2.80   1
   3   6   1    7.40    2.20   1
   3   6   2   36.90    6.80   1
  -3  -6  -2   31.30    4.00   1
   3   6   3    1.90    5.50   1
  -3  -6  -3   14.80    3.30   1
   3   6   4   20.10    6.90   1
   3   6   5   40.40    6.30   1
   3   6   6   -0.50    5.40   1
   3   6   7   13.60    7.60   1
  -3  -6  -7    2.90    3.00   1
   3   6   8   12.50    6.70   1
  -3  -6  -8    1.70    3.10   1
   3   6   9   17.30    6.70   1
  -3  -6  -9   11.40    3.50   1
   3   6  10   13.50    8.80   1
  -3  -6 -10   12.00    3.60   1
   3   6  11   -1.30    7.00   1
  -3  -6 -11   17.30    3.90   1
   3   6  12   18.30    9.30   1
  -3  -6 -12   25.10    4.60   1
   3   6  13   -3.30    7.40   1
  -3  -6 -13    7.70    4.10   1
   3   6  14    6.90    6.70   1
  -3  -6 -14    8.90    4.30   1
   3   6  15    3.40    5.30   1
  -3  -6 -15   -1.80    5.20   1
   3   6  16    7.60    9.50   1
  -3  -6 -16   10.60    5.10   1
   3   6  17   -4.80    5.20   1
  -3  -6 -17    1.50    5.10   1
   3   7 -14   -0.90    4.40   1
   3   7 -13   -1.00    4.60   1
   3   7 -12    8.60    4.80   1
   3   7  -7    4.50    3.60   1
   3   7  -6    2.70    3.30   1
   3   7  -5    4.90    3.40   1
  -3  -7   5    2.80    3.70   1
   3   7  -4   11.50    7.30   1
  -3  -7   4    6.20    3.80   1
   3   7  -3   11.20    7.20   1
  -3  -7   3    5.70    3.70   1
   3   7  -2   -7.40    5.70   1
   3   7  -1    3.90    6.80   1
   3   7   0   -0.50    7.50   1
  -3  -7   0   -2.80    3.50   1
   3   7   1    3.80    6.80   1
  -3  -7  -1    4.80    3.80   1
   3   7   2   -4.10    7.60   1
   3   7   3    1.00    6.50   1
   3   7   4    8.00    7.90   1
  -3  -7  -4   16.40    3.90   1
   3   7   5   17.70    9.20   1
  -3  -7  -5   15.20    4.00   1
   3   7   6    4.60    8.50   1
  -3  -7  -6    1.90    3.70   1
   3   7   7   25.10    9.10   1
  -3  -7  -7   -0.40    3.40   1
   3   7   8   15.70    8.40   1
  -3  -7  -8    0.10    3.70   1
   3   7   9    5.90    6.80   1
  -3  -7  -9    4.40    3.90   1
   3   7  10   -2.80    6.90   1
  -3  -7 -10    4.70    4.20   1
   3   7  11  -13.80    6.80   1
  -3  -7 -11    4.80    4.30   1
   3   7  12    0.00    7.30   1
  -3  -7 -12   -2.90    4.50   1
   3   7  13    5.10    6.30   1
  -3  -7 -13    2.20    4.60   1
   3   7  14    0.40    6.90   1
  -3  -7 -14   -3.90    5.00   1
   3   8  -9    3.70    4.70   1
   3   8  -5    9.80    4.10   1
   3   8  -4   23.60    7.60   1
  -3  -8   4    9.70    4.90   1
   3   8  -3   22.10    8.10   1
  -3  -8   3    7.30    4.70   1
   3   8  -2   33.70   10.30   1
   3   8  -1    6.70    6.60   1
   3   8   0   -1.00    8.30   1
  -3  -8   0   -1.10    4.50   1
   3   8   1    8.80    7.40   1
   3   8   2    8.60    7.50   1
   3   8   3   20.90    9.20   1
   3   8   4   13.00    8.10   1
   3   8   5   15.00    7.40   1
  -3  -8  -5   18.80    5.20   1
   3   8   6    7.60    8.00   1
  -3  -8  -6   -4.40    4.50   1
   3   8   7   -5.40    6.40   1
  -3  -8  -7    2.00    5.20   1
   3   8   8   -5.60    5.20   1
  -3  -8  -8   -1.30    5.20   1
   3   8   9   -8.60    7.30   1
  -3  -8  -9    5.90    5.00   1
   4  -7 -10    3.20    4.80   1
   4  -7  -9    6.60    5.10   1
   4  -7  -8    4.40    4.80   1
   4  -7  -7   19.80    5.30   1
   4  -7  -6    2.20    4.80   1
   4  -7  -5    4.00    4.90   1
   4  -7  -4    0.20    4.10   1
   4  -7  -3   10.50    4.30   1
   4  -7  -2    4.80    3.90   1
   4  -7  -1    7.10    4.00   1
   4  -7   0    6.00    3.80   1
  -4   7   0    4.80    5.10   1
  -4   7  -1   13.70    5.30   1
  -4   7  -2    8.20    4.10   1
  -4   7  -3    3.90    4.50   1
  -4   7  -4    0.40    8.00   1
  -4   7  -5   -3.50    6.90   1
  -4   7  -6   -7.60    7.40   1
  -4   7  -7   31.40   10.30   1
  -4   7  -8    2.40    5.20   1
  -4   7  -9    3.80    4.70   1
  -4   7 -10   11.90    5.60   1
   4  -6 -13    2.00    5.30   1
   4  -6 -12   -2.60    5.20   1
   4  -6 -11    6.10    5.10   1
   4  -6 -10    8.90    5.00   1
   4  -6  -9   -1.40    4.40   1
   4  -6  -8   10.80    4.40   1
   4  -6  -7    7.80    4.10   1
   4  -6  -6    1.10    2.50   1
   4  -6  -5    4.50    2.50   1
   4  -6  -4    3.70    3.20   1
   4  -6  -3    6.60    2.40   1
   4  -6  -2   -3.30    2.20   1
   4  -6  -1   10.60    2.40   1
  -4   6   1    4.50    8.50   1
   4  -6   0    2.40    3.10   1
  -4   6   0   -5.30    3.30   1
   4  -6   1    6.90    3.20   1
  -4   6  -1    9.80    4.80   1
   4  -6   2    0.20    2.60   1
  -4   6  -2   -5.00    4.40   1
  -4   6  -3    4.70    3.30   1
  -4   6  -4   13.30    5.80   1
  -4   6  -5    7.10    5.90   1
  -4   6  -6    7.10    4.30   1
  -4   6  -7    9.90    4.40   1
  -4   6  -8    2.50    4.20   1
  -4   6  -9   10.90    4.30   1
  -4   6 -10    2.10    4.80   1
  -4   6 -11    0.80    4.70   1
  -4   6 -12    7.90    5.40   1
  -4   6 -13   -0.60    5.60   1
  -4   6 -14   13.20   12.40   1
   4  -5 -16   14.00    6.00   1
   4  -5 -15   12.30    6.30   1
   4  -5 -14    7.30    5.70   1
   4  -5 -13    2.70    5.60   1
   4  -5 -12   -0.50    4.60   1
   4  -5 -11    1.50    5.00   1
   4  -5 -10    7.40    3.90   1
   4  -5  -9   10.10    2.60   1
   4  -5  -8   14.50    2.50   1
   4  -5  -7   22.10    2.10   1
   4  -5  -6   25.70    2.20   1
   4  -5  -5    5.30    1.60   1
   4  -5  -4    4.20    1.70   1
   4  -5  -3    4.00    1.90   1
   4  -5  -2    2.80    2.00   1
  -4   5   2   18.80    5.50   1
   4  -5  -1   39.50    3.90   1
  -4   5   1   31.80    6.10   1
   4  -5   0   35.70    3.60   1
  -4   5   0   32.80    3.40   1
   4  -5   1   36.40    3.60   1
  -4   5  -1   30.80    3.70   1
   4  -5   2    6.20    2.70   1
  -4   5  -2    7.70    5.00   1
   4  -5   3    5.00    2.90   1
  -4   5  -3    1.60    6.00   1
   4  -5   4    0.80    2.50   1
  -4   5  -4    3.80    3.30   1
  -4   5  -5    8.10    3.30   1
  -4   5  -6   26.60    3.80   1
  -4   5  -7   26.90    3.80   1
  -4   5  -8   13.10    4.10   1
  -4   5  -9   16.00    4.30   1
  -4   5 -10   23.30    4.50   1
  -4   5 -11   -5.80    4.30   1
  -4   5 -12   -4.20    4.40   1
  -4   5 -13    6.30    5.00   1
  -4   5 -14   -0.20    4.80   1
  -4   5 -15   10.30    6.70   1
  -4   5 -16   16.40    7.80   1
   4  -4 -18    7.20    6.90   1
   4  -4 -17    8.40    6.50   1
   4  -4 -16   21.10    7.00   1
   4  -4 -15   10.10    5.80   1
   4  -4 -14    9.30    6.00   1
   4  -4 -13   12.40    4.90   1
   4  -4 -12   -1.20    5.10   1
   4  -4 -11   10.00    4.80   1
   4  -4 -10    2.40    2.20   1
   4  -4  -9   15.80    2.30   1
   4  -4  -8   34.90    2.80   1
   4  -4  -7   29.20    2.50   1
   4  -4  -6   19.30    1.80   1
   4  -4  -5   30.70    2.10   1
   4  -4  -4    7.30    2.90   1
   4  -4  -3    4.90    2.60   1
  -4   4   3    5.20    4.10   1
   4  -4  -2    9.90    1.40   1
  -4   4   2    6.90    4.50   1
   4  -4  -1   48.50    4.00   1
  -4   4   1   50.90    6.50   1
   4  -4   0   26.30    2.20   1
  -4   4   0   27.30    2.90   1
   4  -4   1   56.10    2.90   1
  -4   4  -1   55.90    5.90   1
   4  -4   2   15.40    1.90   1
  -4   4  -2   14.00    2.60   1
   4  -4   3   12.20    2.40   1
  -4   4  -3   12.10    2.60   1
   4  -4   4   15.10    2.40   1
  -4   4  -4   16.30    4.70   1
   4  -4   5   39.00    3.00   1
  -4   4  -5   36.20    3.50   1
   4  -4   6   22.00    2.30   1
  -4   4  -6   19.10    3.30   1
  -4   4  -7   40.30    3.80   1
  -4   4  -8   55.10    4.30   1
  -4   4  -9   17.40    3.30   1
  -4   4 -10    7.70    3.30   1
  -4   4 -11   12.10    3.90   1
  -4   4 -12    4.50    4.10   1
  -4   4 -13   11.80    5.30   1
  -4   4 -14   -1.00    5.70   1
  -4   4 -15   11.60    6.10   1
  -4   4 -16   11.90    6.40   1
  -4   4 -17   26.20    7.20   1
  -4   4 -18    7.10    7.70   1
   4  -3 -19    3.10    7.40   1
   4  -3 -18    0.50    7.10   1
   4  -3 -17   11.20    7.00   1
   4  -3 -16    3.70    5.70   1
   4  -3 -15   16.70    5.50   1
   4  -3 -14   23.20    6.10   1
   4  -3 -13    0.90    2.50   1
   4  -3 -12    4.30    2.10   1
   4  -3 -11    4.10    2.20   1
   4  -3 -10    8.50    2.00   1
   4  -3  -9    4.00    1.80   1
   4  -3  -8   23.80    1.80   1
   4  -3  -7   18.30    1.90   1
   4  -3  -6   34.40    2.30   1
   4  -3  -5   14.60    1.50   1
  -4   3   5   22.80    2.70   1
   4  -3  -4   14.90    1.70   1
  -4   3   4   16.50    2.20   1
   4  -3  -3    3.40    1.80   1
  -4   3   3    1.00    1.70   1
   4  -3  -2    2.10    1.70   1
  -4   3   2    5.20    1.60   1
   4  -3  -1   43.60    2.80   1
  -4   3   1   46.70    2.10   1
   4  -3   0   38.50    2.50   1
  -4   3   0   28.70    1.80   1
   4  -3   1   53.70    2.80   1
  -4   3  -1   58.30    6.60   1
   4  -3   2    2.30    1.50   1
  -4   3  -2    5.30    1.30   1
   4  -3   3    0.80    1.40   1
  -4   3  -3    3.70    1.40   1
   4  -3   4   20.00    1.70   1
  -4   3  -4   14.10    1.80   1
   4  -3   5   23.80    1.80   1
  -4   3  -5   22.70    2.10   1
   4  -3   6   51.30    2.80   1
  -4   3  -6   46.80    4.40   1
   4  -3   7   21.80    1.90   1
  -4   3  -7   19.50    2.80   1
  -4   3  -8   37.60    3.60   1
  -4   3  -9   12.30    3.00   1
  -4   3 -10   18.30    3.40   1
  -4   3 -11    4.60    3.30   1
  -4   3 -12    7.90    4.20   1
  -4   3 -13   10.10    5.20   1
  -4   3 -14   13.70    5.10   1
  -4   3 -15   24.30    5.80   1
  -4   3 -16   18.80    5.90   1
  -4   3 -17   17.10    6.50   1
  -4   3 -18    6.50    6.90   1
  -4   3 -19   17.60    6.50   1
   4  -2 -20   10.10    7.40   1
   4  -2 -19    2.30    7.10   1
   4  -2 -18   16.30    6.90   1
   4  -2 -17   36.60    6.60   1
   4  -2 -16   42.90    6.60   1
   4  -2 -15   85.60    7.70   1
   4  -2 -14   50.00    3.50   1
   4  -2 -13   11.70    2.20   1
   4  -2 -12   -0.40    1.90   1
   4  -2 -11    6.70    2.00   1
   4  -2 -10   12.70    2.00   1
   4  -2  -9   87.90    3.20   1
   4  -2  -8   89.90    3.10   1
  -4   2   8   80.70    4.80   1
   4  -2  -7  100.20    3.30   1
  -4   2   7   91.40    4.80   1
   4  -2  -6   78.80    3.70   1
  -4   2   6   63.60    3.40   1
   4  -2  -5   59.00    3.20   1
  -4   2   5   57.70    2.90   1
   4  -2  -4   10.30    1.90   1
   4  -2  -3   32.80    2.60   1
  -4   2   3   30.70    4.50   1
   4  -2  -2   60.00    3.30   1
  -4   2   2   51.00    5.70   1
   4  -2  -1   69.30    3.40   1
  -4   2   1   64.20    6.80   1
   4  -2   0  174.70    6.50   1
  -4   2   0  182.50    5.70   1
   4  -2   1   68.60    3.40   1
  -4   2  -1   81.60    2.40   1
   4  -2   2   71.60    3.20   1
  -4   2  -2   66.00    3.00   1
   4  -2   3   44.70    2.40   1
  -4   2  -3   44.50    1.90   1
   4  -2   4   12.90    1.50   1
  -4   2  -4   18.10    1.50   1
   4  -2   5   79.90    3.10   1
  -4   2  -5   88.50    4.80   1
   4  -2   6  101.30    3.60   1
  -4   2  -6   87.80    3.60   1
   4  -2   7  128.30    5.10   1
  -4   2  -7  131.30    4.30   1
   4  -2   8  120.50    4.40   1
  -4   2  -8  134.20    6.00   1
  -4   2  -9  158.40    6.80   1
  -4   2 -10   39.30    3.50   1
  -4   2 -11    4.90    3.80   1
  -4   2 -12   10.50    3.90   1
  -4   2 -13    7.60    4.10   1
  -4   2 -14   50.70    6.30   1
  -4   2 -15   79.90    7.90   1
  -4   2 -16   55.20    7.10   1
  -4   2 -17   41.50    7.00   1
  -4   2 -18   13.00    5.70   1
  -4   2 -19   -0.90    6.00   1
  -4   2 -20  -11.70    7.60   1
   4  -1 -20    6.10    6.10   1
   4  -1 -19   -2.50    6.60   1
   4  -1 -18   -2.50    6.10   1
   4  -1 -17   -4.70    6.20   1
   4  -1 -16    2.30    5.90   1
   4  -1 -15    4.90    2.40   1
   4  -1 -14    4.70    2.20   1
   4  -1 -13    3.10    2.10   1
   4  -1 -12    5.50    2.00   1
   4  -1 -11    1.00    1.80   1
   4  -1 -10    2.00    1.20   1
   4  -1  -9    1.90    1.20   1
  -4   1   9   -1.30    1.80   1
   4  -1  -8    1.90    1.10   1
  -4   1   8    3.40    1.60   1
   4  -1  -7    9.70    1.10   1
   4  -1  -6    2.90    1.70   1
   4  -1  -5    3.20    1.70   1
   4  -1  -4    5.50    1.50   1
   4  -1  -3    0.90    1.50   1
  -4   1   3   -5.10    3.30   1
   4  -1  -2    3.80    1.70   1
  -4   1   2    0.20    5.40   1
   4  -1  -1   25.90    1.90   1
  -4   1   1   19.50    6.70   1
   4  -1   0    0.50    1.60   1
  -4   1   0   17.80    6.40   1
   4  -1   1   27.20    2.20   1
  -4   1  -1   40.70    8.60   1
   4  -1   2    3.20    1.60   1
  -4   1  -2    8.10    6.60   1
   4  -1   3    0.60    1.50   1
  -4   1  -3   -0.40    1.00   1
   4  -1   4    7.10    1.50   1
  -4   1  -4    4.10    1.00   1
   4  -1   5    6.20    1.60   1
  -4   1  -5    3.80    1.50   1
   4  -1   6    7.80    1.20   1
  -4   1  -6    6.40    1.80   1
   4  -1   7    9.60    1.30   1
  -4   1  -7   14.40    2.10   1
   4  -1   8    5.90    1.50   1
  -4   1  -8    4.50    2.20   1
   4  -1   9   -1.10    1.10   1
  -4   1  -9    1.40    2.30   1
  -4   1 -10    3.60    2.40   1
  -4   1 -11    3.50    3.20   1
  -4   1 -12    2.10    3.20   1
  -4   1 -13   -2.30    3.20   1
  -4   1 -14    0.50    3.50   1
  -4   1 -15   -0.60    3.90   1
  -4   1 -16   -3.40    4.30   1
  -4   1 -17   -0.30    4.90   1
  -4   1 -18    2.60    5.30   1
  -4   1 -19   14.50    5.80   1
  -4   1 -20    5.80    6.90   1
  -4   1 -21   -3.20    7.60   1
   4   0 -21    4.80    6.20   1
   4   0 -20   -1.40    6.80   1
   4   0 -19   -5.60    6.70   1
   4   0 -18   21.10    6.20   1
   4   0 -17   21.90    6.70   1
   4   0 -16   54.10    3.90   1
   4   0 -15  103.70    5.60   1
   4   0 -14   45.50    3.60   1
   4   0 -13   22.70    2.70   1
   4   0 -12   20.50    2.30   1
   4   0 -11    9.90    1.50   1
   4   0 -10   17.50    1.70   1
   4   0  -9  190.50    6.50   1
   4   0  -8   88.90    3.00   1
   4   0  -7  207.60    4.70   1
   4   0  -6   61.00    3.50   1
   4   0  -5  105.00    4.80   1
   4   0  -4   34.90    2.70   1
   4   0  -3   67.70    3.10   1
  -4   0   3   66.80    6.10   1
   4   0  -2   87.00    3.50   1
  -4   0   2   66.70    6.50   1
   4   0  -1  125.90    4.50   1
  -4   0   1  102.30    7.90   1
   4   0   0  267.70    7.70   1
  -4   0   0  285.60   15.80   1
   4   0   1  122.90    4.30   1
  -4   0  -1  113.20    8.40   1
   4   0   2   85.80    3.60   1
  -4   0  -2   85.50    7.10   1
   4   0   3   74.50    3.20   1
  -4   0  -3   79.90    3.00   1
   4   0   4   40.90    1.90   1
  -4   0  -4   30.90    4.30   1
   4   0   5  122.80    3.60   1
  -4   0  -5  137.40    4.60   1
   4   0   6   74.20    3.10   1
  -4   0  -6   74.30    3.20   1
   4   0   7  258.30    9.50   1
  -4   0  -7  263.20    8.20   1
   4   0   8  112.30    7.70   1
  -4   0  -8  113.40    4.60   1
   4   0   9  233.40   13.10   1
  -4   0  -9  265.00    8.80   1
   4   0  10   86.50   29.30   1
  -4   0 -10   35.50    3.00   1
  -4   0 -11   11.00    2.40   1
   4   0  12   40.80    6.80   1
  -4   0 -12   27.80    3.90   1
   4   0  13   40.40    6.90   1
  -4   0 -13   30.90    4.00   1
   4   0  14   72.20    7.60   1
  -4   0 -14   58.70    5.70   1
   4   0  15  174.70   13.20   1
  -4   0 -15  116.30    8.60   1
   4   0  16   78.60    9.50   1
  -4   0 -16   81.40    7.40   1
   4   0  17   20.10    7.30   1
  -4   0 -17   13.10    4.70   1
   4   0  18   51.20    8.20   1
  -4   0 -18   40.40    6.10   1
   4   0  19  -13.00   10.00   1
  -4   0 -19    7.50    5.50   1
   4   0  20   11.90   10.30   1
  -4   0 -20    8.20    6.50   1
   4   0  21   -1.60    8.90   1
  -4   0 -21    6.80    7.30   1
   4   1 -20   -5.60    5.80   1
   4   1 -19   -4.90    5.70   1
   4   1 -18    2.40    5.50   1
   4   1 -17    0.50    6.10   1
   4   1 -16    0.10    2.90   1
   4   1 -15    1.00    2.80   1
   4   1 -14    5.80    2.50   1
   4   1 -13    1.40    2.30   1
   4   1 -12    4.40    1.70   1
   4   1 -11    6.30    2.00   1
   4   1 -10    3.60    1.50   1
   4   1  -9   -0.50    1.40   1
   4   1  -8    4.10    1.40   1
   4   1  -7    9.40    1.10   1
   4   1  -6    3.60    0.80   1
   4   1  -5    2.30    0.60   1
   4   1  -4    5.60    1.80   1
   4   1  -3    0.40    1.60   1
   4   1  -2    4.40    2.20   1
  -4  -1   2   10.30    6.40   1
   4   1  -1   26.30    2.70   1
  -4  -1   1   31.70    6.80   1
   4   1   0    1.20    2.10   1
  -4  -1   0    3.30    6.30   1
   4   1   1   19.50    1.10   1
  -4  -1  -1   27.70    6.20   1
   4   1   2    2.40    0.90   1
  -4  -1  -2    4.30    1.00   1
   4   1   3    0.90    1.10   1
  -4  -1  -3    0.00    1.10   1
   4   1   4    2.30    1.20   1
  -4  -1  -4    5.40    1.30   1
   4   1   5    3.50    1.30   1
  -4  -1  -5   -1.20    3.00   1
   4   1   6    2.30    1.40   1
  -4  -1  -6    5.90    1.60   1
   4   1   7   10.70    1.70   1
  -4  -1  -7    5.50    1.60   1
   4   1   8    5.00    2.00   1
  -4  -1  -8    3.10    1.80   1
   4   1   9   -1.70    4.90   1
  -4  -1  -9   -3.10    2.00   1
   4   1  10   -0.30    4.90   1
  -4  -1 -10    6.10    2.20   1
   4   1  11    5.20    5.90   1
  -4  -1 -11    2.70    2.40   1
   4   1  12    1.80    6.40   1
  -4  -1 -12   -0.50    2.70   1
   4   1  13   -9.60    6.60   1
  -4  -1 -13    2.00    3.00   1
   4   1  14    5.00    8.10   1
  -4  -1 -14    4.60    3.40   1
   4   1  15    4.20    6.30   1
  -4  -1 -15   13.00    4.00   1
   4   1  16   36.50   19.20   1
  -4  -1 -16    1.20    3.80   1
   4   1  17   22.50    8.90   1
  -4  -1 -17   -8.60    4.60   1
   4   1  18   -5.60    6.80   1
  -4  -1 -18    9.10    5.20   1
   4   1  19   -6.70    8.70   1
  -4  -1 -19   -2.70    4.70   1
   4   1  20    8.60    8.20   1
  -4  -1 -20   -1.30    5.50   1
   4   1  21    0.10    9.80   1
  -4  -1 -21    0.00    7.20   1
   4   2 -20   -6.60    6.00   1
   4   2 -19    2.00    5.60   1
   4   2 -18   15.80    5.80   1
   4   2 -17   27.40    6.00   1
   4   2 -16   32.40    3.80   1
   4   2 -15   65.50    4.50   1
   4   2 -14   40.10    3.70   1
   4   2 -13   12.90    2.80   1
   4   2 -12    2.90    2.20   1
   4   2 -11    5.60    1.80   1
   4   2 -10   11.50    1.90   1
   4   2  -9   84.40    3.80   1
   4   2  -8   77.10    3.50   1
   4   2  -7   77.90    2.80   1
   4   2  -6   63.50    3.50   1
   4   2  -5   50.00    2.20   1
   4   2  -4   12.60    1.10   1
   4   2  -3   37.80    2.00   1
   4   2  -2   64.50    2.20   1
   4   2  -1   72.70    2.40   1
  -4  -2   1   81.60    5.70   1
   4   2   0  183.60    5.40   1
  -4  -2   0  157.50    9.70   1
   4   2   1   69.30    2.80   1
  -4  -2  -1   77.20    5.30   1
   4   2   2   61.70    2.70   1
  -4  -2  -2   53.80    2.90   1
   4   2   3   31.60    1.90   1
  -4  -2  -3   36.60    2.40   1
   4   2   4   10.30    1.50   1
  -4  -2  -4   12.60    1.60   1
   4   2   5   65.00    2.80   1
  -4  -2  -5   72.40    4.20   1
   4   2   6   74.50    3.20   1
  -4  -2  -6   82.00    3.60   1
   4   2   7   92.80    3.70   1
  -4  -2  -7  111.40    7.40   1
   4   2   8   94.50    9.10   1
  -4  -2  -8   99.60    4.30   1
   4   2   9  102.70    7.60   1
  -4  -2  -9  133.10    5.10   1
   4   2  10   15.70    5.20   1
  -4  -2 -10   26.40    2.50   1
   4   2  11    5.30    5.40   1
  -4  -2 -11   -0.40    2.40   1
   4   2  12   -5.50    6.70   1
  -4  -2 -12    3.00    2.50   1
   4   2  13   27.60    8.30   1
  -4  -2 -13   16.30    2.80   1
   4   2  14   53.50    8.00   1
  -4  -2 -14   52.80    5.10   1
   4   2  15   78.00   13.40   1
  -4  -2 -15   88.20    6.50   1
   4   2  16   36.90    9.20   1
  -4  -2 -16   39.60    5.50   1
   4   2  17   35.40    7.90   1
  -4  -2 -17   19.30    5.10   1
   4   2  18    4.90    6.90   1
  -4  -2 -18    9.70    5.40   1
   4   2  19   -2.50    9.90   1
  -4  -2 -19    2.50    5.10   1
   4   2  20   15.60    9.10   1
  -4  -2 -20    6.80    5.80   1
   4   3 -19   -7.20    5.80   1
   4   3 -18   -2.10    5.40   1
   4   3 -17    9.90    5.40   1
   4   3 -16    2.50    3.60   1
   4   3 -15   11.70    3.40   1
   4   3 -14    8.20    3.20   1
   4   3 -13    2.40    3.10   1
   4   3 -12    7.20    2.20   1
   4   3 -11    3.00    2.00   1
   4   3 -10    6.20    2.00   1
   4   3  -9    5.40    2.20   1
   4   3  -8   17.80    4.10   1
   4   3  -7   12.40    2.20   1
   4   3  -6   23.10    1.80   1
   4   3  -5   12.00    1.70   1
   4   3  -4   12.30    1.30   1
   4   3  -3    1.80    1.80   1
   4   3  -2    5.90    1.60   1
   4   3  -1   46.20    2.50   1
  -4  -3   1   41.90    3.50   1
   4   3   0   38.20    2.20   1
  -4  -3   0   25.30    2.10   1
   4   3   1   42.10    2.50   1
  -4  -3  -1   47.20    2.70   1
   4   3   2    6.20    1.60   1
  -4  -3  -2   10.70    3.00   1
   4   3   3    2.30    1.70   1
  -4  -3  -3    2.40    1.60   1
   4   3   4   17.10    2.00   1
  -4  -3  -4   14.20    1.70   1
   4   3   5   16.30    2.80   1
  -4  -3  -5   16.60    2.80   1
   4   3   6   35.30    3.10   1
  -4  -3  -6   37.70    2.50   1
  -4  -3  -7   12.90    2.00   1
   4   3   8   34.50    5.70   1
  -4  -3  -8   23.50    2.30   1
   4   3   9    7.20    6.20   1
  -4  -3  -9    5.00    1.90   1
   4   3  10    8.50    5.50   1
  -4  -3 -10   16.30    2.30   1
   4   3  11    5.70    5.90   1
  -4  -3 -11    0.30    2.00   1
   4   3  12   13.50    6.80   1
  -4  -3 -12   11.60    2.30   1
   4   3  13   -3.10    6.60   1
  -4  -3 -13   -0.30    2.60   1
   4   3  14   19.30   15.60   1
  -4  -3 -14    9.50    2.80   1
   4   3  15   15.10    7.30   1
  -4  -3 -15   13.40    3.00   1
   4   3  16   12.60    7.90   1
  -4  -3 -16    2.60    4.00   1
   4   3  17    8.30    7.30   1
  -4  -3 -17    6.00    5.10   1
   4   3  18    1.80   10.00   1
  -4  -3 -18    6.90    5.70   1
   4   3  19    7.30    7.90   1
  -4  -3 -19    3.60    5.40   1
   4   4 -18    8.20    5.90   1
   4   4 -17   13.30    6.90   1
   4   4 -16   12.30    6.40   1
   4   4 -15   15.20    3.50   1
   4   4 -14    9.20    3.50   1
   4   4 -13    2.90    3.10   1
   4   4 -12    3.70    2.50   1
   4   4 -11    4.70    3.70   1
   4   4 -10    4.70    3.60   1
   4   4  -9   15.50    3.70   1
   4   4  -8   30.40    3.10   1
   4   4  -7   20.10    2.80   1
   4   4  -6   11.80    2.20   1
   4   4  -5   25.90    2.70   1
   4   4  -4    9.90    2.50   1
   4   4  -3    6.10    2.40   1
   4   4  -2   12.00    2.40   1
  -4  -4   2    5.70    2.20   1
   4   4  -1   44.80    3.20   1
  -4  -4   1   44.10    3.90   1
   4   4   0   21.80    2.70   1
   4   4   1   38.70    3.10   1
  -4  -4  -1   41.30    3.80   1
   4   4   2    9.00    2.40   1
  -4  -4  -2    6.50    1.70   1
   4   4   3   19.90    5.90   1
  -4  -4  -3    7.70    2.40   1
   4   4   4   10.10    2.50   1
  -4  -4  -4    8.10    1.70   1
   4   4   5   36.70    3.10   1
  -4  -4  -5   29.80    3.60   1
   4   4   6   22.30   10.10   1
  -4  -4  -6   18.90    2.20   1
   4   4   7   29.50    6.20   1
  -4  -4  -7   34.00    2.70   1
   4   4   8   33.20    7.30   1
  -4  -4  -8   31.20    2.90   1
   4   4   9   22.10    7.30   1
  -4  -4  -9   12.90    2.40   1
   4   4  10   26.00    8.60   1
  -4  -4 -10   11.10    2.40   1
   4   4  11    8.60    8.50   1
  -4  -4 -11    6.20    2.60   1
   4   4  12    3.30    9.00   1
  -4  -4 -12    0.50    2.40   1
   4   4  13   19.60   17.10   1
  -4  -4 -13    9.40    2.80   1
   4   4  14   29.30    7.20   1
  -4  -4 -14    7.60    3.00   1
   4   4  15    9.50    6.50   1
  -4  -4 -15   17.70    3.60   1
   4   4  16    4.20    8.40   1
  -4  -4 -16   12.30    3.30   1
   4   4  17   22.80    8.30   1
  -4  -4 -17   11.00    3.80   1
   4   4  18    7.30    5.70   1
  -4  -4 -18    4.70    6.00   1
   4   5 -16   15.10    6.20   1
   4   5 -15    9.10    7.00   1
   4   5 -14   -0.40    3.60   1
   4   5 -13    2.30    4.20   1
   4   5 -12    1.90    4.20   1
   4   5 -11   -5.70    4.90   1
   4   5 -10    3.20    4.90   1
   4   5  -9   -2.50    5.00   1
   4   5  -8    9.00    3.20   1
   4   5  -7   15.30    2.40   1
   4   5  -6   19.80    2.40   1
   4   5  -5    5.50    2.10   1
   4   5  -4    5.20    2.90   1
   4   5  -3   -2.50    4.60   1
  -4  -5   3    8.90    3.20   1
   4   5  -2    0.50    2.50   1
   4   5  -1   25.60    6.60   1
  -4  -5   1   31.30    3.90   1
   4   5   0   30.10    5.30   1
  -4  -5   0   32.00    4.00   1
   4   5   1   24.10    3.00   1
  -4  -5  -1   32.90    4.10   1
   4   5   2   18.50    6.20   1
   4   5   3    5.00    2.60   1
   4   5   4    6.70    6.50   1
  -4  -5  -4    7.20    2.20   1
   4   5   5    9.60    6.00   1
  -4  -5  -5    6.90    3.30   1
   4   5   6   21.90    6.50   1
  -4  -5  -6   26.30    2.80   1
   4   5   7   21.30    6.50   1
  -4  -5  -7   18.60    2.60   1
   4   5   8   20.80    7.10   1
  -4  -5  -8   15.90    2.50   1
   4   5   9    5.90    6.80   1
  -4  -5  -9    8.20    2.40   1
   4   5  10   14.70    7.90   1
  -4  -5 -10   11.90    3.80   1
   4   5  11   25.20   10.50   1
  -4  -5 -11   -4.70    3.80   1
   4   5  12   -2.70    6.90   1
  -4  -5 -12    5.40    4.00   1
   4   5  13  -10.00    9.30   1
  -4  -5 -13    4.30    3.70   1
   4   5  14    3.30    6.70   1
  -4  -5 -14    8.70    4.80   1
   4   5  15   13.50    8.20   1
  -4  -5 -15   13.30    4.80   1
   4   5  16    8.90    6.80   1
  -4  -5 -16    8.80    5.30   1
   4   6 -10   12.70    5.80   1
   4   6  -9    6.60    3.50   1
   4   6  -8    0.40    3.20   1
   4   6  -7    8.00    3.20   1
   4   6  -6    1.40    2.40   1
   4   6  -5    3.70    3.40   1
   4   6  -4    5.70    2.40   1
   4   6  -3    9.30    8.00   1
  -4  -6   3    3.30    3.80   1
   4   6  -2  -10.40    6.90   1
  -4  -6   2    2.80    3.30   1
   4   6  -1   -2.10    6.50   1
  -4  -6   1   12.50    4.00   1
   4   6   0    1.20    6.60   1
   4   6   1   12.40    7.20   1
   4   6   2   10.50    7.90   1
   4   6   3   16.20    7.50   1
  -4  -6  -3   -1.90    3.60   1
   4   6   4    5.30    6.80   1
   4   6   5   11.20    6.70   1
  -4  -6  -5    5.70    3.50   1
   4   6   6    4.30    6.60   1
   4   6   7    7.70    7.70   1
  -4  -6  -7    0.60    3.60   1
   4   6   8   13.00    7.40   1
  -4  -6  -8    5.70    3.40   1
   4   6   9   10.10    8.40   1
   4   6  10   -1.80    7.80   1
  -4  -6 -10    4.50    4.20   1
   4   6  11    3.30    5.70   1
  -4  -6 -11    2.60    4.50   1
   4   6  12    0.50    5.80   1
  -4  -6 -12    3.00    4.20   1
   4   6  13   -1.00    6.50   1
  -4  -6 -13    0.40    4.90   1
   4   6  14   -2.20    5.90   1
   4   7  -9   -6.20    6.30   1
   4   7  -8   10.20    7.20   1
   4   7  -7   24.00    7.10   1
   4   7  -6   13.40    7.90   1
   4   7  -5   14.80   10.40   1
   4   7  -4    3.60    3.50   1
   4   7  -3   11.00    8.30   1
  -4  -7   3    5.90    4.40   1
   4   7  -2    3.60    6.60   1
   4   7  -1    4.40    6.50   1
   4   7   0   12.60    8.20   1
   4   7   1   25.80   10.60   1
   4   7   2    4.30    7.20   1
   4   7   3    3.30    8.40   1
   4   7   4   21.70    9.00   1
  -4  -7  -4    1.60    4.40   1
   4   7   5   18.10    9.90   1
  -4  -7  -5   -0.90    4.30   1
   4   7   6   11.50    8.80   1
   4   7   7    5.50    8.90   1
  -4  -7  -7   15.50    5.10   1
   4   7   8    0.20    6.70   1
  -4  -7  -8    4.60    4.70   1
   4   7   9    6.90    4.70   1
  -4  -7  -9    1.40    4.60   1
   4   7  10    3.00    2.90   1
  -4  -7 -10   -5.10    5.00   1
   4   8  -2    1.70    8.00   1
  -4  -8   2    1.60    4.70   1
   4   8  -1   -8.10    9.20   1
   4   8   0    6.10    9.00   1
   4   8   1   -3.40    9.70   1
  -4  -8  -1   -4.50    5.00   1
   4   8   2   -3.20    8.90   1
   5  -6  -8    0.30    4.90   1
   5  -6  -7   -4.00    4.20   1
   5  -6  -6   -0.40    4.80   1
   5  -6  -5   -0.90    4.60   1
   5  -6  -4   10.80    4.70   1
   5  -6  -3    4.60    4.30   1
   5  -6  -2    3.60    4.00   1
  -5   6   0  -11.30    6.70   1
  -5   6  -1   -9.80    7.30   1
  -5   6  -2   -8.00    7.90   1
  -5   6  -3   -3.60    7.60   1
  -5   6  -4   19.50    7.60   1
  -5   6  -5   13.30    8.90   1
  -5   6  -6   12.40    7.40   1
  -5   6  -7   -2.30    9.40   1
  -5   6  -8   10.00   10.60   1
   5  -5 -12   -3.00    5.10   1
   5  -5 -11    2.00    3.20   1
   5  -5 -10    9.60    3.40   1
   5  -5  -9    4.40    3.00   1
   5  -5  -8   -0.90    2.90   1
   5  -5  -7   -1.80    2.80   1
   5  -5  -6    6.80    3.00   1
   5  -5  -5    1.30    2.90   1
   5  -5  -4   13.70    2.90   1
   5  -5  -3    7.20    2.60   1
   5  -5  -2    3.70    2.50   1
   5  -5  -1    2.50    2.50   1
   5  -5   0    0.30    2.30   1
   5  -5   1    2.20    3.20   1
  -5   5  -4   18.90    8.90   1
  -5   5  -5    8.90    6.40   1
  -5   5  -6   18.60    8.00   1
  -5   5  -7   18.70    8.70   1
  -5   5  -8   -6.50    7.60   1
  -5   5  -9    3.50    8.80   1
  -5   5 -10   32.00    9.80   1
  -5   5 -11    9.20   10.40   1
  -5   5 -12  -11.00    9.50   1
   5  -4 -14    7.50    5.90   1
   5  -4 -13    5.80    6.30   1
   5  -4 -12    3.20    5.10   1
   5  -4 -11    9.10    5.50   1
   5  -4 -10    6.60    5.20   1
   5  -4  -9    6.30    3.30   1
   5  -4  -8   -0.10    2.90   1
   5  -4  -7   -0.50    2.80   1
   5  -4  -6    6.40    2.70   1
   5  -4  -5    8.20    2.70   1
   5  -4  -4   11.10    3.50   1
   5  -4  -3   17.90    3.50   1
   5  -4  -2    3.60    3.30   1
   5  -4  -1    6.20    3.20   1
   5  -4   0    4.10    3.10   1
   5  -4   1    7.80    2.90   1
   5  -4   2    1.70    2.10   1
  -5   4  -3   30.10    6.80   1
  -5   4  -4   28.00    6.70   1
  -5   4  -5    9.30    7.20   1
  -5   4  -6    0.20    7.00   1
  -5   4  -7   -4.90    6.70   1
  -5   4  -8   16.50    8.10   1
  -5   4  -9    8.70    6.70   1
  -5   4 -10   18.00    8.00   1
  -5   4 -11    8.60    9.90   1
  -5   4 -12   -3.30    7.50   1
  -5   4 -13    9.70    9.50   1
  -5   4 -14    9.40    9.20   1
   5  -3 -16   -1.70    7.00   1
   5  -3 -15    2.20    5.60   1
   5  -3 -14   11.30    5.70   1
   5  -3 -13   21.20    6.70   1
   5  -3 -12   14.10    5.80   1
   5  -3 -11   18.40    5.40   1
   5  -3 -10   15.00    4.60   1
   5  -3  -9    7.10    4.70   1
   5  -3  -8    1.80    3.00   1
   5  -3  -7   -2.40    2.60   1
   5  -3  -6    4.20    2.40   1
   5  -3  -5   49.70    2.90   1
   5  -3  -4   44.30    3.20   1
   5  -3  -3   36.80    3.00   1
  -5   3   3   23.40    5.60   1
   5  -3  -2    8.20    2.40   1
  -5   3   2    1.90    4.90   1
   5  -3  -1    6.60    2.20   1
  -5   3   1   -2.60    5.70   1
   5  -3   0    0.80    2.50   1
   5  -3   1    4.90    2.10   1
   5  -3   2    7.30    2.00   1
   5  -3   3   43.50    3.80   1
   5  -3   4   49.10    3.60   1
  -5   3  -4   57.10    6.80   1
   5  -3   5   51.60    4.80   1
  -5   3  -5   63.90    9.10   1
  -5   3  -6   20.30    6.30   1
  -5   3  -7    8.40    7.40   1
  -5   3  -8   -8.30    7.10   1
  -5   3  -9   17.30    8.80   1
  -5   3 -10   33.60    8.50   1
  -5   3 -11    5.50    7.50   1
  -5   3 -12   31.70    9.90   1
  -5   3 -13   23.40    8.70   1
  -5   3 -14    1.20    9.10   1
  -5   3 -15   13.70   10.50   1
  -5   3 -16   18.80   12.20   1
   5  -2 -17   -3.50    7.60   1
   5  -2 -16   -2.00    7.00   1
   5  -2 -15   -3.30    6.40   1
   5  -2 -14    7.80    6.30   1
   5  -2 -13   10.60    6.00   1
   5  -2 -12    5.20    5.40   1
   5  -2 -11   10.40    4.50   1
   5  -2 -10   19.80    5.20   1
   5  -2  -9    3.40    4.40   1
   5  -2  -8    4.00    3.50   1
   5  -2  -7    1.70    2.20   1
   5  -2  -6    7.60    2.10   1
   5  -2  -5    2.50    2.50   1
   5  -2  -4   12.70    2.90   1
   5  -2  -3    3.00    2.30   1
  -5   2   3   12.20    5.30   1
   5  -2  -2    1.50    2.10   1
  -5   2   2    6.00    4.90   1
   5  -2  -1    1.70    2.00   1
  -5   2   1   10.50    5.10   1
   5  -2   0    2.00    1.80   1
  -5   2   0    1.80    4.90   1
   5  -2   1    5.10    2.00   1
  -5   2  -1    0.30    4.70   1
   5  -2   2    6.00    2.60   1
  -5   2  -2   -0.60    5.00   1
   5  -2   3   10.70    2.60   1
   5  -2   4   15.30    2.10   1
   5  -2   5    0.80    1.70   1
  -5   2  -7    5.00    5.90   1
  -5   2  -8   31.60   14.10   1
  -5   2  -9    6.60    9.80   1
  -5   2 -10   21.70    6.70   1
  -5   2 -11   16.60    9.80   1
  -5   2 -12   -0.80    7.10   1
  -5   2 -13    5.40    9.40   1
  -5   2 -14    1.40    7.80   1
  -5   2 -15   -2.00    7.70   1
  -5   2 -16   19.80    9.00   1
  -5   2 -17   -5.40    8.70   1
   5  -1 -17   15.60    8.00   1
   5  -1 -16    2.00    6.90   1
   5  -1 -15    4.70    6.00   1
   5  -1 -14   23.00    6.00   1
   5  -1 -13   16.90    5.60   1
   5  -1 -12   46.50    6.90   1
   5  -1 -11   25.00    5.90   1
   5  -1 -10   35.60    5.90   1
   5  -1  -9   15.10    5.10   1
   5  -1  -8    6.10    3.00   1
   5  -1  -7    2.90    2.60   1
   5  -1  -6   30.80    3.10   1
   5  -1  -5  164.00    7.00   1
   5  -1  -4  115.60    4.50   1
   5  -1  -3   20.80    2.30   1
   5  -1  -2   50.00    2.90   1
  -5   1   2  133.60   21.70   1
   5  -1  -1   10.60    2.10   1
  -5   1   1   52.50   20.30   1
   5  -1   0   -3.90    1.90   1
  -5   1   0    0.00    4.40   1
   5  -1   1    7.70    2.00   1
   5  -1   2   50.10    3.40   1
   5  -1   3   22.00    2.20   1
   5  -1   4  123.60    4.50   1
  -5   1  -4  166.60   11.00   1
   5  -1   5  181.60    7.10   1
  -5   1  -5  202.20   12.80   1
   5  -1   6   31.80    3.00   1
  -5   1  -6   19.70    7.70   1
  -5   1  -7    9.20    6.50   1
  -5   1  -8   10.50    5.40   1
  -5   1  -9    9.20    5.50   1
  -5   1 -10   46.40    7.30   1
  -5   1 -11   48.00    9.50   1
  -5   1 -12   79.40    9.40   1
  -5   1 -13   23.10    7.90   1
  -5   1 -14   23.40    8.10   1
  -5   1 -15   21.10    8.40   1
  -5   1 -16  -11.10    8.00   1
   5  -1  17   15.70    8.00   1
  -5   1 -17    8.30    8.80   1
   5   0 -18   -4.20    6.90   1
   5   0 -17    6.60    6.30   1
   5   0 -16   -7.30    7.20   1
   5   0 -15    3.00    5.80   1
   5   0 -14   -8.20    6.50   1
   5   0 -13    3.80    5.50   1
   5   0 -12    3.00    5.00   1
   5   0 -11   -0.20    5.10   1
   5   0 -10   -8.90    4.80   1
   5   0  -9   -1.90    3.90   1
   5   0  -8   -0.60    2.50   1
   5   0  -7   -6.80    2.60   1
   5   0  -6    2.30    2.80   1
   5   0  -5    8.00    2.90   1
   5   0  -4    0.70    2.60   1
   5   0  -3   -0.70    2.70   1
   5   0  -2    1.10    2.00   1
  -5   0   2    5.70    4.20   1
   5   0  -1    2.60    2.00   1
  -5   0   1    9.70    4.30   1
   5   0   0   -0.10    2.00   1
  -5   0   0   11.10    4.40   1
   5   0   1   -0.50    2.50   1
  -5   0  -1    9.90    5.70   1
   5   0   2   -3.40    2.20   1
  -5   0  -2   16.80    6.30   1
   5   0   3   -2.20    2.00   1
  -5   0  -3    9.60    6.60   1
   5   0   4    0.10    1.80   1
  -5   0  -4   -2.60    6.00   1
   5   0   5   -2.00    1.90   1
  -5   0  -5   -5.80    4.60   1
   5   0   6   -1.10    2.20   1
  -5   0  -6   -9.20    6.10   1
   5   0   7    1.00    2.30   1
  -5   0  -7   -6.90    5.40   1
   5   0   8   -5.70    2.00   1
  -5   0  -8   -1.00    5.20   1
   5   0   9    0.10    6.20   1
  -5   0  -9    2.80    5.60   1
   5   0  10   -4.30    8.10   1
  -5   0 -10    3.00    5.20   1
   5   0  11   -1.90    8.20   1
  -5   0 -11   63.70   22.70   1
   5   0  12   22.20    8.90   1
  -5   0 -12   14.60    7.90   1
   5   0  13    9.50    9.50   1
  -5   0 -13   14.40   11.50   1
   5   0  14  -14.50    8.80   1
  -5   0 -14   -1.40   10.30   1
   5   0  15   10.40    8.60   1
  -5   0 -15    8.40    8.50   1
   5   0  16   -0.90    8.70   1
  -5   0 -16   10.60    8.30   1
   5   0  17   16.80    8.90   1
  -5   0 -17   -6.80    8.70   1
   5   0  18   14.70    9.70   1
   5   1 -17    4.80    7.70   1
   5   1 -16    4.80    6.20   1
   5   1 -15    7.00    6.00   1
   5   1 -14   22.60    6.40   1
   5   1 -13   27.70    6.00   1
   5   1 -12   50.10    7.60   1
   5   1 -11   33.70    5.80   1
   5   1 -10   28.50    6.00   1
   5   1  -9   14.50    4.30   1
   5   1  -8   12.30    4.20   1
   5   1  -7   10.70    3.20   1
   5   1  -6   28.10    2.80   1
   5   1  -5  145.60    7.40   1
   5   1  -4  108.70    6.10   1
   5   1  -3   25.00    3.30   1
   5   1  -2   50.50    3.20   1
  -5  -1   2   47.60    5.50   1
   5   1  -1   13.00    2.30   1
  -5  -1   1   10.40    3.90   1
   5   1   0   -2.80    2.10   1
  -5  -1   0   -4.20    4.10   1
   5   1   1    9.30    2.90   1
  -5  -1  -1   10.60    4.10   1
   5   1   2   59.30    4.10   1
  -5  -1  -2   51.00    5.80   1
   5   1   3   36.00    4.00   1
  -5  -1  -3   17.20    4.50   1
   5   1   4  129.20    6.00   1
  -5  -1  -4  153.10    9.80   1
   5   1   5  165.50    7.30   1
   5   1   6   37.00    3.60   1
   5   1   7    8.70    7.20   1
  -5  -1  -7   12.00    5.00   1
   5   1   8   25.20    7.50   1
  -5  -1  -8    3.70    5.10   1
   5   1   9    8.10    6.90   1
  -5  -1  -9   11.90    5.60   1
   5   1  10   26.60    8.30   1
  -5  -1 -10   46.10    7.90   1
   5   1  11   31.30    7.90   1
  -5  -1 -11   27.30    6.80   1
   5   1  12   53.30    8.90   1
  -5  -1 -12   63.90    7.20   1
   5   1  13   24.70    8.30   1
  -5  -1 -13   31.30    9.20   1
   5   1  14   30.40    8.40   1
  -5  -1 -14   26.60    6.60   1
   5   1  15    4.80    8.60   1
  -5  -1 -15    8.60   12.40   1
   5   1  16    1.60    8.70   1
  -5  -1 -16    6.60    7.40   1
   5   1  17   20.70    8.90   1
  -5  -1 -17    5.10    7.50   1
   5   2 -17    7.00    8.00   1
   5   2 -16    6.60    6.60   1
   5   2 -15    1.60    6.00   1
   5   2 -14   -1.00    5.70   1
   5   2 -13   10.10    6.70   1
   5   2 -12    5.60    5.60   1
   5   2 -11    5.30    5.30   1
   5   2 -10    8.50    3.20   1
   5   2  -9    3.10    4.80   1
   5   2  -8    2.10    3.20   1
   5   2  -7    0.80    2.40   1
   5   2  -6   11.60    2.40   1
   5   2  -5    0.30    2.90   1
   5   2  -4   14.10    3.00   1
   5   2  -3    7.30    4.40   1
   5   2  -2    6.50    2.90   1
   5   2  -1    5.90    2.80   1
  -5  -2   1    4.40    4.10   1
   5   2   0    1.60    2.90   1
  -5  -2   0    6.20    4.00   1
   5   2   1    5.80    2.90   1
  -5  -2  -1   12.40    3.90   1
   5   2   2   10.60    5.00   1
  -5  -2  -2    2.90    4.00   1
   5   2   3    5.80    6.30   1
  -5  -2  -3   16.20    4.30   1
   5   2   4   10.10    5.80   1
  -5  -2  -4   25.90    4.90   1
   5   2   5   -0.60    5.30   1
  -5  -2  -5    5.30    4.30   1
   5   2   6   14.60    6.60   1
  -5  -2  -6    4.10    4.80   1
   5   2   7    6.20    3.20   1
  -5  -2  -7    0.50    4.50   1
   5   2   8    2.20    6.60   1
  -5  -2  -8    5.40    4.80   1
   5   2   9   -7.30    6.20   1
  -5  -2  -9   -0.90    4.40   1
   5   2  10   17.40    6.80   1
  -5  -2 -10   27.80    5.10   1
   5   2  11   -4.00    8.50   1
  -5  -2 -11   12.60    6.50   1
   5   2  12   -0.80    7.40   1
  -5  -2 -12  -11.60    5.10   1
   5   2  13   11.20    8.00   1
  -5  -2 -13    9.00    5.90   1
   5   2  14    0.20    8.50   1
  -5  -2 -14    0.80    5.50   1
   5   2  15    5.50    7.90   1
  -5  -2 -15   -5.20    5.50   1
   5   2  16    4.20    7.80   1
  -5  -2 -16    6.80    7.00   1
   5   2  17   17.60    9.80   1
  -5  -2 -17    4.20    7.90   1
   5   3 -16   10.10    6.80   1
   5   3 -15   -1.30    6.40   1
   5   3 -14   12.60    7.30   1
   5   3 -13   14.80    6.40   1
   5   3 -12   27.60    6.30   1
   5   3 -11   -2.10    3.40   1
   5   3 -10   18.20    6.70   1
   5   3  -9   10.10    3.70   1
   5   3  -8    1.50    3.40   1
   5   3  -7    0.90    3.30   1
   5   3  -6   19.90    4.60   1
   5   3  -5   43.90    5.50   1
   5   3  -4   43.00    6.20   1
   5   3  -3   47.50    7.70   1
   5   3  -2    8.60    5.50   1
   5   3  -1    2.40    5.00   1
   5   3   0    3.70    5.70   1
   5   3   1    0.80    5.00   1
  -5  -3  -1    8.50    3.60   1
   5   3   2    2.50    6.40   1
  -5  -3  -2    7.20    3.60   1
   5   3   3   39.40    3.90   1
  -5  -3  -3   27.80    4.70   1
   5   3   4   38.80    4.00   1
  -5  -3  -4   45.30    5.60   1
   5   3   5   55.10    4.10   1
  -5  -3  -5   49.50    5.40   1
   5   3   6    5.30    6.40   1
  -5  -3  -6    6.80    4.10   1
   5   3   7    7.80    7.10   1
  -5  -3  -7    0.30    3.80   1
   5   3   8    3.90    7.90   1
  -5  -3  -8   -4.40    3.60   1
   5   3   9   29.10    9.40   1
  -5  -3  -9    5.20    4.30   1
   5   3  10   19.30    8.20   1
  -5  -3 -10   19.20    5.40   1
   5   3  11    0.80    8.80   1
  -5  -3 -11   19.50    5.80   1
   5   3  12   26.70    8.40   1
  -5  -3 -12   19.00    5.50   1
   5   3  13   16.70    8.20   1
  -5  -3 -13    7.70    5.90   1
   5   3  14    8.20    7.50   1
  -5  -3 -14   14.10    6.30   1
   5   3  15    8.50    9.30   1
  -5  -3 -15    3.50    6.80   1
   5   3  16   20.20   10.90   1
  -5  -3 -16   -1.60    5.70   1
   5   4 -14   20.40    8.30   1
   5   4 -13   18.70    7.80   1
   5   4 -12   -2.60    7.00   1
   5   4 -11   -4.20    3.40   1
   5   4 -10    6.70    3.90   1
   5   4  -9    7.00    3.30   1
   5   4  -8    3.00    3.30   1
   5   4  -7    2.50    3.40   1
   5   4  -6    7.30    3.50   1
   5   4  -5    0.40    3.30   1
   5   4  -4   12.90    5.60   1
   5   4  -3   22.90    5.10   1
   5   4  -2   14.20    8.00   1
   5   4  -1   10.70    3.10   1
   5   4   0   17.90    7.70   1
   5   4   1    5.90    7.10   1
   5   4   2    2.00    6.80   1
  -5  -4  -2    4.20    3.70   1
   5   4   3  100.40   26.50   1
  -5  -4  -3   22.80    4.60   1
   5   4   4   17.70    8.30   1
  -5  -4  -4   17.90    4.70   1
   5   4   5    6.40    7.50   1
  -5  -4  -5   11.30    4.70   1
   5   4   6   21.00    8.50   1
  -5  -4  -6   15.60    5.10   1
   5   4   7   11.80    9.80   1
  -5  -4  -7    7.10    4.50   1
   5   4   8   -5.60    8.10   1
  -5  -4  -8    0.70    3.90   1
   5   4   9   -5.50    9.20   1
  -5  -4  -9   11.90    4.90   1
   5   4  10   20.10   10.40   1
  -5  -4 -10   12.80    4.40   1
   5   4  11    4.20    8.10   1
  -5  -4 -11   15.20    6.10   1
   5   4  12    0.50    6.30   1
  -5  -4 -12   -8.10    4.40   1
   5   4  13   -1.90    5.80   1
  -5  -4 -13    6.40    4.80   1
   5   4  14    3.10    4.20   1
  -5  -4 -14   -0.80    4.60   1
   5   5 -12   -1.80    6.70   1
   5   5 -11    2.20    4.70   1
   5   5 -10   11.00    3.70   1
   5   5  -9    4.10    3.80   1
   5   5  -8    3.50    3.60   1
   5   5  -7    1.70    3.60   1
   5   5  -6   10.90    4.10   1
   5   5  -5   -1.70    3.50   1
   5   5  -4   14.90    6.20   1
   5   5  -3    8.10    5.90   1
   5   5  -2   24.30    8.20   1
   5   5  -1    5.00    5.80   1
   5   5   0    7.40    6.10   1
   5   5   1   25.80    9.10   1
   5   5   2   14.10    8.50   1
   5   5   3    3.60    7.50   1
   5   5   4    1.10    7.40   1
   5   5   5   -2.50    6.80   1
  -5  -5  -5   -4.00    4.30   1
   5   5   6    6.90    6.50   1
   5   5   7    7.00    5.50   1
   5   5   8    7.90    5.40   1
   5   5   9   -0.20    6.00   1
   5   5  10    3.90    4.90   1
   5   5  11    1.50    4.30   1
   5   5  12    0.00    3.40   1
   5   6  -8    2.20    3.70   1
   5   6  -7    2.10    3.90   1
   5   6  -6    4.00    3.60   1
   5   6  -5    6.40    3.70   1
   5   6  -4    9.30    3.80   1
   5   6  -3    6.10    3.70   1
   5   6  -2    5.30    3.50   1
   5   6  -1    5.20    3.60   1
   5   6   0    5.50    6.40   1
   5   6   1   -3.40    4.70   1
   5   6   2    0.30    3.00   1
   5   6   3    1.10    4.10   1
   5   6   4   -0.40    4.20   1
   5   6   5    1.10    3.70   1
   5   6   6   -4.60    3.70   1
   5   6   7   -2.00    3.90   1
   5   6   8    0.90    3.80   1
  -6   5  -1   12.70    9.10   1
  -6   5  -2   -5.60    9.60   1
   6  -4  -8   10.50    5.40   1
   6  -4  -7    8.80    3.60   1
   6  -4  -6    7.10    3.30   1
   6  -4  -5    1.10    3.40   1
   6  -4  -4   -3.10    3.00   1
   6  -4  -3    1.20    3.00   1
   6  -4  -2    5.00    5.00   1
   6  -4  -1    4.30    4.40   1
   6  -4   0   11.50    4.50   1
   6  -4   1    6.40    4.50   1
  -6   4  -2   45.80   13.50   1
  -6   4  -3   11.10    8.60   1
  -6   4  -4    1.40    6.80   1
  -6   4  -5   -0.40    6.70   1
  -6   4  -6   -1.70    6.70   1
  -6   4  -7    6.30    5.50   1
  -6   4  -8    3.10    6.70   1
   6  -3 -10    6.40    4.00   1
   6  -3  -9   -0.50    3.60   1
   6  -3  -8    0.10    3.70   1
   6  -3  -7   -0.20    3.40   1
   6  -3  -6    6.90    3.10   1
   6  -3  -5   11.00    3.30   1
   6  -3  -4    5.20    3.00   1
   6  -3  -3    2.00    4.00   1
   6  -3  -2   -0.80    2.70   1
   6  -3  -1    2.30    3.00   1
   6  -3   0   12.40    5.80   1
  -6   3  -3   13.60    8.50   1
  -6   3  -4   16.30    8.70   1
  -6   3  -5   10.40    8.40   1
  -6   3  -6   12.90    7.90   1
  -6   3  -7   10.00    9.50   1
  -6   3  -8    1.30    8.00   1
  -6   3  -9    2.70    8.80   1
  -6   3 -10   19.10   14.10   1
   6  -2 -12    9.90    6.60   1
   6  -2 -11   -4.00    3.50   1
   6  -2 -10    1.80    3.80   1
   6  -2  -9    4.50    3.90   1
   6  -2  -8   14.20    3.80   1
   6  -2  -7   14.30    3.70   1
   6  -2  -6   12.00    3.40   1
   6  -2  -5    4.40    3.00   1
   6  -2  -4    6.80    3.30   1
   6  -2  -3   10.80    3.50   1
   6  -2  -2    9.60    3.30   1
   6  -2  -1    6.30    3.00   1
   6  -2   0   22.80    3.20   1
   6  -2   1    8.30    2.90   1
   6  -2   2   16.30    6.00   1
   6  -2   3   -2.70    9.60   1
   6  -2   4    0.00    6.50   1
   6  -2   5    8.80    7.10   1
  -6   2  -5    3.80   11.80   1
   6  -2   6   14.00    7.90   1
  -6   2  -6   25.80   10.60   1
  -6   2  -7   24.80    7.80   1
  -6   2  -8   21.40    9.70   1
  -6   2  -9   19.80   10.10   1
  -6   2 -10   23.90    9.70   1
  -6   2 -11    9.90    9.60   1
  -6   2 -12    0.70    9.00   1
   6  -1 -13    5.60    6.60   1
   6  -1 -12    6.00    6.90   1
   6  -1 -11    2.20    6.10   1
   6  -1 -10    3.60    4.20   1
   6  -1  -9    2.90    4.10   1
   6  -1  -8   -0.30    3.50   1
   6  -1  -7   -3.90    3.70   1
   6  -1  -6    2.00    3.50   1
   6  -1  -5   -5.30    2.90   1
   6  -1  -4   -0.90    3.50   1
   6  -1  -3    2.40    3.30   1
   6  -1  -2   -0.90    3.10   1
   6  -1  -1    3.80    3.40   1
   6  -1   0   -3.90    3.00   1
   6  -1   1    3.90    3.10   1
   6  -1   2    0.70    3.10   1
   6  -1   3   -6.20    5.90   1
   6  -1   4   -3.90    7.00   1
   6  -1   5    3.30    6.80   1
  -6   1  -5   11.30   11.30   1
   6  -1   6    4.30    7.90   1
  -6   1  -6   -7.40    8.70   1
   6  -1   7    4.70    7.50   1
  -6   1  -7   13.00   10.70   1
   6  -1   8   17.70   11.30   1
  -6   1  -8   15.50   12.00   1
   6  -1   9    5.30    7.50   1
  -6   1  -9    0.50    7.30   1
   6  -1  10   -8.60    7.20   1
  -6   1 -10   -7.00    8.20   1
   6  -1  11  -15.00    7.70   1
  -6   1 -11   11.30   11.30   1
   6  -1  12    3.60    7.80   1
  -6   1 -12    8.90    8.50   1
   6  -1  13    1.10    7.30   1
  -6   1 -13    1.70    9.60   1
   6   0 -13    0.50    7.20   1
   6   0 -12    6.20    6.20   1
   6   0 -11    0.50    5.50   1
   6   0 -10   12.70    4.00   1
   6   0  -9   18.20    4.00   1
   6   0  -8   14.90    3.90   1
   6   0  -7   36.50    4.30   1
   6   0  -6    5.90    3.30   1
   6   0  -5    5.70    3.00   1
   6   0  -4    6.80    3.00   1
   6   0  -3   14.80    3.70   1
   6   0  -2   15.00    3.60   1
   6   0  -1   28.80    3.90   1
   6   0   0   28.20    2.90   1
   6   0   1   27.90    3.80   1
   6   0   2   14.70    3.30   1
   6   0   3    5.40    2.90   1
  -6   0  -3   22.90    6.70   1
   6   0   4    9.10    3.20   1
  -6   0  -4   16.90    7.00   1
   6   0   5   14.80   10.10   1
  -6   0  -5    9.10    7.10   1
   6   0   6   20.20    7.30   1
  -6   0  -6   10.50    6.90   1
   6   0   7   44.20    8.60   1
  -6   0  -7   42.00    9.10   1
   6   0   8   10.20   10.10   1
  -6   0  -8   12.60    7.90   1
   6   0   9   35.20    7.90   1
  -6   0  -9   40.80    9.10   1
   6   0  10    3.60    7.80   1
  -6   0 -10   16.00    7.00   1
   6   0  11   -8.20    8.90   1
  -6   0 -11   -4.10    8.10   1
   6   0  12   15.70   10.90   1
  -6   0 -12   11.70    7.50   1
   6   0  13    1.90    7.40   1
  -6   0 -13    1.00    8.80   1
   6   1 -13   -4.10    6.30   1
   6   1 -12    9.80    7.20   1
   6   1 -11   -2.20    5.60   1
   6   1 -10    0.10    4.30   1
   6   1  -9    1.50    3.80   1
   6   1  -8   -2.90    3.90   1
   6   1  -7    2.70    3.80   1
   6   1  -6    3.30    3.00   1
   6   1  -5    5.50    4.00   1
   6   1  -4    3.00    3.70   1
   6   1  -3   -6.70    3.60   1
   6   1  -2    0.10    3.40   1
   6   1  -1    6.80    3.50   1
   6   1   0    0.30    3.40   1
   6   1   1    5.90    3.40   1
   6   1   2   -0.60    3.10   1
   6   1   3   -3.60    3.30   1
   6   1   4    2.00    3.30   1
  -6  -1  -4    8.60    5.70   1
   6   1   5    3.50    3.30   1
  -6  -1  -5   13.00    7.20   1
   6   1   6   -6.60    6.80   1
  -6  -1  -6    6.10    6.30   1
   6   1   7  -14.00    9.00   1
  -6  -1  -7    7.30    6.10   1
   6   1   8   -2.10    7.50   1
  -6  -1  -8    3.30    6.10   1
   6   1   9   10.20    7.30   1
  -6  -1  -9   -1.20    5.80   1
   6   1  10   -7.20    8.70   1
  -6  -1 -10   20.80    8.80   1
   6   1  11   12.20   11.40   1
  -6  -1 -11   -6.20    6.00   1
   6   1  12    6.20    8.10   1
  -6  -1 -12    2.20    7.90   1
   6   1  13    4.20    6.50   1
  -6  -1 -13    1.00    3.90   1
   6   2 -12    5.50    7.60   1
   6   2 -11    8.20    4.10   1
   6   2 -10    6.90    4.70   1
   6   2  -9   12.00    3.90   1
   6   2  -8   14.70    4.00   1
   6   2  -7   10.90    3.10   1
   6   2  -6   11.40    3.40   1
   6   2  -5    0.60    3.90   1
   6   2  -4    9.20    3.80   1
   6   2  -3   11.60    3.70   1
   6   2  -2   20.40    4.20   1
   6   2  -1    6.10    3.70   1
   6   2   0   20.80    4.10   1
   6   2   1    9.20    3.70   1
   6   2   2    9.60    7.00   1
   6   2   3   22.00    7.00   1
   6   2   4    1.80    6.80   1
  -6  -2  -4   12.10    6.20   1
   6   2   5   -6.90    7.30   1
  -6  -2  -5    8.00    5.40   1
   6   2   6    3.30    8.40   1
  -6  -2  -6   11.40    6.30   1
   6   2   7   19.20    7.80   1
  -6  -2  -7   18.70    6.70   1
   6   2   8   25.80    7.60   1
  -6  -2  -8    6.60    6.40   1
   6   2   9    3.50    9.50   1
  -6  -2  -9   14.30    5.60   1
   6   2  10   14.90   10.20   1
  -6  -2 -10   10.60    6.40   1
   6   2  11   11.00    9.80   1
  -6  -2 -11   -3.40    5.30   1
   6   2  12   -0.40    6.70   1
  -6  -2 -12   -3.70    5.00   1
   6   3 -10    5.60    4.10   1
   6   3  -9   -2.70    4.60   1
   6   3  -8   -3.90    4.10   1
   6   3  -7    0.80    2.90   1
   6   3  -6    6.90    3.20   1
   6   3  -5    4.30    3.20   1
   6   3  -4   -4.80    4.10   1
   6   3  -3    5.10    7.50   1
   6   3  -2    7.20   11.60   1
   6   3  -1    8.80    6.70   1
   6   3   0   15.70    6.20   1
   6   3   1   -1.90    7.70   1
   6   3   2   -0.90    7.00   1
  -6  -3  -2   10.90    8.30   1
   6   3   3   -2.70    7.10   1
  -6  -3  -3   13.20    5.60   1
   6   3   4    7.40   12.20   1
  -6  -3  -4   10.80    5.10   1
   6   3   5    0.70    5.70   1
  -6  -3  -5    7.70    6.00   1
   6   3   6    0.30    3.40   1
  -6  -3  -6   13.50    5.40   1
   6   3   7   -0.60    3.40   1
  -6  -3  -7    1.60    5.20   1
   6   3   8    0.50    3.60   1
  -6  -3  -8   -5.60    4.90   1
   6   3   9    1.30    3.70   1
  -6  -3  -9    5.40    5.10   1
   6   3  10   -0.70    6.00   1
  -6  -3 -10   10.50    5.80   1
   6   4  -8    8.60    6.70   1
   6   4  -7    7.60    4.50   1
   6   4  -6    0.70    3.80   1
   6   4  -5    0.60    4.30   1
   6   4  -4    2.90    4.20   1
   6   4  -3    1.40    3.60   1
   6   4  -2   -3.90    5.90   1
   6   4  -1    5.30    5.60   1
   6   4   0    8.50    6.40   1
   6   4   1    6.90    6.20   1
   6   4   2    0.40    2.50   1
   6   4   3    0.00    4.10   1
   6   4   4   -0.90    2.60   1
  -6  -4  -4    1.10    5.10   1
   6   4   5   -2.80    2.60   1
  -6  -4  -5    4.40    4.90   1
   6   4   6    1.70    3.10   1
  -6  -4  -6   14.60    7.50   1
   6   4   7   -0.40    3.00   1
  -6  -4  -7    6.10    5.80   1
   6   4   8   -0.60    3.30   1
  -6  -4  -8    4.70    5.30   1
   6   5  -2    1.50    1.80   1
   6   5  -1    0.20    1.70   1
   6   5   0    0.20    1.70   1
   6   5   1    1.80    2.30   1
   6   5   2   -0.40    2.10   1
   7   0  -2   -3.70    5.40   1
   7   0  -1   -1.00    3.90   1
   7   0   0    7.00    7.20   1
   7   0   1   12.90    6.90   1
  -7   0  -1   -8.00    7.80   1
   7   0   2    1.70    8.20   1
   0   0   0
;
_shelx_hkl_checksum              30428
loop_
_space_group_symop_operation_xyz
'x, y, z'
'-x, -y, z'
'-x, y, z+1/2'
'x, -y, z+1/2'
loop_
_atom_site_label
_atom_site_type_symbol
_atom_site_fract_x
_atom_site_fract_y
_atom_site_fract_z
_atom_site_U_iso_or_equiv
_atom_site_adp_type
_atom_site_occupancy
_atom_site_site_symmetry_order
_atom_site_calc_flag
_atom_site_refinement_flags_posn
_atom_site_refinement_flags_adp
Br1 Br 0.22205(17) 0.06468(6) 0.3159(4) 0.0493(6) Uani 1 1 d . .
O1 O 0.3525(11) 0.3767(4) -0.2056(19) 0.038(2) Uani 1 1 d . .
O2 O 0.0600(12) 0.4174(4) 0.2217(17) 0.046(2) Uani 1 1 d . .
H2X H 0.0017 0.4193 0.0745 0.070 Uiso 1 1 d R U
O3 O 0.3081(11) 0.4795(5) 0.0958(17) 0.041(2) Uani 1 1 d . .
H3X H 0.2919 0.5170 0.1787 0.061 Uiso 1 1 d R U
C1 C 0.2473(15) 0.4179(6) 0.186(3) 0.031(3) Uani 1 1 d . .
H1 H 0.3079 0.4075 0.3463 0.037 Uiso 1 1 calc R U
C2 C 0.2930(14) 0.3626(7) -0.006(2) 0.030(3) Uani 1 1 d . .
C3 C 0.2688(14) 0.2910(6) 0.078(2) 0.026(3) Uani 1 1 d . .
C4 C 0.3355(16) 0.2397(6) -0.072(2) 0.034(3) Uani 1 1 d . .
H4 H 0.3922 0.2510 -0.2239 0.040 Uiso 1 1 calc R U
C5 C 0.3206(16) 0.1733(7) -0.005(3) 0.037(3) Uani 1 1 d . .
H5 H 0.3662 0.1389 -0.1097 0.045 Uiso 1 1 calc R U
C6 C 0.2393(15) 0.1566(6) 0.215(3) 0.029(3) Uani 1 1 d . .
C7 C 0.1684(16) 0.2050(6) 0.364(2) 0.034(3) Uani 1 1 d . .
H7 H 0.1074 0.1927 0.5112 0.041 Uiso 1 1 calc R U
C8 C 0.1862(15) 0.2731(5) 0.298(3) 0.032(3) Uani 1 1 d . .
H8 H 0.1415 0.3072 0.4049 0.039 Uiso 1 1 calc R U
loop_
_atom_site_aniso_label
_atom_site_aniso_U_11
_atom_site_aniso_U_22
_atom_site_aniso_U_33
_atom_site_aniso_U_23
_atom_site_aniso_U_13
_atom_site_aniso_U_12
Br1 0.0732(10) 0.0265(7) 0.0482(8) 0.0029(9) 0.0037(15) -0.0042(6)
O1 0.039(5) 0.040(4) 0.034(5) 0.001(5) -0.008(5) 0.001(3)
O2 0.035(6) 0.048(5) 0.056(6) -0.003(4) 0.001(4) 0.004(4)
O3 0.055(6) 0.033(6) 0.036(5) 0.010(4) -0.002(4) -0.008(4)
C1 0.043(9) 0.016(6) 0.033(7) -0.004(6) 0.005(6) -0.001(5)
C2 0.017(6) 0.041(7) 0.033(7) 0.000(6) 0.005(6) -0.004(5)
C3 0.034(8) 0.028(6) 0.017(6) 0.004(5) -0.006(5) -0.002(5)
C4 0.026(7) 0.041(8) 0.034(6) -0.001(6) 0.000(5) 0.002(6)
C5 0.023(7) 0.044(8) 0.046(9) -0.007(7) -0.002(6) 0.004(6)
C6 0.041(8) 0.018(6) 0.029(6) 0.002(5) -0.008(5) -0.006(5)
C7 0.040(7) 0.034(7) 0.027(8) -0.007(6) -0.005(6) -0.003(5)
C8 0.041(7) 0.029(6) 0.027(7) -0.009(7) -0.018(7) 0.007(5)
loop_
_atom_type_symbol
_atom_type_description
_atom_type_scat_dispersion_real
_atom_type_scat_dispersion_imag
_atom_type_scat_source
C C 0.0033 0.0016 'International Tables Vol C Tables 4.2.6.8 and 6.1.1.4'
H H 0.0000 0.0000 'International Tables Vol C Tables 4.2.6.8 and 6.1.1.4'
Br Br -0.2901 2.4595 'International Tables Vol C Tables 4.2.6.8 and 6.1.1.4'
O O 0.0106 0.0060 'International Tables Vol C Tables 4.2.6.8 and 6.1.1.4'
loop_
_geom_angle_atom_site_label_1
_geom_angle_atom_site_label_2
_geom_angle_atom_site_label_3
_geom_angle
C1 O2 H2X 111.1
C1 O3 H3X 121.3
O3 C1 O2 112.3(10)
O3 C1 C2 108.2(11)
O2 C1 C2 107.8(10)
O3 C1 H1 109.5
O2 C1 H1 109.5
C2 C1 H1 109.5
O1 C2 C3 122.5(12)
O1 C2 C1 121.4(12)
C3 C2 C1 116.0(11)
C8 C3 C4 118.3(11)
C8 C3 C2 123.8(11)
C4 C3 C2 117.9(11)
C5 C4 C3 121.1(12)
C5 C4 H4 119.5
C3 C4 H4 119.5
C4 C5 C6 119.7(12)
C4 C5 H5 120.1
C6 C5 H5 120.1
C7 C6 C5 121.1(12)
C7 C6 Br1 118.5(10)
C5 C6 Br1 120.5(10)
C6 C7 C8 119.4(12)
C6 C7 H7 120.3
C8 C7 H7 120.3
C3 C8 C7 120.4(12)
C3 C8 H8 119.8
C7 C8 H8 119.8
loop_
_geom_bond_atom_site_label_1
_geom_bond_atom_site_label_2
_geom_bond_distance
Br1 C6 1.908(12)
O1 C2 1.198(15)
O2 C1 1.425(14)
O2 H2X 0.9092
O3 C1 1.392(15)
O3 H3X 0.8764
C1 C2 1.550(18)
C1 H1 1.0000
C2 C3 1.503(18)
C3 C8 1.39(2)
C3 C4 1.395(17)
C4 C5 1.371(18)
C4 H4 0.9500
C5 C6 1.38(2)
C5 H5 0.9500
C6 C7 1.362(18)
C7 C8 1.403(17)
C7 H7 0.9500
C8 H8 0.9500
loop_
_geom_torsion_atom_site_label_1
_geom_torsion_atom_site_label_2
_geom_torsion_atom_site_label_3
_geom_torsion_atom_site_label_4
_geom_torsion
O3 C1 C2 O1 -7.3(15)
O2 C1 C2 O1 114.4(13)
O3 C1 C2 C3 168.9(10)
O2 C1 C2 C3 -69.3(13)
O1 C2 C3 C8 -174.2(11)
C1 C2 C3 C8 9.6(17)
O1 C2 C3 C4 6.7(18)
C1 C2 C3 C4 -169.6(10)
C8 C3 C4 C5 -0.2(18)
C2 C3 C4 C5 179.0(11)
C3 C4 C5 C6 -0.3(19)
C4 C5 C6 C7 1.9(19)
C4 C5 C6 Br1 -178.5(9)
C5 C6 C7 C8 -3.1(18)
Br1 C6 C7 C8 177.3(8)
C4 C3 C8 C7 -1.0(16)
C2 C3 C8 C7 179.9(11)
C6 C7 C8 C3 2.6(17)
