#------------------------------------------------------------------------------
#$Date: 2019-11-25 12:14:45 +0200 (Mon, 25 Nov 2019) $
#$Revision: 240835 $
#$URL: file:///home/coder/svn-repositories/cod/cif/4/13/03/4130395.cif $
#------------------------------------------------------------------------------
#
# This file is available in the Crystallography Open Database (COD),
# http://www.crystallography.net/
#
# All data on this site have been placed in the public domain by the
# contributors.
#
data_4130395
loop_
_publ_author_name
'Guti\'errez-Bonet, \'Alvaro'
'Juli\'a-Hern\'andez, Francisco'
'de Luis, Beatriz'
'Martin, Ruben'
_publ_section_title
;
 Pd-Catalyzed C(sp(3))-H Functionalization/Carbenoid Insertion: All-Carbon
 Quaternary Centers via Multiple C-C Bond Formation.
;
_journal_issue                   20
_journal_name_full               'Journal of the American Chemical Society'
_journal_page_first              6384
_journal_page_last               6387
_journal_paper_doi               10.1021/jacs.6b02867
_journal_volume                  138
_journal_year                    2016
_chemical_formula_sum            'C18 H18 O2'
_chemical_formula_weight         266.32
_space_group_IT_number           2
_space_group_name_Hall           '-P 1'
_space_group_name_H-M_alt        'P -1'
_symmetry_cell_setting           triclinic
_symmetry_space_group_name_H-M   'P -1'
_atom_sites_solution_hydrogens   geom
_audit_creation_method           SHELXL-2014/6
_cell_angle_alpha                99.3703(19)
_cell_angle_beta                 98.059(2)
_cell_angle_gamma                119.5564(18)
_cell_formula_units_Z            2
_cell_length_a                   8.2724(6)
_cell_length_b                   8.3263(5)
_cell_length_c                   12.4647(8)
_cell_measurement_reflns_used    3651
_cell_measurement_temperature    100(2)
_cell_measurement_theta_max      25.44
_cell_measurement_theta_min      2.84
_cell_volume                     712.13(8)
_computing_cell_refinement       'Bruker APEX2 v2014.9-0'
_computing_data_collection       'Bruker APEX2 v2014.9-0'
_computing_data_reduction        'Bruker SAINT V7.60A'
_computing_molecular_graphics    'Bruker SHELXTL'
_computing_publication_material  'Bruker SHELXTL'
_computing_structure_refinement  'SHELXL-2014 (Sheldrick, 2014)'
_computing_structure_solution    Sir2011
_diffrn_ambient_temperature      100(2)
_diffrn_detector_area_resol_mean 512
_diffrn_detector_type            '4K CCD area detector APEX II'
_diffrn_measured_fraction_theta_full 0.975
_diffrn_measured_fraction_theta_max 0.970
_diffrn_measurement_device_type  'APEX DUO Kappa 4-axis goniometer'
_diffrn_measurement_method
;
 Fullsphere data collection, phi and omega scans
;
_diffrn_measurement_specimen_support 'magnetic support with MicroMount'
_diffrn_radiation_monochromator  'Quazar MX Multilayer Optics'
_diffrn_radiation_type           MoK\a
_diffrn_radiation_wavelength     0.71073
_diffrn_reflns_Laue_measured_fraction_full 0.975
_diffrn_reflns_Laue_measured_fraction_max 0.970
_diffrn_reflns_limit_k_max       10
_diffrn_reflns_limit_k_min       -7
_diffrn_reflns_limit_l_max       15
_diffrn_reflns_limit_l_min       -14
_diffrn_reflns_point_group_measured_fraction_full 0.975
_diffrn_reflns_point_group_measured_fraction_max 0.970
_diffrn_reflns_theta_full        25.242
_diffrn_reflns_theta_max         25.445
_diffrn_reflns_theta_min         1.713
_diffrn_source                   'Microfocus source E025 IuS'
_diffrn_source_current           0.6
_diffrn_source_power             50
_diffrn_source_size              '0.2 mm x 0.2 mm fine focus'
_diffrn_source_type              'Bruker APEX DUO'
_exptl_absorpt_coefficient_mu    0.080
_exptl_absorpt_correction_T_max  0.992
_exptl_absorpt_correction_T_min  0.642
_exptl_absorpt_correction_type   empirical
_exptl_absorpt_process_details
; 
 SADABS Version 2008/1 Bruker-Nonius
 Blessing, Acta Cryst. (1995) A51 33-38
;
_exptl_crystal_colour            yellow
_exptl_crystal_density_diffrn    1.242
_exptl_crystal_description       block
_exptl_crystal_F_000             284
_exptl_crystal_size_max          0.30
_exptl_crystal_size_mid          0.20
_exptl_crystal_size_min          0.10
_refine_diff_density_max         0.317
_refine_diff_density_min         -0.265
_refine_diff_density_rms         0.065
_refine_ls_extinction_method     none
_refine_ls_goodness_of_fit_ref   1.115
_refine_ls_hydrogen_treatment    constr
_refine_ls_matrix_type           full
_refine_ls_number_parameters     184
_refine_ls_number_reflns         2550
_refine_ls_number_restraints     0
_refine_ls_restrained_S_all      1.115
_refine_ls_R_factor_all          0.0646
_refine_ls_R_factor_gt           0.0598
_refine_ls_shift/su_max          0.000
_refine_ls_shift/su_mean         0.000
_refine_ls_structure_factor_coef Fsqd
_refine_ls_weighting_details
'w=1/[\s^2^(Fo^2^)+(0.0737P)^2^+0.7995P] where P=(Fo^2^+2Fc^2^)/3'
_refine_ls_weighting_scheme      calc
_refine_ls_wR_factor_gt          0.1705
_refine_ls_wR_factor_ref         0.1743
_reflns_Friedel_coverage         0.000
_reflns_number_gt                2274
_reflns_number_total             2550
_reflns_threshold_expression     'I > 2\s(I)'
_cod_data_source_file            ja6b02867_si_001.cif
_cod_data_source_block           mo_AGB15080-b_0m
_cod_depositor_comments
;
The following automatic conversions were performed:

data item '_symmetry_cell_setting' value 'Triclinic' was changed to
'triclinic' in accordance with the
/home/saulius/struct/COD-crude-data/automatic-downloads/DataCite-retrospective/ACS/depositions/lib/dictionaries/cif_core.dic
dictionary named 'cif_core.dic' version 2.4.2 last updated on
2011-04-26.

Automatic conversion script
Id: cif_fix_values 6909 2019-04-08 15:41:33Z antanas 
;
_cod_original_sg_symbol_H-M      P-1
_cod_database_code               4130395
_shelx_space_group_comment
;
The symmetry employed for this shelxl refinement is uniquely defined
by the following loop, which should always be used as a source of
symmetry information in preference to the above space-group names.
They are only intended as comments.
;
_shelx_estimated_absorpt_t_min   0.977
_shelx_estimated_absorpt_t_max   0.992
_shelxl_version_number           2014/6
_shelx_res_file
;
TITL mo_AGB15080-b_0m in P-1
CELL 0.71073   8.27240   8.32630  12.46470  99.3703  98.0589 119.5564
ZERR    2.00   0.00060   0.00050   0.00080   0.0019   0.0021   0.0018
LATT  1
SFAC C H O
UNIT 36 36 4
TEMP -173.170
SIZE 0.10 0.20 0.30
L.S. 20
ACTA
CONF
BOND
FMAP 2
PLAN 20
WGHT    0.073700    0.799500
FVAR       0.33939
MOLE 1
C1    1    0.066344   -0.269005    0.105436    11.00000    0.01365    0.01690 =
         0.02275    0.00864    0.00746    0.00673
C2    1    0.122981   -0.088284    0.193652    11.00000    0.01432    0.01707 =
         0.02277    0.00558    0.00702    0.00689
C3    1   -0.009935   -0.012489    0.176347    11.00000    0.01682    0.01963 =
         0.02030    0.00740    0.00980    0.00944
C4    1   -0.210044   -0.111106    0.144983    11.00000    0.01727    0.01950 =
         0.02586    0.00649    0.00941    0.00816
AFIX  43
H4    2   -0.284178   -0.247082    0.127418    11.00000   -1.20000
AFIX   0
C5    1   -0.299840   -0.007240    0.139765    11.00000    0.01376    0.02614 =
         0.02857    0.00896    0.01004    0.00948
AFIX  43
H5    2   -0.436202   -0.073218    0.117495    11.00000   -1.20000
AFIX   0
C6    1   -0.192079    0.191744    0.166780    11.00000    0.02239    0.02720 =
         0.03041    0.01117    0.01214    0.01628
AFIX  43
H6    2   -0.255266    0.260785    0.164185    11.00000   -1.20000
AFIX   0
C7    1    0.007907    0.290561    0.197626    11.00000    0.01964    0.02109 =
         0.02769    0.00813    0.00901    0.01088
AFIX  43
H7    2    0.081647    0.426603    0.215801    11.00000   -1.20000
AFIX   0
C8    1    0.098309    0.187681    0.201494    11.00000    0.01582    0.02027 =
         0.02097    0.00728    0.00785    0.00880
C9    1    0.312348    0.266362    0.232658    11.00000    0.01511    0.01710 =
         0.02761    0.00782    0.00817    0.00784
C10   1    0.317143    0.084456    0.189735    11.00000    0.01343    0.01732 =
         0.02483    0.00684    0.00747    0.00597
AFIX  23
H10A  2    0.426189    0.089934    0.238346    11.00000   -1.20000
H10B  2    0.331693    0.072494    0.111846    11.00000   -1.20000
AFIX   0
C11   1    0.134945   -0.144277    0.306167    11.00000    0.02130    0.01285 =
         0.02388    0.00416    0.00665    0.00579
C12   1   -0.000217   -0.173515    0.367378    11.00000    0.02798    0.03231 =
         0.03204    0.01296    0.01311    0.01233
AFIX  43
H12   2   -0.103704   -0.158106    0.340676    11.00000   -1.20000
AFIX   0
C13   1    0.013753   -0.224982    0.467112    11.00000    0.04113    0.04329 =
         0.03609    0.02028    0.02103    0.01982
AFIX  43
H13   2   -0.079819   -0.243923    0.508146    11.00000   -1.20000
AFIX   0
C14   1    0.162501   -0.248895    0.507215    11.00000    0.04654    0.02788 =
         0.02713    0.01221    0.00845    0.01455
AFIX  43
H14   2    0.172062   -0.283524    0.575730    11.00000   -1.20000
AFIX   0
C15   1    0.297708   -0.221852    0.446470    11.00000    0.03924    0.02530 =
         0.03047    0.00634    0.00195    0.01870
AFIX  43
H15   2    0.400582   -0.237989    0.473425    11.00000   -1.20000
AFIX   0
C16   1    0.283492   -0.171480    0.346797    11.00000    0.02854    0.02173 =
         0.02754    0.00580    0.00736    0.01357
AFIX  43
H16   2    0.375977   -0.155106    0.305298    11.00000   -1.20000
AFIX   0
C17   1    0.396076    0.349103    0.360494    11.00000    0.02175    0.02148 =
         0.02809    0.00455    0.00675    0.01025
AFIX 137
H17A  2    0.375064    0.453282    0.386442    11.00000   -1.50000
H17B  2    0.534319    0.398785    0.378870    11.00000   -1.50000
H17C  2    0.332305    0.248073    0.397793    11.00000   -1.50000
AFIX   0
C18   1    0.424047    0.421754    0.175130    11.00000    0.01898    0.02074 =
         0.03260    0.01056    0.00999    0.00736
AFIX 137
H18A  2    0.367178    0.372591    0.093679    11.00000   -1.50000
H18B  2    0.558605    0.457197    0.191139    11.00000   -1.50000
H18C  2    0.417760    0.534803    0.203799    11.00000   -1.50000
AFIX   0
O1    3    0.195220   -0.289114    0.075916    11.00000    0.02043    0.02097 =
         0.03321    0.00571    0.01249    0.01089
O2    3   -0.113383   -0.399226    0.070243    11.00000    0.01736    0.01902 =
         0.03596   -0.00108    0.00517    0.00634
AFIX 147
H2    2   -0.128141   -0.493772    0.023903    11.00000   -1.50000
AFIX   0
HKLF 4
REM  mo_AGB15080-b_0m in P-1
REM R1 =  0.0598 for    2274 Fo > 4sig(Fo)  and  0.0646 for all    2550 data
REM    184 parameters refined using      0 restraints
END
WGHT      0.0740      0.8012
REM Highest difference peak  0.317,  deepest hole -0.265,  1-sigma level  0.065
Q1    1   0.3459  0.3015  0.2918  11.00000  0.05    0.32
Q2    1   0.3117  0.1882  0.2147  11.00000  0.05    0.30
Q3    1  -0.3863 -0.2909  0.0876  11.00000  0.05    0.28
Q4    1   0.0795 -0.1473  0.1252  11.00000  0.05    0.28
Q5    1  -0.1370  0.2377  0.2479  11.00000  0.05    0.28
Q6    1   0.2146  0.2371  0.2214  11.00000  0.05    0.26
Q7    1   0.1754 -0.4110  0.0486  11.00000  0.05    0.26
Q8    1   0.0353  0.1003  0.2128  11.00000  0.05    0.26
Q9    1   0.0618  0.2409  0.1990  11.00000  0.05    0.25
Q10   1  -0.2536  0.0785  0.1918  11.00000  0.05    0.24
Q11   1   0.3176  0.4397  0.0774  11.00000  0.05    0.23
Q12   1  -0.1139 -0.2874  0.0990  11.00000  0.05    0.21
Q13   1   0.1221 -0.3558 -0.0044  11.00000  0.05    0.21
Q14   1   0.0361 -0.0789  0.1752  11.00000  0.05    0.21
Q15   1   0.1040 -0.2007  0.1844  11.00000  0.05    0.21
Q16   1   0.2604  0.2298  0.1354  11.00000  0.05    0.21
Q17   1  -0.2391 -0.0393  0.1438  11.00000  0.05    0.21
Q18   1   0.2457 -0.2262  0.1605  11.00000  0.05    0.20
Q19   1   0.0529 -0.1300  0.4418  11.00000  0.05    0.20
Q20   1   0.3314 -0.1193  0.4216  11.00000  0.05    0.20
;
_shelx_res_checksum              5351
_shelx_hkl_file
;
  -1   0   0  402.65   26.09
   1   0   0  458.07   25.99
  -2   0   0    9.52    0.63
   2   0   0    9.58    0.60
  -3   0   0   24.94    1.65
  -3   0   0   27.13    1.66
   3   0   0   26.08    1.61
  -4   0   0    2.80    0.28
  -4   0   0    3.02    0.29
   4   0   0    3.21    0.25
  -5   0   0    0.03    0.10
  -5   0   0    0.01    0.10
  -6   0   0    8.68    0.69
  -7   0   0   23.22    1.60
   8   0   0    0.85    0.19
  -8   1   0    2.50    0.37
  -7   1   0    3.14    0.38
  -6   1   0    2.88    0.31
  -5   1   0    5.34    0.46
  -5   1   0    5.95    0.47
   4  -1   0  104.58    6.47
  -4   1   0  108.04    6.51
  -4   1   0  106.89    6.51
  -3   1   0  136.69    8.50
  -3   1   0  138.26    8.49
  -3   1   0  145.79    8.51
   2  -1   0  351.92   20.75
  -2   1   0  335.97   20.79
   1  -1   0    0.73    0.06
   1  -1   0    0.60    0.07
  -1   1   0    0.69    0.07
  -1   1   0    0.81    0.06
   0  -1   0  134.84    9.27
   0  -1   0  183.44    9.31
   0  -1   0  158.35    9.29
   0   1   0  140.17    9.27
   0   1   0  151.96    9.29
  -1  -1   0  199.08   11.97
  -1  -1   0  211.26   11.97
   1   1   0  184.44   11.97
  -2  -1   0   17.21    1.06
  -2  -1   0   16.98    1.07
   2   1   0   15.71    1.02
   2   1   0   16.24    1.03
  -3  -1   0    0.67    0.12
  -3  -1   0    0.36    0.13
   3   1   0    0.60    0.08
  -4  -1   0    0.00    0.11
   4   1   0    0.28    0.08
  -5  -1   0    4.66    0.41
   5   1   0    3.95    0.34
  -6  -1   0   16.29    1.15
   6   1   0   15.75    1.07
   7   1   0    8.41    0.63
  -9   2   0    0.11    0.17
  -8   2   0    2.01    0.34
  -7   2   0   23.51    1.60
  -6   2   0    1.84    0.27
  -6   2   0    1.99    0.27
  -5   2   0    0.39    0.13
  -4   2   0    8.84    0.58
  -4   2   0    7.88    0.58
  -4   2   0    8.25    0.59
   2  -2   0   11.51    0.71
   2  -2   0    9.68    0.69
  -2   2   0   11.62    0.71
  -2   2   0   10.89    0.70
   1  -2   0  350.01   19.09
   1  -2   0  295.79   19.04
  -1   2   0  306.54   19.09
  -1   2   0  339.36   19.12
  -1   2   0  289.72   19.04
   0  -2   0  337.10   19.26
   0  -2   0  298.04   19.22
   0  -2   0  364.74   19.26
   0   2   0  312.64   19.31
   0   2   0  299.07   19.21
   0   2   0  313.02   19.26
   0   2   0  310.23   19.23
  -1  -2   0   14.21    0.98
   1   2   0   15.78    0.94
   1   2   0   16.37    1.00
  -2  -2   0   13.87    0.94
  -2  -2   0   14.57    0.95
   2   2   0   14.29    0.91
   2   2   0   13.71    0.88
   2   2   0   15.17    0.96
  -3  -2   0   23.27    1.57
   3   2   0   24.24    1.50
   3   2   0   25.54    1.53
  -4  -2   0    2.30    0.27
   4   2   0    2.77    0.24
  -5  -2   0    8.39    0.62
   5   2   0    6.97    0.55
   6   2   0   13.21    0.91
   7   2   0    1.85    0.26
  -9   3   0   14.82    1.12
  -8   3   0    0.47    0.20
  -7   3   0   18.40    1.28
  -6   3   0   15.10    1.03
  -6   3   0   15.54    1.06
  -6   3   0   15.23    1.06
  -5   3   0   18.36    1.20
  -5   3   0   18.37    1.19
  -5   3   0   17.80    1.19
  -4   3   0    5.59    0.41
  -4   3   0    5.71    0.44
   3  -3   0   25.45    1.60
   3  -3   0   26.82    1.62
   3  -3   0   24.85    1.58
  -3   3   0   26.22    1.60
  -3   3   0   26.65    1.63
   2  -3   0   20.05    1.23
   2  -3   0   20.92    1.22
   2  -3   0   21.24    1.25
  -2   3   0   19.96    1.22
  -2   3   0   18.09    1.24
  -2   3   0   19.23    1.25
   1  -3   0  104.90    5.61
   1  -3   0   90.84    5.61
   1  -3   0  100.77    5.61
  -1   3   0   87.80    5.61
  -1   3   0   88.70    5.61
  -1   3   0   89.49    5.62
  -1   3   0   86.85    5.60
   0  -3   0    4.30    0.28
   0  -3   0    4.85    0.30
   0  -3   0    3.69    0.30
   0  -3   0    4.56    0.30
   0   3   0    4.09    0.29
   0   3   0    4.62    0.30
   0   3   0    4.70    0.30
   0   3   0    4.45    0.32
  -1  -3   0  120.68    7.37
   1   3   0  116.06    7.33
   1   3   0  123.96    7.41
   1   3   0  126.09    7.36
  -2  -3   0    0.04    0.06
   2   3   0    0.04    0.03
   2   3   0   -0.02    0.05
  -3  -3   0    2.98    0.31
   3   3   0    3.26    0.23
   3   3   0    3.69    0.28
   3   3   0    3.87    0.25
  -4  -3   0    4.32    0.39
   4   3   0    4.09    0.28
   4   3   0    4.00    0.33
   5   3   0    0.21    0.10
   6   3   0    0.75    0.16
  -9   4   0    1.96    0.33
  -8   4   0   -0.05    0.21
  -7   4   0   27.02    1.88
  -7   4   0   30.58    1.90
  -6   4   0   22.15    1.42
  -6   4   0   20.30    1.42
  -6   4   0   21.95    1.41
  -5   4   0    1.57    0.18
  -5   4   0    1.61    0.22
  -4   4   0  112.80    6.68
  -4   4   0  107.34    6.72
  -3   4   0    0.98    0.11
  -3   4   0    0.00    0.13
  -3   4   0    0.61    0.07
   2  -4   0   83.45    5.05
   2  -4   0   82.23    5.07
   2  -4   0   91.02    5.06
  -2   4   0   85.84    5.07
  -2   4   0   75.48    5.05
  -2   4   0   83.13    5.08
  -2   4   0   83.27    5.03
   1  -4   0   31.34    1.95
   1  -4   0   33.42    1.95
   1  -4   0   31.27    1.93
  -1   4   0   30.54    1.96
  -1   4   0   30.38    1.96
  -1   4   0   33.00    1.97
  -1   4   0   33.24    1.96
   0  -4   0    8.23    0.53
   0  -4   0    8.71    0.53
   0  -4   0    7.26    0.51
   0   4   0    8.38    0.54
   0   4   0    8.12    0.52
   0   4   0    7.93    0.57
   0   4   0    7.91    0.53
  -1  -4   0    0.20    0.07
   1   4   0    0.30    0.07
   1   4   0    0.08    0.09
  -2  -4   0   23.57    1.49
   2   4   0   22.85    1.46
   3   4   0   52.08    3.21
   4   4   0    4.65    0.37
   5   4   0    0.51    0.13
  -9   5   0   -0.16    0.12
  -8   5   0    3.84    0.40
  -7   5   0   25.37    1.66
  -7   5   0   25.15    1.65
  -7   5   0   24.61    1.64
  -6   5   0   29.27    1.78
  -6   5   0   25.47    1.73
  -6   5   0   27.12    1.73
  -5   5   0   12.59    0.82
  -5   5   0   12.35    0.88
  -4   5   0   13.79    0.80
  -4   5   0   12.68    0.87
  -4   5   0   11.06    0.83
   2  -5   0    0.14    0.07
  -2   5   0    0.00    0.06
  -2   5   0    0.33    0.09
  -2   5   0    0.18    0.05
  -2   5   0    0.44    0.08
   1  -5   0    1.18    0.12
  -1   5   0    1.42    0.14
  -1   5   0    1.33    0.15
  -1   5   0    1.25    0.13
  -1   5   0    1.33    0.14
   0  -5   0    4.01    0.31
   0  -5   0    4.98    0.34
   0   5   0    5.13    0.34
   0   5   0    4.93    0.36
   0   5   0    5.27    0.41
   0   5   0    5.31    0.36
  -1  -5   0    0.35    0.09
   1   5   0    0.27    0.09
   1   5   0    0.28    0.09
   2   5   0   12.70    0.84
   3   5   0    6.40    0.47
   4   5   0    0.81    0.15
  -9   6   0    1.42    0.27
  -8   6   0    2.85    0.32
  -7   6   0    2.74    0.34
  -7   6   0    2.82    0.30
  -7   6   0    2.84    0.30
  -6   6   0   -0.03    0.11
  -6   6   0    0.06    0.15
  -5   6   0    2.84    0.29
  -5   6   0    2.51    0.21
  -4   6   0    5.45    0.47
  -4   6   0    5.99    0.41
  -4   6   0    6.07    0.45
  -3   6   0   45.12    2.65
  -3   6   0   40.15    2.66
  -3   6   0   46.30    2.71
  -3   6   0   42.38    2.69
  -2   6   0   22.71    1.41
  -2   6   0   22.26    1.40
  -2   6   0   22.16    1.40
  -2   6   0   21.47    1.39
   1  -6   0    1.56    0.15
  -1   6   0    1.54    0.16
  -1   6   0    1.66    0.17
  -1   6   0    1.87    0.21
  -1   6   0    1.60    0.17
   0   6   0    8.10    0.58
   0   6   0    8.26    0.55
   0   6   0    8.64    0.59
   1   6   0    0.58    0.12
   1   6   0    0.37    0.11
   2   6   0    2.36    0.23
   2   6   0    2.48    0.25
   3   6   0    1.59    0.23
   3   6   0    1.73    0.21
  -9   7   0    7.18    0.59
  -8   7   0    0.20    0.16
  -8   7   0    0.08    0.12
  -7   7   0   -0.01    0.10
  -7   7   0   -0.17    0.14
  -7   7   0   -0.16    0.09
  -6   7   0    2.21    0.21
  -6   7   0    2.54    0.31
  -5   7   0    7.57    0.65
  -5   7   0    9.18    0.63
  -4   7   0   10.38    0.77
  -4   7   0   10.78    0.75
  -4   7   0   10.89    0.71
  -3   7   0   11.37    0.72
  -3   7   0   11.54    0.76
  -3   7   0    9.75    0.71
  -2   7   0    4.97    0.39
  -2   7   0    5.42    0.41
  -2   7   0    4.69    0.39
  -2   7   0    4.81    0.37
  -1   7   0    0.22    0.09
  -1   7   0    0.22    0.09
  -1   7   0    0.22    0.10
   0   7   0    8.08    0.59
   0   7   0    8.53    0.60
   1   7   0   10.44    0.75
   1   7   0   10.69    0.73
   2   7   0   -0.06    0.09
   2   7   0   -0.03    0.09
  -9   8   0    0.11    0.12
  -8   8   0    0.27    0.22
  -7   8   0   -0.04    0.07
  -7   8   0   -0.15    0.07
  -7   8   0   -0.14    0.12
  -6   8   0    5.30    0.49
  -5   8   0    1.25    0.21
  -5   8   0    1.25    0.23
  -4   8   0    3.18    0.26
  -4   8   0    3.08    0.30
  -4   8   0    2.57    0.33
  -3   8   0    2.58    0.27
  -3   8   0    2.62    0.25
  -3   8   0    3.23    0.30
  -2   8   0    0.18    0.09
  -2   8   0    0.29    0.11
  -1   8   0    0.01    0.08
  -1   8   0    0.13    0.11
   0   8   0    0.34    0.12
   0   8   0    0.25    0.12
  -8   9   0    0.20    0.10
  -7   9   0    2.54    0.34
  -6   9   0    3.68    0.39
  -5   9   0    2.64    0.25
  -5   9   0    2.66    0.31
  -5   9   0    2.29    0.31
  -4   9   0    0.31    0.10
  -4   9   0    0.15    0.13
  -4   9   0    0.09    0.12
  -3   9   0    3.50    0.31
  -3   9   0    3.43    0.33
  -2   9   0    2.01    0.26
  -2   9   0    2.05    0.25
  -5  10  -1    2.75    0.27
  -5  10  -1    3.01    0.32
  -1   9  -1    0.27    0.12
  -2   9  -1    0.13    0.12
  -2   9  -1    0.17    0.10
  -3   9  -1    8.77    0.63
  -3   9  -1    8.99    0.65
  -4   9  -1    0.55    0.12
  -4   9  -1    0.28    0.13
  -5   9  -1    0.58    0.15
  -8   9  -1    1.66    0.19
   1   8  -1    0.65    0.16
   0   8  -1    2.61    0.26
   0   8  -1    2.43    0.25
  -1   8  -1    0.54    0.13
  -1   8  -1    0.37    0.11
  -2   8  -1    0.54    0.12
  -2   8  -1    0.63    0.14
  -3   8  -1   15.34    1.05
  -3   8  -1   17.24    1.08
  -4   8  -1    7.66    0.59
  -4   8  -1    7.78    0.54
  -4   8  -1    7.82    0.58
  -5   8  -1    1.89    0.26
  -6   8  -1   14.85    1.05
  -7   8  -1    8.45    0.52
  -7   8  -1    6.25    0.49
  -8   8  -1    1.08    0.18
  -9   8  -1    3.70    0.35
   2   7  -1    3.38    0.33
   2   7  -1    3.93    0.32
   1   7  -1   14.24    0.92
   1   7  -1   13.49    0.94
   0   7  -1   13.69    0.90
   0   7  -1   13.58    0.91
  -1   7  -1    0.81    0.13
  -1   7  -1    0.52    0.11
  -2   7  -1    3.14    0.27
  -2   7  -1    3.74    0.30
  -2   7  -1    3.62    0.29
  -3   7  -1    9.27    0.64
  -3   7  -1    8.16    0.58
  -3   7  -1    9.01    0.62
  -4   7  -1   13.15    0.88
  -4   7  -1   13.84    0.95
  -4   7  -1   14.38    0.93
  -5   7  -1   11.73    0.85
  -6   7  -1   10.22    0.63
  -6   7  -1    7.65    0.61
  -6   7  -1    9.94    0.71
  -7   7  -1   11.12    0.82
  -7   7  -1   13.24    0.84
  -8   7  -1   -0.10    0.08
  -9   7  -1    0.65    0.19
   3   6  -1    9.89    0.68
   2   6  -1    2.21    0.23
   2   6  -1    1.97    0.20
   1   6  -1    5.74    0.45
   1   6  -1    6.42    0.44
   0   6  -1    1.40    0.18
   0   6  -1    1.54    0.16
  -1   6  -1   15.58    1.15
  -1   6  -1   18.91    1.15
  -1   6  -1   19.25    1.16
   1  -6   1   18.77    1.13
  -2   6  -1   12.74    0.83
  -2   6  -1   12.38    0.81
  -2   6  -1   14.13    0.85
   2  -6   1   11.36    0.82
  -3   6  -1   53.29    3.09
  -3   6  -1   46.79    3.10
  -4   6  -1    6.19    0.49
  -4   6  -1    6.31    0.46
  -5   6  -1    6.02    0.45
  -5   6  -1    6.23    0.45
  -5   6  -1    8.51    0.55
  -6   6  -1    2.31    0.25
  -6   6  -1    2.16    0.28
  -7   6  -1    0.95    0.19
  -7   6  -1    0.99    0.17
  -8   6  -1    1.69    0.25
  -9   6  -1   13.56    1.00
   4   5  -1    3.75    0.31
   3   5  -1    0.20    0.09
   2   5  -1    0.21    0.08
   1   5  -1   17.10    1.05
   1   5  -1   14.92    1.06
  -1  -5   1   17.42    1.07
   0   5  -1    0.09    0.06
   0   5  -1    0.07    0.05
   0  -5   1    0.07    0.05
   0  -5   1    0.03    0.03
  -1   5  -1    8.43    0.54
  -1   5  -1    8.40    0.54
  -1   5  -1    8.06    0.54
   1  -5   1    7.61    0.53
  -2   5  -1    1.68    0.14
  -3   5  -1    0.07    0.04
  -3   5  -1   -0.10    0.09
  -3   5  -1    0.02    0.06
  -4   5  -1    5.59    0.38
  -4   5  -1    5.89    0.46
  -5   5  -1   59.32    3.62
  -5   5  -1   57.15    3.57
  -6   5  -1    1.02    0.17
  -6   5  -1    1.00    0.18
  -7   5  -1   46.55    2.79
  -7   5  -1   41.41    2.77
  -8   5  -1    7.88    0.64
  -9   5  -1    2.55    0.35
   5   4  -1    0.81    0.15
   4   4  -1    6.91    0.49
   3   4  -1   37.16    2.24
  -3  -4   1   34.75    2.38
   2   4  -1   11.12    0.72
  -2  -4   1   10.90    0.76
   1   4  -1    0.76    0.10
  -1  -4   1    0.86    0.10
   0   4  -1    1.43    0.12
   0   4  -1    1.26    0.10
   0   4  -1    1.25    0.12
   0  -4   1    0.98    0.12
   0  -4   1    1.04    0.09
   0  -4   1    1.38    0.11
  -1   4  -1   29.17    1.77
  -1   4  -1   24.47    1.77
  -1   4  -1   30.03    1.78
  -1   4  -1   30.36    1.78
  -1   4  -1   27.58    1.76
   1  -4   1   29.10    1.76
   1  -4   1   30.58    1.77
  -2   4  -1   15.34    1.01
  -2   4  -1   17.13    0.97
   2  -4   1   15.92    1.00
   2  -4   1   14.15    0.97
   2  -4   1   16.02    0.98
  -3   4  -1  111.10    7.44
   3  -4   1  127.31    7.39
   3  -4   1  128.58    7.41
  -4   4  -1   19.94    1.39
  -4   4  -1   24.32    1.44
   4  -4   1   22.72    1.36
  -5   4  -1    4.01    0.34
  -5   4  -1    4.62    0.37
  -6   4  -1    1.94    0.24
  -6   4  -1    1.85    0.23
  -7   4  -1    6.71    0.56
  -8   4  -1    7.23    0.62
  -9   4  -1    0.23    0.16
   6   3  -1    7.32    0.55
   5   3  -1    0.42    0.11
   4   3  -1    0.30    0.10
  -4  -3   1   -0.21    0.14
   3   3  -1    4.85    0.35
  -3  -3   1    4.60    0.41
   2   3  -1    6.71    0.43
  -2  -3   1    5.81    0.46
   1   3  -1   41.49    2.59
  -1  -3   1   37.17    2.61
  -1  -3   1   48.76    2.60
   0   3  -1   30.21    1.76
   0   3  -1   26.48    1.79
   0  -3   1   26.44    1.77
   0  -3   1   32.33    1.76
   0  -3   1   28.52    1.76
   0  -3   1   28.63    1.75
  -1   3  -1   11.76    0.73
  -1   3  -1   12.59    0.73
  -1   3  -1   10.42    0.73
  -1   3  -1   11.19    0.74
   1  -3   1   11.00    0.74
   1  -3   1   13.07    0.73
  -2   3  -1   50.56    3.00
  -2   3  -1   46.54    3.01
  -2   3  -1   48.23    2.98
   2  -3   1   51.31    2.99
   2  -3   1   46.47    3.00
   2  -3   1   52.00    2.98
  -3   3  -1  153.72    9.18
  -3   3  -1  136.07    9.15
   3  -3   1  161.32    9.14
   3  -3   1  150.99    9.17
   3  -3   1  155.76    9.16
  -4   3  -1   95.51    5.68
  -4   3  -1   90.69    5.67
  -5   3  -1    2.20    0.23
  -6   3  -1   12.39    0.88
  -6   3  -1   12.32    0.87
  -7   3  -1   -0.10    0.13
  -8   3  -1   15.47    1.13
  -9   3  -1    5.16    0.52
   7   2  -1    1.03    0.19
   6   2  -1    0.33    0.12
   5   2  -1   22.05    1.44
  -5  -2   1   22.89    1.52
   4   2  -1   16.99    1.09
   4   2  -1   17.02    1.06
  -4  -2   1   16.68    1.15
   3   2  -1   36.22    2.16
   3   2  -1   35.52    2.19
  -3  -2   1   34.48    2.24
   1   2  -1  110.12    5.59
   1   2  -1   84.28    5.63
  -1  -2   1   82.61    5.61
   0   2  -1    0.11    0.03
   0  -2   1    0.02    0.02
   0  -2   1    0.01    0.03
   0  -2   1   -0.02    0.03
  -1   2  -1  156.84    9.35
  -1   2  -1  139.51    9.33
  -1   2  -1  142.99    9.33
   1  -2   1  167.72    9.33
   1  -2   1  177.30    9.35
   1  -2   1  144.19    9.33
  -2   2  -1   35.01    2.16
  -2   2  -1   35.06    2.17
   2  -2   1   36.22    2.17
  -3   2  -1    0.04    0.05
   3  -2   1   -0.01    0.02
  -4   2  -1   30.61    1.93
  -5   2  -1    5.61    0.45
  -6   2  -1   10.40    0.78
  -6   2  -1   10.68    0.78
  -7   2  -1   14.16    1.03
  -8   2  -1    0.07    0.14
  -9   2  -1    1.83    0.33
   7   1  -1    3.58    0.34
   6   1  -1    2.40    0.23
  -6  -1   1    1.59    0.29
   5   1  -1    0.51    0.11
  -5  -1   1    0.44    0.14
   3   1  -1   60.82    3.61
  -3  -1   1   58.41    3.67
  -3  -1   1   58.70    3.67
   2   1  -1   28.20    1.58
   2   1  -1   24.58    1.63
  -2  -1   1   26.89    1.63
  -2  -1   1   23.78    1.62
   1   1  -1  266.06   15.08
   1   1  -1  237.61   15.12
   1   1  -1  277.23   15.14
  -1  -1   1  238.32   15.12
  -1  -1   1  234.29   15.08
   0   1  -1    0.06    0.03
   0   1  -1    0.13    0.02
   0  -1   1    0.14    0.02
   1  -1   1   11.73    0.72
  -2   1  -1   67.44    4.04
   2  -1   1   64.13    4.04
   2  -1   1   67.68    4.03
  -3   1  -1   21.09    1.34
  -4   1  -1    0.94    0.16
  -5   1  -1   16.37    1.07
  -5   1  -1   14.72    1.06
  -6   1  -1    1.63    0.26
  -6   1  -1    1.35    0.23
  -7   1  -1    1.95    0.30
  -8   1  -1   -0.06    0.12
  -8   0   1    0.77    0.26
  -7   0   1   11.22    0.88
  -6   0   1   21.37    1.46
  -5   0   1    7.47    0.58
  -5   0   1    7.00    0.57
   4   0  -1    8.50    0.54
  -4   0   1    7.57    0.59
  -4   0   1    7.57    0.59
   3   0  -1    6.91    0.45
  -3   0   1    6.66    0.45
  -3   0   1    6.76    0.49
   2   0  -1   76.28    4.24
   2   0  -1   65.97    4.26
  -2   0   1   67.37    4.26
  -2   0   1   70.18    4.24
   1   0  -1  402.43   23.07
   1   0  -1  383.49   23.18
  -1   0   1  364.30   23.17
  -1   0   1  378.99   23.09
   0   0  -1   38.56    2.02
   0   0   1   27.86    2.01
  -1   0  -1   78.16    4.93
   1   0   1   84.89    4.94
   2   0   1    0.70    0.11
  -4   0  -1   37.64    2.44
   4   0   1   39.87    2.40
  -5   0  -1    0.07    0.13
  -5   0  -1    0.20    0.13
  -6   0  -1    1.84    0.28
  -7   0  -1    2.87    0.37
   7   0   1    2.26    0.28
   8   0   1    5.35    0.47
  -9   1   1    2.35    0.39
  -8   1   1    0.28    0.18
  -7   1   1    4.58    0.48
  -5   1   1   17.22    1.16
  -5   1   1   17.28    1.16
  -5   1   1   16.81    1.10
   4  -1  -1  127.78    7.41
  -4   1   1  127.72    7.42
  -4   1   1  110.82    7.44
   3  -1  -1   -0.10    0.05
  -3   1   1    0.04    0.07
  -3   1   1   -0.19    0.07
   1  -1  -1   91.91    5.64
   1  -1  -1  100.19    5.65
  -1   1   1   89.50    5.65
  -1   1   1   92.56    5.66
  -1   1   1   93.18    5.64
   0  -1  -1    0.45    0.07
   0  -1  -1    0.34    0.07
   0  -1  -1    0.26    0.07
   0   1   1    0.27    0.06
   0   1   1    0.37    0.07
   0   1   1    0.27    0.07
   0   1   1    0.34    0.07
  -1  -1  -1    4.90    0.33
   1   1   1    4.44    0.34
   1   1   1    5.15    0.33
  -2  -1  -1   61.68    3.54
   2   1   1   55.34    3.55
   2   1   1   55.78    3.51
  -3  -1  -1    7.90    0.54
   3   1   1    7.76    0.55
   3   1   1    6.49    0.50
  -4  -1  -1    9.30    0.67
   4   1   1    8.93    0.63
   4   1   1    9.18    0.61
  -5  -1  -1   10.21    0.75
   5   1   1    9.76    0.70
  -6  -1  -1   44.54    2.66
   6   1   1   37.93    2.58
   7   1   1    1.15    0.20
  -9   2   1    0.54    0.28
  -8   2   1   18.39    1.32
  -7   2   1   82.73    5.17
  -6   2   1   20.98    1.42
  -6   2   1   21.37    1.41
  -6   2   1   20.74    1.37
  -5   2   1    1.39    0.21
  -5   2   1    1.18    0.18
  -4   2   1   32.76    2.18
  -4   2   1   37.09    2.18
   2  -2  -1    0.31    0.06
   1  -2  -1    2.05    0.13
   1  -2  -1    1.73    0.12
   1  -2  -1    1.84    0.13
   1  -2  -1    1.63    0.13
  -1   2   1    1.70    0.12
  -1   2   1    1.78    0.13
  -1   2   1    1.50    0.14
  -1   2   1    1.74    0.13
   0  -2  -1  413.11   23.77
   0  -2  -1  396.86   23.71
   0   2   1  386.65   23.82
   0   2   1  385.18   23.74
   0   2   1  395.67   23.74
   0   2   1  381.93   23.70
  -1  -2  -1    4.73    0.30
  -1  -2  -1    3.97    0.30
   1   2   1    4.32    0.29
   1   2   1    3.85    0.32
   1   2   1    3.94    0.27
  -2  -2  -1   33.07    1.99
   2   2   1   29.33    1.96
   2   2   1   32.95    2.02
  -3  -2  -1   41.50    2.73
   3   2   1   43.95    2.78
   3   2   1   46.12    2.71
  -4  -2  -1   16.74    1.15
   4   2   1   16.45    1.12
   4   2   1   18.07    1.10
  -5  -2  -1    1.89    0.26
   5   2   1    1.90    0.23
   6   2   1    0.36    0.14
  -9   3   1   -0.20    0.17
  -8   3   1   -0.10    0.14
  -7   3   1   22.15    1.53
  -7   3   1   22.63    1.48
  -6   3   1  120.77    7.50
  -6   3   1  124.26    7.49
  -5   3   1    1.57    0.21
  -5   3   1    1.66    0.19
  -4   3   1   33.42    1.99
  -4   3   1   30.35    2.01
   3  -3  -1    5.85    0.38
   3  -3  -1    5.98    0.40
   3  -3  -1    5.62    0.36
  -3   3   1    4.91    0.40
  -3   3   1    5.76    0.39
  -3   3   1    5.04    0.37
   2  -3  -1    0.56    0.07
   2  -3  -1    0.62    0.09
   2  -3  -1    0.47    0.05
   1  -3  -1  198.15   11.12
   1  -3  -1  201.20   11.12
   1  -3  -1  200.36   11.12
   1  -3  -1  190.47   11.10
  -1   3   1  164.23   11.12
  -1   3   1  183.63   11.12
  -1   3   1  163.59   11.12
  -1   3   1  173.02   11.12
   0  -3  -1  122.58    7.14
   0  -3  -1  130.65    7.16
   0  -3  -1  121.36    7.16
   0   3   1  113.59    7.16
   0   3   1  113.55    7.18
   0   3   1  120.91    7.16
   0   3   1  106.03    7.15
  -1  -3  -1   56.88    3.62
   1   3   1   59.00    3.59
   1   3   1   56.76    3.66
   1   3   1   64.64    3.62
  -2  -3  -1    3.64    0.29
   2   3   1    3.42    0.23
   2   3   1    3.16    0.26
   2   3   1    3.33    0.33
  -3  -3  -1   -0.08    0.06
   3   3   1   -0.03    0.07
   3   3   1    0.03    0.05
   3   3   1    0.14    0.12
   3   3   1    0.05    0.05
   4   3   1   18.31    1.19
   4   3   1   18.11    1.13
   5   3   1    4.25    0.36
   6   3   1    1.38    0.22
  -9   4   1    3.63    0.47
  -8   4   1   30.74    2.05
  -7   4   1    1.20    0.24
  -7   4   1    0.96    0.25
  -7   4   1    1.45    0.24
  -6   4   1    0.37    0.15
  -6   4   1    0.53    0.18
  -5   4   1   12.09    0.82
  -5   4   1   12.62    0.85
  -4   4   1   -0.03    0.12
  -4   4   1    0.50    0.10
  -4   4   1    0.49    0.08
  -3   4   1  106.22    6.33
  -3   4   1  101.18    6.37
  -3   4   1  104.63    6.38
  -3   4   1  107.18    6.34
   2  -4  -1    0.53    0.10
  -2   4   1    1.14    0.11
  -2   4   1    0.77    0.08
  -2   4   1    1.00    0.12
   1  -4  -1   24.13    1.48
   1  -4  -1   23.99    1.50
  -1   4   1   26.90    1.52
  -1   4   1   24.76    1.52
  -1   4   1   23.06    1.51
  -1   4   1   23.39    1.51
   0  -4  -1    1.64    0.14
   0  -4  -1    1.50    0.13
   0   4   1    1.59    0.15
   0   4   1    1.37    0.14
   0   4   1    1.65    0.18
   0   4   1    1.44    0.13
  -1  -4  -1   15.05    0.96
   1   4   1   13.97    0.96
   1   4   1   14.41    0.92
   1   4   1   16.42    0.96
   1   4   1   14.36    1.01
  -2  -4  -1    1.66    0.19
   2   4   1    1.54    0.12
   2   4   1    1.35    0.17
   2   4   1    1.31    0.24
   3   4   1    0.11    0.09
   4   4   1    0.26    0.11
   5   4   1    0.39    0.13
  -9   5   1    1.12    0.26
  -8   5   1    5.27    0.51
  -8   5   1    6.25    0.54
  -7   5   1   16.98    1.13
  -7   5   1   14.82    1.07
  -6   5   1   16.50    1.09
  -6   5   1   16.20    1.13
  -5   5   1    0.16    0.14
  -4   5   1   59.92    3.78
  -4   5   1   59.94    3.76
  -4   5   1   63.47    3.72
  -3   5   1    7.96    0.51
  -3   5   1    7.77    0.55
  -3   5   1    8.79    0.57
  -3   5   1    7.60    0.52
   2  -5  -1    0.47    0.09
  -2   5   1    0.44    0.10
  -2   5   1    0.63    0.09
  -2   5   1    0.58    0.10
  -2   5   1    0.48    0.08
   1  -5  -1    5.27    0.33
   1  -5  -1    5.23    0.35
  -1   5   1    5.50    0.38
  -1   5   1    4.74    0.38
  -1   5   1    4.85    0.36
  -1   5   1    4.77    0.36
   0  -5  -1   17.15    1.03
   0  -5  -1   14.76    1.01
   0   5   1   16.38    1.05
   0   5   1   15.95    1.02
   0   5   1   17.33    1.10
   0   5   1   16.43    1.05
  -1  -5  -1    2.66    0.23
   1   5   1    2.43    0.24
   1   5   1    2.77    0.31
   1   5   1    2.69    0.24
   1   5   1    2.77    0.20
   2   5   1   17.79    1.22
   2   5   1   19.45    1.21
   3   5   1    1.66    0.21
   4   5   1    0.12    0.11
  -9   6   1    1.22    0.26
  -9   6   1    1.33    0.26
  -8   6   1    0.00    0.17
  -8   6   1   -0.06    0.11
  -6   6   1   15.25    1.11
  -6   6   1   16.53    1.05
  -5   6   1    0.39    0.07
  -5   6   1    0.41    0.12
  -5   6   1    0.13    0.12
  -4   6   1   20.67    1.32
  -4   6   1   19.64    1.23
  -4   6   1   19.28    1.26
  -4   6   1   20.84    1.30
  -3   6   1   35.48    2.12
  -3   6   1   32.91    2.08
  -3   6   1   32.04    2.10
  -3   6   1   34.01    2.06
  -2   6   1   20.22    1.31
  -2   6   1   21.45    1.31
  -2   6   1   20.38    1.31
  -2   6   1   19.85    1.29
   1  -6  -1    0.01    0.06
  -1   6   1    0.09    0.07
  -1   6   1    0.07    0.09
  -1   6   1    0.00    0.07
  -1   6   1    0.05    0.08
   0   6   1    9.62    0.58
   0   6   1    8.91    0.68
   0   6   1    8.11    0.60
   0   6   1    7.98    0.60
   1   6   1    0.85    0.15
   1   6   1    0.71    0.14
   2   6   1    2.04    0.22
   2   6   1    1.80    0.23
   3   6   1    5.69    0.46
   3   6   1    5.91    0.48
  -9   7   1   -0.16    0.16
  -9   7   1    0.27    0.18
  -8   7   1    1.84    0.26
  -8   7   1    1.66    0.30
  -7   7   1   15.20    0.97
  -7   7   1   13.41    1.04
  -6   7   1    7.47    0.62
  -6   7   1    7.49    0.51
  -5   7   1   14.08    0.92
  -5   7   1   16.09    1.02
  -5   7   1   15.00    1.03
  -4   7   1   17.54    1.14
  -4   7   1   18.11    1.18
  -4   7   1   18.01    1.19
  -4   7   1   17.59    1.11
  -3   7   1   27.29    1.71
  -3   7   1   26.66    1.71
  -3   7   1   26.25    1.67
  -3   7   1   26.43    1.67
  -2   7   1    0.20    0.09
  -2   7   1    0.15    0.12
  -2   7   1    0.54    0.12
  -2   7   1    0.48    0.12
  -1   7   1    7.98    0.59
  -1   7   1    7.99    0.58
  -1   7   1    8.55    0.57
   0   7   1    6.19    0.48
   0   7   1    6.50    0.49
   1   7   1    0.10    0.10
   1   7   1    0.12    0.10
   2   7   1    0.09    0.11
   2   7   1    0.00    0.10
  -9   8   1    0.78    0.18
  -9   8   1    0.87    0.24
  -8   8   1    0.94    0.20
  -8   8   1    0.93    0.26
  -7   8   1    6.49    0.47
  -7   8   1    7.27    0.60
  -6   8   1    2.67    0.34
  -6   8   1    2.39    0.29
  -6   8   1    2.05    0.16
  -5   8   1   11.18    0.83
  -5   8   1   12.25    0.85
  -4   8   1    0.54    0.16
  -4   8   1    0.65    0.15
  -4   8   1    0.39    0.10
  -4   8   1    0.73    0.12
  -3   8   1   12.91    0.93
  -3   8   1   14.53    0.92
  -3   8   1   12.84    0.90
  -3   8   1   13.69    0.93
  -2   8   1   -0.08    0.07
  -2   8   1   -0.02    0.10
  -1   8   1    0.09    0.11
  -1   8   1    0.25    0.11
   0   8   1    1.01    0.19
   0   8   1    1.16    0.20
  -8   9   1   -0.03    0.08
  -8   9   1   -0.13    0.15
  -7   9   1    0.97    0.23
  -6   9   1    2.86    0.34
  -6   9   1    2.69    0.36
  -5   9   1    1.15    0.17
  -5   9   1    0.97    0.20
  -5   9   1    1.17    0.22
  -4   9   1    1.66    0.25
  -4   9   1    1.57    0.19
  -4   9   1    1.47    0.24
  -4   9   1    1.68    0.21
  -3   9   1    0.62    0.14
  -3   9   1    0.81    0.18
  -2   9   1    1.46    0.22
  -2   9   1    1.53    0.23
  -1   9  -2    2.22    0.24
  -2   9  -2    3.12    0.29
  -2   9  -2    3.44    0.33
  -3   9  -2    0.13    0.08
  -3   9  -2    0.16    0.11
  -4   9  -2    0.12    0.08
  -4   9  -2    0.19    0.11
  -8   9  -2    0.35    0.09
   1   8  -2    2.53    0.27
   0   8  -2    1.86    0.23
   0   8  -2    1.97    0.32
  -1   8  -2    2.65    0.25
  -1   8  -2    2.60    0.25
  -2   8  -2    1.45    0.17
  -2   8  -2    1.25    0.17
  -3   8  -2    0.74    0.12
  -3   8  -2    1.29    0.17
  -4   8  -2    0.96    0.16
  -7   8  -2    1.19    0.14
  -7   8  -2    1.34    0.17
  -8   8  -2    4.32    0.35
  -9   8  -2    0.23    0.11
   2   7  -2    0.21    0.11
   1   7  -2    2.21    0.21
   1   7  -2    2.01    0.24
   0   7  -2    2.40    0.23
   0   7  -2    2.63    0.23
  -1   7  -2   22.49    1.25
  -1   7  -2   16.54    1.23
  -2   7  -2   13.83    0.94
  -2   7  -2   15.57    0.96
  -3   7  -2   75.82    4.68
  -3   7  -2   77.95    4.71
  -4   7  -2    2.29    0.19
  -6   7  -2   20.42    1.43
  -6   7  -2   25.85    1.46
  -7   7  -2    6.77    0.53
  -7   7  -2    8.32    0.58
  -8   7  -2    0.13    0.10
  -9   7  -2    0.41    0.14
   3   6  -2    0.36    0.10
   2   6  -2    1.16    0.15
   1   6  -2   25.72    1.80
   1   6  -2   31.38    1.79
   0   6  -2    0.09    0.07
   0   6  -2    0.17    0.07
  -1   6  -2    8.18    0.57
   1  -6   2    9.02    0.56
  -2   6  -2   33.49    2.05
  -2   6  -2   31.60    2.05
  -2   6  -2   35.90    2.07
   2  -6   2   32.30    2.06
  -3   6  -2    1.77    0.15
  -5   6  -2    0.74    0.10
  -6   6  -2    0.65    0.13
  -7   6  -2    0.31    0.12
  -7   6  -2    0.16    0.09
  -8   6  -2    5.21    0.45
  -9   6  -2    4.45    0.42
   4   5  -2    5.40    0.40
   3   5  -2    5.61    0.41
   2   5  -2    2.12    0.19
   1   5  -2   16.39    1.05
  -1  -5   2   17.14    1.09
   0   5  -2   -0.21    0.07
   0   5  -2    0.18    0.06
   0   5  -2    0.24    0.06
   0  -5   2    0.01    0.06
   0  -5   2    0.17    0.05
   0  -5   2    0.05    0.03
  -1   5  -2    7.70    0.59
  -1   5  -2    7.90    0.56
  -1   5  -2    9.76    0.57
   1  -5   2    9.88    0.57
   1  -5   2    8.27    0.55
  -2   5  -2    6.17    0.40
  -2   5  -2    5.72    0.38
  -2   5  -2    5.46    0.38
   2  -5   2    5.81    0.41
   2  -5   2    5.91    0.39
  -3   5  -2   12.13    0.78
   3  -5   2   12.82    0.80
  -4   5  -2    5.53    0.37
  -5   5  -2    2.30    0.21
  -6   5  -2    0.09    0.08
  -7   5  -2    3.43    0.35
  -8   5  -2    0.61    0.19
  -9   5  -2    1.47    0.26
   5   4  -2    3.10    0.27
   4   4  -2    9.50    0.64
   3   4  -2    2.28    0.19
  -3  -4   2    1.75    0.27
   2   4  -2    8.09    0.53
  -2  -4   2    8.07    0.60
   1   4  -2    8.99    0.62
   1   4  -2    9.78    0.70
  -1  -4   2    9.71    0.67
  -1  -4   2   10.71    0.63
   0   4  -2   43.71    2.59
   0   4  -2   42.91    2.60
   0   4  -2   43.68    2.64
   0  -4   2   40.13    2.58
   0  -4   2   40.18    2.59
   0  -4   2   44.85    2.61
  -1   4  -2   50.26    2.89
  -1   4  -2   44.45    2.89
  -1   4  -2   40.87    2.90
   1  -4   2   52.65    2.89
   1  -4   2   49.61    2.90
  -2   4  -2   40.77    2.53
  -2   4  -2   39.56    2.54
  -2   4  -2   37.74    2.52
   2  -4   2   42.21    2.54
   2  -4   2   44.18    2.56
   2  -4   2   45.63    2.53
  -3   4  -2    1.76    0.14
   3  -4   2    2.00    0.14
   3  -4   2    1.90    0.16
   4  -4   2    3.62    0.24
  -5   4  -2    1.35    0.18
  -6   4  -2    9.70    0.70
  -7   4  -2    3.79    0.39
  -8   4  -2    2.77    0.37
  -9   4  -2    0.34    0.17
   6   3  -2    0.28    0.11
   5   3  -2    0.35    0.11
   4   3  -2   35.41    2.32
  -4  -3   2   39.83    2.41
   3   3  -2   75.43    4.80
  -3  -3   2   82.92    4.88
   2   3  -2   26.19    1.66
   2   3  -2   23.94    1.57
  -2  -3   2   26.58    1.63
   1   3  -2   26.26    1.58
   1   3  -2   24.08    1.64
  -1  -3   2   27.11    1.63
   0   3  -2    0.98    0.08
   0  -3   2    0.73    0.08
  -1   3  -2   -0.01    0.03
  -1   3  -2   -0.02    0.02
  -1   3  -2    0.14    0.03
   1  -3   2   -0.01    0.03
   1  -3   2   -0.01    0.02
  -2   3  -2    1.09    0.08
   2  -3   2    0.69    0.07
   2  -3   2    1.25    0.10
  -3   3  -2    0.03    0.05
   3  -3   2   -0.01    0.06
  -4   3  -2    0.47    0.10
  -5   3  -2   14.12    0.95
  -6   3  -2   40.07    2.55
  -7   3  -2   27.86    1.84
  -8   3  -2    7.93    0.66
  -9   3  -2    1.45    0.29
   7   2  -2    0.62    0.15
   6   2  -2    1.72    0.21
   5   2  -2   17.68    1.13
  -5  -2   2   17.13    1.21
   4   2  -2    2.44    0.21
   4   2  -2    2.29    0.18
  -4  -2   2    2.01    0.29
   3   2  -2    0.73    0.07
   3   2  -2    0.91    0.10
  -3  -2   2    0.75    0.15
   2   2  -2   58.66    3.39
   2   2  -2   55.37    3.46
  -2  -2   2   56.12    3.45
  -2  -2   2   53.13    3.44
   1   2  -2    0.04    0.07
  -1  -2   2   -0.02    0.02
   0   2  -2   31.72    2.07
   0   2  -2   31.06    2.05
   0  -2   2   38.45    2.05
  -1   2  -2   22.90    1.27
  -1   2  -2   20.70    1.28
   1  -2   2   20.48    1.27
   1  -2   2   18.57    1.28
   1  -2   2   22.20    1.28
  -2   2  -2   27.79    1.71
   2  -2   2   28.03    1.71
  -3   2  -2   17.54    1.10
   3  -2   2   14.84    1.09
   3  -2   2   19.31    1.10
  -4   2  -2   32.96    2.07
  -5   2  -2   20.09    1.33
  -6   2  -2    2.59    0.29
  -7   2  -2    1.87    0.29
  -8   2  -2    1.94    0.31
   8   1  -2    1.78    0.25
   7   1  -2   11.79    0.81
  -7  -1   2   11.71    1.05
  -6  -1   2    1.36    0.29
   5   1  -2    0.17    0.08
  -5  -1   2    0.04    0.11
  -4  -1   2   91.52    5.99
  -4  -1   2  104.47    6.16
   3   1  -2  176.00    9.93
   3   1  -2  181.86    9.85
  -3  -1   2  144.84    9.90
  -3  -1   2  149.77    9.84
   2   1  -2   23.61    1.40
   2   1  -2   25.01    1.34
  -2  -1   2   18.44    1.34
  -2  -1   2   20.46    1.38
   1   1  -2    4.17    0.31
   1   1  -2    4.75    0.28
  -1  -1   2    4.40    0.28
  -1  -1   2    3.80    0.30
   0   1  -2   46.91    2.80
   0  -1   2   45.64    2.80
  -1   1  -2   87.36    5.37
   1  -1   2   90.31    5.37
  -2   1  -2   16.16    1.02
   2  -1   2   16.34    1.03
  -3   1  -2   25.34    1.59
   3  -1   2   25.00    1.59
  -4   1  -2    6.82    0.51
  -5   1  -2   11.89    0.84
  -6   1  -2    2.36    0.28
  -7   1  -2    7.30    0.61
  -8   1  -2    0.18    0.16
   8  -1   2    0.40    0.14
  -8   0   2    2.96    0.43
  -7   0   2    2.05    0.34
  -6   0   2    1.59    0.29
  -5   0   2    5.98    0.42
  -5   0   2    5.83    0.49
  -5   0   2    5.28    0.47
   3   0  -2    0.74    0.13
   3   0  -2    0.73    0.11
  -3   0   2    0.44    0.12
   2   0  -2    8.95    0.58
  -2   0   2    7.88    0.57
   1   0  -2   49.64    2.97
   1   0  -2   54.99    2.95
   1   0  -2   50.42    2.95
  -1   0   2   48.77    2.95
  -1   0   2   44.02    2.96
  -1   0   2   44.61    2.95
   0   0  -2  122.93    7.27
   0   0  -2  127.59    7.34
   0   0  -2  112.95    7.25
   0   0   2  115.30    7.26
   0   0   2  125.94    7.26
   0   0   2  124.03    7.30
   0   0   2  113.35    7.26
  -1   0  -2  109.71    6.22
   1   0   2  101.07    6.21
   1   0   2   97.41    6.22
  -2   0  -2   20.72    1.27
   2   0   2   21.07    1.28
   2   0   2   18.70    1.26
  -3   0  -2   70.20    3.81
   3   0   2   53.41    3.80
  -4   0  -2    0.30    0.10
  -5   0  -2    0.48    0.15
   5   0   2    0.77    0.14
  -6   0  -2    1.82    0.27
   6   0   2    1.75    0.23
  -7   0  -2    8.85    0.67
   7   0   2    7.00    0.60
   8   0   2    0.87    0.19
  -9   1   2    0.46    0.24
  -8   1   2   11.77    0.94
  -7   1   2  119.70    7.41
  -6   1   2   48.71    3.00
  -6   1   2   47.74    3.07
  -5   1   2   -0.13    0.10
  -5   1   2   -0.16    0.09
   4  -1  -2    3.51    0.29
  -4   1   2    2.57    0.27
  -4   1   2    3.00    0.29
   3  -1  -2   -0.02    0.02
   3  -1  -2    0.01    0.05
   3  -1  -2   -0.06    0.02
  -3   1   2   -0.01    0.05
  -3   1   2   -0.14    0.06
   2  -1  -2   42.97    2.49
   2  -1  -2   42.59    2.50
   2  -1  -2   41.55    2.49
  -2   1   2   40.76    2.50
  -2   1   2   40.47    2.49
  -2   1   2   36.51    2.50
   1  -1  -2  555.35   29.87
   1  -1  -2  504.90   29.88
   1  -1  -2  473.96   29.87
   1  -1  -2  514.79   29.93
  -1   1   2  473.97   29.90
  -1   1   2  502.50   29.93
  -1   1   2  495.12   29.87
  -1   1   2  438.14   29.87
   0  -1  -2  231.09   12.65
   0  -1  -2  203.24   12.58
   0  -1  -2  221.48   12.61
   0   1   2  199.18   12.60
   0   1   2  211.07   12.61
   0   1   2  182.29   12.58
   0   1   2  214.08   12.64
  -1  -1  -2    9.99    0.64
  -1  -1  -2    9.96    0.63
   1   1   2    9.04    0.64
   1   1   2   10.37    0.63
  -2  -1  -2    7.56    0.51
   2   1   2    7.30    0.50
   2   1   2    6.96    0.52
  -3  -1  -2   65.44    3.85
   3   1   2   59.40    3.82
  -4  -1  -2    2.30    0.23
   4   1   2    1.86    0.21
  -5  -1  -2   28.95    1.84
   5   1   2   27.36    1.80
  -6  -1  -2    1.65    0.26
   6   1   2    1.85    0.24
   7   1   2    0.26    0.14
  -9   2   2    8.54    0.77
  -8   2   2    7.59    0.68
  -7   2   2    9.22    0.73
  -7   2   2    8.46    0.66
  -6   2   2    8.02    0.62
  -6   2   2    8.75    0.65
  -5   2   2    7.89    0.57
  -5   2   2    7.67    0.58
   4  -2  -2   18.13    1.11
  -4   2   2   17.17    1.12
  -4   2   2   16.18    1.11
   3  -2  -2    7.97    0.54
  -3   2   2    8.10    0.55
  -3   2   2    8.21    0.54
  -3   2   2    7.85    0.54
   2  -2  -2   19.95    1.27
   2  -2  -2   21.75    1.28
  -2   2   2   21.27    1.27
  -2   2   2   19.85    1.28
  -2   2   2   19.82    1.28
   1  -2  -2   22.19    1.26
   1  -2  -2   21.32    1.25
   1  -2  -2   20.99    1.26
  -1   2   2   19.50    1.26
  -1   2   2   20.19    1.25
  -1   2   2   18.10    1.26
  -1   2   2   20.96    1.26
   0  -2  -2  305.64   17.89
   0  -2  -2  312.12   17.94
   0  -2  -2  321.92   17.88
   0   2   2  296.57   17.89
   0   2   2  287.83   17.90
   0   2   2  283.47   17.88
   0   2   2  270.81   17.88
  -1  -2  -2   16.90    1.00
  -1  -2  -2   15.89    1.01
   1   2   2   15.76    1.00
   1   2   2   14.77    1.03
   1   2   2   15.74    0.98
  -2  -2  -2   16.61    1.09
   2   2   2   16.88    1.05
   2   2   2   17.10    1.08
   2   2   2   17.01    1.13
  -3  -2  -2    0.30    0.09
   3   2   2    0.05    0.07
   3   2   2    0.24    0.09
  -4  -2  -2   16.56    1.11
   4   2   2   16.54    1.23
   4   2   2   16.30    1.09
  -5  -2  -2    0.89    0.19
   5   2   2    0.66    0.15
   6   2   2    0.19    0.13
  -9   3   2    5.23    0.55
  -8   3   2    6.55    0.60
  -8   3   2    6.39    0.54
  -7   3   2    4.36    0.41
  -6   3   2   19.54    1.31
  -6   3   2   19.92    1.31
  -5   3   2   20.90    1.40
  -5   3   2   22.12    1.40
  -4   3   2   33.69    2.23
  -4   3   2   37.60    2.25
  -4   3   2   36.37    2.23
   3  -3  -2  137.89    7.51
   3  -3  -2  133.62    7.54
   3  -3  -2  111.77    7.55
   3  -3  -2  135.14    7.51
  -3   3   2  117.16    7.53
  -3   3   2  111.97    7.54
  -3   3   2  121.25    7.52
   2  -3  -2   63.02    3.63
   2  -3  -2   55.45    3.63
   2  -3  -2   59.17    3.65
   2  -3  -2   63.34    3.65
  -2   3   2   61.03    3.64
  -2   3   2   56.55    3.63
  -2   3   2   61.19    3.66
  -2   3   2   60.17    3.66
   1  -3  -2  256.96   13.66
   1  -3  -2  228.87   13.65
   1  -3  -2  226.83   13.66
  -1   3   2  213.13   13.66
  -1   3   2  213.84   13.66
  -1   3   2  231.61   13.65
  -1   3   2  213.68   13.66
   0  -3  -2   34.51    2.00
   0  -3  -2   34.39    2.01
   0   3   2   33.66    2.01
   0   3   2   29.83    2.00
   0   3   2   32.04    2.01
   0   3   2   31.09    2.03
  -1  -3  -2   12.11    0.81
   1   3   2   11.54    0.80
   1   3   2   12.66    0.85
   1   3   2   12.63    0.78
   1   3   2   12.99    0.81
  -2  -3  -2   60.39    3.79
   2   3   2   61.50    3.75
   2   3   2   59.81    3.78
   2   3   2   65.32    3.86
  -3  -3  -2    6.72    0.51
   3   3   2    7.04    0.50
   3   3   2    7.37    0.59
   3   3   2    6.48    0.45
   4   3   2    2.02    0.24
   4   3   2    2.44    0.20
   5   3   2   -0.12    0.10
  -9   4   2    2.20    0.37
  -8   4   2   11.66    0.88
  -8   4   2   10.99    0.85
  -7   4   2   13.76    0.95
  -7   4   2   12.39    0.93
  -6   4   2    1.99    0.27
  -5   4   2   32.31    2.17
  -5   4   2   35.99    2.15
  -4   4   2   11.48    0.71
  -4   4   2   10.55    0.74
  -4   4   2   10.17    0.73
  -3   4   2    0.71    0.11
  -3   4   2    0.62    0.12
  -3   4   2    0.62    0.07
  -3   4   2    0.49    0.08
   2  -4  -2    6.40    0.45
   2  -4  -2    7.30    0.48
  -2   4   2    7.50    0.47
  -2   4   2    7.07    0.49
  -2   4   2    7.31    0.49
  -2   4   2    7.47    0.47
   1  -4  -2    6.32    0.40
   1  -4  -2    6.20    0.38
  -1   4   2    5.62    0.41
  -1   4   2    5.48    0.40
  -1   4   2    5.61    0.41
  -1   4   2    5.71    0.40
   0  -4  -2  141.31    8.22
   0  -4  -2  141.85    8.21
   0   4   2  125.69    8.23
   0   4   2  136.38    8.27
   0   4   2  139.13    8.22
   0   4   2  130.49    8.23
  -1  -4  -2    4.20    0.33
   1   4   2    5.06    0.41
   1   4   2    4.41    0.34
   1   4   2    4.31    0.34
   1   4   2    4.68    0.31
  -2  -4  -2   17.45    1.32
   2   4   2   21.87    1.28
   2   4   2   22.00    1.33
   2   4   2   21.61    1.43
   2   4   2   20.46    1.32
   3   4   2   26.40    1.68
   4   4   2    0.22    0.11
   5   4   2    1.08    0.19
 -10   5   2    1.89    0.35
  -9   5   2    9.46    0.78
  -9   5   2    9.62    0.76
  -8   5   2    0.58    0.22
  -7   5   2   18.41    1.27
  -6   5   2   27.95    1.86
  -6   5   2   29.14    1.82
  -5   5   2    4.13    0.34
  -5   5   2    3.88    0.31
  -5   5   2    3.95    0.35
  -4   5   2   23.24    1.43
  -4   5   2   22.83    1.37
  -4   5   2   19.97    1.41
  -3   5   2   13.75    0.82
  -3   5   2   11.47    0.78
  -3   5   2   12.85    0.82
  -3   5   2   11.44    0.77
  -2   5   2    4.60    0.32
  -2   5   2    4.67    0.34
  -2   5   2    4.32    0.34
  -2   5   2    4.35    0.33
   1  -5  -2   19.29    1.21
   1  -5  -2   19.31    1.20
  -1   5   2   18.68    1.23
  -1   5   2   19.16    1.24
  -1   5   2   19.15    1.22
  -1   5   2   20.62    1.26
   0  -5  -2   11.93    0.77
   0   5   2   11.92    0.79
   0   5   2   12.11    0.77
   0   5   2   11.08    0.79
   0   5   2   12.69    0.85
   1   5   2  105.83    6.11
   1   5   2  100.11    6.15
   1   5   2   96.39    6.15
   2   5   2    1.73    0.23
   2   5   2    2.01    0.21
   3   5   2    0.04    0.10
   3   5   2    0.00    0.09
   4   5   2    4.15    0.38
   4   5   2    4.35    0.39
  -9   6   2    2.43    0.35
  -9   6   2    2.29    0.34
  -8   6   2    4.26    0.45
  -7   6   2    7.01    0.53
  -7   6   2    6.48    0.57
  -6   6   2    4.20    0.33
  -6   6   2    3.62    0.39
  -5   6   2    7.45    0.49
  -5   6   2    6.72    0.55
  -5   6   2    7.24    0.54
  -4   6   2   11.92    0.79
  -4   6   2   12.95    0.85
  -4   6   2   12.14    0.81
  -4   6   2   13.19    0.87
  -3   6   2    1.53    0.19
  -3   6   2    1.55    0.20
  -3   6   2    1.21    0.15
  -3   6   2    1.25    0.14
  -2   6   2   20.92    1.34
  -2   6   2   20.16    1.33
  -2   6   2   20.80    1.34
  -2   6   2   21.42    1.32
  -1   6   2   37.00    2.27
  -1   6   2   34.07    2.26
  -1   6   2   38.24    2.31
  -1   6   2   35.83    2.25
   0   6   2    9.73    0.65
   0   6   2    8.45    0.64
   0   6   2    9.46    0.62
   1   6   2    1.04    0.17
   1   6   2    0.97    0.16
   2   6   2    0.01    0.10
   2   6   2    0.06    0.10
   3   6   2    8.09    0.64
   3   6   2    9.45    0.67
  -9   7   2   20.21    1.42
  -9   7   2   21.63    1.49
  -8   7   2   -0.02    0.16
  -7   7   2    1.90    0.29
  -6   7   2   11.99    0.89
  -6   7   2   13.61    0.82
  -6   7   2   11.54    0.91
  -5   7   2    5.09    0.44
  -5   7   2    5.25    0.42
  -5   7   2    4.80    0.34
  -4   7   2   25.74    1.64
  -4   7   2   24.19    1.59
  -4   7   2   25.65    1.57
  -4   7   2   25.06    1.63
  -3   7   2    5.01    0.42
  -3   7   2    5.26    0.42
  -3   7   2    5.15    0.39
  -3   7   2    5.18    0.39
  -2   7   2   13.57    0.91
  -2   7   2   11.27    0.86
  -2   7   2   14.26    0.88
  -2   7   2   13.07    0.89
  -1   7   2    2.43    0.24
  -1   7   2    2.74    0.25
  -1   7   2    2.62    0.26
   0   7   2   13.45    0.92
   0   7   2   13.24    0.91
   1   7   2   11.25    0.77
   1   7   2   10.46    0.77
  -9   8   2    0.63    0.22
  -9   8   2    0.45    0.16
  -8   8   2    4.29    0.46
  -7   8   2    4.61    0.35
  -7   8   2    4.61    0.45
  -6   8   2    0.15    0.06
  -6   8   2   -0.05    0.13
  -6   8   2    0.09    0.13
  -5   8   2    4.55    0.40
  -5   8   2    4.49    0.32
  -5   8   2    4.07    0.40
  -4   8   2    0.25    0.09
  -4   8   2    0.30    0.13
  -4   8   2    0.42    0.11
  -4   8   2    0.27    0.13
  -3   8   2    2.47    0.27
  -3   8   2    2.65    0.30
  -3   8   2    2.64    0.25
  -2   8   2    0.19    0.12
  -2   8   2    0.37    0.11
  -1   8   2    0.46    0.13
  -1   8   2    0.36    0.14
   0   8   2    1.45    0.23
   0   8   2    1.80    0.24
  -7   9   2    0.05    0.15
  -7   9   2    0.02    0.06
  -6   9   2    1.71    0.16
  -6   9   2    2.21    0.29
  -6   9   2    1.80    0.29
  -5   9   2   -0.14    0.11
  -5   9   2    0.03    0.12
  -5   9   2    0.04    0.09
  -5   9   2    0.03    0.06
  -4   9   2    4.46    0.39
  -4   9   2    3.80    0.34
  -4   9   2    3.74    0.37
  -3   9   2   21.62    1.42
  -3   9   2   21.65    1.45
  -4  10  -3    9.32    0.65
  -1   9  -3    0.21    0.10
  -2   9  -3   -0.01    0.07
  -3   9  -3    1.48    0.19
  -3   9  -3    1.21    0.17
  -4   9  -3   11.40    0.76
  -8   9  -3    0.13    0.07
   1   8  -3    1.27    0.20
   0   8  -3    7.81    0.57
  -1   8  -3    9.51    0.63
  -1   8  -3    8.67    0.63
  -2   8  -3    0.09    0.09
  -2   8  -3    0.23    0.08
  -3   8  -3   28.44    1.61
  -3   8  -3   22.41    1.57
  -4   8  -3    4.06    0.31
  -6   8  -3    0.16    0.05
  -7   8  -3    1.29    0.17
  -7   8  -3    0.85    0.12
  -8   8  -3    4.84    0.38
   2   7  -3    0.79    0.16
   1   7  -3    1.74    0.22
   1   7  -3    1.84    0.21
   0   7  -3    3.46    0.30
   0   7  -3    3.99    0.29
  -1   7  -3    2.50    0.21
  -1   7  -3    1.82    0.19
  -2   7  -3   51.51    3.38
  -2   7  -3   54.18    3.37
  -2   7  -3   59.57    3.38
  -3   7  -3   10.89    0.76
  -3   7  -3   13.22    0.80
  -3   7  -3   11.75    0.76
  -5   7  -3   23.12    1.42
  -6   7  -3    1.32    0.15
  -7   7  -3    1.05    0.15
  -8   7  -3    0.32    0.11
  -9   7  -3    0.38    0.13
   2   6  -3    3.14    0.25
   1   6  -3    5.34    0.32
   1   6  -3    3.26    0.32
   0   6  -3   45.84    2.76
   0   6  -3   45.99    2.74
   0   6  -3   46.67    2.82
   0  -6   3   40.10    2.78
  -1   6  -3    0.84    0.15
  -1   6  -3    0.44    0.08
   1  -6   3    0.57    0.08
  -2   6  -3    0.99    0.12
  -2   6  -3    0.72    0.09
  -2   6  -3    0.76    0.11
   2  -6   3    0.39    0.09
  -3   6  -3    2.14    0.16
  -3   6  -3    2.10    0.17
  -4   6  -3    2.63    0.19
  -5   6  -3   14.30    0.91
  -6   6  -3    9.58    0.66
  -7   6  -3    3.72    0.33
  -8   6  -3    1.79    0.25
  -9   6  -3    1.73    0.27
   4   5  -3    0.44    0.10
   3   5  -3    3.39    0.27
   2   5  -3   39.22    2.40
   1   5  -3    4.29    0.38
   1   5  -3    3.72    0.28
  -1  -5   3    4.08    0.33
   0   5  -3   17.13    1.28
   0   5  -3   20.11    1.23
   0   5  -3   19.60    1.24
   0  -5   3   23.06    1.25
   0  -5   3   19.37    1.22
   0  -5   3   19.14    1.21
  -1   5  -3   15.91    1.00
  -1   5  -3   15.93    1.00
  -1   5  -3   15.05    1.02
   1  -5   3   15.64    0.99
   1  -5   3   17.21    1.01
  -2   5  -3   85.76    5.00
  -2   5  -3   84.09    4.98
  -2   5  -3   75.13    4.99
   2  -5   3   88.10    5.01
   2  -5   3   78.89    4.98
  -3   5  -3    0.76    0.08
   3  -5   3    0.76    0.13
  -4   5  -3    0.15    0.05
   4  -5   3    0.10    0.03
  -5   5  -3    1.79    0.18
  -6   5  -3    0.41    0.11
  -7   5  -3    3.93    0.36
  -8   5  -3    2.09    0.29
  -9   5  -3    2.40    0.33
   5   4  -3    1.79    0.19
   4   4  -3    4.33    0.32
   3   4  -3   12.14    0.80
  -3  -4   3   12.91    0.89
   2   4  -3   18.26    1.23
   2   4  -3   21.71    1.35
  -2  -4   3   20.49    1.31
   1   4  -3    0.83    0.08
   1   4  -3    0.73    0.16
  -1  -4   3    1.05    0.15
   0   4  -3   69.60    4.66
   0   4  -3   75.30    4.61
   0  -4   3   74.98    4.61
   0  -4   3   83.42    4.65
   0  -4   3   78.15    4.61
  -1   4  -3   39.84    2.45
  -1   4  -3   42.13    2.45
  -1   4  -3   35.68    2.46
   1  -4   3   40.48    2.44
   1  -4   3   42.00    2.46
   1  -4   3   40.83    2.44
  -2   4  -3   36.45    2.27
  -2   4  -3   37.46    2.27
   2  -4   3   37.86    2.28
   2  -4   3   37.00    2.27
   2  -4   3   38.30    2.31
  -3   4  -3    3.52    0.27
   3  -4   3    4.29    0.26
   3  -4   3    4.24    0.29
  -4   4  -3    5.85    0.42
   4  -4   3    6.13    0.39
  -5   4  -3    6.18    0.46
  -6   4  -3   37.73    2.38
  -7   4  -3   24.65    1.63
  -8   4  -3    7.85    0.64
  -9   4  -3    2.87    0.35
   6   3  -3    1.44    0.19
   5   3  -3    2.74    0.24
   4   3  -3   23.71    1.54
  -4  -3   3   25.69    1.64
   3   3  -3    5.08    0.39
   3   3  -3    6.33    0.51
  -3  -3   3    6.70    0.49
   2   3  -3    0.10    0.13
  -2  -3   3    0.04    0.10
   1   3  -3   26.78    1.64
   1   3  -3   24.99    1.57
   0   3  -3   14.15    0.93
   0   3  -3   15.24    0.89
   0  -3   3   15.31    0.89
   0  -3   3   13.34    0.91
  -1   3  -3   86.12    5.36
  -1   3  -3   90.90    5.35
   1  -3   3   87.73    5.35
   1  -3   3   89.79    5.35
  -2   3  -3   23.37    1.40
   2  -3   3   21.91    1.39
   2  -3   3   22.84    1.38
  -3   3  -3   15.19    0.96
  -4   3  -3   12.88    0.85
  -5   3  -3    3.73    0.32
  -6   3  -3   21.22    1.41
  -7   3  -3   34.50    2.24
  -8   3  -3    5.74    0.52
  -9   3  -3    0.91    0.23
   7   2  -3    5.31    0.43
   6   2  -3    1.67    0.20
   5   2  -3    9.15    0.61
  -5  -2   3    8.68    0.71
   4   2  -3    0.99    0.10
  -4  -2   3    1.07    0.21
   3   2  -3   57.55    3.61
   3   2  -3   60.47    3.59
   3   2  -3   61.70    3.71
  -3  -2   3   58.00    3.60
   2   2  -3   14.21    0.83
   2   2  -3   13.80    0.84
   2   2  -3   12.93    0.90
  -2  -2   3   14.24    0.89
  -2  -2   3   12.13    0.83
   1   2  -3  119.19    7.15
   1   2  -3  121.70    7.22
  -1  -2   3  113.72    7.20
  -1  -2   3  120.58    7.16
  -1   2  -3  150.06    8.98
  -1   2  -3  148.09    9.05
  -3   2  -3   45.53    2.80
  -4   2  -3   47.99    2.97
  -5   2  -3    0.30    0.11
  -6   2  -3    2.35    0.27
  -7   2  -3    0.35    0.16
  -8   2  -3    0.80    0.22
   8   1  -3    2.53    0.29
  -7  -1   3   -0.20    0.15
  -6  -1   3   27.53    1.86
   5   1  -3   11.19    0.69
  -5  -1   3   10.55    0.69
  -5  -1   3    9.40    0.77
   4   1  -3    0.49    0.17
   4   1  -3   -0.03    0.02
  -4  -1   3    0.04    0.09
   3   1  -3   35.34    2.04
   3   1  -3   33.58    2.12
  -3  -1   3   33.45    2.11
  -3  -1   3   31.35    2.05
   2   1  -3   14.99    0.89
   2   1  -3   14.53    0.94
  -2  -1   3   13.92    0.89
  -2  -1   3   13.96    0.93
   1   1  -3  263.07   15.32
   1   1  -3  245.55   15.29
   1   1  -3  263.49   15.27
  -1  -1   3  256.78   15.31
  -1  -1   3  239.68   15.30
   0   1  -3  826.03   57.28
   0   1  -3  906.28   55.45
   0  -1   3 1000.00   55.46
   0  -1   3  935.78   55.58
  -1   1  -3   93.50    5.57
   1  -1   3   88.26    5.56
   1  -1   3   94.34    5.57
  -2   1  -3   26.48    1.64
  -3   1  -3   20.99    1.32
   3  -1   3   20.32    1.32
  -4   1  -3   40.31    2.52
  -5   1  -3    0.41    0.12
  -6   1  -3    0.11    0.11
  -7   1  -3    1.34    0.24
   7  -1   3    1.40    0.21
  -8   1  -3    5.96    0.53
   8  -1   3    4.79    0.46
  -8   0   3   13.69    1.07
  -7   0   3    0.77    0.25
  -6   0   3   12.43    0.82
  -6   0   3   11.90    0.91
   4   0  -3   39.76    2.48
   4   0  -3   43.96    2.42
  -4   0   3   35.00    2.42
  -4   0   3   38.25    2.48
   3   0  -3   49.19    3.07
  -3   0   3   50.50    3.04
  -3   0   3   49.25    3.07
   2   0  -3   23.39    1.33
   2   0  -3   22.02    1.36
  -2   0   3   21.64    1.33
  -2   0   3   19.09    1.35
   1   0  -3  129.04    8.03
   1   0  -3  147.28    8.01
   1   0  -3  131.74    8.02
  -1   0   3  135.93    8.03
  -1   0   3  136.14    8.01
  -1   0   3  116.99    8.02
   0   0  -3  559.77   36.06
   0   0  -3  633.19   36.04
   0   0  -3  678.58   36.18
   0   0   3  587.65   36.03
   0   0   3  556.60   36.14
   0   0   3  595.14   36.10
   0   0   3  574.91   36.09
  -1   0  -3   10.49    0.69
  -1   0  -3   10.43    0.68
   1   0   3   12.00    0.69
   1   0   3   10.29    0.69
  -2   0  -3   19.75    1.12
   2   0   3   17.34    1.12
   2   0   3   15.36    1.10
  -3   0  -3    2.57    0.22
   3   0   3    2.13    0.21
   3   0   3    2.35    0.24
  -4   0  -3    0.21    0.09
   4   0   3    0.09    0.08
  -5   0  -3    8.31    0.62
   5   0   3    7.46    0.58
  -6   0  -3   34.25    2.02
   6   0   3   27.19    1.95
  -7   0  -3    3.08    0.36
   7   0   3    3.29    0.34
  -9   1   3    1.47    0.33
  -8   1   3    2.55    0.40
  -7   1   3    0.44    0.22
  -7   1   3    0.70    0.17
   5  -1  -3    0.43    0.13
  -5   1   3    0.31    0.14
  -5   1   3    0.27    0.11
   3  -1  -3   30.54    1.90
   3  -1  -3   32.40    1.88
  -3   1   3   27.93    1.90
  -3   1   3   30.97    1.89
   2  -1  -3   67.42    3.74
   2  -1  -3   59.61    3.76
  -2   1   3   63.36    3.75
  -2   1   3   58.55    3.75
  -2   1   3   58.96    3.76
   1  -1  -3    1.84    0.14
   1  -1  -3    2.02    0.15
   1  -1  -3    2.31    0.14
   1  -1  -3    1.92    0.15
  -1   1   3    2.02    0.15
  -1   1   3    1.78    0.15
  -1   1   3    1.84    0.14
  -1   1   3    1.94    0.15
   0  -1  -3   79.39    4.60
   0  -1  -3   78.54    4.62
   0  -1  -3   75.23    4.62
   0   1   3   74.68    4.62
   0   1   3   81.15    4.63
   0   1   3   69.83    4.60
   0   1   3   74.78    4.62
  -1  -1  -3   52.23    3.01
   1   1   3   43.94    3.02
   1   1   3   50.41    3.00
   1   1   3   50.16    3.01
  -2  -1  -3    1.63    0.16
   2   1   3    1.70    0.18
   2   1   3    1.82    0.17
  -3  -1  -3    0.30    0.10
   3   1   3    0.44    0.14
   3   1   3    0.62    0.11
  -4  -1  -3    9.40    0.67
   4   1   3    8.86    0.65
  -5  -1  -3    0.09    0.10
   5   1   3    0.12    0.11
  -6  -1  -3    2.22    0.38
   6   1   3    2.05    0.27
   7   1   3    0.56    0.17
  -9   2   3    0.34    0.23
  -8   2   3    0.93    0.25
  -8   2   3    0.94    0.19
  -7   2   3    7.55    0.61
   5  -2  -3    2.79    0.26
  -5   2   3    2.73    0.27
  -5   2   3    2.72    0.26
   3  -2  -3    5.57    0.34
   3  -2  -3    5.12    0.35
  -3   2   3    4.57    0.34
  -3   2   3    4.89    0.35
  -3   2   3    4.03    0.35
   2  -2  -3    0.54    0.08
   2  -2  -3    0.66    0.08
   1  -2  -3  128.47    7.11
   1  -2  -3  123.43    7.11
  -1   2   3  114.81    7.11
  -1   2   3  122.56    7.12
  -1   2   3  105.13    7.11
  -1   2   3  111.02    7.10
   0  -2  -3    1.87    0.15
   0  -2  -3    1.91    0.15
   0  -2  -3    2.00    0.16
   0   2   3    1.81    0.17
   0   2   3    1.75    0.15
   0   2   3    1.76    0.14
   0   2   3    1.92    0.16
  -1  -2  -3   63.32    3.86
   1   2   3   66.95    3.86
   1   2   3   56.95    3.88
   1   2   3   65.96    3.85
   1   2   3   63.09    3.85
  -2  -2  -3    1.29    0.15
   2   2   3    1.40    0.14
   2   2   3    1.20    0.15
   2   2   3    1.27    0.19
  -3  -2  -3    0.48    0.11
   3   2   3    0.42    0.14
   3   2   3    0.59    0.10
   3   2   3    0.36    0.11
  -4  -2  -3    6.26    0.51
   4   2   3    6.89    0.50
   5   2   3    2.18    0.27
   6   2   3    0.10    0.12
  -9   3   3    3.75    0.39
  -9   3   3    3.71    0.49
  -8   3   3    5.71    0.52
  -7   3   3   77.68    4.81
  -6   3   3   15.84    1.07
  -6   3   3   15.15    1.06
   5  -3  -3    0.78    0.14
  -5   3   3    0.72    0.15
  -5   3   3    0.64    0.13
   4  -3  -3   83.87    4.81
  -4   3   3   79.99    4.81
  -4   3   3   77.23    4.83
  -4   3   3   74.09    4.81
   3  -3  -3   46.05    2.85
  -3   3   3   44.00    2.87
  -3   3   3   50.36    2.85
  -3   3   3   45.61    2.86
   2  -3  -3   14.40    0.90
   2  -3  -3   14.68    0.92
  -2   3   3   14.03    0.92
  -2   3   3   15.23    0.91
  -2   3   3   14.34    0.93
  -2   3   3   13.70    0.90
   1  -3  -3   79.56    4.49
   1  -3  -3   80.59    4.50
  -1   3   3   75.23    4.51
  -1   3   3   68.77    4.49
  -1   3   3   66.52    4.50
  -1   3   3   73.72    4.51
   0  -3  -3   54.65    3.17
   0  -3  -3   54.18    3.18
   0   3   3   53.65    3.18
   0   3   3   53.04    3.19
   0   3   3   50.17    3.18
   0   3   3   46.57    3.20
  -1  -3  -3    0.99    0.12
   1   3   3    1.11    0.14
   1   3   3    1.20    0.12
   1   3   3    0.90    0.12
   1   3   3    1.04    0.17
  -2  -3  -3   13.22    0.88
   2   3   3   13.17    0.84
   2   3   3   11.83    0.86
   2   3   3   14.54    0.95
  -3  -3  -3   45.95    2.89
   3   3   3   45.24    2.87
   3   3   3   47.11    2.83
   4   3   3    6.91    0.48
   4   3   3    6.53    0.51
   5   3   3    1.65    0.23
  -9   4   3    1.23    0.30
  -9   4   3    1.16    0.26
  -8   4   3   24.60    1.66
  -7   4   3  130.45    8.01
  -7   4   3  130.99    8.04
  -6   4   3    9.12    0.68
  -6   4   3    9.12    0.66
  -5   4   3   15.42    1.04
  -5   4   3   16.49    1.04
  -5   4   3   15.29    1.06
   4  -4  -3    0.12    0.05
   3  -4  -3    3.86    0.26
  -3   4   3    3.96    0.27
  -3   4   3    3.43    0.30
  -3   4   3    3.70    0.27
  -3   4   3    3.28    0.29
   2  -4  -3    3.66    0.26
  -2   4   3    3.44    0.27
  -2   4   3    4.26    0.31
  -2   4   3    3.71    0.29
  -2   4   3    4.10    0.29
   1  -4  -3    4.81    0.32
   1  -4  -3    4.82    0.36
  -1   4   3    4.05    0.33
  -1   4   3    4.38    0.32
  -1   4   3    4.67    0.35
  -1   4   3    4.83    0.34
   0  -4  -3   49.72    3.09
   0  -4  -3   49.01    3.07
   0   4   3   53.45    3.15
   0   4   3   49.16    3.09
   0   4   3   52.75    3.11
   0   4   3   48.93    3.09
  -1  -4  -3   29.38    1.90
   1   4   3   28.99    1.87
   1   4   3   30.18    1.90
   1   4   3   30.94    1.97
   1   4   3   32.21    1.90
   2   4   3   38.79    2.37
   2   4   3   38.39    2.41
   2   4   3   38.51    2.41
   3   4   3   33.93    2.17
   3   4   3   34.76    2.17
   4   4   3    0.78    0.17
  -9   5   3   10.31    0.83
  -8   5   3    2.06    0.31
  -7   5   3    1.77    0.28
  -6   5   3    2.16    0.30
  -6   5   3    2.93    0.26
  -5   5   3    8.01    0.56
  -5   5   3    8.39    0.61
  -5   5   3    8.20    0.59
  -4   5   3    2.00    0.22
  -4   5   3    1.89    0.20
  -4   5   3    1.83    0.16
  -3   5   3    0.70    0.13
  -3   5   3    0.67    0.12
  -3   5   3    0.81    0.11
  -3   5   3    0.83    0.10
   2  -5  -3    2.34    0.20
  -2   5   3    3.36    0.23
  -2   5   3    3.45    0.26
   1  -5  -3    0.68    0.09
  -1   5   3    0.59    0.12
  -1   5   3    0.71    0.13
  -1   5   3    0.54    0.10
  -1   5   3    0.65    0.12
   0  -5  -3    8.57    0.60
   0   5   3    9.33    0.60
   0   5   3    9.01    0.62
   0   5   3    8.36    0.67
   0   5   3    9.54    0.63
   1   5   3    0.02    0.09
   1   5   3    0.01    0.07
   1   5   3    0.02    0.07
   2   5   3    2.38    0.26
   2   5   3    2.45    0.25
   3   5   3    5.26    0.45
   3   5   3    5.84    0.46
  -9   6   3    0.00    0.16
  -8   6   3    5.57    0.53
  -7   6   3   25.48    1.62
  -7   6   3   24.33    1.67
  -6   6   3    1.27    0.20
  -6   6   3    1.33    0.17
  -6   6   3    1.32    0.22
  -5   6   3   30.06    1.74
  -5   6   3   25.21    1.78
  -5   6   3   27.77    1.81
  -4   6   3   33.83    2.20
  -4   6   3   33.05    2.17
  -4   6   3   36.71    2.16
  -4   6   3   35.95    2.22
  -3   6   3    0.01    0.06
  -3   6   3   -0.04    0.08
  -3   6   3    0.04    0.09
  -3   6   3   -0.01    0.05
  -1   6   3    7.51    0.54
  -1   6   3    7.53    0.59
  -1   6   3    7.55    0.54
  -1   6   3    7.86    0.56
   0   6   3   15.28    1.05
   0   6   3   16.53    1.02
   0   6   3   15.40    1.05
   1   6   3    8.32    0.61
   1   6   3    8.40    0.61
   2   6   3    0.07    0.11
   2   6   3    0.03    0.09
  -9   7   3    3.18    0.43
  -8   7   3    2.50    0.35
  -7   7   3    4.66    0.45
  -6   7   3   40.30    2.38
  -6   7   3   39.12    2.48
  -6   7   3   35.65    2.45
  -5   7   3    0.74    0.18
  -5   7   3    0.80    0.12
  -5   7   3    0.92    0.18
  -4   7   3   21.68    1.43
  -4   7   3   22.20    1.49
  -4   7   3   22.91    1.49
  -4   7   3   24.07    1.45
  -3   7   3   13.31    0.87
  -3   7   3   12.27    0.88
  -3   7   3   12.72    0.86
  -3   7   3   13.27    0.90
  -2   7   3    3.46    0.31
  -2   7   3    2.78    0.27
  -2   7   3    3.24    0.29
  -1   7   3   -0.02    0.10
  -1   7   3   -0.04    0.07
  -1   7   3    0.02    0.09
   0   7   3    1.61    0.23
   0   7   3    1.56    0.21
   1   7   3    1.66    0.25
   1   7   3    2.04    0.26
  -8   8   3    7.84    0.68
  -7   8   3    2.51    0.32
  -7   8   3    2.19    0.32
  -6   8   3   -0.01    0.12
  -6   8   3    0.06    0.07
  -6   8   3    0.01    0.11
  -5   8   3    0.49    0.16
  -5   8   3    0.47    0.16
  -5   8   3    0.45    0.10
  -4   8   3    6.33    0.53
  -4   8   3    6.27    0.52
  -4   8   3    6.60    0.58
  -4   8   3    6.47    0.48
  -3   8   3    3.63    0.32
  -3   8   3    3.45    0.34
  -3   8   3    3.78    0.34
  -2   8   3    1.89    0.23
  -2   8   3    2.25    0.28
  -1   8   3    2.20    0.27
  -1   8   3    2.14    0.28
  -7   9   3    8.34    0.69
  -7   9   3    8.18    0.67
  -6   9   3    7.46    0.60
  -6   9   3    6.82    0.60
  -5   9   3    0.41    0.17
  -5   9   3    0.46    0.17
  -5   9   3    0.50    0.14
  -4   9   3    0.30    0.14
  -4   9   3    0.21    0.16
  -4   9   3    0.33    0.12
  -3   9   3    3.60    0.37
  -3   9   3    3.63    0.34
  -1   9  -4    1.83    0.22
  -2   9  -4    1.13    0.16
  -3   9  -4    0.60    0.12
  -4   9  -4   10.32    0.69
  -7   9  -4    0.83    0.10
  -7   9  -4    1.14    0.16
   1   8  -4    6.85    0.52
   0   8  -4   18.98    1.23
  -1   8  -4    0.85    0.14
  -2   8  -4    3.92    0.28
  -2   8  -4    2.71    0.25
  -2   8  -4    2.82    0.31
  -3   8  -4    2.31    0.24
  -3   8  -4    2.85    0.22
  -4   8  -4    2.22    0.19
  -6   8  -4   13.45    0.85
  -7   8  -4    0.97    0.14
  -8   8  -4    0.66    0.13
   2   7  -4    0.45    0.13
   1   7  -4    1.11    0.16
   0   7  -4    4.79    0.34
   0   7  -4    4.68    0.36
   0   7  -4    4.80    0.44
  -1   7  -4   22.19    1.37
  -1   7  -4   19.33    1.30
  -2   7  -4    0.69    0.14
  -2   7  -4    0.92    0.13
  -2   7  -4    0.99    0.12
  -3   7  -4    0.78    0.10
  -4   7  -4   38.40    2.35
  -5   7  -4    0.40    0.07
  -6   7  -4    2.58    0.22
  -7   7  -4    1.79    0.20
  -8   7  -4    0.09    0.09
   2   6  -4    0.04    0.08
   1   6  -4   27.70    1.65
   1   6  -4   25.25    1.77
   0   6  -4    0.34    0.07
   0   6  -4    0.20    0.13
   0   6  -4    0.48    0.09
  -1   6  -4   24.18    1.55
  -1   6  -4   22.99    1.50
  -1   6  -4   26.21    1.50
   1  -6   4   26.43    1.50
   1  -6   4   21.22    1.48
  -2   6  -4   14.97    0.91
  -2   6  -4   15.29    0.94
   2  -6   4   13.43    0.91
  -3   6  -4    5.39    0.38
  -3   6  -4    5.93    0.38
  -4   6  -4    3.58    0.26
  -5   6  -4    7.54    0.51
  -6   6  -4    6.81    0.49
  -7   6  -4    4.61    0.38
  -8   6  -4    6.97    0.55
  -9   6  -4    0.60    0.17
   3   5  -4   20.43    1.28
   2   5  -4    4.36    0.30
   1   5  -4    3.21    0.21
   1   5  -4    2.44    0.30
  -1  -5   4    2.87    0.27
   0   5  -4    0.50    0.08
   0   5  -4    0.35    0.11
   0   5  -4    0.54    0.07
   0  -5   4    0.56    0.07
   0  -5   4    0.55    0.10
   0  -5   4    0.57    0.07
  -1   5  -4   28.33    1.71
  -1   5  -4   26.93    1.71
  -1   5  -4   23.90    1.75
   1  -5   4   30.47    1.73
   1  -5   4   27.65    1.70
   1  -5   4   30.14    1.72
  -2   5  -4    7.99    0.48
  -2   5  -4    7.52    0.50
   2  -5   4    7.00    0.48
  -3   5  -4    1.43    0.13
   3  -5   4    1.67    0.12
   3  -5   4    1.71    0.15
  -4   5  -4    3.12    0.23
   4  -5   4    2.70    0.20
  -5   5  -4    1.10    0.15
   5  -5   4    1.41    0.11
  -6   5  -4    0.42    0.12
  -7   5  -4   14.08    0.98
  -8   5  -4    0.24    0.13
  -9   5  -4    2.92    0.34
   5   4  -4    0.39    0.09
   4   4  -4   10.20    0.67
   3   4  -4   19.24    1.33
  -3  -4   4   18.81    1.29
   2   4  -4    7.52    0.58
   2   4  -4    6.95    0.45
  -2  -4   4    6.92    0.55
   1   4  -4    7.37    0.61
   1   4  -4    8.78    0.53
  -1  -4   4    9.30    0.61
   0   4  -4   61.17    3.71
   0   4  -4   53.15    3.76
   0  -4   4   60.90    3.70
   0  -4   4   69.74    3.73
  -1   4  -4    1.44    0.14
  -1   4  -4    1.16    0.10
   1  -4   4    1.43    0.10
  -2   4  -4    5.04    0.36
  -2   4  -4    5.49    0.34
   2  -4   4    5.78    0.39
   2  -4   4    5.49    0.36
  -3   4  -4   37.67    2.54
   3  -4   4   44.94    2.51
  -4   4  -4   16.73    1.25
   4  -4   4   22.60    1.22
  -5   4  -4    0.47    0.11
  -6   4  -4    2.71    0.27
  -7   4  -4    6.55    0.54
  -8   4  -4    8.92    0.71
  -9   4  -4    3.99    0.43
   6   3  -4    7.42    0.53
   5   3  -4   20.20    1.28
   4   3  -4   28.33    1.81
   4   3  -4   29.98    1.96
  -4  -3   4   29.82    1.93
   3   3  -4    0.03    0.12
  -3  -3   4   -0.10    0.11
   2   3  -4    9.37    0.59
   1   3  -4  110.65    6.42
  -1  -3   4   99.97    6.34
   0   3  -4    1.78    0.17
  -1   3  -4    1.88    0.12
  -1   3  -4    1.66    0.15
   1  -3   4    1.70    0.13
   1  -3   4    1.84    0.14
  -2   3  -4    4.09    0.27
   2  -3   4    3.53    0.23
  -3   3  -4   22.05    1.38
  -4   3  -4    4.79    0.36
  -5   3  -4    4.87    0.39
  -6   3  -4    0.69    0.16
  -7   3  -4    4.13    0.40
  -8   3  -4    2.82    0.34
   7   2  -4    1.02    0.16
   6   2  -4    9.06    0.63
  -5  -2   4   18.12    1.27
   4   2  -4   24.93    1.54
   4   2  -4   21.94    1.38
  -4  -2   4   21.56    1.40
   3   2  -4   41.13    2.51
   3   2  -4   38.08    2.39
  -3  -2   4   39.20    2.40
   2   2  -4   10.38    0.75
   2   2  -4   10.83    0.68
  -2  -2   4   11.02    0.68
   1   2  -4    0.12    0.06
  -1  -2   4    0.12    0.05
  -1  -2   4    0.16    0.04
   0   2  -4    0.84    0.09
   0  -2   4    0.53    0.06
  -1   2  -4   93.55    5.67
  -2   2  -4   23.59    1.49
   2  -2   4   24.29    1.49
  -3   2  -4    2.45    0.21
  -4   2  -4   21.01    1.35
  -5   2  -4    1.60    0.22
  -6   2  -4    6.54    0.53
  -7   2  -4    9.56    0.74
  -8   2  -4    2.06    0.31
   8  -2   4    1.48    0.24
  -7  -1   4    5.04    0.53
  -6  -1   4    3.64    0.42
   5   1  -4    0.21    0.15
   5   1  -4   -0.05    0.06
  -5  -1   4    0.44    0.10
   4   1  -4   57.52    3.38
   4   1  -4   54.95    3.48
  -4  -1   4   54.08    3.40
   3   1  -4   25.29    1.53
   3   1  -4   26.67    1.62
   3   1  -4   25.13    1.54
  -3  -1   4   22.77    1.54
  -3  -1   4   25.08    1.60
   2   1  -4   37.03    2.14
   2   1  -4   36.27    2.15
   2   1  -4   34.42    2.20
  -2  -1   4   32.88    2.15
   1   1  -4   63.13    3.99
   1   1  -4   69.02    4.02
   1   1  -4   70.25    3.97
  -1  -1   4   64.20    3.97
  -1  -1   4   66.04    3.99
  -1  -1   4   61.94    4.00
   0   1  -4  400.90   24.33
   0   1  -4  383.64   24.32
   0   1  -4  453.14   24.57
   0  -1   4  396.54   24.36
   0  -1   4  386.59   24.36
   0  -1   4  405.61   24.43
  -1   1  -4  110.49    6.65
   1  -1   4  109.54    6.62
   1  -1   4  108.70    6.64
   1  -1   4  110.69    6.65
  -2   1  -4   18.70    1.18
   2  -1   4   18.11    1.17
   2  -1   4   19.10    1.19
  -3   1  -4    1.61    0.17
   3  -1   4    1.52    0.16
  -4   1  -4    8.73    0.60
   4  -1   4    7.65    0.57
  -5   1  -4    1.20    0.20
   5  -1   4    1.02    0.16
  -6   1  -4    6.03    0.48
   6  -1   4    4.57    0.43
  -7   1  -4    1.19    0.23
   7  -1   4    1.09    0.20
  -8   1  -4    0.02    0.14
   8  -1   4   -0.02    0.12
  -8   0   4    3.32    0.47
  -7   0   4   11.84    0.91
  -7   0   4   11.17    0.79
  -6   0   4   61.29    3.78
   5   0  -4    6.41    0.56
  -5   0   4    7.42    0.57
  -5   0   4    7.28    0.51
   4   0  -4  124.29    7.23
   4   0  -4  122.12    7.15
   4   0  -4  115.28    7.15
  -4   0   4  110.89    7.16
   3   0  -4  112.89    7.03
   3   0  -4  121.58    7.09
  -3   0   4  123.49    7.09
  -3   0   4  107.51    7.04
   2   0  -4   21.94    1.34
   2   0  -4   23.22    1.30
  -2   0   4   20.75    1.31
  -2   0   4   18.24    1.30
  -2   0   4   21.73    1.33
   1   0  -4    3.47    0.26
   1   0  -4    3.26    0.25
   1   0  -4    4.11    0.24
  -1   0   4    3.52    0.25
  -1   0   4    3.43    0.24
  -1   0   4    3.53    0.25
   0   0  -4  115.57    6.63
   0   0  -4  114.68    6.60
   0   0  -4  109.14    6.62
   0   0   4  112.09    6.62
   0   0   4  109.35    6.60
   0   0   4  102.27    6.63
   0   0   4  103.15    6.63
  -1   0  -4    1.29    0.13
  -1   0  -4    1.44    0.12
   1   0   4    1.35    0.10
   1   0   4    1.40    0.14
   1   0   4    1.37    0.13
  -2   0  -4    0.16    0.06
   2   0   4    0.27    0.08
  -3   0  -4   19.13    1.26
   3   0   4   20.37    1.30
   3   0   4   19.33    1.25
  -4   0  -4   10.63    0.72
   4   0   4    9.76    0.71
  -5   0  -4    7.66    0.59
   5   0   4    7.27    0.57
  -6   0  -4    6.74    0.55
   6   0   4    6.34    0.52
   7   0   4    0.56    0.17
  -9   1   4    0.36    0.25
  -8   1   4    0.38    0.14
  -8   1   4    0.31    0.20
  -7   1   4    0.23    0.14
   6  -1  -4    4.29    0.40
  -6   1   4    4.16    0.36
   5  -1  -4   11.80    0.86
  -5   1   4   11.97    0.82
  -5   1   4   12.92    0.87
   4  -1  -4   14.69    1.07
  -4   1   4   17.01    1.06
  -4   1   4   17.54    1.09
   3  -1  -4   55.72    3.40
   3  -1  -4   59.46    3.39
   3  -1  -4   52.37    3.42
  -3   1   4   50.80    3.41
  -3   1   4   58.51    3.43
  -3   1   4   57.16    3.40
   2  -1  -4   18.85    1.17
  -2   1   4   18.56    1.17
  -2   1   4   18.16    1.15
  -2   1   4   18.71    1.17
   1  -1  -4   52.12    2.76
   1  -1  -4   45.22    2.78
   1  -1  -4   47.18    2.78
  -1   1   4   44.79    2.76
  -1   1   4   42.31    2.78
  -1   1   4   44.24    2.77
  -1   1   4   42.92    2.78
   0  -1  -4  135.53    7.98
   0  -1  -4  134.67    7.98
   0   1   4  127.83    7.98
   0   1   4  133.53    7.99
   0   1   4  121.76    7.96
   0   1   4  138.79    7.99
  -1  -1  -4    2.77    0.22
   1   1   4    2.73    0.22
   1   1   4    2.51    0.22
   1   1   4    2.58    0.23
   1   1   4    2.51    0.19
  -2  -1  -4    1.20    0.13
   2   1   4    0.87    0.14
   2   1   4    0.84    0.12
  -3  -1  -4   15.16    0.98
   3   1   4   14.71    1.02
   3   1   4   14.21    0.97
  -4  -1  -4   27.72    1.83
   4   1   4   29.45    1.83
  -5  -1  -4    3.15    0.32
   5   1   4    3.07    0.31
   6   1   4    0.13    0.12
  -9   2   4    3.78    0.40
  -9   2   4    4.56    0.53
  -8   2   4    2.13    0.30
  -7   2   4   25.96    1.70
   6  -2  -4   12.04    0.87
  -6   2   4   12.45    0.86
  -6   2   4   12.80    0.90
   5  -2  -4    3.03    0.29
  -5   2   4    3.25    0.30
  -5   2   4    3.01    0.28
   4  -2  -4   39.08    2.39
  -4   2   4   39.16    2.39
  -4   2   4   36.76    2.39
  -4   2   4   38.15    2.37
   3  -2  -4    3.42    0.26
   3  -2  -4    3.22    0.26
  -3   2   4    3.09    0.25
  -3   2   4    2.99    0.25
  -3   2   4    3.50    0.27
   2  -2  -4   80.42    4.48
   2  -2  -4   75.35    4.50
   2  -2  -4   80.09    4.49
   2  -2  -4   71.41    4.50
  -2   2   4   74.43    4.50
  -2   2   4   70.06    4.48
  -2   2   4   68.04    4.50
  -2   2   4   71.87    4.51
   1  -2  -4   42.48    2.28
   1  -2  -4   35.50    2.29
   1  -2  -4   37.75    2.30
   1  -2  -4   39.56    2.29
  -1   2   4   34.10    2.28
  -1   2   4   35.57    2.30
  -1   2   4   38.13    2.31
  -1   2   4   36.65    2.30
   0  -2  -4   32.68    1.94
   0  -2  -4   34.52    1.94
   0   2   4   30.61    1.96
   0   2   4   30.20    1.94
   0   2   4   28.27    1.94
   0   2   4   32.01    1.93
  -1  -2  -4    0.87    0.12
   1   2   4    0.86    0.10
   1   2   4    0.88    0.12
   1   2   4    1.10    0.16
   1   2   4    0.91    0.13
  -2  -2  -4   13.29    0.91
   2   2   4   14.44    0.90
   2   2   4   14.35    0.97
   2   2   4   13.37    0.91
  -3  -2  -4    0.34    0.11
   3   2   4    0.40    0.12
   3   2   4    0.53    0.11
   3   2   4    0.50    0.16
  -4  -2  -4    8.96    0.66
   4   2   4    9.21    0.62
   4   2   4    8.38    0.64
   5   2   4    0.37    0.13
   5   2   4    0.30    0.11
   6   2   4    0.07    0.13
  -9   3   4    5.38    0.57
  -9   3   4    5.47    0.50
  -8   3   4    1.56    0.27
  -7   3   4    8.18    0.64
   6  -3  -4    0.03    0.09
  -6   3   4    0.05    0.12
  -6   3   4    0.02    0.09
   5  -3  -4    6.75    0.48
  -5   3   4    5.87    0.48
  -5   3   4    6.64    0.49
   4  -3  -4    2.68    0.23
  -4   3   4    2.76    0.23
  -4   3   4    2.49    0.24
  -4   3   4    2.76    0.24
   3  -3  -4   11.55    0.74
  -3   3   4   10.70    0.76
  -3   3   4   11.65    0.74
  -3   3   4   11.26    0.75
   2  -3  -4    0.34    0.06
  -2   3   4    0.29    0.07
  -2   3   4    0.31    0.08
  -2   3   4    0.31    0.06
  -2   3   4    0.36    0.07
   1  -3  -4   32.65    2.05
  -1   3   4   33.83    2.07
  -1   3   4   33.51    2.05
  -1   3   4   35.09    2.07
  -1   3   4   31.95    2.07
   0  -3  -4    3.40    0.25
   0   3   4    2.97    0.27
   0   3   4    3.30    0.25
   0   3   4    3.24    0.26
   0   3   4    2.90    0.24
  -1  -3  -4    0.76    0.12
   1   3   4    0.80    0.13
   1   3   4    0.81    0.16
   1   3   4    0.63    0.11
   1   3   4    0.58    0.10
  -2  -3  -4    1.04    0.15
   2   3   4    0.81    0.14
   2   3   4    0.98    0.20
   2   3   4    0.82    0.13
   2   3   4    0.88    0.13
   3   3   4    1.08    0.18
   3   3   4    1.14    0.15
   4   3   4    0.29    0.11
   4   3   4    0.26    0.12
   5   3   4    1.39    0.23
  -9   4   4   -0.10    0.15
  -8   4   4    5.30    0.49
  -7   4   4    0.54    0.18
  -6   4   4   24.21    1.52
  -6   4   4   22.02    1.53
   5  -4  -4   27.05    1.52
  -5   4   4   22.75    1.55
  -5   4   4   23.50    1.53
  -5   4   4   21.82    1.53
   4  -4  -4   24.81    1.44
  -4   4   4   22.57    1.45
  -4   4   4   22.28    1.48
  -4   4   4   21.94    1.46
   3  -4  -4   47.09    2.70
  -3   4   4   42.03    2.72
  -3   4   4   45.73    2.74
  -3   4   4   42.77    2.70
  -3   4   4   42.36    2.70
   2  -4  -4    2.90    0.21
  -2   4   4    2.44    0.22
  -2   4   4    2.88    0.24
  -2   4   4    2.67    0.21
  -2   4   4    2.71    0.24
   1  -4  -4    2.89    0.22
  -1   4   4    3.04    0.26
  -1   4   4    2.84    0.22
  -1   4   4    2.50    0.24
  -1   4   4    2.71    0.24
   0  -4  -4    0.21    0.07
   0   4   4    0.13    0.08
   0   4   4    0.00    0.05
   0   4   4    0.16    0.09
   0   4   4    0.14    0.08
  -1  -4  -4    1.64    0.17
   1   4   4    1.82    0.18
   1   4   4    1.67    0.21
   1   4   4    1.88    0.26
   1   4   4    1.78    0.18
   2   4   4    9.79    0.67
   2   4   4    9.99    0.70
   2   4   4   10.45    0.72
   3   4   4    0.36    0.11
   3   4   4    0.28    0.12
   4   4   4    2.05    0.26
   4   4   4    2.38    0.29
  -9   5   4    0.01    0.16
  -8   5   4    2.62    0.35
  -7   5   4   11.67    0.86
  -6   5   4    0.76    0.16
  -6   5   4    0.96    0.15
  -6   5   4    0.79    0.17
  -5   5   4    8.52    0.54
  -5   5   4    6.92    0.56
  -5   5   4    7.19    0.58
  -4   5   4    3.74    0.32
  -4   5   4    3.74    0.29
  -4   5   4    4.33    0.35
   3  -5  -4    7.90    0.49
  -3   5   4    6.80    0.50
  -3   5   4    7.57    0.54
  -3   5   4    7.42    0.50
  -3   5   4    7.03    0.53
   2  -5  -4   10.51    0.73
  -2   5   4   12.11    0.77
  -2   5   4   12.39    0.78
  -2   5   4   11.56    0.78
  -2   5   4   10.80    0.74
   1  -5  -4    7.48    0.51
  -1   5   4    7.08    0.52
  -1   5   4    8.00    0.57
  -1   5   4    7.94    0.54
  -1   5   4    7.26    0.54
   0   5   4    2.77    0.28
   0   5   4    3.41    0.28
   0   5   4    3.47    0.28
   1   5   4    0.20    0.09
   1   5   4    0.11    0.10
   1   5   4    0.20    0.09
   2   5   4    4.53    0.40
   2   5   4    4.87    0.39
   3   5   4    0.21    0.14
   3   5   4    0.14    0.12
  -9   6   4    1.81    0.31
  -8   6   4    0.32    0.17
  -7   6   4   28.01    1.86
  -6   6   4   62.67    4.19
  -6   6   4   73.67    4.15
  -6   6   4   65.43    4.21
  -5   6   4   18.09    1.26
  -5   6   4   18.93    1.26
  -5   6   4   19.31    1.20
  -4   6   4   14.44    1.00
  -4   6   4   14.85    0.96
  -4   6   4   14.63    0.95
  -4   6   4   15.06    1.01
  -3   6   4   19.79    1.32
  -3   6   4   22.15    1.37
  -3   6   4   21.80    1.37
  -3   6   4   20.01    1.33
  -2   6   4    1.28    0.18
  -2   6   4    0.93    0.14
  -1   6   4    7.03    0.52
  -1   6   4    7.18    0.54
  -1   6   4    7.23    0.52
   0   6   4   24.39    1.51
   0   6   4   24.08    1.53
   0   6   4   22.44    1.54
   1   6   4    6.72    0.53
   1   6   4    6.95    0.52
   2   6   4    0.00    0.11
   2   6   4   -0.07    0.11
  -9   7   4    0.01    0.16
  -8   7   4    0.08    0.15
  -7   7   4    0.16    0.15
  -7   7   4    0.30    0.14
  -6   7   4    1.27    0.22
  -6   7   4    1.35    0.16
  -6   7   4    1.35    0.24
  -5   7   4    0.00    0.12
  -5   7   4    0.01    0.11
  -5   7   4   -0.01    0.06
  -4   7   4    0.41    0.11
  -4   7   4    0.24    0.13
  -4   7   4    0.31    0.09
  -4   7   4    0.36    0.13
  -3   7   4    8.18    0.62
  -3   7   4    8.21    0.59
  -3   7   4    8.60    0.63
  -2   7   4    6.37    0.46
  -2   7   4    5.61    0.47
  -2   7   4    5.37    0.43
  -1   7   4    8.23    0.60
  -1   7   4    8.39    0.67
  -1   7   4    7.81    0.61
   0   7   4    0.66    0.16
   0   7   4    0.71    0.15
  -8   8   4    1.52    0.30
  -7   8   4    5.47    0.51
  -7   8   4    5.55    0.49
  -6   8   4    0.70    0.20
  -6   8   4    1.02    0.22
  -5   8   4    1.24    0.23
  -5   8   4    1.20    0.22
  -4   8   4    0.10    0.12
  -4   8   4   -0.04    0.07
  -4   8   4    0.02    0.12
  -3   8   4   -0.10    0.11
  -3   8   4   -0.05    0.07
  -3   8   4    0.13    0.12
  -2   8   4    0.22    0.11
  -2   8   4    0.04    0.12
  -1   8   4   11.17    0.81
  -1   8   4   11.82    0.84
  -6   9   4    1.35    0.26
  -6   9   4    1.57    0.28
  -5   9   4    2.33    0.32
  -5   9   4    2.38    0.32
  -5   9   4    2.00    0.25
  -4   9   4    0.51    0.17
  -4   9   4    0.39    0.17
  -4   9   4    0.37    0.13
  -1   9  -5    0.44    0.11
  -2   9  -5    0.74    0.13
  -3   9  -5    0.06    0.06
  -3   9  -5    0.13    0.11
  -4   9  -5   15.22    0.96
  -4   9  -5   14.72    0.97
  -6   9  -5    0.87    0.10
  -7   9  -5    1.18    0.13
   1   8  -5    4.29    0.36
   0   8  -5    2.82    0.26
  -1   8  -5    2.82    0.34
  -1   8  -5    3.81    0.28
  -2   8  -5   12.94    0.81
  -2   8  -5   11.68    0.85
  -3   8  -5   61.32    3.69
  -3   8  -5   58.61    3.66
  -4   8  -5    0.27    0.08
  -5   8  -5    1.56    0.15
  -6   8  -5    9.03    0.60
  -7   8  -5    1.32    0.17
  -8   8  -5    0.28    0.10
   2   7  -5    2.46    0.25
   1   7  -5    1.36    0.26
   1   7  -5    1.30    0.17
   0   7  -5    1.35    0.24
   0   7  -5    1.65    0.17
  -1   7  -5    2.17    0.19
  -2   7  -5   49.25    2.94
  -2   7  -5   46.85    2.99
  -3   7  -5   52.18    3.36
  -3   7  -5   57.54    3.34
  -4   7  -5   19.65    1.23
  -5   7  -5    2.87    0.23
  -6   7  -5    1.57    0.17
  -7   7  -5    2.00    0.22
  -8   7  -5    3.57    0.33
   2   6  -5   25.76    1.75
   1   6  -5   20.31    1.53
   1   6  -5   24.68    1.42
   0   6  -5    3.93    0.37
   0   6  -5    4.22    0.28
   0   6  -5    3.92    0.30
  -1   6  -5    3.35    0.23
  -1   6  -5    3.30    0.29
   1  -6   5    2.86    0.21
   1  -6   5    3.08    0.25
  -2   6  -5    0.08    0.04
  -2   6  -5    0.12    0.07
   2  -6   5    0.07    0.04
  -3   6  -5    5.45    0.40
  -3   6  -5    6.12    0.38
  -4   6  -5    7.37    0.51
   4  -6   5    7.72    0.48
  -5   6  -5   15.20    0.98
  -6   6  -5   -0.01    0.06
  -7   6  -5    6.70    0.52
  -8   6  -5    1.50    0.23
   3   5  -5    7.59    0.68
   2   5  -5    0.24    0.05
   2   5  -5    0.01    0.15
   1   5  -5    8.03    0.65
  -1  -5   5    9.17    0.63
   0   5  -5    1.10    0.19
   0   5  -5    1.31    0.13
   0  -5   5    1.42    0.16
   0  -5   5    1.57    0.14
  -1   5  -5    2.13    0.16
  -1   5  -5    2.28    0.21
   1  -5   5    2.00    0.15
   1  -5   5    2.21    0.19
  -2   5  -5    3.56    0.21
  -2   5  -5    2.72    0.24
   2  -5   5    2.85    0.22
  -3   5  -5    7.83    0.53
   3  -5   5    7.99    0.53
  -4   5  -5   13.54    0.85
   4  -5   5   12.69    0.81
  -5   5  -5   12.52    0.85
   5  -5   5   13.23    0.80
  -6   5  -5    0.12    0.09
  -7   5  -5    5.75    0.47
  -8   5  -5    7.70    0.62
   4   4  -5    3.69    0.28
   4   4  -5    4.53    0.47
   3   4  -5    5.07    0.37
   3   4  -5    6.91    0.55
  -3  -4   5    6.28    0.51
   2   4  -5    0.64    0.17
   1   4  -5   20.11    1.26
  -1  -4   5   18.13    1.16
   0   4  -5    0.03    0.06
  -1   4  -5   21.13    1.20
  -1   4  -5   17.43    1.23
   1  -4   5   19.80    1.19
  -2   4  -5    9.58    0.62
   2  -4   5    9.38    0.61
  -3   4  -5   12.55    0.81
   3  -4   5   12.49    0.76
  -4   4  -5   14.06    0.92
   4  -4   5   13.98    0.86
  -5   4  -5    0.19    0.09
  -6   4  -5   27.85    1.80
  -7   4  -5   11.96    0.87
  -8   4  -5    0.33    0.15
   6   3  -5    1.12    0.15
   5   3  -5   14.03    0.90
   4   3  -5   38.64    2.57
   4   3  -5   46.36    2.75
  -4  -3   5   42.41    2.70
   3   3  -5    0.81    0.19
   3   3  -5    0.86    0.10
  -3  -3   5    1.28    0.10
   2   3  -5   23.52    1.54
   2   3  -5   28.00    1.66
  -2  -3   5   25.34    1.55
   1   3  -5   45.79    2.94
  -1  -3   5   48.66    2.88
   0   3  -5    0.13    0.06
  -1   3  -5    5.51    0.38
  -2   3  -5   35.97    2.22
  -3   3  -5    2.56    0.22
  -4   3  -5    3.38    0.28
  -5   3  -5   20.88    1.36
  -6   3  -5   21.96    1.45
  -7   3  -5    0.14    0.12
  -8   3  -5    2.12    0.31
   7   2  -5    0.94    0.15
   6   2  -5    1.12    0.15
   5   2  -5   30.94    2.00
  -5  -2   5   28.95    1.85
   4   2  -5   11.15    0.86
  -4  -2   5   12.01    0.76
   3   2  -5   18.43    1.13
   3   2  -5   17.62    1.13
   3   2  -5   19.37    1.23
  -3  -2   5   17.80    1.14
   2   2  -5    0.53    0.12
   2   2  -5    0.40    0.06
  -2  -2   5    0.66    0.08
   1   2  -5    1.56    0.17
  -1  -2   5    1.93    0.15
  -1  -2   5    1.51    0.15
   0   2  -5  255.31   15.67
   0  -2   5  252.59   15.60
   0  -2   5  267.90   15.58
  -1   2  -5   72.15    4.07
   1  -2   5   60.00    4.06
   1  -2   5   68.33    4.05
  -2   2  -5   14.02    0.85
   2  -2   5   12.14    0.83
  -3   2  -5   11.61    0.77
  -4   2  -5    0.09    0.07
  -5   2  -5    0.75    0.15
  -6   2  -5   11.07    0.76
   6  -2   5    9.35    0.72
  -7   2  -5    2.45    0.31
   7  -2   5    1.69    0.25
  -8   2  -5    0.99    0.22
   8  -2   5    0.51    0.17
  -7  -1   5    4.03    0.58
   6   1  -5    4.08    0.44
   5   1  -5   15.85    1.09
  -5  -1   5   14.71    0.99
   4   1  -5    1.15    0.12
   4   1  -5    1.27    0.12
   4   1  -5    1.35    0.20
  -4  -1   5    1.27    0.14
   3   1  -5    4.71    0.31
   3   1  -5    4.79    0.39
   3   1  -5    4.39    0.31
  -3  -1   5    4.39    0.33
  -3  -1   5    4.66    0.37
   2   1  -5    8.93    0.54
   2   1  -5    8.88    0.61
  -2  -1   5    8.05    0.56
   1   1  -5   20.11    1.19
   1   1  -5   21.21    1.24
  -1  -1   5   17.75    1.21
  -1  -1   5   18.78    1.19
   0   1  -5    0.85    0.10
   0   1  -5    0.75    0.08
   0   1  -5    0.92    0.06
   0  -1   5    0.80    0.08
   0  -1   5    0.81    0.11
  -1   1  -5   76.82    4.40
   1  -1   5   69.31    4.35
   1  -1   5   66.87    4.40
   1  -1   5   76.20    4.39
  -2   1  -5    2.80    0.23
   2  -1   5    2.59    0.22
   2  -1   5    2.35    0.21
  -3   1  -5    9.12    0.62
   3  -1   5    8.88    0.62
  -4   1  -5    9.27    0.64
   4  -1   5    8.36    0.62
  -5   1  -5   13.80    0.94
   5  -1   5   13.07    0.92
  -6   1  -5    2.85    0.30
   6  -1   5    1.86    0.26
  -7   1  -5    2.72    0.33
   7  -1   5    2.38    0.30
  -8   0   5   -0.06    0.20
  -7   0   5   55.96    3.48
   6   0  -5   13.84    1.01
  -6   0   5   13.75    0.93
   5   0  -5    2.27    0.28
  -5   0   5    2.84    0.25
  -5   0   5    2.93    0.30
   4   0  -5    5.03    0.33
   4   0  -5    4.27    0.38
  -4   0   5    4.03    0.33
   3   0  -5    0.59    0.09
   3   0  -5    0.53    0.12
  -3   0   5    0.58    0.10
  -3   0   5    0.72    0.12
   2   0  -5   32.40    2.02
   2   0  -5   34.27    2.00
   2   0  -5   32.33    2.05
  -2   0   5   34.43    2.04
  -2   0   5   35.81    2.03
  -2   0   5   28.08    2.00
   1   0  -5    8.84    0.60
   1   0  -5    9.34    0.56
   1   0  -5    9.40    0.59
   1   0  -5    9.30    0.57
  -1   0   5    9.05    0.60
  -1   0   5    9.24    0.58
  -1   0   5    7.92    0.59
   0   0  -5   12.93    0.74
   0   0  -5   11.69    0.77
   0   0   5   12.41    0.76
   0   0   5   11.85    0.74
   0   0   5   10.68    0.77
   0   0   5   12.28    0.78
  -1   0  -5   41.51    2.48
  -1   0  -5   43.13    2.46
   1   0   5   36.90    2.43
   1   0   5   39.30    2.46
  -2   0  -5    9.98    0.73
   2   0   5   12.08    0.74
   2   0   5   11.09    0.75
  -3   0  -5  121.73    7.36
   3   0   5  119.82    7.35
  -4   0  -5    2.18    0.23
   4   0   5    2.16    0.23
  -5   0  -5   -0.08    0.08
   5   0   5    0.09    0.11
  -6   0  -5    0.55    0.16
   6   0   5    0.43    0.15
   7   0   5    2.44    0.32
  -9   1   5    1.11    0.32
  -8   1   5    2.06    0.28
  -7   1   5   -0.01    0.10
   6  -1  -5    5.55    0.51
  -6   1   5    6.60    0.53
  -6   1   5    6.52    0.49
   5  -1  -5    5.40    0.47
  -5   1   5    6.05    0.48
  -5   1   5    5.89    0.44
   4  -1  -5    3.29    0.29
  -4   1   5    3.14    0.27
  -4   1   5    3.37    0.30
   3  -1  -5   15.21    0.89
   3  -1  -5   13.39    0.92
  -3   1   5   13.57    0.91
  -3   1   5   12.76    0.89
  -3   1   5   14.84    0.92
   2  -1  -5    8.17    0.53
   2  -1  -5    8.30    0.56
   2  -1  -5    8.71    0.54
   2  -1  -5    8.04    0.56
  -2   1   5    8.37    0.55
  -2   1   5    8.09    0.56
  -2   1   5    8.90    0.57
   1  -1  -5  254.11   14.75
   1  -1  -5  226.59   14.74
   1  -1  -5  259.22   14.73
  -1   1   5  220.25   14.74
  -1   1   5  245.59   14.75
  -1   1   5  230.59   14.75
  -1   1   5  273.56   14.74
   0  -1  -5   31.34    1.76
   0  -1  -5   30.71    1.79
   0   1   5   26.83    1.79
   0   1   5   28.93    1.79
   0   1   5   28.69    1.80
   0   1   5   26.55    1.76
  -1  -1  -5   21.64    1.44
   1   1   5   22.30    1.44
   1   1   5   23.85    1.45
   1   1   5   22.30    1.46
   1   1   5   24.46    1.42
  -2  -1  -5    2.10    0.20
   2   1   5    2.39    0.18
   2   1   5    2.15    0.23
   2   1   5    2.09    0.20
   2   1   5    2.06    0.21
  -3  -1  -5   18.65    1.22
   3   1   5   18.79    1.22
  -4  -1  -5    3.75    0.33
   4   1   5    3.32    0.32
  -5  -1  -5    0.01    0.10
   5   1   5    0.10    0.10
   6   1   5   -0.01    0.12
  -9   2   5   -0.05    0.15
  -9   2   5    0.15    0.22
  -8   2   5    5.78    0.50
  -7   2   5   12.84    0.91
   6  -2  -5    1.55    0.22
  -6   2   5    1.20    0.20
  -6   2   5    1.34    0.22
   5  -2  -5    0.10    0.09
  -5   2   5    0.22    0.09
  -5   2   5    0.09    0.09
   4  -2  -5   21.41    1.37
  -4   2   5   22.01    1.37
  -4   2   5   20.37    1.35
  -4   2   5   21.17    1.37
   3  -2  -5    0.49    0.09
  -3   2   5    0.36    0.09
  -3   2   5    0.55    0.09
  -3   2   5    0.51    0.09
   2  -2  -5    0.05    0.04
  -2   2   5    0.05    0.05
  -2   2   5    0.05    0.06
  -2   2   5    0.11    0.05
   1  -2  -5    4.47    0.30
  -1   2   5    3.76    0.28
  -1   2   5    4.17    0.31
  -1   2   5    3.66    0.30
  -1   2   5    4.24    0.30
   0  -2  -5   14.02    0.93
   0   2   5   15.52    0.94
   0   2   5   14.53    0.93
   0   2   5   14.15    0.91
   0   2   5   14.27    0.95
  -1  -2  -5    5.44    0.40
   1   2   5    5.43    0.38
   1   2   5    5.81    0.44
   1   2   5    5.85    0.40
   1   2   5    5.10    0.40
  -2  -2  -5    0.79    0.12
   2   2   5    0.32    0.10
   2   2   5    0.41    0.08
   2   2   5    0.29    0.10
  -3  -2  -5    1.87    0.22
   3   2   5    1.88    0.21
   3   2   5    2.23    0.23
   4   2   5    4.09    0.34
   4   2   5    3.71    0.35
   5   2   5    0.09    0.11
   5   2   5    0.03    0.11
  -9   3   5    0.99    0.25
  -8   3   5   22.41    1.52
  -7   3   5   33.79    2.18
   6  -3  -5    5.75    0.46
  -6   3   5    5.53    0.47
  -6   3   5    6.03    0.48
   5  -3  -5    2.28    0.21
  -5   3   5    1.76    0.20
  -5   3   5    1.71    0.22
  -5   3   5    1.47    0.19
   4  -3  -5    0.17    0.07
  -4   3   5    0.21    0.07
  -4   3   5    0.27    0.10
  -4   3   5    0.19    0.08
   3  -3  -5    4.19    0.30
  -3   3   5    3.85    0.32
  -3   3   5    3.90    0.30
  -3   3   5    3.79    0.30
   2  -3  -5   11.18    0.69
  -2   3   5   10.97    0.71
  -2   3   5    9.41    0.69
  -2   3   5   10.72    0.68
  -2   3   5   10.58    0.70
   1  -3  -5   18.26    1.19
  -1   3   5   19.31    1.22
  -1   3   5   19.30    1.21
  -1   3   5   19.44    1.21
  -1   3   5   18.50    1.18
   0  -3  -5    1.53    0.16
   0   3   5    1.60    0.17
   0   3   5    1.96    0.20
   0   3   5    1.63    0.15
   0   3   5    1.67    0.17
  -1  -3  -5    0.50    0.10
   1   3   5    0.39    0.14
   1   3   5    0.41    0.08
   1   3   5    0.53    0.12
   1   3   5    0.52    0.11
  -2  -3  -5   45.37    2.85
   2   3   5   47.17    2.83
   2   3   5   47.05    2.83
   2   3   5   43.20    2.85
   3   3   5   19.73    1.27
   3   3   5   19.73    1.30
   3   3   5   19.35    1.26
   4   3   5    3.71    0.34
   4   3   5    4.20    0.38
   4   3   5    4.37    0.35
   5   3   5    0.73    0.16
   5   3   5    0.73    0.19
  -9   4   5    3.82    0.41
  -8   4   5   28.23    1.88
  -7   4   5   26.30    1.74
   6  -4  -5    0.79    0.14
  -6   4   5    0.53    0.13
  -6   4   5    0.32    0.14
   5  -4  -5    0.09    0.07
  -5   4   5   -0.01    0.06
  -5   4   5   -0.04    0.08
  -5   4   5   -0.05    0.07
   4  -4  -5   24.75    1.48
  -4   4   5   22.17    1.51
  -4   4   5   21.47    1.50
  -4   4   5   24.71    1.49
   3  -4  -5    0.06    0.06
  -3   4   5    0.08    0.08
  -3   4   5    0.10    0.06
  -3   4   5    0.05    0.05
  -3   4   5    0.01    0.07
   2  -4  -5    5.26    0.38
  -2   4   5    5.34    0.41
  -2   4   5    5.53    0.42
  -2   4   5    5.65    0.41
  -2   4   5    5.45    0.38
   1  -4  -5   28.82    1.77
  -1   4   5   26.09    1.80
  -1   4   5   30.28    1.79
  -1   4   5   27.72    1.77
  -1   4   5   29.31    1.80
   0  -4  -5    2.31    0.22
   0   4   5    2.50    0.25
   0   4   5    2.76    0.29
   0   4   5    3.19    0.26
   0   4   5    2.98    0.24
   1   4   5   13.76    0.88
   1   4   5   13.46    0.91
   1   4   5   12.86    0.88
   2   4   5    5.65    0.45
   2   4   5    6.23    0.48
   2   4   5    6.11    0.44
   3   4   5    3.17    0.34
   3   4   5    4.37    0.34
   4   4   5    1.48    0.21
   4   4   5    0.90    0.20
  -9   5   5    1.86    0.31
  -8   5   5   -0.16    0.13
  -7   5   5    8.78    0.70
  -6   5   5    0.23    0.12
  -6   5   5    0.18    0.10
  -6   5   5    0.26    0.13
   5  -5  -5   16.94    1.06
  -5   5   5   14.09    1.02
  -5   5   5   14.84    0.98
  -5   5   5   13.79    1.00
   4  -5  -5   40.80    2.32
  -4   5   5   37.46    2.32
  -4   5   5   33.83    2.35
  -4   5   5   36.95    2.37
   3  -5  -5    8.24    0.53
  -3   5   5    7.75    0.57
  -3   5   5    7.39    0.57
  -3   5   5    7.95    0.55
  -3   5   5    7.44    0.53
   2  -5  -5    3.23    0.25
  -2   5   5    3.86    0.30
  -2   5   5    3.35    0.29
  -2   5   5    3.14    0.26
  -2   5   5    2.78    0.28
  -1   5   5    1.57    0.22
  -1   5   5    1.35    0.18
  -1   5   5    1.39    0.19
  -1   5   5    1.21    0.16
   0   5   5    1.22    0.18
   0   5   5    1.05    0.15
   0   5   5    1.19    0.16
   1   5   5    1.53    0.19
   1   5   5    1.40    0.18
   1   5   5    1.25    0.20
   2   5   5    1.71    0.25
   2   5   5    2.06    0.25
   3   5   5    0.48    0.14
   3   5   5    0.63    0.18
  -9   6   5    0.79    0.23
  -8   6   5   -0.07    0.13
  -7   6   5    7.93    0.61
  -7   6   5    7.05    0.62
  -6   6   5    2.46    0.30
  -6   6   5    2.98    0.34
  -5   6   5    2.02    0.20
  -5   6   5    2.64    0.27
  -5   6   5    1.85    0.26
  -4   6   5    0.22    0.11
  -4   6   5    0.11    0.12
  -4   6   5    0.32    0.09
  -4   6   5    0.21    0.09
  -3   6   5    2.00    0.24
  -3   6   5    1.69    0.23
  -3   6   5    1.60    0.19
  -3   6   5    1.43    0.20
  -2   6   5    2.10    0.26
  -2   6   5    2.07    0.21
  -2   6   5    2.66    0.26
  -1   6   5    0.05    0.10
  -1   6   5    0.04    0.08
  -1   6   5    0.10    0.10
   0   6   5    4.89    0.41
   0   6   5    4.42    0.37
   0   6   5    4.34    0.37
   1   6   5   12.80    0.93
   1   6   5   13.71    0.92
  -9   7   5    0.36    0.20
  -8   7   5    2.98    0.40
  -7   7   5   10.84    0.80
  -7   7   5    9.38    0.76
  -6   7   5    0.47    0.16
  -6   7   5    0.64    0.19
  -5   7   5   13.56    0.98
  -5   7   5   14.08    0.98
  -4   7   5    8.33    0.61
  -4   7   5    7.44    0.59
  -4   7   5    7.49    0.56
  -3   7   5    1.88    0.21
  -3   7   5    2.63    0.26
  -3   7   5    1.95    0.27
  -2   7   5    2.93    0.31
  -2   7   5    3.27    0.31
  -2   7   5    3.05    0.28
  -1   7   5    0.91    0.17
  -1   7   5    1.02    0.20
   0   7   5    6.40    0.49
   0   7   5    5.60    0.50
  -8   8   5    2.12    0.34
  -7   8   5    2.04    0.32
  -7   8   5    1.95    0.30
  -6   8   5    2.99    0.37
  -6   8   5    2.75    0.35
  -5   8   5    8.84    0.70
  -5   8   5    8.97    0.70
  -4   8   5    2.08    0.25
  -4   8   5    2.22    0.30
  -4   8   5    1.87    0.27
  -3   8   5    7.91    0.61
  -3   8   5    7.46    0.59
  -3   8   5    7.11    0.56
  -2   8   5    0.20    0.14
  -2   8   5    0.00    0.09
  -1   9  -6    0.33    0.10
  -1   9  -6   -0.07    0.14
  -2   9  -6    0.26    0.13
  -2   9  -6    0.10    0.08
  -3   9  -6    5.26    0.44
  -4   9  -6    0.48    0.12
  -5   9  -6    2.61    0.24
  -6   9  -6    0.01    0.06
   1   8  -6    3.35    0.30
   0   8  -6    2.08    0.32
   0   8  -6    2.02    0.20
  -1   8  -6    1.74    0.17
  -1   8  -6    1.38    0.24
  -2   8  -6   12.49    0.86
  -2   8  -6   12.15    0.79
  -3   8  -6    0.62    0.14
  -3   8  -6    0.86    0.10
  -4   8  -6    5.24    0.39
  -5   8  -6    3.30    0.26
  -6   8  -6    3.88    0.30
  -7   8  -6    0.02    0.07
   2   7  -6    0.46    0.21
   1   7  -6    0.61    0.20
   1   7  -6    0.42    0.10
   0   7  -6    3.53    0.27
   0   7  -6    2.95    0.35
  -1   7  -6    0.09    0.06
  -1   7  -6    0.09    0.10
  -2   7  -6   28.32    1.87
  -2   7  -6   30.40    1.81
  -3   7  -6   16.93    0.99
  -3   7  -6   14.66    1.02
  -4   7  -6    4.43    0.33
  -5   7  -6   15.03    0.97
  -6   7  -6    6.80    0.49
  -7   7  -6    0.24    0.09
  -8   7  -6    3.91    0.35
   3   6  -6    2.61    0.40
   2   6  -6    1.47    0.30
   1   6  -6    2.31    0.31
   0   6  -6    4.47    0.39
   0   6  -6    4.25    0.30
   0  -6   6    3.56    0.28
  -1   6  -6    2.21    0.18
  -1   6  -6    2.27    0.24
  -2   6  -6   11.31    0.75
  -2   6  -6   12.01    0.70
   2  -6   6   10.08    0.70
  -3   6  -6    6.30    0.44
  -4   6  -6    1.41    0.15
  -5   6  -6   19.88    1.28
  -6   6  -6    9.64    0.68
  -7   6  -6    0.89    0.17
  -8   6  -6    0.43    0.14
   4   5  -6   19.19    1.42
   3   5  -6   21.83    1.53
   1   5  -6    3.12    0.31
  -1  -5   6    2.57    0.20
  -1  -5   6    2.92    0.21
   0   5  -6   22.72    1.48
  -1   5  -6    8.47    0.63
  -1   5  -6    9.44    0.57
  -2   5  -6    1.34    0.14
  -2   5  -6    1.13    0.09
   2  -5   6    1.12    0.11
  -3   5  -6   18.27    1.16
   3  -5   6   18.28    1.23
  -4   5  -6   39.71    2.40
   4  -5   6   37.68    2.34
  -5   5  -6    5.11    0.40
  -6   5  -6    2.92    0.28
  -7   5  -6    5.63    0.47
  -8   5  -6   11.62    0.87
   4   4  -6    9.79    0.81
   3   4  -6   17.69    1.11
   3   4  -6   13.67    0.92
   2   4  -6    1.12    0.20
  -2  -4   6    1.06    0.10
   1   4  -6    5.71    0.44
  -1  -4   6    4.96    0.35
   0   4  -6    0.92    0.15
  -1   4  -6   45.42    2.74
  -1   4  -6   48.15    2.80
   1  -4   6   43.72    2.74
   1  -4   6   43.93    2.74
  -2   4  -6   30.58    1.90
  -3   4  -6    6.03    0.43
  -4   4  -6    4.34    0.36
   4  -4   6    5.00    0.30
  -5   4  -6   11.21    0.77
  -6   4  -6   31.57    2.03
  -7   4  -6    9.05    0.70
  -8   4  -6    2.02    0.30
   5   3  -6    1.30    0.29
   5   3  -6    1.17    0.14
   4   3  -6    3.62    0.28
   4   3  -6    5.34    0.49
  -4  -3   6    4.01    0.29
   3   3  -6    7.59    0.61
   3   3  -6    6.91    0.48
   3   3  -6    8.07    0.49
  -3  -3   6    8.05    0.50
   2   3  -6    9.39    0.67
  -2  -3   6    8.38    0.56
   1   3  -6   36.64    2.36
  -1  -3   6   38.53    2.31
   0   3  -6   72.61    4.45
  -1   3  -6   56.68    3.77
   1  -3   6   66.46    3.74
  -2   3  -6    2.16    0.18
   2  -3   6    1.57    0.15
  -3   3  -6    0.48    0.09
  -4   3  -6    0.08    0.07
  -5   3  -6   13.08    0.90
  -6   3  -6    1.72    0.25
  -7   3  -6    1.72    0.25
   7  -3   6    1.04    0.20
  -8   3  -6    0.76    0.21
   8  -3   6    0.52    0.17
   6   2  -6    0.11    0.18
   5   2  -6    1.46    0.28
  -5  -2   6    2.04    0.19
   4   2  -6    2.38    0.31
   4   2  -6    2.68    0.20
   4   2  -6    1.99    0.18
  -4  -2   6    2.31    0.20
   3   2  -6    0.41    0.07
   3   2  -6    0.44    0.07
   3   2  -6    0.56    0.14
  -3  -2   6    0.42    0.08
   2   2  -6   38.70    2.49
   2   2  -6   44.39    2.60
  -2  -2   6   41.28    2.53
   1   2  -6    6.11    0.45
  -1  -2   6    5.92    0.41
   0   2  -6   18.75    1.19
   0  -2   6   20.11    1.19
   0  -2   6   17.62    1.14
  -1   2  -6   11.34    0.75
   1  -2   6   11.42    0.72
  -2   2  -6    5.56    0.40
   2  -2   6    5.61    0.39
  -3   2  -6    0.03    0.06
   3  -2   6    0.13    0.07
  -4   2  -6    0.97    0.15
   4  -2   6    0.94    0.15
  -5   2  -6   15.81    1.06
   5  -2   6   15.12    1.04
  -6   2  -6    0.43    0.14
   6  -2   6    0.07    0.11
  -7   2  -6    2.68    0.32
   7  -2   6    2.82    0.33
   6   1  -6   10.31    0.82
  -6  -1   6   10.20    0.71
   5   1  -6   27.49    1.83
  -5  -1   6   27.43    1.73
   4   1  -6   12.53    0.77
   4   1  -6   11.73    0.86
  -4  -1   6   11.78    0.79
   3   1  -6    6.15    0.43
   3   1  -6    6.70    0.50
   3   1  -6    6.80    0.42
  -3  -1   6    6.65    0.49
  -3  -1   6    5.52    0.43
   2   1  -6    4.13    0.29
   2   1  -6    4.71    0.36
   2   1  -6    3.92    0.31
  -2  -1   6    4.66    0.30
  -2  -1   6    4.86    0.32
  -2  -1   6    4.36    0.34
   1   1  -6  165.68   10.18
   1   1  -6  161.96   10.13
  -1  -1   6  171.78   10.17
  -1  -1   6  168.65   10.14
  -1  -1   6  172.62   10.17
   0   1  -6  343.00   21.48
   0   1  -6  365.64   21.56
   0   1  -6  344.25   21.47
   0  -1   6  351.92   21.50
   0  -1   6  378.70   21.47
   0  -1   6  355.44   21.50
  -1   1  -6    2.09    0.18
   1  -1   6    1.77    0.13
   1  -1   6    1.93    0.16
   1  -1   6    1.90    0.17
  -2   1  -6   12.84    0.87
   2  -1   6   14.03    0.86
   2  -1   6   13.01    0.82
  -3   1  -6   24.47    1.61
   3  -1   6   26.02    1.60
  -4   1  -6    4.46    0.38
   4  -1   6    5.11    0.39
  -5   1  -6    0.53    0.15
   5  -1   6    0.28    0.12
  -6   1  -6   27.53    1.67
   6  -1   6   22.27    1.62
  -7   1  -6    0.22    0.15
   7  -1   6    0.02    0.12
  -8   0   6    0.85    0.21
  -7   0   6   14.60    1.00
   6   0  -6    1.15    0.23
   5   0  -6    8.96    0.67
  -5   0   6    7.66    0.60
  -5   0   6    9.82    0.72
   4   0  -6    2.86    0.29
   4   0  -6    3.52    0.24
  -4   0   6    2.96    0.26
  -4   0   6    2.78    0.28
   3   0  -6    0.28    0.06
   3   0  -6    0.21    0.08
  -3   0   6    0.26    0.06
  -3   0   6    0.23    0.07
   2   0  -6    4.11    0.31
  -2   0   6    3.59    0.27
  -2   0   6    3.84    0.30
  -2   0   6    3.95    0.30
   1   0  -6   64.73    3.86
   1   0  -6   67.14    3.81
  -1   0   6   59.47    3.85
  -1   0   6   57.33    3.85
  -1   0   6   66.39    3.83
   0   0  -6   72.14    4.14
   0   0  -6   67.25    4.16
   0   0  -6   75.18    4.12
   0   0   6   67.84    4.14
   0   0   6   64.67    4.16
   0   0   6   61.61    4.12
  -1   0  -6   19.82    1.21
   1   0   6   18.87    1.21
   1   0   6   18.90    1.16
   1   0   6   16.98    1.21
   1   0   6   20.24    1.20
  -2   0  -6   10.24    0.67
   2   0   6   10.00    0.67
   2   0   6    9.35    0.62
  -3   0  -6    3.86    0.33
   3   0   6    4.15    0.33
  -4   0  -6    2.44    0.25
   4   0   6    2.14    0.25
  -5   0  -6    8.40    0.61
   5   0   6    7.20    0.59
  -6   0  -6    1.93    0.27
   6   0   6    1.74    0.26
  -9   1   6    1.57    0.34
  -9   1   6    1.41    0.25
  -8   1   6    0.25    0.14
  -7   1   6    1.11    0.20
   6  -1  -6   12.23    0.92
  -6   1   6   13.61    0.93
  -6   1   6   12.15    0.87
   5  -1  -6    1.77    0.23
  -5   1   6    0.95    0.18
  -5   1   6    1.67    0.20
   4  -1  -6    2.68    0.26
  -4   1   6    3.13    0.27
  -4   1   6    2.55    0.23
  -4   1   6    2.74    0.25
   3  -1  -6   21.01    1.43
  -3   1   6   21.33    1.42
  -3   1   6   23.15    1.40
  -3   1   6   23.84    1.43
   2  -1  -6    9.99    0.70
   2  -1  -6   11.02    0.67
   2  -1  -6   10.36    0.68
  -2   1   6   11.25    0.71
  -2   1   6   10.15    0.68
  -2   1   6   10.84    0.71
   1  -1  -6   47.72    2.96
   1  -1  -6   52.59    2.93
  -1   1   6   47.53    2.96
  -1   1   6   49.49    2.97
  -1   1   6   44.77    2.94
  -1   1   6   46.72    2.93
   0  -1  -6    0.12    0.06
   0  -1  -6    0.07    0.03
   0   1   6    0.07    0.04
   0   1   6    0.19    0.08
   0   1   6    0.36    0.08
   0   1   6    0.16    0.07
  -1  -1  -6    8.02    0.57
   1   1   6    8.52    0.58
   1   1   6    8.31    0.54
   1   1   6    8.57    0.57
  -2  -1  -6    6.95    0.51
   2   1   6    7.53    0.52
   2   1   6    7.21    0.55
   2   1   6    6.84    0.47
   2   1   6    6.86    0.51
  -3  -1  -6    3.69    0.34
   3   1   6    4.50    0.32
   3   1   6    4.53    0.35
   3   1   6    4.15    0.35
  -4  -1  -6    0.28    0.11
   4   1   6    0.18    0.11
   5   1   6    3.65    0.36
   6   1   6    0.94    0.20
  -9   2   6    0.16    0.15
  -8   2   6    5.99    0.52
  -7   2   6    5.11    0.45
   6  -2  -6    1.06    0.19
  -6   2   6    1.31    0.21
  -6   2   6    1.31    0.20
   5  -2  -6    5.21    0.43
  -5   2   6    4.95    0.42
  -5   2   6    5.90    0.45
   4  -2  -6   76.97    4.76
  -4   2   6   79.44    4.74
  -4   2   6   76.73    4.76
  -4   2   6   76.92    4.76
   3  -2  -6   32.78    2.01
  -3   2   6   30.30    1.99
  -3   2   6   35.23    2.02
  -3   2   6   30.26    2.00
   2  -2  -6    4.79    0.37
  -2   2   6    5.14    0.37
  -2   2   6    5.53    0.39
  -2   2   6    5.68    0.40
   1  -2  -6    5.79    0.41
  -1   2   6    6.14    0.39
  -1   2   6    5.77    0.41
  -1   2   6    5.95    0.42
  -1   2   6    5.01    0.41
   0  -2  -6    1.92    0.18
   0   2   6    1.97    0.21
   0   2   6    2.04    0.20
   0   2   6    2.39    0.21
   0   2   6    2.16    0.17
  -1  -2  -6    1.80    0.19
   1   2   6    1.96    0.20
   1   2   6    2.20    0.21
   1   2   6    1.90    0.22
   1   2   6    1.70    0.16
  -2  -2  -6    4.20    0.32
   2   2   6    4.23    0.33
   2   2   6    3.28    0.31
   2   2   6    3.40    0.28
   2   2   6    3.87    0.37
  -3  -2  -6   16.27    1.10
   3   2   6   17.30    1.09
   3   2   6   15.09    1.09
   3   2   6   16.64    1.06
   4   2   6    1.06    0.17
   4   2   6    1.36    0.20
   4   2   6    1.28    0.21
   5   2   6    2.22    0.26
   5   2   6    1.46    0.24
  -9   3   6    0.68    0.21
  -8   3   6   45.62    2.92
  -7   3   6   44.24    2.82
   6  -3  -6    0.48    0.13
  -6   3   6    0.70    0.16
  -6   3   6    0.52    0.14
   5  -3  -6   12.86    0.87
  -5   3   6   12.43    0.87
  -5   3   6   12.77    0.86
  -5   3   6   12.72    0.88
   4  -3  -6    0.13    0.07
  -4   3   6    0.12    0.07
  -4   3   6    0.12    0.07
  -4   3   6    0.23    0.10
   3  -3  -6   19.73    1.21
  -3   3   6   20.18    1.24
  -3   3   6   18.35    1.21
  -3   3   6   17.55    1.21
   2  -3  -6    0.66    0.10
  -2   3   6    0.67    0.10
  -2   3   6    0.72    0.12
  -2   3   6    0.70    0.13
  -2   3   6    0.56    0.11
   1  -3  -6   15.00    1.02
  -1   3   6   15.52    1.04
  -1   3   6   16.43    1.06
  -1   3   6   15.99    1.04
  -1   3   6   16.93    1.01
   0  -3  -6    1.19    0.14
   0   3   6    1.41    0.20
   0   3   6    1.37    0.13
   0   3   6    1.25    0.17
   0   3   6    1.29    0.17
  -1  -3  -6    0.04    0.06
   1   3   6    0.06    0.09
   1   3   6    0.02    0.06
   1   3   6    0.11    0.11
   1   3   6   -0.04    0.09
   2   3   6   63.54    4.25
   2   3   6   75.43    4.24
   2   3   6   67.43    4.22
   3   3   6   24.43    1.58
   3   3   6   22.17    1.61
   3   3   6   27.77    1.60
   4   3   6    1.85    0.22
   4   3   6    1.36    0.24
  -9   4   6    0.02    0.15
  -8   4   6    7.22    0.61
  -7   4   6   14.78    1.06
  -6   4   6    0.04    0.10
  -6   4   6    0.34    0.13
  -6   4   6    0.35    0.14
   5  -4  -6   15.41    1.05
  -5   4   6   16.04    1.07
  -5   4   6   16.94    1.06
  -5   4   6   15.21    1.08
   4  -4  -6    8.44    0.57
  -4   4   6    7.48    0.57
  -4   4   6    7.62    0.57
  -4   4   6    8.71    0.61
   3  -4  -6   28.57    1.74
  -3   4   6   26.92    1.78
  -3   4   6   26.17    1.76
  -3   4   6   27.46    1.73
  -3   4   6   29.66    1.76
   2  -4  -6   24.32    1.63
  -2   4   6   25.41    1.66
  -2   4   6   29.97    1.68
  -2   4   6   23.55    1.65
  -2   4   6   27.66    1.63
   1  -4  -6   29.96    1.95
  -1   4   6   34.83    1.99
  -1   4   6   28.21    1.99
  -1   4   6   30.82    1.95
  -1   4   6   33.64    1.99
   0   4   6    3.27    0.28
   0   4   6    2.83    0.25
   0   4   6    2.85    0.28
   1   4   6    0.10    0.08
   1   4   6    0.11    0.10
   1   4   6    0.10    0.10
   2   4   6    0.21    0.12
   2   4   6    0.30    0.11
   2   4   6    0.14    0.11
   3   4   6    0.25    0.14
   3   4   6    0.45    0.13
  -9   5   6    8.42    0.71
  -8   5   6    0.11    0.15
  -7   5   6    2.39    0.33
  -6   5   6    1.07    0.19
  -6   5   6    0.85    0.20
  -5   5   6   41.61    2.55
  -5   5   6   37.37    2.51
  -5   5   6   40.65    2.49
   4  -5  -6    0.32    0.09
  -4   5   6    0.38    0.13
  -4   5   6    0.20    0.08
  -4   5   6    0.24    0.10
   3  -5  -6    8.65    0.60
  -3   5   6    9.12    0.64
  -3   5   6    8.38    0.63
  -3   5   6    8.35    0.61
  -3   5   6    8.51    0.59
  -1   5   6    1.02    0.17
  -1   5   6    1.18    0.18
  -1   5   6    0.86    0.14
   0   5   6    0.68    0.16
   0   5   6    0.83    0.15
   0   5   6    0.97    0.15
   1   5   6    0.53    0.12
   1   5   6    0.34    0.14
   1   5   6    0.23    0.12
   2   5   6   -0.06    0.08
   2   5   6    0.07    0.13
  -9   6   6    1.00    0.25
  -8   6   6    7.70    0.66
  -7   6   6    1.26    0.22
  -7   6   6    1.65    0.27
  -6   6   6    1.12    0.22
  -6   6   6    0.91    0.19
  -5   6   6    0.38    0.13
  -5   6   6    0.30    0.15
  -4   6   6   21.86    1.50
  -4   6   6   21.78    1.46
  -4   6   6   25.72    1.54
  -3   6   6    6.82    0.55
  -3   6   6    7.09    0.55
  -3   6   6    7.15    0.51
  -2   6   6    4.22    0.40
  -2   6   6    4.58    0.36
  -2   6   6    4.77    0.40
  -1   6   6    1.40    0.19
  -1   6   6    1.16    0.21
  -1   6   6    1.75    0.22
   0   6   6    8.40    0.61
   0   6   6    7.79    0.63
   0   6   6    8.71    0.61
   1   6   6   10.89    0.77
   1   6   6   10.58    0.80
  -8   7   6    0.72    0.23
  -7   7   6   13.25    1.01
  -7   7   6   15.10    1.06
  -6   7   6   -0.10    0.13
  -6   7   6   -0.01    0.12
  -5   7   6    1.02    0.22
  -5   7   6    0.80    0.19
  -4   7   6   23.33    1.54
  -4   7   6   23.24    1.54
  -4   7   6   22.85    1.49
  -3   7   6    6.00    0.46
  -3   7   6    4.83    0.45
  -3   7   6    4.74    0.40
  -2   7   6    0.13    0.09
  -2   7   6    0.12    0.12
  -2   7   6    0.09    0.12
  -1   7   6    1.10    0.22
  -1   7   6    0.93    0.17
  -7   8   6    2.38    0.33
  -7   8   6    2.21    0.34
  -6   8   6   15.39    1.09
  -6   8   6   14.04    1.06
  -5   8   6   11.81    0.86
  -5   8   6   10.86    0.85
  -4   8   6    0.84    0.20
  -4   8   6    0.76    0.20
  -4   8   6    1.03    0.17
  -3   8   6    0.59    0.14
  -3   8   6    0.44    0.17
  -3   8   6    0.45    0.16
  -2   9  -7    2.83    0.33
  -3   9  -7   -0.09    0.10
  -4   9  -7    1.16    0.17
  -5   9  -7    4.54    0.35
  -6   9  -7    0.08    0.07
   1   8  -7    0.50    0.21
   1   8  -7    0.27    0.10
   0   8  -7    8.41    0.62
   0   8  -7   10.18    0.76
  -1   8  -7   10.04    0.82
  -1   8  -7   12.29    0.75
  -2   8  -7    2.26    0.20
  -2   8  -7    2.47    0.27
  -3   8  -7    1.79    0.22
  -4   8  -7    8.78    0.61
  -5   8  -7    3.10    0.26
  -6   8  -7    0.85    0.13
  -7   8  -7    2.35    0.24
   2   7  -7    1.55    0.31
   1   7  -7    1.15    0.25
   1   7  -7    0.83    0.13
   0   7  -7    0.53    0.10
   0   7  -7    0.34    0.15
  -1   7  -7    0.06    0.05
  -1   7  -7    0.14    0.11
  -2   7  -7    2.98    0.29
  -2   7  -7    3.10    0.22
  -3   7  -7    3.58    0.30
  -4   7  -7   10.63    0.71
  -5   7  -7    0.13    0.07
  -6   7  -7    6.88    0.51
  -7   7  -7    2.73    0.27
   3   6  -7   12.42    1.00
   2   6  -7    0.83    0.25
   1   6  -7    4.42    0.43
   0   6  -7    0.09    0.11
   0   6  -7   -0.04    0.04
   0  -6   7    0.03    0.06
  -1   6  -7    5.94    0.39
  -1   6  -7    5.64    0.46
  -2   6  -7   33.23    2.35
  -2   6  -7   41.37    2.28
  -3   6  -7   17.12    1.11
  -4   6  -7   15.91    1.04
  -5   6  -7    8.94    0.63
  -6   6  -7    0.22    0.10
  -7   6  -7    1.14    0.19
  -8   6  -7    0.64    0.17
   4   5  -7    2.51    0.44
   3   5  -7    5.37    0.55
   2   5  -7   21.29    1.47
   1   5  -7    6.71    0.55
  -1  -5   7    6.41    0.43
   0   5  -7    3.46    0.32
   0  -5   7    2.86    0.24
  -1   5  -7    2.25    0.23
  -1   5  -7    2.37    0.16
  -2   5  -7    2.12    0.20
   2  -5   7    2.13    0.17
  -3   5  -7    4.47    0.35
  -4   5  -7   11.56    0.79
  -5   5  -7    7.07    0.52
  -6   5  -7    3.99    0.36
  -7   5  -7   -0.04    0.10
  -8   5  -7    4.69    0.44
   5   4  -7    6.70    0.66
   4   4  -7    0.25    0.19
   3   4  -7    7.13    0.63
  -3  -4   7    7.41    0.48
   2   4  -7   38.67    2.35
  -2  -4   7   34.15    2.21
   1   4  -7   39.66    2.49
  -1  -4   7   38.92    2.41
   0   4  -7    0.19    0.09
   0  -4   7    0.28    0.08
  -1   4  -7   17.58    1.18
   1  -4   7   18.17    1.12
   1  -4   7   18.80    1.12
  -2   4  -7   50.98    3.20
   2  -4   7   52.85    3.16
  -3   4  -7   59.90    3.69
  -4   4  -7    0.08    0.07
  -5   4  -7   33.42    2.13
  -6   4  -7    1.92    0.25
  -7   4  -7    2.58    0.29
   7  -4   7    2.40    0.29
   6   3  -7    1.48    0.33
   5   3  -7   23.45    1.65
   4   3  -7    0.28    0.06
   4   3  -7    0.37    0.19
   3   3  -7   37.02    2.39
  -3  -3   7   36.78    2.27
   2   3  -7    1.70    0.24
  -2  -3   7    1.77    0.16
   1   3  -7   33.75    1.99
  -1  -3   7   28.88    1.92
   0   3  -7    4.06    0.34
   0  -3   7    4.47    0.32
  -1   3  -7    9.70    0.71
   1  -3   7   11.39    0.67
  -2   3  -7    3.17    0.26
   2  -3   7    3.18    0.24
  -3   3  -7   40.99    2.45
   3  -3   7   37.37    2.42
  -4   3  -7   39.51    2.40
   4  -3   7   36.73    2.37
  -5   3  -7    4.22    0.37
   5  -3   7    3.98    0.35
  -6   3  -7    0.61    0.16
   6  -3   7    0.75    0.17
  -7   3  -7    5.67    0.48
   7  -3   7    4.56    0.44
   6   2  -7    6.72    0.65
   5   2  -7    0.10    0.14
  -5  -2   7    0.18    0.09
   4   2  -7    1.73    0.15
   4   2  -7    1.40    0.26
  -4  -2   7    1.54    0.17
   3   2  -7    3.57    0.34
   3   2  -7    3.22    0.22
  -3  -2   7    3.19    0.26
   2   2  -7    3.39    0.22
   1   2  -7    2.96    0.26
   1   2  -7    2.88    0.19
  -1  -2   7    2.58    0.19
  -1  -2   7    3.37    0.24
   0   2  -7   19.01    1.17
   0   2  -7   18.03    1.10
   0  -2   7   17.66    1.12
   0  -2   7   18.05    1.16
  -1   2  -7    0.66    0.10
   1  -2   7    0.50    0.08
  -2   2  -7    5.69    0.42
   2  -2   7    5.58    0.40
  -3   2  -7    4.86    0.39
   3  -2   7    5.53    0.39
   3  -2   7    4.92    0.32
  -4   2  -7    7.14    0.54
   4  -2   7    7.46    0.54
  -5   2  -7    3.53    0.33
   5  -2   7    3.30    0.32
  -6   2  -7    3.04    0.31
   6  -2   7    2.19    0.29
  -7   2  -7    9.61    0.71
   7  -2   7    7.89    0.67
   6   1  -7   23.99    1.69
  -6  -1   7   25.05    1.58
   5   1  -7    0.31    0.16
   4   1  -7   39.45    2.37
   4   1  -7   39.30    2.48
  -4  -1   7   36.99    2.40
   3   1  -7    1.50    0.21
  -3  -1   7    1.69    0.17
   2   1  -7    0.07    0.07
   2   1  -7    0.14    0.04
  -2  -1   7    0.17    0.05
  -2  -1   7    0.08    0.08
  -2  -1   7    0.16    0.07
   1   1  -7   25.18    1.47
   1   1  -7   24.08    1.54
   1   1  -7   23.43    1.48
  -1  -1   7   25.45    1.52
  -1  -1   7   22.15    1.48
  -1  -1   7   24.63    1.52
   0   1  -7   26.16    1.58
   0   1  -7   25.04    1.52
   0   1  -7   24.48    1.54
   0  -1   7   23.18    1.59
   0  -1   7   25.47    1.58
   0  -1   7   25.65    1.54
  -1   1  -7    0.48    0.09
   1  -1   7    0.43    0.05
   1  -1   7    0.43    0.10
   1  -1   7    0.47    0.08
  -2   1  -7    0.23    0.08
   2  -1   7    0.18    0.08
   2  -1   7    0.14    0.03
  -3   1  -7   28.92    1.85
   3  -1   7   30.30    1.84
   3  -1   7   28.36    1.78
  -4   1  -7   25.04    1.65
   4  -1   7   25.79    1.64
  -5   1  -7   17.78    1.19
   5  -1   7   16.87    1.17
  -6   1  -7    4.12    0.40
   6  -1   7    4.23    0.40
  -8   0   7    1.10    0.28
  -7   0   7    8.49    0.63
   6   0  -7   20.86    1.41
  -6   0   7   19.56    1.32
   5   0  -7    0.43    0.15
  -5   0   7    0.46    0.12
   4   0  -7   13.44    0.99
  -4   0   7   14.03    0.95
  -4   0   7   15.66    0.99
   3   0  -7    2.33    0.23
   3   0  -7    2.20    0.17
  -3   0   7    2.23    0.21
  -3   0   7    2.17    0.22
  -3   0   7    2.17    0.18
   2   0  -7   23.25    1.46
   2   0  -7   24.71    1.47
   2   0  -7   25.70    1.52
  -2   0   7   24.16    1.50
  -2   0   7   21.32    1.47
   1   0  -7   11.57    0.72
   1   0  -7   11.37    0.76
  -1   0   7   10.87    0.76
  -1   0   7   11.51    0.73
   0   0  -7  110.63    6.05
   0   0   7   98.54    6.00
   0   0   7   99.10    6.02
   0   0   7   92.36    6.04
   0   0   7   95.78    6.05
  -1   0  -7   28.23    1.94
   1   0   7   31.33    1.89
   1   0   7   31.37    1.96
   1   0   7   33.02    1.94
   1   0   7   31.42    1.96
  -2   0  -7    2.04    0.21
   2   0   7    2.05    0.20
   2   0   7    2.06    0.16
   2   0   7    2.03    0.22
  -3   0  -7    1.67    0.21
   3   0   7    2.18    0.17
   3   0   7    1.58    0.21
  -4   0  -7    1.54    0.22
   4   0   7    1.49    0.22
  -5   0  -7    0.75    0.18
   5   0   7    0.70    0.16
   6   0   7    6.11    0.52
  -8   1   7    0.35    0.15
  -7   1   7    9.49    0.71
   6  -1  -7    0.58    0.16
  -6   1   7    0.76    0.16
   5  -1  -7    6.82    0.55
  -5   1   7    7.38    0.54
   4  -1  -7    9.31    0.70
  -4   1   7   10.32    0.70
  -4   1   7    9.59    0.66
  -4   1   7    9.95    0.69
   3  -1  -7   15.19    1.02
  -3   1   7   15.78    0.99
  -3   1   7   15.86    1.02
  -3   1   7   14.93    1.01
   2  -1  -7    0.55    0.10
  -2   1   7    0.77    0.12
  -2   1   7    0.70    0.10
  -2   1   7    0.73    0.11
   1  -1  -7    0.16    0.06
   1  -1  -7    0.12    0.06
  -1   1   7    0.04    0.03
  -1   1   7    0.08    0.06
  -1   1   7    0.05    0.08
  -1   1   7    0.32    0.08
   0  -1  -7   13.28    0.85
   0   1   7   12.87    0.81
   0   1   7   12.43    0.86
   0   1   7   12.73    0.84
  -1  -1  -7    9.57    0.68
   1   1   7    9.97    0.70
   1   1   7    9.92    0.68
   1   1   7   10.31    0.64
   1   1   7   10.27    0.71
  -2  -1  -7   18.98    1.30
   2   1   7   19.69    1.30
   2   1   7   22.26    1.32
   2   1   7   19.66    1.25
  -3  -1  -7    7.20    0.56
   3   1   7    8.37    0.58
   3   1   7    7.88    0.52
   3   1   7    6.95    0.56
  -4  -1  -7   -0.03    0.08
   4   1   7    0.10    0.12
   4   1   7   -0.04    0.10
   4   1   7   -0.01    0.06
   5   1   7    0.03    0.12
   5   1   7   -0.01    0.12
   5   1   7   -0.05    0.08
  -9   2   7    2.94    0.37
  -8   2   7    0.26    0.15
  -7   2   7    5.21    0.46
   6  -2  -7    0.27    0.12
  -6   2   7    0.41    0.14
   5  -2  -7    3.34    0.32
  -5   2   7    3.88    0.34
  -5   2   7    3.42    0.32
  -5   2   7    3.26    0.29
   4  -2  -7    0.58    0.12
  -4   2   7    0.40    0.11
  -4   2   7    0.53    0.11
  -4   2   7    0.57    0.11
   3  -2  -7    1.96    0.20
  -3   2   7    1.91    0.18
  -3   2   7    1.70    0.21
  -3   2   7    1.86    0.19
   2  -2  -7    0.48    0.09
  -2   2   7    0.51    0.10
  -2   2   7    0.61    0.12
  -2   2   7    0.53    0.10
   1  -2  -7   43.34    2.64
  -1   2   7   41.30    2.60
  -1   2   7   42.07    2.65
  -1   2   7   43.01    2.64
  -1   2   7   43.34    2.65
   0  -2  -7   46.08    2.96
   0   2   7   46.25    2.97
   0   2   7   48.81    2.97
   0   2   7   48.89    3.00
   0   2   7   49.64    2.93
  -1  -2  -7    0.39    0.10
   1   2   7    0.42    0.13
   1   2   7    0.36    0.12
   1   2   7    0.55    0.13
   1   2   7    0.47    0.08
  -2  -2  -7    0.28    0.10
   2   2   7    0.10    0.10
   2   2   7    0.09    0.06
   2   2   7   -0.01    0.11
   3   2   7    0.08    0.12
   3   2   7    0.42    0.14
   3   2   7    0.32    0.10
   4   2   7    0.75    0.14
   4   2   7    0.47    0.16
   4   2   7    0.93    0.19
  -9   3   7    2.30    0.34
  -8   3   7    1.05    0.22
  -7   3   7    1.72    0.26
  -6   3   7    0.12    0.12
   5  -3  -7    3.76    0.34
  -5   3   7    4.13    0.33
  -5   3   7    3.75    0.35
  -5   3   7    3.64    0.33
   4  -3  -7    0.10    0.07
  -4   3   7    0.15    0.08
  -4   3   7    0.09    0.07
  -4   3   7    0.13    0.10
   3  -3  -7    9.72    0.67
  -3   3   7    9.74    0.67
  -3   3   7   10.51    0.70
  -3   3   7    9.44    0.67
   2  -3  -7    0.24    0.07
  -2   3   7    0.51    0.13
  -2   3   7    0.44    0.10
  -2   3   7    0.41    0.08
  -2   3   7    0.43    0.10
   1  -3  -7    3.25    0.29
  -1   3   7    3.64    0.32
  -1   3   7    3.86    0.32
  -1   3   7    3.97    0.32
  -1   3   7    3.87    0.28
   0  -3  -7    0.44    0.10
   0   3   7    0.47    0.09
   0   3   7    0.28    0.11
   0   3   7    0.54    0.13
   0   3   7    0.44    0.13
   1   3   7   30.30    1.79
   1   3   7   26.96    1.75
   1   3   7   26.82    1.79
   2   3   7   10.08    0.69
   2   3   7    9.68    0.66
   2   3   7    9.41    0.71
   3   3   7    2.20    0.27
   3   3   7    2.48    0.30
   3   3   7    2.67    0.25
   4   3   7    0.24    0.15
   4   3   7    0.62    0.14
  -9   4   7    0.26    0.17
  -8   4   7    1.10    0.24
  -7   4   7    0.83    0.19
  -6   4   7    3.22    0.31
  -6   4   7    3.08    0.33
  -5   4   7    7.30    0.57
  -5   4   7    8.03    0.58
  -5   4   7    8.37    0.62
   4  -4  -7   19.99    1.29
  -4   4   7   20.94    1.33
  -4   4   7   19.88    1.29
  -4   4   7   18.71    1.29
   3  -4  -7    0.00    0.06
  -3   4   7   -0.06    0.10
  -3   4   7   -0.03    0.05
  -3   4   7   -0.03    0.07
  -3   4   7    0.07    0.08
   2  -4  -7   18.18    1.29
  -2   4   7   21.94    1.34
  -2   4   7   20.29    1.33
  -2   4   7   20.08    1.33
  -2   4   7   21.83    1.29
  -1   4   7    1.63    0.22
  -1   4   7    1.56    0.22
  -1   4   7    1.79    0.17
   0   4   7    0.04    0.10
   0   4   7    0.12    0.11
   0   4   7    0.43    0.10
   1   4   7    0.58    0.15
   1   4   7    0.67    0.13
   1   4   7    0.74    0.15
   2   4   7    1.51    0.20
   2   4   7    1.20    0.22
   2   4   7    1.51    0.21
   3   4   7    0.30    0.16
   3   4   7    0.26    0.12
  -9   5   7    0.59    0.20
  -8   5   7    1.45    0.28
  -7   5   7    1.01    0.22
  -7   5   7    0.76    0.18
  -6   5   7   21.90    1.37
  -6   5   7   18.19    1.32
  -5   5   7    3.50    0.34
  -5   5   7    3.79    0.37
  -4   5   7    0.72    0.18
  -4   5   7    0.90    0.17
  -3   5   7   30.47    2.10
  -3   5   7   34.29    2.07
  -3   5   7   34.37    2.12
  -2   5   7    1.20    0.19
  -1   5   7   -0.16    0.05
  -1   5   7   -0.05    0.10
  -1   5   7   -0.03    0.09
   0   5   7   -0.01    0.10
   0   5   7   -0.07    0.10
   0   5   7   -0.01    0.07
   1   5   7    1.85    0.24
   1   5   7    1.57    0.24
   1   5   7    2.05    0.23
  -8   6   7    0.42    0.19
  -7   6   7    1.73    0.30
  -7   6   7    1.96    0.28
  -6   6   7   -0.03    0.12
  -6   6   7    0.04    0.11
  -5   6   7    1.44    0.24
  -5   6   7    1.27    0.22
  -4   6   7    7.24    0.56
  -4   6   7    9.41    0.65
  -4   6   7    7.43    0.60
  -3   6   7    0.10    0.12
  -3   6   7    0.22    0.14
  -3   6   7    0.05    0.08
  -2   6   7   -0.01    0.11
  -2   6   7    0.12    0.13
  -2   6   7   -0.04    0.07
  -1   6   7    0.27    0.14
  -1   6   7    0.16    0.09
  -1   6   7    0.20    0.12
   0   6   7    2.80    0.35
   0   6   7    3.24    0.42
   0   6   7    2.82    0.28
  -8   7   7    3.73    0.45
  -8   7   7    2.62    0.36
  -7   7   7   -0.21    0.14
  -7   7   7   -0.06    0.11
  -6   7   7   14.53    1.04
  -6   7   7   13.54    1.02
  -5   7   7    1.45    0.25
  -5   7   7    1.49    0.26
  -4   7   7    4.12    0.35
  -4   7   7    4.64    0.42
  -4   7   7    3.49    0.38
  -3   7   7   -0.11    0.12
  -3   7   7    0.15    0.09
  -3   7   7   -0.04    0.12
  -2   7   7    0.47    0.13
  -2   7   7    0.29    0.15
  -2   7   7    0.11    0.13
  -5   8   7    1.66    0.29
  -5   8   7    1.96    0.31
  -2   9  -8    2.04    0.28
  -3   9  -8    0.05    0.11
  -4   9  -8   -0.07    0.09
  -5   9  -8    0.63    0.13
   0   8  -8    8.80    0.73
  -1   8  -8    3.33    0.36
  -2   8  -8   16.25    1.12
  -3   8  -8   14.36    0.98
  -4   8  -8    0.63    0.13
  -5   8  -8    0.15    0.08
  -6   8  -8    2.11    0.22
   2   7  -8   20.80    1.50
   1   7  -8    4.21    0.33
   1   7  -8    4.57    0.46
   0   7  -8    0.03    0.06
   0   7  -8   -0.07    0.11
  -1   7  -8    1.13    0.12
  -1   7  -8    0.89    0.19
  -2   7  -8   19.66    1.30
  -3   7  -8    0.02    0.07
  -4   7  -8    2.21    0.22
  -5   7  -8    9.13    0.64
  -6   7  -8    2.77    0.27
  -7   7  -8    0.83    0.17
   3   6  -8    3.10    0.44
   2   6  -8    5.24    0.52
   1   6  -8    0.44    0.17
   0   6  -8    4.84    0.34
   0   6  -8    5.15    0.45
   0  -6   8    4.70    0.35
  -1   6  -8    2.08    0.24
  -1   6  -8    1.98    0.15
  -2   6  -8   15.63    1.02
   2  -6   8   14.91    0.94
  -3   6  -8    3.46    0.30
  -4   6  -8    1.41    0.17
  -5   6  -8    0.41    0.11
  -6   6  -8    0.54    0.14
  -7   6  -8    5.39    0.46
   4   5  -8    8.19    0.75
   3   5  -8    6.05    0.58
   2   5  -8    4.88    0.48
   1   5  -8    1.52    0.24
  -1  -5   8    1.39    0.16
   0   5  -8    0.57    0.14
   0  -5   8    0.50    0.11
  -1   5  -8    0.55    0.05
  -1   5  -8    0.46    0.12
   2  -5   8    1.11    0.12
  -3   5  -8    6.03    0.47
   3  -5   8    6.67    0.44
  -4   5  -8    8.58    0.61
  -5   5  -8    4.19    0.36
  -6   5  -8    1.35    0.21
  -7   5  -8    0.60    0.17
   5   4  -8   44.49    2.96
   4   4  -8   38.52    2.56
   3   4  -8   43.84    2.71
  -3  -4   8   39.80    2.55
   2   4  -8   14.68    1.03
  -2  -4   8   14.03    0.91
   1   4  -8    1.98    0.25
  -1  -4   8    2.29    0.20
   0   4  -8    1.85    0.22
   0  -4   8    1.97    0.19
  -1   4  -8   18.53    1.19
   1  -4   8   18.01    1.12
  -2   4  -8    1.42    0.16
   2  -4   8    1.01    0.12
  -3   4  -8    1.88    0.19
   3  -4   8    1.64    0.17
  -4   4  -8   27.03    1.74
   4  -4   8   27.19    1.71
  -5   4  -8   27.13    1.76
   5  -4   8   27.55    1.74
  -6   4  -8    7.65    0.59
   6  -4   8    6.97    0.56
  -7   4  -8    3.85    0.38
   7  -4   8    3.68    0.36
   6   3  -8   11.18    0.94
   5   3  -8   25.27    1.77
   4   3  -8   21.22    1.53
  -4  -3   8   22.86    1.40
   3   3  -8   16.63    1.17
  -3  -3   8   16.26    1.05
   2   3  -8   10.83    0.81
  -2  -3   8   11.29    0.73
   1   3  -8    6.44    0.51
  -1  -3   8    6.56    0.46
   0   3  -8    3.32    0.28
   0  -3   8    3.38    0.27
   0  -3   8    2.70    0.20
  -1   3  -8   46.75    2.89
   1  -3   8   46.48    2.84
   2  -3   8    0.12    0.07
  -3   3  -8    1.88    0.20
   3  -3   8    1.68    0.19
  -4   3  -8   36.23    2.33
   4  -3   8   36.39    2.24
   4  -3   8   38.21    2.31
  -5   3  -8   26.13    1.66
   5  -3   8   24.65    1.63
  -6   3  -8    0.22    0.13
   6  -3   8    0.03    0.12
  -7   3  -8    0.09    0.13
   7  -3   8    0.12    0.13
   6   2  -8   11.93    0.97
   5   2  -8    5.00    0.50
  -5  -2   8    4.84    0.38
   4   2  -8   15.92    1.11
  -4  -2   8   15.03    1.01
   3   2  -8    0.03    0.03
   3   2  -8    0.06    0.10
  -3  -2   8    0.03    0.07
   2   2  -8   27.04    1.71
   2   2  -8   23.51    1.60
  -2  -2   8   29.19    1.66
   1   2  -8    0.26    0.09
   1   2  -8    0.16    0.04
  -1  -2   8    0.25    0.05
  -1  -2   8    0.33    0.10
   0   2  -8    1.50    0.11
   0   2  -8    1.64    0.18
   0  -2   8    1.54    0.13
   0  -2   8    1.51    0.19
  -1   2  -8    9.18    0.60
   1  -2   8    7.98    0.56
  -2   2  -8    0.17    0.08
   2  -2   8    0.20    0.08
  -3   2  -8    6.75    0.51
   3  -2   8    6.79    0.43
   3  -2   8    6.78    0.49
  -4   2  -8   -0.01    0.08
   4  -2   8    0.01    0.03
   4  -2   8    0.08    0.10
  -5   2  -8    2.30    0.27
   5  -2   8    1.75    0.25
  -6   2  -8    1.94    0.27
   6  -2   8    1.35    0.24
   6   1  -8    1.13    0.26
  -6  -1   8    1.19    0.19
   5   1  -8    5.61    0.52
  -5  -1   8    5.97    0.45
   4   1  -8   24.04    1.62
   4   1  -8   23.96    1.50
  -4  -1   8   24.90    1.55
   3   1  -8    7.07    0.50
   3   1  -8    8.65    0.61
  -3  -1   8    8.56    0.56
   2   1  -8    0.64    0.13
  -2  -1   8    0.62    0.08
  -2  -1   8    0.60    0.11
   1   1  -8   22.32    1.32
   1   1  -8   19.79    1.37
  -1  -1   8   21.69    1.36
  -1  -1   8   21.16    1.32
   0   1  -8    7.84    0.53
   0   1  -8    7.20    0.46
   0  -1   8    7.61    0.53
   0  -1   8    6.79    0.48
  -1   1  -8   35.85    2.31
   1  -1   8   37.42    2.29
   1  -1   8   40.63    2.34
   1  -1   8   35.01    2.25
  -2   1  -8    2.37    0.23
   2  -1   8    2.10    0.16
   2  -1   8    2.71    0.23
  -3   1  -8   13.44    0.92
   3  -1   8   13.80    0.85
   3  -1   8   13.48    0.91
  -4   1  -8    2.21    0.25
   4  -1   8    2.23    0.18
   4  -1   8    2.16    0.26
  -5   1  -8    0.10    0.12
   5  -1   8    0.11    0.12
  -6   1  -8    2.59    0.31
   6  -1   8    2.28    0.31
  -7   0   8   16.33    1.12
   6   0  -8    5.36    0.51
  -6   0   8    5.65    0.45
   5   0  -8    0.75    0.18
  -5   0   8    0.83    0.16
   4   0  -8   -0.11    0.07
  -4   0   8   -0.05    0.08
   3   0  -8   20.22    1.31
  -3   0   8   20.34    1.28
  -3   0   8   19.04    1.28
  -3   0   8   19.56    1.24
   2   0  -8    1.65    0.19
  -2   0   8    1.78    0.19
  -2   0   8    1.64    0.16
  -2   0   8    2.07    0.20
   1   0  -8  131.57    8.41
   1   0  -8  147.83    8.35
  -1   0   8  133.88    8.37
  -1   0   8  142.84    8.41
  -1   0   8  135.64    8.41
   0   0  -8   35.46    2.19
   0   0  -8   35.17    2.25
   0   0   8   38.28    2.19
   0   0   8   36.10    2.26
   0   0   8   33.72    2.28
   0   0   8   36.75    2.23
  -1   0  -8    7.98    0.56
   1   0   8    8.12    0.55
   1   0   8    7.86    0.51
   1   0   8    7.89    0.58
  -2   0  -8    0.12    0.08
   2   0   8    0.07    0.08
   2   0   8    0.08    0.04
   2   0   8    0.16    0.11
  -3   0  -8   -0.09    0.07
   3   0   8    0.05    0.05
   3   0   8    0.00    0.09
   3   0   8    0.20    0.12
  -4   0  -8   10.88    0.79
   4   0   8   10.80    0.72
   4   0   8   11.28    0.79
  -5   0  -8    3.99    0.56
   5   0   8    3.88    0.31
   5   0   8    3.66    0.36
  -8   1   8   -0.05    0.12
  -7   1   8    1.31    0.22
   6  -1  -8    0.19    0.12
  -6   1   8    0.23    0.12
   5  -1  -8    5.62    0.48
  -5   1   8    5.55    0.46
  -5   1   8    5.79    0.48
   4  -1  -8   13.80    0.97
  -4   1   8   14.54    0.92
  -4   1   8   13.86    0.95
   3  -1  -8    7.99    0.60
  -3   1   8    8.50    0.57
  -3   1   8    8.45    0.60
   2  -1  -8    3.45    0.30
  -2   1   8    3.70    0.31
  -2   1   8    3.84    0.29
   1  -1  -8    9.05    0.62
  -1   1   8    8.52    0.60
  -1   1   8    9.08    0.63
   0  -1  -8    8.87    0.62
   0   1   8    8.16    0.61
   0   1   8    9.15    0.58
   0   1   8    9.15    0.65
   0   1   8    9.85    0.65
  -1  -1  -8    4.39    0.37
   1   1   8    5.17    0.41
   1   1   8    4.70    0.33
   1   1   8    5.05    0.38
  -2  -1  -8    1.53    0.19
   2   1   8    1.68    0.22
   2   1   8    1.61    0.23
   2   1   8    1.76    0.15
  -3  -1  -8    0.73    0.15
   3   1   8    0.85    0.18
   3   1   8    0.98    0.12
   3   1   8    0.50    0.15
   4   1   8    0.93    0.19
   4   1   8    1.12    0.22
   4   1   8    1.35    0.17
   5   1   8    2.03    0.21
   5   1   8    2.03    0.28
   5   1   8    1.68    0.27
  -8   2   8    2.87    0.36
  -7   2   8   10.51    0.79
  -6   2   8    2.50    0.30
   5  -2  -8    1.08    0.19
  -5   2   8    1.02    0.18
  -5   2   8    0.95    0.16
  -5   2   8    0.84    0.17
   4  -2  -8    0.76    0.15
  -4   2   8    0.89    0.17
  -4   2   8    0.97    0.16
  -4   2   8    0.87    0.14
   3  -2  -8    0.95    0.15
  -3   2   8    0.88    0.14
  -3   2   8    0.90    0.14
  -3   2   8    0.96    0.16
   2  -2  -8    2.45    0.24
  -2   2   8    2.69    0.27
  -2   2   8    2.71    0.24
  -2   2   8    2.99    0.26
   1  -2  -8   19.17    1.29
  -1   2   8   19.81    1.25
  -1   2   8   21.66    1.32
  -1   2   8   19.31    1.29
  -1   2   8   20.72    1.32
   0  -2  -8    0.48    0.10
   0   2   8    0.58    0.09
   0   2   8    0.35    0.13
   0   2   8    0.43    0.12
  -1  -2  -8   11.57    0.81
   1   2   8   12.03    0.77
   1   2   8   12.40    0.83
   1   2   8   11.54    0.82
   2   2   8   24.22    1.53
   2   2   8   23.69    1.47
   2   2   8   22.10    1.52
   3   2   8   15.12    0.98
   3   2   8   12.18    0.96
   3   2   8   14.36    0.92
   4   2   8    0.28    0.16
   4   2   8    0.08    0.13
   4   2   8    0.03    0.08
  -9   3   8    0.08    0.16
  -8   3   8   10.35    0.81
  -7   3   8   18.94    1.31
  -6   3   8    1.32    0.24
  -6   3   8    1.71    0.22
  -5   3   8    1.22    0.18
  -5   3   8    1.29    0.21
   4  -3  -8    7.92    0.62
  -4   3   8    9.51    0.66
  -4   3   8    9.12    0.63
  -4   3   8    8.81    0.63
   3  -3  -8    0.29    0.09
  -3   3   8    0.31    0.12
  -3   3   8    0.18    0.09
  -3   3   8    0.43    0.11
   2  -3  -8    0.96    0.15
  -2   3   8    1.44    0.20
  -2   3   8    1.63    0.15
  -2   3   8    1.31    0.19
  -2   3   8    1.36    0.18
   1  -3  -8    3.85    0.33
  -1   3   8    4.20    0.31
  -1   3   8    4.64    0.37
  -1   3   8    4.64    0.38
  -1   3   8    3.64    0.34
   0   3   8    4.14    0.36
   0   3   8    3.85    0.35
   0   3   8    4.31    0.31
   1   3   8    0.01    0.07
   1   3   8    0.04    0.10
   1   3   8   -0.07    0.11
   2   3   8   20.35    1.52
   2   3   8   23.34    1.47
   2   3   8   25.57    1.52
   3   3   8    0.70    0.19
   3   3   8    0.70    0.13
   3   3   8    0.56    0.18
  -9   4   8    0.31    0.19
  -8   4   8    5.72    0.53
  -7   4   8    0.53    0.18
  -6   4   8    0.62    0.18
  -6   4   8    0.54    0.14
  -5   4   8   15.45    1.11
  -5   4   8   18.10    1.17
  -4   4   8   33.76    2.32
  -4   4   8   40.57    2.38
  -3   4   8    2.86    0.29
  -3   4   8    2.75    0.27
  -2   4   8    0.68    0.15
  -2   4   8    0.40    0.15
  -2   4   8    0.65    0.11
  -1   4   8   -0.06    0.10
  -1   4   8   -0.04    0.06
  -1   4   8    0.01    0.09
   0   4   8   13.05    0.87
   0   4   8   12.72    0.83
   0   4   8   11.34    0.87
   1   4   8    0.19    0.09
   1   4   8    0.26    0.13
   1   4   8    0.13    0.12
   2   4   8    2.71    0.27
   2   4   8    3.07    0.31
   2   4   8    3.02    0.36
  -8   5   8    5.09    0.50
  -7   5   8    3.87    0.37
  -7   5   8    3.83    0.41
  -6   5   8   15.27    1.08
  -6   5   8   14.83    1.05
  -5   5   8    0.24    0.12
  -5   5   8    0.37    0.15
  -4   5   8    4.74    0.42
  -4   5   8    5.14    0.45
  -3   5   8    0.39    0.10
  -3   5   8    0.45    0.15
  -3   5   8    0.43    0.14
  -2   5   8    3.15    0.32
  -2   5   8    2.88    0.30
  -2   5   8    2.90    0.26
  -1   5   8    0.46    0.15
  -1   5   8    0.49    0.12
  -1   5   8    0.63    0.16
   0   5   8    1.40    0.19
   0   5   8    1.48    0.22
   0   5   8    1.29    0.23
   1   5   8    0.08    0.09
   1   5   8    0.12    0.12
   1   5   8   -0.02    0.11
  -8   6   8   -0.12    0.14
  -7   6   8    3.66    0.41
  -7   6   8    4.16    0.40
  -6   6   8    0.39    0.18
  -6   6   8    0.60    0.17
  -5   6   8    0.61    0.18
  -5   6   8    0.19    0.12
  -4   6   8    0.01    0.10
  -4   6   8    0.13    0.14
  -3   6   8    0.02    0.08
  -3   6   8    0.23    0.15
  -3   6   8   -0.05    0.10
  -2   6   8    1.27    0.18
  -2   6   8    1.18    0.22
  -2   6   8    1.17    0.22
  -1   6   8    8.99    0.72
  -1   6   8    9.56    0.67
  -1   6   8    9.60    0.71
  -7   7   8    2.45    0.34
  -7   7   8    2.75    0.38
  -6   7   8    2.27    0.32
  -6   7   8    2.35    0.35
  -5   7   8   33.26    2.25
  -5   7   8   35.56    2.26
  -4   7   8    7.21    0.63
  -4   7   8    7.68    0.58
  -4   7   8    8.84    0.66
  -3   7   8   10.20    0.75
  -3   7   8   11.49    0.82
  -3   7   8   10.43    0.80
   0   8  -9    1.19    0.25
  -1   8  -9    0.13    0.14
  -2   8  -9    5.86    0.50
  -3   8  -9   13.43    0.94
  -5   8  -9    1.25    0.18
   2   7  -9    5.01    0.54
   1   7  -9    6.26    0.58
   0   7  -9    6.99    0.61
  -1   7  -9   -0.06    0.10
   1  -7   9    0.10    0.08
  -2   7  -9    0.38    0.13
  -3   7  -9    1.24    0.19
  -4   7  -9    1.33    0.18
  -5   7  -9    5.47    0.44
  -6   7  -9    4.54    0.39
   3   6  -9    3.19    0.45
   2   6  -9    3.29    0.44
   1   6  -9    0.84    0.22
   0   6  -9    1.18    0.22
   0   6  -9    1.23    0.12
   0  -6   9    1.32    0.16
  -1   6  -9    9.16    0.69
  -2   6  -9    3.72    0.34
  -3   6  -9    0.69    0.13
   3  -6   9    0.68    0.10
  -4   6  -9    1.15    0.17
   4  -6   9    0.97    0.14
  -5   6  -9    1.17    0.18
  -6   6  -9    0.81    0.17
  -7   6  -9    0.04    0.10
   7  -6   9    0.03    0.11
   4   5  -9    0.49    0.23
   3   5  -9    0.87    0.24
   2   5  -9    1.07    0.25
   1   5  -9    3.76    0.38
  -1  -5   9    3.39    0.28
   0   5  -9    3.73    0.35
   0  -5   9    3.22    0.29
  -1   5  -9    2.12    0.24
  -2   5  -9   27.27    1.79
   2  -5   9   28.73    1.72
  -3   5  -9    2.74    0.28
   3  -5   9    3.00    0.24
  -4   5  -9    2.13    0.24
   4  -5   9    2.28    0.22
  -5   5  -9    7.65    0.59
   5  -5   9    8.12    0.58
  -6   5  -9    2.04    0.25
   6  -5   9    2.19    0.26
  -7   5  -9    1.91    0.27
   7  -5   9    1.53    0.25
   5   4  -9    2.93    0.46
   4   4  -9    0.48    0.22
   3   4  -9    1.06    0.23
  -3  -4   9    0.82    0.13
   2   4  -9   13.54    1.00
  -2  -4   9   13.74    0.89
   1   4  -9    0.05    0.10
  -1  -4   9   -0.09    0.08
   0   4  -9   19.00    1.33
   0  -4   9   21.15    1.30
  -1   4  -9    2.82    0.26
   1  -4   9    2.64    0.19
  -2   4  -9    4.51    0.36
   2  -4   9    3.98    0.30
  -3   4  -9    0.80    0.15
   3  -4   9    0.73    0.12
  -4   4  -9   -0.08    0.07
   4  -4   9   -0.02    0.08
  -5   4  -9    0.55    0.15
   5  -4   9    0.66    0.15
  -6   4  -9   10.94    0.82
   6  -4   9   11.78    0.81
   6   3  -9    0.93    0.29
   5   3  -9    3.13    0.43
   4   3  -9   19.78    1.37
  -4  -3   9   18.92    1.24
   3   3  -9    5.96    0.55
  -3  -3   9    6.79    0.47
   2   3  -9   38.07    2.44
  -2  -3   9   37.89    2.36
   1   3  -9   32.54    2.11
  -1  -3   9   33.33    2.06
   0   3  -9    3.09    0.27
   0  -3   9    2.56    0.24
   0  -3   9    2.30    0.18
  -1   3  -9    0.12    0.08
   1  -3   9    0.07    0.05
  -2   3  -9    1.91    0.21
   2  -3   9    1.82    0.18
  -3   3  -9   15.03    1.04
   3  -3   9   15.87    1.01
  -4   3  -9    1.97    0.24
   4  -3   9    2.52    0.24
  -5   3  -9    9.06    0.66
   5  -3   9    8.10    0.63
  -6   3  -9   -0.09    0.10
   6  -3   9    0.14    0.13
   6   2  -9    7.68    0.71
   5   2  -9    2.76    0.38
  -5  -2   9    2.69    0.26
   4   2  -9   10.18    0.77
  -4  -2   9    9.16    0.66
   3   2  -9   50.58    3.30
   3   2  -9   55.20    3.45
  -3  -2   9   58.59    3.37
   2   2  -9    4.13    0.29
   2   2  -9    4.51    0.39
  -2  -2   9    4.83    0.36
  -2  -2   9    4.49    0.30
   1   2  -9    2.91    0.28
  -1  -2   9    2.75    0.21
  -1  -2   9    3.33    0.28
   0   2  -9   56.60    3.49
   0   2  -9   60.87    3.58
   0  -2   9   54.60    3.51
   0  -2   9   59.52    3.57
  -1   2  -9    0.08    0.08
   1  -2   9    0.15    0.07
   1  -2   9    0.08    0.10
  -2   2  -9    5.56    0.43
   2  -2   9    5.64    0.41
  -3   2  -9   18.79    1.22
   3  -2   9   18.30    1.19
   3  -2   9   18.09    1.12
  -4   2  -9    1.64    0.23
   4  -2   9    1.43    0.21
   4  -2   9    1.61    0.13
  -5   2  -9    3.40    0.33
   5  -2   9    2.54    0.31
  -6   2  -9    0.05    0.12
   6  -2   9    0.29    0.15
   6   1  -9    1.39    0.28
  -6  -1   9    1.54    0.22
   5   1  -9    3.02    0.36
  -5  -1   9    3.29    0.30
   4   1  -9   24.99    1.61
   4   1  -9   22.93    1.48
  -4  -1   9   24.16    1.54
   3   1  -9   32.38    2.00
   3   1  -9   28.97    1.88
  -3  -1   9   31.47    1.94
  -3  -1   9   30.68    1.90
   2   1  -9   34.08    2.04
   2   1  -9   31.04    1.95
  -2  -1   9   30.93    2.00
  -2  -1   9   31.64    1.96
   1   1  -9   63.39    4.03
   1   1  -9   65.79    3.95
   1   1  -9   63.21    4.00
  -1  -1   9   67.63    4.02
  -1  -1   9   66.30    3.97
   0   1  -9    0.05    0.07
   0   1  -9    0.07    0.03
   0  -1   9    0.00    0.06
   0  -1   9    0.03    0.11
  -1   1  -9    1.93    0.20
   1  -1   9    1.77    0.18
   1  -1   9    1.58    0.22
  -2   1  -9   -0.01    0.07
   2  -1   9    0.09    0.08
   2  -1   9    0.09    0.10
   2  -1   9   -0.04    0.03
  -3   1  -9   20.73    1.38
   3  -1   9   21.06    1.36
   3  -1   9   21.11    1.30
  -4   1  -9   30.80    2.13
   4  -1   9   33.39    2.12
   4  -1   9   35.36    2.05
  -5   1  -9   21.76    1.45
   5  -1   9   21.42    1.44
  -7   0   9    3.13    0.33
  -6   0   9    0.91    0.18
   5   0  -9   12.57    0.92
  -5   0   9   12.08    0.86
   4   0  -9    1.82    0.26
  -4   0   9    2.43    0.24
  -4   0   9    2.40    0.21
   3   0  -9   20.32    1.38
  -3   0   9   21.56    1.36
  -3   0   9   21.01    1.32
   2   0  -9   19.00    1.23
  -2   0   9   18.41    1.22
  -2   0   9   18.49    1.18
   1   0  -9   39.09    2.31
   1   0  -9   36.68    2.37
  -1   0   9   37.57    2.33
  -1   0   9   37.76    2.38
   0   0  -9    4.23    0.33
   0   0   9    3.61    0.34
   0   0   9    3.81    0.31
  -1   0  -9    8.69    0.62
   1   0   9    8.39    0.64
   1   0   9    8.44    0.55
   1   0   9    8.96    0.61
  -2   0  -9    7.22    0.53
   2   0   9    7.14    0.52
   2   0   9    6.91    0.46
   2   0   9    6.60    0.55
  -3   0  -9    9.24    0.67
   3   0   9    8.20    0.65
   3   0   9    9.26    0.69
   3   0   9    9.34    0.59
  -4   0  -9   -0.11    0.08
   4   0   9    0.04    0.11
   4   0   9    0.01    0.06
   4   0   9   -0.05    0.12
   5   0   9   12.93    0.97
   5   0   9   13.90    0.99
   5   0   9   14.53    0.92
  -8   1   9    0.55    0.19
  -7   1   9   13.02    0.93
  -6   1   9    4.36    0.39
  -5   1   9    0.91    0.15
  -5   1   9    1.30    0.20
   4  -1  -9    2.57    0.28
  -4   1   9    2.76    0.27
  -4   1   9    2.51    0.24
  -4   1   9    2.88    0.27
   3  -1  -9    1.46    0.21
  -3   1   9    1.52    0.17
  -3   1   9    1.36    0.20
  -3   1   9    1.92    0.20
   2  -1  -9    3.39    0.30
  -2   1   9    3.28    0.31
  -2   1   9    3.56    0.28
  -2   1   9    3.51    0.30
   1  -1  -9   11.51    0.78
  -1   1   9   11.73    0.81
  -1   1   9   10.67    0.76
  -1   1   9   12.12    0.80
   0  -1  -9    0.69    0.12
   0   1   9    0.71    0.16
   0   1   9    0.55    0.12
   0   1   9    0.67    0.09
  -1  -1  -9    7.69    0.59
   1   1   9    8.67    0.55
   1   1   9    8.28    0.60
   1   1   9    8.44    0.63
  -2  -1  -9    2.01    0.24
   2   1   9    2.42    0.25
   2   1   9    2.33    0.29
   2   1   9    2.18    0.19
   3   1   9   11.48    0.84
   3   1   9   11.79    0.78
   3   1   9   12.42    0.87
   4   1   9   16.34    1.09
   4   1   9   18.58    1.19
   4   1   9   16.35    1.17
  -8   2   9    7.68    0.64
  -7   2   9   19.50    1.34
  -6   2   9    5.53    0.48
  -5   2   9    8.42    0.65
  -5   2   9    8.74    0.62
   4  -2  -9    8.77    0.66
  -4   2   9    9.40    0.68
  -4   2   9    9.61    0.65
  -4   2   9    8.68    0.66
   3  -2  -9    0.72    0.14
  -3   2   9    0.83    0.16
  -3   2   9    0.84    0.14
  -3   2   9    0.76    0.15
   2  -2  -9    3.24    0.30
  -2   2   9    3.78    0.33
  -2   2   9    3.75    0.31
   1  -2  -9    1.45    0.19
  -1   2   9    1.27    0.20
  -1   2   9    1.51    0.14
  -1   2   9    1.37    0.20
  -1   2   9    1.42    0.19
   0  -2  -9    0.20    0.09
   0   2   9    0.23    0.10
   0   2   9    0.23    0.13
   0   2   9    0.21    0.07
   1   2   9   -0.08    0.09
   1   2   9   -0.03    0.05
   1   2   9    0.17    0.13
   2   2   9   31.51    2.17
   2   2   9   35.44    2.11
   2   2   9   34.47    2.18
   3   2   9   18.14    1.15
   3   2   9   16.28    1.21
   3   2   9   18.71    1.22
  -8   3   9   39.47    2.57
  -7   3   9   42.02    2.70
  -6   3   9    0.90    0.21
  -6   3   9    1.06    0.19
  -5   3   9    5.22    0.43
  -5   3   9    5.12    0.46
  -4   3   9    4.50    0.37
  -4   3   9    4.48    0.41
  -3   3   9    3.33    0.30
  -3   3   9    3.27    0.33
  -2   3   9    8.65    0.63
  -2   3   9    8.52    0.65
  -2   3   9    9.01    0.59
  -1   3   9   22.78    1.54
  -1   3   9   24.76    1.56
  -1   3   9   23.67    1.49
   0   3   9    1.81    0.25
   0   3   9    1.70    0.17
   0   3   9    1.74    0.23
   1   3   9    1.40    0.17
   1   3   9    1.21    0.22
   1   3   9    1.27    0.21
   2   3   9    8.11    0.64
   2   3   9    7.92    0.65
   2   3   9    8.92    0.59
  -8   4   9    1.31    0.27
  -7   4   9    0.83    0.21
  -7   4   9    0.33    0.13
  -6   4   9    4.02    0.37
  -6   4   9    3.76    0.40
  -5   4   9   10.80    0.79
  -5   4   9   11.09    0.82
  -4   4   9    0.09    0.13
  -4   4   9    0.18    0.11
  -3   4   9    1.03    0.20
  -3   4   9    1.08    0.19
  -2   4   9    3.68    0.28
  -2   4   9    2.61    0.32
  -2   4   9    2.79    0.30
  -1   4   9    0.04    0.12
  -1   4   9    0.03    0.07
  -1   4   9    0.01    0.10
   0   4   9    0.59    0.17
   0   4   9    0.43    0.15
   0   4   9    0.67    0.12
   1   4   9    1.93    0.21
   1   4   9    1.86    0.27
   1   4   9    2.13    0.28
  -8   5   9    0.25    0.17
  -7   5   9    1.93    0.30
  -7   5   9    1.59    0.26
  -6   5   9    0.09    0.12
  -6   5   9    0.09    0.14
  -5   5   9    4.80    0.45
  -5   5   9    5.24    0.48
  -4   5   9    4.58    0.43
  -4   5   9    5.55    0.48
  -3   5   9    1.27    0.24
  -3   5   9    1.46    0.19
  -3   5   9    1.49    0.23
  -2   5   9    1.10    0.21
  -2   5   9    0.72    0.18
  -2   5   9    1.24    0.17
  -1   5   9   -0.11    0.10
  -1   5   9   -0.05    0.12
  -1   5   9    0.07    0.08
   0   5   9    1.48    0.19
   0   5   9    1.45    0.24
   0   5   9    1.23    0.24
  -7   6   9    0.16    0.16
  -7   6   9    0.26    0.15
  -6   6   9    1.62    0.27
  -6   6   9    2.02    0.32
  -5   6   9    1.87    0.28
  -5   6   9    1.55    0.29
  -4   6   9   13.51    1.02
  -4   6   9   15.36    1.05
  -3   6   9    3.74    0.32
  -3   6   9    3.42    0.37
  -3   6   9    3.58    0.39
  -2   6   9    3.08    0.36
  -2   6   9    2.52    0.34
  -2   6   9    2.68    0.26
  -1   8 -10    0.30    0.16
  -2   8 -10    0.56    0.16
  -3   8 -10    2.05    0.25
  -4   8 -10    2.88    0.29
   1   7 -10    0.81    0.23
   0   7 -10    0.54    0.18
  -1   7 -10   15.60    1.10
   1  -7  10   15.41    1.02
  -2   7 -10   24.11    1.60
  -3   7 -10    0.16    0.10
  -4   7 -10    0.51    0.13
  -5   7 -10   12.06    0.85
   3   6 -10   -0.04    0.17
   2   6 -10    1.27    0.29
   1   6 -10    0.39    0.17
   0   6 -10    4.62    0.45
   0  -6  10    5.04    0.38
  -1   6 -10   13.76    1.01
   1  -6  10   14.68    0.95
  -2   6 -10   19.05    1.28
  -3   6 -10    0.02    0.08
  -4   6 -10    3.93    0.36
   4  -6  10    4.34    0.33
  -5   6 -10    0.59    0.14
   5  -6  10    0.31    0.11
  -6   6 -10    2.91    0.32
   6  -6  10    3.70    0.33
   4   5 -10    0.32    0.21
   3   5 -10    5.31    0.54
   2   5 -10    8.66    0.73
   1   5 -10    2.61    0.33
  -1  -5  10    2.01    0.23
   0   5 -10    7.05    0.58
   0  -5  10    7.23    0.53
  -1   5 -10    9.10    0.69
   1  -5  10    9.70    0.66
  -2   5 -10   20.42    1.36
   2  -5  10   20.64    1.27
  -3   5 -10    2.44    0.26
   3  -5  10    2.36    0.21
  -4   5 -10    0.54    0.14
   4  -5  10    0.25    0.10
  -5   5 -10    3.46    0.32
   5  -5  10    2.57    0.28
  -6   5 -10    0.94    0.20
   6  -5  10    1.15    0.20
   5   4 -10   17.52    1.34
   4   4 -10    1.34    0.29
   3   4 -10    6.51    0.59
  -3  -4  10    6.27    0.46
   2   4 -10    0.87    0.21
  -2  -4  10    0.96    0.15
   1   4 -10    7.88    0.64
  -1  -4  10    8.14    0.57
   0   4 -10    3.16    0.32
   0  -4  10    3.19    0.29
  -1   4 -10    6.06    0.49
   1  -4  10    6.11    0.40
   1  -4  10    6.04    0.46
  -2   4 -10    0.07    0.08
   2  -4  10    0.02    0.06
  -3   4 -10   13.83    0.98
   3  -4  10   14.66    0.93
  -4   4 -10    0.31    0.12
   4  -4  10    0.35    0.12
  -5   4 -10    7.13    0.58
   5  -4  10    7.59    0.56
  -6   4 -10    0.87    0.19
   6  -4  10    0.90    0.19
   5   3 -10    1.56    0.31
   4   3 -10    6.06    0.56
  -4  -3  10    5.63    0.44
   3   3 -10    0.78    0.21
  -3  -3  10    1.11    0.16
   2   3 -10    4.17    0.43
  -2  -3  10    4.80    0.37
   1   3 -10    5.60    0.47
  -1  -3  10    5.49    0.43
   0   3 -10    1.78    0.23
   0  -3  10    1.71    0.22
   0  -3  10    1.59    0.14
  -1   3 -10   18.79    1.19
   1  -3  10   18.28    1.12
   1  -3  10   16.05    1.17
  -2   3 -10    0.42    0.12
   2  -3  10    0.39    0.10
  -3   3 -10    1.00    0.17
   3  -3  10    1.07    0.16
  -4   3 -10    3.06    0.32
   4  -3  10    3.33    0.30
  -5   3 -10    0.00    0.10
   5  -3  10    0.06    0.10
  -6   3 -10    1.61    0.26
   6  -3  10    1.38    0.23
   5   2 -10    4.02    0.44
  -5  -2  10    3.58    0.33
   4   2 -10    2.75    0.33
  -4  -2  10    2.36    0.25
   3   2 -10   14.58    0.98
  -3  -2  10   12.23    0.89
   2   2 -10   32.79    2.05
  -2  -2  10   29.97    1.93
  -2  -2  10   32.34    2.00
   1   2 -10   32.95    2.16
   1   2 -10   36.91    2.26
  -1  -2  10   35.37    2.16
  -1  -2  10   36.60    2.23
   0   2 -10    2.22    0.16
   0   2 -10    2.79    0.26
   0  -2  10    2.70    0.27
   0  -2  10    2.49    0.20
  -1   2 -10    0.77    0.15
   1  -2  10    0.91    0.13
   1  -2  10    0.94    0.18
  -2   2 -10    4.04    0.33
   2  -2  10    2.89    0.31
   2  -2  10    3.21    0.29
  -3   2 -10    5.84    0.48
   3  -2  10    6.25    0.46
  -4   2 -10   15.97    1.11
   4  -2  10   16.34    1.09
  -5   2 -10    2.76    0.31
   5  -2  10    2.46    0.30
  -6  -1  10   13.82    0.96
   5   1 -10    1.96    0.31
  -5  -1  10    1.71    0.24
   4   1 -10   34.42    2.26
  -4  -1  10   34.97    2.20
   3   1 -10    7.02    0.56
  -3  -1  10    7.24    0.52
  -3  -1  10    6.31    0.46
   2   1 -10    8.69    0.65
  -2  -1  10    9.18    0.63
  -2  -1  10    8.15    0.57
   1   1 -10    7.86    0.56
   1   1 -10    7.15    0.46
  -1  -1  10    6.93    0.49
  -1  -1  10    7.11    0.55
   0   1 -10    1.25    0.18
   0  -1  10    1.02    0.19
   0  -1  10    1.30    0.15
  -1   1 -10    7.70    0.56
   1  -1  10    7.62    0.59
   1  -1  10    7.19    0.53
  -2   1 -10    0.25    0.11
   2  -1  10    0.24    0.05
   2  -1  10    0.35    0.15
   2  -1  10    0.35    0.11
  -3   1 -10    5.22    0.44
   3  -1  10    5.25    0.43
   3  -1  10    5.20    0.45
   3  -1  10    5.31    0.35
  -4   1 -10    2.00    0.27
   4  -1  10    2.15    0.26
   4  -1  10    2.16    0.29
  -5   1 -10    1.56    0.31
   5  -1  10    1.39    0.24
  -7   0  10    0.33    0.15
  -6   0  10    1.52    0.24
   5   0 -10    5.77    0.53
  -5   0  10    5.96    0.48
   4   0 -10    2.61    0.30
  -4   0  10    2.48    0.23
  -4   0  10    2.43    0.27
   3   0 -10    3.11    0.32
  -3   0  10    2.95    0.29
  -3   0  10    3.17    0.26
   2   0 -10   34.79    2.19
  -2   0  10   33.78    2.13
  -2   0  10   34.48    2.18
   1   0 -10   11.55    0.79
  -1   0  10   10.94    0.74
  -1   0  10   10.92    0.79
   0   0 -10    1.76    0.20
   0   0  10    1.33    0.22
   0   0  10    1.48    0.18
  -1   0 -10   10.78    0.79
   1   0  10   11.77    0.72
   1   0  10   11.11    0.82
   1   0  10   11.71    0.78
  -2   0 -10    0.48    0.13
   2   0  10    0.61    0.15
   2   0  10    0.47    0.16
   2   0  10    0.60    0.08
  -3   0 -10    3.35    0.33
   3   0  10    3.60    0.38
   3   0  10    3.40    0.33
   3   0  10    3.64    0.26
   4   0  10   12.43    0.93
   4   0  10   14.24    0.97
  -8   1  10    2.56    0.35
  -7   1  10    0.89    0.20
  -6   1  10    0.66    0.18
   4  -1 -10   18.90    1.34
  -4   1  10   20.54    1.29
  -4   1  10   20.60    1.34
   3  -1 -10   11.55    0.85
  -3   1  10   12.32    0.81
  -3   1  10   12.44    0.86
   2  -1 -10    7.11    0.56
  -2   1  10    7.98    0.59
  -2   1  10    7.76    0.54
   1  -1 -10    5.55    0.43
  -1   1  10    5.35    0.41
  -1   1  10    5.36    0.46
   0  -1 -10    0.16    0.09
   0   1  10    0.32    0.15
   0   1  10    0.22    0.06
   0   1  10    0.09    0.09
  -1  -1 -10    0.04    0.08
   1   1  10    0.15    0.10
   1   1  10    0.16    0.06
   1   1  10    0.10    0.16
   2   1  10    6.36    0.53
   2   1  10    6.84    0.46
   2   1  10    6.96    0.56
   3   1  10    0.13    0.13
   3   1  10    0.00    0.07
   3   1  10    0.15    0.16
   4   1  10    6.69    0.56
  -8   2  10    0.81    0.22
  -7   2  10    0.80    0.21
  -6   2  10    8.73    0.65
  -6   2  10    9.21    0.70
  -4   2  10    0.60    0.13
  -4   2  10    0.60    0.16
   3  -2 -10   -0.06    0.07
  -3   2  10    0.14    0.09
  -3   2  10    0.16    0.12
   2  -2 -10   24.49    1.64
  -2   2  10   25.30    1.67
  -2   2  10   26.84    1.64
   1  -2 -10    3.69    0.38
  -1   2  10    4.01    0.35
  -1   2  10    4.25    0.30
  -1   2  10    3.88    0.37
   0   2  10    0.08    0.06
   0   2  10    0.13    0.10
   0   2  10   -0.02    0.13
   1   2  10    0.28    0.08
   1   2  10    0.00    0.11
   1   2  10    0.33    0.17
   2   2  10    6.24    0.51
   2   2  10    5.44    0.50
   2   2  10    6.16    0.43
   3   2  10    0.43    0.21
   3   2  10    0.69    0.20
   3   2  10    0.63    0.13
  -8   3  10    5.29    0.51
  -7   3  10    2.90    0.38
  -6   3  10    4.95    0.46
  -6   3  10    4.47    0.40
  -5   3  10   19.21    1.29
  -5   3  10   19.62    1.34
  -4   3  10   50.73    3.14
  -4   3  10   49.76    3.18
  -3   3  10   11.19    0.82
  -3   3  10   11.11    0.79
  -2   3  10    3.84    0.39
  -2   3  10    4.12    0.36
  -1   3  10   13.71    0.98
  -1   3  10   14.44    1.00
  -1   3  10   14.56    0.93
   0   3  10    1.53    0.16
   0   3  10    1.13    0.21
   0   3  10    1.37    0.23
   1   3  10    0.97    0.20
   1   3  10    1.19    0.23
   1   3  10    1.33    0.16
   2   3  10    0.21    0.15
   2   3  10    0.00    0.16
   2   3  10    0.03    0.08
  -8   4  10    6.03    0.57
  -7   4  10    0.22    0.13
  -7   4  10    0.35    0.18
  -6   4  10   -0.10    0.09
  -6   4  10   -0.10    0.13
  -5   4  10    1.32    0.25
  -5   4  10    1.67    0.24
  -4   4  10    0.23    0.15
  -4   4  10    0.13    0.11
  -3   4  10    0.85    0.20
  -3   4  10    0.92    0.19
  -2   4  10    0.59    0.16
  -2   4  10    0.65    0.18
  -1   4  10   -0.06    0.06
  -1   4  10   -0.03    0.12
  -1   4  10    0.06    0.12
   0   4  10    0.01    0.13
   0   4  10   -0.04    0.12
   0   4  10    0.13    0.09
  -7   5  10    6.24    0.54
  -7   5  10    6.12    0.58
  -6   5  10    0.27    0.17
  -6   5  10    0.70    0.18
  -5   5  10    0.95    0.24
  -5   5  10    0.73    0.19
  -4   5  10    4.85    0.46
  -4   5  10    4.63    0.43
  -3   5  10    4.14    0.41
  -3   5  10    3.80    0.39
  -2   5  10    3.78    0.39
  -2   5  10    3.92    0.33
  -2   5  10    3.64    0.39
  -1   5  10    0.39    0.17
  -1   5  10    0.67    0.19
  -1   5  10    0.23    0.11
  -6   6  10    0.02    0.16
  -6   6  10    0.26    0.15
  -5   6  10    2.68    0.35
  -5   6  10    2.69    0.38
  -4   6  10    0.29    0.16
  -4   6  10    0.26    0.18
  -3   6  10    3.21    0.29
  -3   6  10    2.14    0.34
  -3   6  10    3.43    0.40
   0   7 -11    0.60    0.19
  -1   7 -11    4.62    0.46
   1  -7  11    4.85    0.39
  -2   7 -11    8.76    0.68
  -3   7 -11    0.21    0.11
  -4   7 -11    2.08    0.24
   2   6 -11    0.21    0.18
   1   6 -11    0.16    0.15
   0   6 -11    0.02    0.12
   0  -6  11   -0.06    0.10
  -1   6 -11    2.23    0.30
   1  -6  11    2.27    0.24
  -2   6 -11    1.00    0.19
  -3   6 -11    0.49    0.14
  -4   6 -11    0.04    0.09
  -5   6 -11    0.05    0.11
   3   5 -11    0.13    0.17
   2   5 -11    3.65    0.43
   1   5 -11    2.39    0.34
  -1  -5  11    2.64    0.26
   0   5 -11    1.26    0.23
   0  -5  11    1.23    0.19
  -1   5 -11    0.90    0.19
   1  -5  11    0.83    0.16
  -2   5 -11    0.93    0.18
  -3   5 -11    2.96    0.30
   3  -5  11    2.95    0.25
  -4   5 -11    0.12    0.11
   4  -5  11    0.17    0.09
  -5   5 -11   11.27    0.83
   5  -5  11   11.64    0.80
   4   4 -11   13.45    1.06
   3   4 -11    1.49    0.30
  -3  -4  11    1.41    0.19
   2   4 -11    2.38    0.34
  -2  -4  11    2.77    0.26
   1   4 -11    0.65    0.18
  -1  -4  11    1.00    0.17
   0   4 -11    0.01    0.10
   0  -4  11   -0.04    0.10
  -1   4 -11   15.79    1.09
   1  -4  11   15.77    0.99
   1  -4  11   16.10    1.07
  -2   4 -11    2.62    0.28
   2  -4  11    2.66    0.22
  -3   4 -11    3.39    0.33
   3  -4  11    3.20    0.28
  -4   4 -11   10.69    0.80
   4  -4  11   11.41    0.76
  -5   4 -11    7.88    0.63
   5  -4  11    8.36    0.61
   5   3 -11    3.08    0.44
   4   3 -11    0.09    0.15
  -4  -3  11   -0.15    0.09
   3   3 -11    0.81    0.21
  -3  -3  11    0.85    0.16
   2   3 -11    4.10    0.41
  -2  -3  11    3.71    0.34
   1   3 -11    3.30    0.34
  -1  -3  11    3.17    0.31
   0   3 -11    0.16    0.11
   0  -3  11    0.26    0.06
   0  -3  11    0.30    0.13
  -1   3 -11   12.07    0.87
   1  -3  11   13.11    0.80
   1  -3  11   11.46    0.86
  -2   3 -11    0.71    0.16
   2  -3  11    0.44    0.15
   2  -3  11    0.66    0.12
  -3   3 -11    0.69    0.16
   3  -3  11    0.86    0.14
  -4   3 -11    0.12    0.11
   4  -3  11    0.29    0.12
  -5   3 -11    0.57    0.17
   5  -3  11    0.77    0.17
   5   2 -11    3.73    0.44
  -5  -2  11    3.93    0.36
   4   2 -11    7.37    0.63
  -4  -2  11    6.96    0.54
   3   2 -11    0.91    0.20
  -3  -2  11    0.50    0.14
   2   2 -11    6.22    0.53
  -2  -2  11    6.06    0.42
  -2  -2  11    6.42    0.49
   1   2 -11    0.14    0.11
  -1  -2  11   -0.04    0.12
  -1  -2  11    0.11    0.06
   0   2 -11    2.75    0.28
   0  -2  11    2.19    0.28
   0  -2  11    2.33    0.21
  -1   2 -11   26.87    1.78
   1  -2  11   28.31    1.72
   1  -2  11   27.08    1.78
  -2   2 -11    1.14    0.19
   2  -2  11    0.99    0.15
   2  -2  11    1.00    0.20
  -3   2 -11    4.92    0.43
   3  -2  11    5.61    0.41
   3  -2  11    4.43    0.43
  -4   2 -11    1.80    0.26
   4  -2  11    1.87    0.24
  -5   2 -11    0.10    0.13
   5  -2  11    0.19    0.13
  -6  -1  11    5.50    0.47
   5   1 -11    0.68    0.21
  -5  -1  11    0.56    0.16
   4   1 -11    4.08    0.42
  -4  -1  11    4.09    0.37
   3   1 -11    0.86    0.19
  -3  -1  11    0.80    0.12
  -3  -1  11    0.73    0.16
   2   1 -11    0.05    0.11
  -2  -1  11    0.07    0.07
  -2  -1  11    0.10    0.11
   1   1 -11   29.19    1.85
  -1  -1  11   27.62    1.84
  -1  -1  11   28.59    1.78
   0   1 -11    1.52    0.21
   0  -1  11    1.27    0.23
   0  -1  11    1.48    0.17
  -1   1 -11    0.27    0.11
   1  -1  11    0.13    0.09
   1  -1  11    0.21    0.15
  -2   1 -11    1.09    0.19
   2  -1  11    1.13    0.18
   2  -1  11    1.08    0.22
  -3   1 -11    8.25    0.63
   3  -1  11    8.97    0.67
   3  -1  11    7.91    0.61
  -4   1 -11    0.42    0.15
   4  -1  11    0.30    0.14
   4  -1  11    0.14    0.15
  -7   0  11    0.32    0.15
  -6   0  11    0.00    0.11
  -5   0  11    6.23    0.52
   4   0 -11   10.84    0.83
  -4   0  11   11.12    0.74
  -4   0  11   10.91    0.79
   3   0 -11   40.30    2.56
  -3   0  11   39.73    2.53
  -3   0  11   39.93    2.48
   2   0 -11   61.21    3.72
  -2   0  11   60.02    3.71
  -2   0  11   57.60    3.66
   1   0 -11   10.24    0.76
  -1   0  11   10.53    0.72
  -1   0  11   11.55    0.79
   0   0 -11   17.08    1.14
   0   0  11   16.48    1.10
   0   0  11   16.92    1.17
  -1   0 -11    0.00    0.08
   1   0  11    0.01    0.05
   1   0  11   -0.09    0.13
   1   0  11   -0.07    0.09
  -2   0 -11    0.35    0.13
   2   0  11    0.41    0.18
   2   0  11    0.43    0.08
   2   0  11    0.53    0.15
   3   0  11    0.34    0.19
   3   0  11    0.32    0.15
   4   0  11    0.36    0.16
  -7   1  11    0.78    0.20
  -6   1  11    2.56    0.33
  -5   1  11    1.41    0.24
  -5   1  11    1.47    0.20
  -4   1  11    1.96    0.23
  -4   1  11    1.83    0.26
   3  -1 -11   16.20    1.11
  -3   1  11   16.75    1.07
  -3   1  11   15.41    1.11
   2  -1 -11    7.59    0.60
  -2   1  11    7.94    0.62
  -2   1  11    7.93    0.57
   1  -1 -11    2.66    0.27
  -1   1  11    2.57    0.32
  -1   1  11    2.36    0.25
   0  -1 -11    2.83    0.29
   0   1  11    2.99    0.29
   0   1  11    3.28    0.24
   0   1  11    2.72    0.34
   1   1  11    2.49    0.25
   1   1  11    2.13    0.30
   1   1  11    1.83    0.17
   2   1  11    3.25    0.33
   2   1  11    3.08    0.25
   2   1  11    3.53    0.37
   3   1  11    0.70    0.19
   3   1  11    0.48    0.21
  -7   2  11   10.90    0.84
  -6   2  11   -0.07    0.12
  -6   2  11    0.01    0.09
  -5   2  11    3.06    0.31
  -5   2  11    3.59    0.37
  -4   2  11    1.82    0.23
  -4   2  11    1.58    0.26
  -3   2  11   27.37    1.78
  -3   2  11   26.47    1.72
  -2   2  11    0.83    0.16
  -2   2  11    0.69    0.19
  -1   2  11    3.28    0.32
  -1   2  11    3.59    0.36
   0   2  11   -0.06    0.14
   0   2  11   -0.12    0.09
   0   2  11   -0.10    0.05
   1   2  11    1.06    0.21
   1   2  11    1.33    0.16
   1   2  11    1.22    0.25
   2   2  11    1.09    0.25
   2   2  11    1.09    0.22
   2   2  11    1.24    0.16
  -7   3  11    3.41    0.43
  -6   3  11    2.77    0.32
  -6   3  11    2.69    0.36
  -5   3  11   21.26    1.44
  -5   3  11   20.54    1.39
  -4   3  11    5.37    0.44
  -4   3  11    4.77    0.47
  -3   3  11    6.44    0.52
  -3   3  11    6.63    0.56
  -2   3  11    8.01    0.64
  -2   3  11    7.75    0.61
  -1   3  11    0.51    0.16
  -1   3  11    0.92    0.14
  -1   3  11    0.69    0.19
   0   3  11    0.03    0.14
   0   3  11    0.09    0.07
   0   3  11    0.08    0.13
   1   3  11    0.14    0.14
   1   3  11    0.08    0.08
   1   3  11    0.05    0.17
  -7   4  11   -0.04    0.11
  -7   4  11    0.01    0.15
  -6   4  11    0.61    0.21
  -6   4  11    0.38    0.15
  -5   4  11    0.47    0.18
  -5   4  11    0.30    0.14
  -4   4  11    2.88    0.38
  -4   4  11    3.32    0.33
  -3   4  11    1.68    0.26
  -3   4  11    1.31    0.25
  -2   4  11    3.28    0.28
  -2   4  11    3.39    0.36
  -2   4  11    2.85    0.35
  -1   4  11    0.21    0.09
  -1   4  11    0.26    0.17
  -1   4  11    0.06    0.12
  -6   5  11    0.06    0.16
  -6   5  11    0.17    0.14
  -5   5  11    0.28    0.15
  -5   5  11    0.41    0.20
  -4   5  11    0.25    0.16
  -4   5  11    0.60    0.20
  -3   5  11    0.22    0.17
  -3   5  11    0.46    0.17
  -2   5  11    6.89    0.51
  -2   5  11    6.06    0.56
  -2   5  11    7.04    0.60
  -1   7 -12   -0.09    0.11
   1  -7  12    0.15    0.13
  -2   7 -12    0.21    0.13
   2  -7  12   -0.09    0.09
  -3   7 -12    0.26    0.13
   1   6 -12    0.19    0.16
   0   6 -12    1.92    0.31
   0  -6  12    1.86    0.24
  -1   6 -12    0.23    0.15
   1  -6  12    0.59    0.15
  -2   6 -12    6.22    0.52
   2  -6  12    5.44    0.46
  -3   6 -12    4.44    0.41
  -4   6 -12    0.02    0.09
   3   5 -12    0.16    0.18
   2   5 -12    1.68    0.32
   1   5 -12    0.11    0.15
  -1  -5  12   -0.01    0.11
   0   5 -12    2.36    0.32
   0  -5  12    1.79    0.25
  -1   5 -12    0.99    0.20
   1  -5  12    0.87    0.18
  -2   5 -12    0.62    0.16
   2  -5  12    0.29    0.13
  -3   5 -12    1.77    0.26
  -4   5 -12    5.28    0.47
   4   4 -12    1.93    0.36
   3   4 -12    0.45    0.21
  -3  -4  12    0.77    0.16
   2   4 -12    5.88    0.55
  -2  -4  12    5.37    0.44
   1   4 -12    2.51    0.34
  -1  -4  12    2.43    0.28
   0   4 -12    1.47    0.24
   0  -4  12    1.32    0.21
  -1   4 -12    0.25    0.13
   1  -4  12    0.47    0.15
  -2   4 -12    1.85    0.26
   2  -4  12    1.93    0.26
   2  -4  12    1.78    0.18
  -3   4 -12   -0.01    0.09
   3  -4  12    0.12    0.09
  -4   4 -12    1.21    0.22
   4  -4  12    1.27    0.18
   5   3 -12    1.92    0.36
   4   3 -12    1.76    0.33
  -4  -3  12    2.33    0.27
   3   3 -12    1.87    0.31
  -3  -3  12    2.05    0.25
   2   3 -12    7.58    0.62
  -2  -3  12    6.84    0.54
   1   3 -12    0.69    0.18
  -1  -3  12    0.54    0.16
   0   3 -12   21.48    1.39
   0  -3  12   20.39    1.35
   0  -3  12   19.16    1.32
  -1   3 -12    6.88    0.56
   1  -3  12    7.00    0.48
   1  -3  12    7.00    0.56
  -2   3 -12    2.79    0.30
   2  -3  12    2.67    0.33
   2  -3  12    2.59    0.24
  -3   3 -12    0.17    0.11
   3  -3  12    0.30    0.14
   3  -3  12    0.34    0.11
  -4   3 -12    5.25    0.46
   4  -3  12    5.02    0.42
  -5  -2  12    0.69    0.17
   4   2 -12    2.39    0.36
  -4  -2  12    2.40    0.28
   3   2 -12    3.49    0.38
  -3  -2  12    3.16    0.32
   2   2 -12    1.94    0.29
  -2  -2  12    2.26    0.27
   1   2 -12   11.41    0.80
  -1  -2  12   10.23    0.69
  -1  -2  12   10.27    0.77
   0   2 -12    0.19    0.13
   0  -2  12    0.14    0.08
   0  -2  12    0.03    0.14
  -1   2 -12   -0.09    0.08
   1  -2  12    0.00    0.08
   1  -2  12    0.04    0.13
  -2   2 -12    8.45    0.63
   2  -2  12    7.97    0.57
   2  -2  12    7.34    0.63
  -3   2 -12    7.93    0.61
   3  -2  12    6.87    0.61
   3  -2  12    7.95    0.57
  -4   2 -12    1.37    0.23
   4  -2  12    1.28    0.21
   4  -2  12    1.32    0.25
  -6  -1  12    1.34    0.24
  -5  -1  12    9.07    0.69
   4   1 -12    0.15    0.14
  -4  -1  12    0.26    0.13
   3   1 -12   13.75    1.01
  -3  -1  12   13.42    0.97
  -3  -1  12   14.38    0.91
   2   1 -12    4.84    0.44
  -2  -1  12    4.31    0.40
  -2  -1  12    4.58    0.35
   1   1 -12   13.10    0.95
  -1  -1  12   13.09    0.95
  -1  -1  12   13.74    0.88
   0   1 -12    0.42    0.14
   0  -1  12    0.46    0.11
   0  -1  12    0.59    0.19
  -1   1 -12    8.40    0.65
   1  -1  12    8.21    0.67
   1  -1  12    8.85    0.61
  -2   1 -12    0.09    0.11
   2  -1  12    0.09    0.14
   2  -1  12    0.05    0.10
  -3   1 -12    3.00    0.33
   3  -1  12    2.87    0.31
   3  -1  12    3.44    0.39
  -6   0  12    1.40    0.26
  -5   0  12    4.44    0.42
  -4   0  12    2.14    0.24
  -4   0  12    2.02    0.28
   3   0 -12    3.07    0.34
  -3   0  12    3.03    0.27
  -3   0  12    3.39    0.34
   2   0 -12    4.18    0.39
  -2   0  12    3.80    0.38
  -2   0  12    4.16    0.34
   1   0 -12    8.52    0.63
  -1   0  12    7.87    0.63
  -1   0  12    7.45    0.56
   0   0 -12    0.51    0.15
   0   0  12    0.51    0.13
   0   0  12    0.38    0.17
  -1   0 -12   16.32    1.17
   1   0  12   15.40    1.12
   1   0  12   15.88    1.07
   2   0  12    2.26    0.28
   2   0  12    2.65    0.35
   3   0  12    6.76    0.57
   3   0  12    7.59    0.63
  -7   1  12   -0.02    0.14
  -6   1  12    3.60    0.38
  -5   1  12    2.07    0.25
  -5   1  12    2.00    0.30
  -4   1  12   22.49    1.41
  -4   1  12   20.60    1.45
  -3   1  12    0.22    0.15
  -3   1  12    0.25    0.11
  -2   1  12    4.55    0.37
  -2   1  12    3.96    0.41
  -1   1  12    0.18    0.11
  -1   1  12    0.08    0.14
   0   1  12    2.25    0.27
   0   1  12    2.41    0.33
   1   1  12   -0.02    0.11
   1   1  12    0.15    0.18
   2   1  12    0.78    0.19
   2   1  12    0.73    0.24
  -7   2  12   16.17    1.18
  -6   2  12    3.06    0.39
  -6   2  12    2.95    0.30
  -5   2  12    0.91    0.18
  -5   2  12    0.64    0.20
  -4   2  12   -0.01    0.14
  -4   2  12    0.00    0.09
  -3   2  12    3.21    0.32
  -3   2  12    3.44    0.37
  -2   2  12   11.81    0.89
  -2   2  12   12.40    0.86
  -1   2  12    2.61    0.34
  -1   2  12    2.47    0.30
   0   2  12    1.42    0.24
   0   2  12    1.61    0.17
   0   2  12    1.92    0.30
   1   2  12    0.26    0.09
   1   2  12    0.28    0.15
   1   2  12    0.23    0.18
  -6   3  12    0.16    0.16
  -6   3  12    0.37    0.15
  -5   3  12    0.36    0.14
  -5   3  12    0.87    0.23
  -4   3  12    0.95    0.22
  -4   3  12    0.94    0.19
  -3   3  12    3.47    0.35
  -3   3  12    3.84    0.40
  -2   3  12   21.30    1.44
  -2   3  12   21.82    1.48
  -1   3  12   13.09    0.99
  -1   3  12   14.03    0.90
  -1   3  12   13.09    0.96
   0   3  12    3.02    0.37
   0   3  12    3.52    0.42
   0   3  12    3.41    0.29
  -6   4  12    1.88    0.32
  -6   4  12    1.91    0.29
  -5   4  12   -0.12    0.11
  -5   4  12   -0.22    0.14
  -4   4  12    0.89    0.24
  -4   4  12    1.15    0.22
  -3   4  12    6.25    0.57
  -3   4  12    6.30    0.54
  -2   4  12    7.67    0.63
  -2   4  12    7.71    0.65
   0   6 -13    0.09    0.13
   0  -6  13    0.07    0.13
  -1   6 -13    0.84    0.21
   1  -6  13    1.06    0.20
  -2   6 -13   -0.05    0.11
   2  -6  13    0.20    0.14
   2   5 -13    5.66    0.57
   1   5 -13    6.61    0.60
  -1  -5  13    5.89    0.49
   0   5 -13    1.62    0.28
   0  -5  13    2.06    0.26
  -1   5 -13    0.28    0.15
   1  -5  13    0.56    0.16
  -2   5 -13    6.12    0.51
   2  -5  13    4.95    0.46
  -3   5 -13    2.55    0.31
   3  -5  13    2.39    0.30
   3   4 -13    0.15    0.17
   2   4 -13   18.44    1.32
  -2  -4  13   17.66    1.20
   1   4 -13    5.76    0.53
  -1  -4  13    5.33    0.46
   0   4 -13    4.08    0.41
   0  -4  13    3.44    0.36
  -1   4 -13    2.05    0.30
   1  -4  13    1.87    0.27
  -2   4 -13    0.07    0.11
   2  -4  13    0.13    0.15
  -3   4 -13    3.30    0.35
   3  -4  13    3.29    0.35
   4   3 -13    3.30    0.44
  -4  -3  13    2.94    0.31
   3   3 -13    0.97    0.24
  -3  -3  13    0.54    0.16
   2   3 -13    2.26    0.33
  -2  -3  13    1.99    0.27
   1   3 -13    0.50    0.17
  -1  -3  13    0.37    0.15
   0   3 -13    0.62    0.19
   0  -3  13    0.63    0.18
  -1   3 -13    2.14    0.28
   1  -3  13    1.83    0.28
  -2   3 -13    0.79    0.18
   2  -3  13    0.82    0.20
   2  -3  13    0.62    0.13
  -3   3 -13    0.46    0.16
   3  -3  13    0.27    0.16
   3  -3  13    0.42    0.13
  -5  -2  13    1.30    0.23
   4   2 -13    1.27    0.27
  -4  -2  13    1.17    0.21
   3   2 -13    0.43    0.18
  -3  -2  13    0.51    0.16
   2   2 -13    0.33    0.16
  -2  -2  13    0.15    0.14
   1   2 -13    9.61    0.75
  -1  -2  13    9.88    0.74
   0   2 -13    0.34    0.14
   0  -2  13    0.39    0.10
   0  -2  13    0.31    0.17
  -1   2 -13    1.94    0.27
   1  -2  13    1.74    0.21
   1  -2  13    2.10    0.30
  -2   2 -13    0.00    0.10
   2  -2  13    0.07    0.15
   2  -2  13    0.07    0.10
  -3   2 -13   -0.10    0.10
   3  -2  13   -0.07    0.10
   3  -2  13    0.20    0.16
  -5  -1  13    3.80    0.39
  -4  -1  13    0.26    0.15
   3   1 -13    4.35    0.45
  -3  -1  13    4.57    0.41
   2   1 -13    6.12    0.53
  -2  -1  13    5.67    0.51
  -2  -1  13    5.92    0.44
   1   1 -13    0.44    0.15
  -1  -1  13    0.16    0.16
  -1  -1  13    0.37    0.11
   0   1 -13   -0.08    0.09
   0  -1  13   -0.17    0.12
   0  -1  13   -0.06    0.08
  -1   1 -13    0.59    0.16
   1  -1  13    0.51    0.13
   1  -1  13    0.28    0.18
   2  -1  13    0.54    0.21
   2  -1  13    0.56    0.15
  -6   0  13    0.63    0.20
  -5   0  13    6.87    0.59
  -4   0  13    2.11    0.22
  -4   0  13    2.14    0.30
  -3   0  13    2.03    0.28
  -3   0  13    1.64    0.21
  -2   0  13    5.07    0.39
  -2   0  13    4.52    0.44
  -1   0  13    0.09    0.15
  -1   0  13    0.26    0.11
   0   0  13    0.07    0.15
   0   0  13    0.29    0.12
   1   0  13   -0.14    0.10
   1   0  13   -0.27    0.14
   2   0  13    1.25    0.23
   2   0  13    1.05    0.26
  -6   1  13    5.62    0.53
  -5   1  13    1.88    0.24
  -5   1  13    1.67    0.29
  -4   1  13    3.52    0.38
  -4   1  13    3.30    0.32
  -3   1  13    1.06    0.23
  -3   1  13    0.88    0.17
  -2   1  13    0.98    0.17
  -2   1  13    1.04    0.24
  -1   1  13    0.11    0.12
  -1   1  13    0.21    0.17
   0   1  13    2.65    0.29
   0   1  13    2.78    0.37
   1   1  13    0.19    0.14
   1   1  13    0.27    0.21
  -6   2  13    6.35    0.59
  -6   2  13    6.60    0.53
  -5   2  13    4.57    0.40
  -5   2  13    3.65    0.46
  -4   2  13    9.45    0.70
  -4   2  13    9.71    0.77
  -3   2  13    6.04    0.56
  -3   2  13    6.74    0.52
  -2   2  13    0.32    0.18
  -2   2  13    0.35    0.14
  -1   2  13    4.66    0.43
  -1   2  13    4.79    0.48
   0   2  13    2.71    0.33
   0   2  13    1.99    0.33
  -5   3  13    3.37    0.35
  -5   3  13    3.21    0.43
  -4   3  13    0.35    0.14
  -4   3  13    0.19    0.17
  -3   3  13    0.10    0.17
  -3   3  13    0.07    0.13
  -2   3  13    0.15    0.14
  -2   3  13   -0.06    0.16
   0   5 -14    0.02    0.14
   0  -5  14   -0.05    0.14
  -1   5 -14    0.12    0.14
   1  -5  14   -0.08    0.13
   2   4 -14    0.04    0.16
  -2  -4  14    0.52    0.17
   1   4 -14    0.83    0.23
  -1  -4  14    0.42    0.18
   0   4 -14    1.46    0.27
   0  -4  14    1.46    0.26
  -1   4 -14    7.24    0.62
   1  -4  14    7.35    0.60
  -2   4 -14    3.61    0.38
   2  -4  14    3.15    0.38
   3   3 -14    0.76    0.24
  -3  -3  14    0.81    0.20
   2   3 -14    2.50    0.36
  -2  -3  14    2.78    0.33
   1   3 -14    0.17    0.15
  -1  -3  14   -0.11    0.12
   0   3 -14    1.46    0.26
   0  -3  14    1.02    0.23
  -1   3 -14    0.12    0.13
   1  -3  14    0.07    0.17
  -2   3 -14    1.26    0.24
   2  -3  14    1.14    0.25
  -4  -2  14    3.66    0.38
  -3  -2  14    0.80    0.20
   2   2 -14    0.84    0.23
  -2  -2  14    0.51    0.18
   1   2 -14    1.23    0.25
  -1  -2  14    1.50    0.26
   0   2 -14    2.98    0.35
   0  -2  14    3.53    0.41
  -1   2 -14    3.06    0.33
   1  -2  14    2.44    0.25
   1  -2  14    2.58    0.36
   2  -2  14   -0.04    0.15
   2  -2  14    0.17    0.12
  -4  -1  14    0.58    0.19
  -3  -1  14    5.28    0.49
  -2  -1  14    8.40    0.68
  -1  -1  14   19.99    1.32
  -1  -1  14   17.95    1.22
   0  -1  14    2.75    0.37
   0  -1  14    2.84    0.28
   1  -1  14    1.71    0.22
   1  -1  14    1.43    0.29
  -4   0  14    1.71    0.30
  -3   0  14    3.32    0.37
  -3   0  14    3.84    0.40
  -2   0  14   12.36    0.93
  -2   0  14   12.43    0.85
  -1   0  14   -0.02    0.15
  -1   0  14   -0.01    0.09
   0   0  14    1.18    0.27
   0   0  14    1.18    0.20
  -4   1  14    1.84    0.25
  -4   1  14    2.36    0.34
  -3   1  14    1.76    0.31
  -3   1  14    1.51    0.23
  -2   1  14    0.88    0.18
  -2   1  14    0.84    0.22
  -1   1  14    0.01    0.11
  -1   1  14   -0.02    0.15
  -4   2  14    7.48    0.57
  -4   2  14    6.26    0.61
  -3   2  14    0.75    0.18
  -3   2  14    0.55    0.22
  -1  -2  15    3.34    0.41
  -2  -1  15    8.58    0.71
   0   0   0    0.00    0.00
;
_shelx_hkl_checksum              86908
loop_
_space_group_symop_operation_xyz
'x, y, z'
'-x, -y, -z'
loop_
_atom_site_label
_atom_site_type_symbol
_atom_site_fract_x
_atom_site_fract_y
_atom_site_fract_z
_atom_site_U_iso_or_equiv
_atom_site_adp_type
_atom_site_occupancy
_atom_site_site_symmetry_order
_atom_site_calc_flag
_atom_site_refinement_flags_posn
_atom_site_refinement_flags_adp
C1 C 0.0663(3) -0.2690(3) 0.10544(18) 0.0176(5) Uani 1 1 d . .
C2 C 0.1230(3) -0.0883(3) 0.19365(18) 0.0184(5) Uani 1 1 d . .
C3 C -0.0099(3) -0.0125(3) 0.17635(18) 0.0181(5) Uani 1 1 d . .
C4 C -0.2100(3) -0.1111(3) 0.14498(19) 0.0211(5) Uani 1 1 d . .
H4 H -0.2842 -0.2471 0.1274 0.025 Uiso 1 1 calc R U
C5 C -0.2998(3) -0.0072(3) 0.1398(2) 0.0226(5) Uani 1 1 d . .
H5 H -0.4362 -0.0732 0.1175 0.027 Uiso 1 1 calc R U
C6 C -0.1921(4) 0.1917(4) 0.1668(2) 0.0241(5) Uani 1 1 d . .
H6 H -0.2553 0.2608 0.1642 0.029 Uiso 1 1 calc R U
C7 C 0.0079(3) 0.2906(3) 0.1976(2) 0.0222(5) Uani 1 1 d . .
H7 H 0.0816 0.4266 0.2158 0.027 Uiso 1 1 calc R U
C8 C 0.0983(3) 0.1877(3) 0.20149(18) 0.0188(5) Uani 1 1 d . .
C9 C 0.3123(3) 0.2664(3) 0.23266(19) 0.0197(5) Uani 1 1 d . .
C10 C 0.3171(3) 0.0845(3) 0.18974(19) 0.0191(5) Uani 1 1 d . .
H10A H 0.4262 0.0899 0.2383 0.023 Uiso 1 1 calc R U
H10B H 0.3317 0.0725 0.1118 0.023 Uiso 1 1 calc R U
C11 C 0.1349(3) -0.1443(3) 0.30617(19) 0.0209(5) Uani 1 1 d . .
C12 C -0.0002(4) -0.1735(4) 0.3674(2) 0.0312(6) Uani 1 1 d . .
H12 H -0.1037 -0.1581 0.3407 0.037 Uiso 1 1 calc R U
C13 C 0.0138(5) -0.2250(4) 0.4671(2) 0.0387(7) Uani 1 1 d . .
H13 H -0.0798 -0.2439 0.5081 0.046 Uiso 1 1 calc R U
C14 C 0.1625(4) -0.2489(4) 0.5072(2) 0.0357(7) Uani 1 1 d . .
H14 H 0.1721 -0.2835 0.5757 0.043 Uiso 1 1 calc R U
C15 C 0.2977(4) -0.2219(4) 0.4465(2) 0.0319(6) Uani 1 1 d . .
H15 H 0.4006 -0.2380 0.4734 0.038 Uiso 1 1 calc R U
C16 C 0.2835(4) -0.1715(3) 0.3468(2) 0.0259(6) Uani 1 1 d . .
H16 H 0.3760 -0.1551 0.3053 0.031 Uiso 1 1 calc R U
C17 C 0.3961(4) 0.3491(3) 0.3605(2) 0.0246(5) Uani 1 1 d . .
H17A H 0.3751 0.4533 0.3864 0.037 Uiso 1 1 calc R U
H17B H 0.5343 0.3988 0.3789 0.037 Uiso 1 1 calc R U
H17C H 0.3323 0.2481 0.3978 0.037 Uiso 1 1 calc R U
C18 C 0.4240(4) 0.4218(3) 0.1751(2) 0.0247(5) Uani 1 1 d . .
H18A H 0.3672 0.3726 0.0937 0.037 Uiso 1 1 calc R U
H18B H 0.5586 0.4572 0.1911 0.037 Uiso 1 1 calc R U
H18C H 0.4178 0.5348 0.2038 0.037 Uiso 1 1 calc R U
O1 O 0.1952(2) -0.2891(2) 0.07592(14) 0.0245(4) Uani 1 1 d . .
O2 O -0.1134(2) -0.3992(2) 0.07024(15) 0.0270(4) Uani 1 1 d . .
H2 H -0.1281 -0.4938 0.0239 0.040 Uiso 1 1 calc R U
loop_
_atom_site_aniso_label
_atom_site_aniso_U_11
_atom_site_aniso_U_22
_atom_site_aniso_U_33
_atom_site_aniso_U_23
_atom_site_aniso_U_13
_atom_site_aniso_U_12
C1 0.0136(11) 0.0169(11) 0.0228(11) 0.0086(9) 0.0075(9) 0.0067(9)
C2 0.0143(11) 0.0171(11) 0.0228(11) 0.0056(9) 0.0070(9) 0.0069(9)
C3 0.0168(12) 0.0196(11) 0.0203(11) 0.0074(9) 0.0098(9) 0.0094(10)
C4 0.0173(12) 0.0195(11) 0.0259(12) 0.0065(9) 0.0094(9) 0.0082(10)
C5 0.0138(12) 0.0261(12) 0.0286(12) 0.0090(10) 0.0100(9) 0.0095(10)
C6 0.0224(13) 0.0272(13) 0.0304(13) 0.0112(10) 0.0121(10) 0.0163(11)
C7 0.0196(12) 0.0211(11) 0.0277(12) 0.0081(9) 0.0090(9) 0.0109(10)
C8 0.0158(12) 0.0203(11) 0.0210(11) 0.0073(9) 0.0078(9) 0.0088(10)
C9 0.0151(12) 0.0171(11) 0.0276(12) 0.0078(9) 0.0082(9) 0.0078(9)
C10 0.0134(11) 0.0173(11) 0.0248(11) 0.0068(9) 0.0075(9) 0.0060(9)
C11 0.0213(12) 0.0128(10) 0.0239(12) 0.0042(8) 0.0066(9) 0.0058(9)
C12 0.0280(14) 0.0323(14) 0.0320(14) 0.0130(11) 0.0131(11) 0.0123(12)
C13 0.0411(17) 0.0433(16) 0.0361(15) 0.0203(13) 0.0210(13) 0.0198(14)
C14 0.0465(18) 0.0279(14) 0.0271(13) 0.0122(11) 0.0085(12) 0.0146(13)
C15 0.0392(16) 0.0253(13) 0.0305(13) 0.0063(10) 0.0019(11) 0.0187(12)
C16 0.0285(14) 0.0217(12) 0.0275(12) 0.0058(9) 0.0074(10) 0.0136(11)
C17 0.0217(13) 0.0215(12) 0.0281(12) 0.0045(9) 0.0068(10) 0.0102(10)
C18 0.0190(12) 0.0207(12) 0.0326(13) 0.0106(10) 0.0100(10) 0.0074(10)
O1 0.0204(9) 0.0210(9) 0.0332(9) 0.0057(7) 0.0125(7) 0.0109(7)
O2 0.0174(9) 0.0190(9) 0.0360(10) -0.0011(7) 0.0052(7) 0.0063(7)
loop_
_atom_type_symbol
_atom_type_description
_atom_type_scat_dispersion_real
_atom_type_scat_dispersion_imag
_atom_type_scat_source
C C 0.0033 0.0016 'International Tables Vol C Tables 4.2.6.8 and 6.1.1.4'
H H 0.0000 0.0000 'International Tables Vol C Tables 4.2.6.8 and 6.1.1.4'
O O 0.0106 0.0060 'International Tables Vol C Tables 4.2.6.8 and 6.1.1.4'
loop_
_geom_angle_atom_site_label_1
_geom_angle_atom_site_label_2
_geom_angle_atom_site_label_3
_geom_angle
O1 C1 O2 123.3(2)
O1 C1 C2 119.2(2)
O2 C1 C2 117.31(19)
C1 C2 C3 115.35(18)
C1 C2 C11 103.55(17)
C3 C2 C11 113.18(18)
C1 C2 C10 111.03(18)
C3 C2 C10 101.49(18)
C11 C2 C10 112.60(18)
C4 C3 C8 120.2(2)
C4 C3 C2 129.8(2)
C8 C3 C2 109.96(19)
C3 C4 C5 119.0(2)
C6 C5 C4 120.7(2)
C5 C6 C7 120.4(2)
C8 C7 C6 119.2(2)
C7 C8 C3 120.5(2)
C7 C8 C9 127.6(2)
C3 C8 C9 111.8(2)
C8 C9 C18 112.77(19)
C8 C9 C17 110.76(19)
C18 C9 C17 108.83(19)
C8 C9 C10 101.44(18)
C18 C9 C10 111.44(19)
C17 C9 C10 111.50(19)
C9 C10 C2 106.53(18)
C12 C11 C16 118.1(2)
C12 C11 C2 122.3(2)
C16 C11 C2 119.6(2)
C11 C12 C13 120.8(3)
C14 C13 C12 120.5(3)
C13 C14 C15 119.3(2)
C16 C15 C14 120.3(3)
C15 C16 C11 121.0(2)
loop_
_geom_bond_atom_site_label_1
_geom_bond_atom_site_label_2
_geom_bond_distance
C1 O1 1.251(3)
C1 O2 1.285(3)
C1 C2 1.521(3)
C2 C3 1.522(3)
C2 C11 1.554(3)
C2 C10 1.555(3)
C3 C4 1.393(3)
C3 C8 1.399(3)
C4 C5 1.394(3)
C5 C6 1.389(3)
C6 C7 1.392(3)
C7 C8 1.389(3)
C8 C9 1.515(3)
C9 C18 1.533(3)
C9 C17 1.535(3)
C9 C10 1.544(3)
C11 C12 1.387(4)
C11 C16 1.398(4)
C12 C13 1.387(4)
C13 C14 1.380(4)
C14 C15 1.385(4)
C15 C16 1.382(4)
loop_
_geom_torsion_atom_site_label_1
_geom_torsion_atom_site_label_2
_geom_torsion_atom_site_label_3
_geom_torsion_atom_site_label_4
_geom_torsion
O1 C1 C2 C3 144.0(2)
O2 C1 C2 C3 -40.2(3)
O1 C1 C2 C11 -91.8(2)
O2 C1 C2 C11 84.0(2)
O1 C1 C2 C10 29.3(3)
O2 C1 C2 C10 -155.0(2)
C1 C2 C3 C4 42.8(3)
C11 C2 C3 C4 -76.2(3)
C10 C2 C3 C4 162.9(2)
C1 C2 C3 C8 -139.6(2)
C11 C2 C3 C8 101.3(2)
C10 C2 C3 C8 -19.6(2)
C8 C3 C4 C5 -0.4(3)
C2 C3 C4 C5 177.0(2)
C3 C4 C5 C6 -0.8(3)
C4 C5 C6 C7 1.2(4)
C5 C6 C7 C8 -0.3(3)
C6 C7 C8 C3 -0.9(3)
C6 C7 C8 C9 180.0(2)
C4 C3 C8 C7 1.2(3)
C2 C3 C8 C7 -176.6(2)
C4 C3 C8 C9 -179.55(19)
C2 C3 C8 C9 2.6(3)
C7 C8 C9 C18 -45.9(3)
C3 C8 C9 C18 135.0(2)
C7 C8 C9 C17 76.3(3)
C3 C8 C9 C17 -102.8(2)
C7 C8 C9 C10 -165.2(2)
C3 C8 C9 C10 15.7(2)
C8 C9 C10 C2 -27.5(2)
C18 C9 C10 C2 -147.70(19)
C17 C9 C10 C2 90.5(2)
C1 C2 C10 C9 152.10(18)
C3 C2 C10 C9 29.0(2)
C11 C2 C10 C9 -92.3(2)
C1 C2 C11 C12 -108.5(2)
C3 C2 C11 C12 17.1(3)
C10 C2 C11 C12 131.5(2)
C1 C2 C11 C16 69.8(2)
C3 C2 C11 C16 -164.6(2)
C10 C2 C11 C16 -50.2(3)
C16 C11 C12 C13 1.1(4)
C2 C11 C12 C13 179.5(2)
C11 C12 C13 C14 -0.3(4)
C12 C13 C14 C15 -0.3(4)
C13 C14 C15 C16 0.0(4)
C14 C15 C16 C11 0.9(4)
C12 C11 C16 C15 -1.4(3)
C2 C11 C16 C15 -179.8(2)
