#------------------------------------------------------------------------------
#$Date: 2019-11-25 14:03:59 +0200 (Mon, 25 Nov 2019) $
#$Revision: 241046 $
#$URL: file:///home/coder/svn-repositories/cod/cif/4/13/06/4130654.cif $
#------------------------------------------------------------------------------
#
# This file is available in the Crystallography Open Database (COD),
# http://www.crystallography.net/
#
# All data on this site have been placed in the public domain by the
# contributors.
#
data_4130654
loop_
_publ_author_name
'Mauck, Catherine M.'
'Hartnett, Patrick E.'
'Margulies, Eric A.'
'Ma, Lin'
'Miller, Claire E.'
'Schatz, George C.'
'Marks, Tobin J.'
'Wasielewski, Michael R.'
_publ_section_title
;
 Singlet Fission via an Excimer-Like Intermediate in
 3,6-Bis(thiophen-2-yl)diketopyrrolopyrrole Derivatives.
;
_journal_issue                   36
_journal_name_full               'Journal of the American Chemical Society'
_journal_page_first              11749
_journal_page_last               11761
_journal_paper_doi               10.1021/jacs.6b05627
_journal_volume                  138
_journal_year                    2016
_chemical_formula_moiety         'C16 H12 N2 O2 S2'
_chemical_formula_sum            'C16 H12 N2 O2 S2'
_chemical_formula_weight         328.40
_chemical_name_systematic        Me2TDPP
_space_group_crystal_system      monoclinic
_space_group_IT_number           14
_space_group_name_Hall           '-P 2ybc'
_space_group_name_H-M_alt        'P 1 21/c 1'
_atom_sites_solution_hydrogens   geom
_atom_sites_solution_primary     direct
_audit_creation_date             2016-01-20
_audit_creation_method
;
Olex2 1.2
(compiled 2015.09.30 svn.r3233 for OlexSys, GUI svn.r5103)
;
_cell_angle_alpha                90
_cell_angle_beta                 154.939(4)
_cell_angle_gamma                90
_cell_formula_units_Z            2
_cell_length_a                   11.2356(9)
_cell_length_b                   12.9918(10)
_cell_length_c                   11.3681(10)
_cell_measurement_reflns_used    3395
_cell_measurement_temperature    100(2)
_cell_measurement_theta_max      64.91
_cell_measurement_theta_min      5.26
_cell_volume                     702.90(14)
_computing_cell_refinement       'SAINT V7.23A (Bruker, 2005)'
_computing_data_collection       'APEX2 V2.1-4 (Bruker, 2007)'
_computing_data_reduction        'Bruker SAINT'
_computing_molecular_graphics    'Olex2 (Dolomanov et al., 2009)'
_computing_publication_material  'Olex2 (Dolomanov et al., 2009)'
_computing_structure_refinement  'ShelXL (Sheldrick, 2015)'
_computing_structure_solution    'ShelXS (Sheldrick, 2008)'
_diffrn_ambient_temperature      100.01
_diffrn_detector_area_resol_mean 8
_diffrn_measured_fraction_theta_full 0.934
_diffrn_measured_fraction_theta_max 0.991
_diffrn_measurement_device_type  'Bruker Kappa APEX CCD area detector'
_diffrn_measurement_method       '\w and \f scans'
_diffrn_radiation_monochromator  'Quazar optics'
_diffrn_radiation_type           CuK\a
_diffrn_radiation_wavelength     1.54178
_diffrn_reflns_av_R_equivalents  0.0238
_diffrn_reflns_av_unetI/netI     0.0250
_diffrn_reflns_Laue_measured_fraction_full 0.934
_diffrn_reflns_Laue_measured_fraction_max 0.991
_diffrn_reflns_limit_h_max       13
_diffrn_reflns_limit_h_min       -13
_diffrn_reflns_limit_k_max       15
_diffrn_reflns_limit_k_min       -15
_diffrn_reflns_limit_l_max       13
_diffrn_reflns_limit_l_min       -13
_diffrn_reflns_number            3754
_diffrn_reflns_point_group_measured_fraction_full 0.934
_diffrn_reflns_point_group_measured_fraction_max 0.991
_diffrn_reflns_theta_full        67.679
_diffrn_reflns_theta_max         64.907
_diffrn_reflns_theta_min         5.261
_diffrn_source                   microsource
_exptl_absorpt_coefficient_mu    3.511
_exptl_absorpt_correction_T_max  0.7526
_exptl_absorpt_correction_T_min  0.5503
_exptl_absorpt_correction_type   multi-scan
_exptl_absorpt_process_details
;
SADABS-2014/5 (Bruker,2014/5) was used for absorption correction.
wR2(int) was 0.0773 before and 0.0339 after correction.
The Ratio of minimum to maximum transmission is 0.7312.
The \l/2 correction factor is 0.00150.
;
_exptl_crystal_colour            'clear dark red'
_exptl_crystal_colour_lustre     clear
_exptl_crystal_colour_modifier   dark
_exptl_crystal_colour_primary    red
_exptl_crystal_density_diffrn    1.552
_exptl_crystal_description       needle
_exptl_crystal_F_000             340
_exptl_crystal_size_max          1.674
_exptl_crystal_size_mid          0.11
_exptl_crystal_size_min          0.061
_refine_diff_density_max         0.322
_refine_diff_density_min         -0.317
_refine_diff_density_rms         0.061
_refine_ls_extinction_method     none
_refine_ls_goodness_of_fit_ref   1.124
_refine_ls_hydrogen_treatment    constr
_refine_ls_matrix_type           full
_refine_ls_number_parameters     101
_refine_ls_number_reflns         1184
_refine_ls_number_restraints     0
_refine_ls_restrained_S_all      1.124
_refine_ls_R_factor_all          0.0324
_refine_ls_R_factor_gt           0.0320
_refine_ls_shift/su_max          0.000
_refine_ls_shift/su_mean         0.000
_refine_ls_structure_factor_coef Fsqd
_refine_ls_weighting_details
'w=1/[\s^2^(Fo^2^)+(0.0578P)^2^+0.3396P] where P=(Fo^2^+2Fc^2^)/3'
_refine_ls_weighting_scheme      calc
_refine_ls_wR_factor_gt          0.0942
_refine_ls_wR_factor_ref         0.0945
_reflns_Friedel_coverage         0.000
_reflns_number_gt                1162
_reflns_number_total             1184
_reflns_threshold_expression     'I > 2\s(I)'
_cod_data_source_file            ja6b05627_si_002.cif
_cod_data_source_block           me2tdpp_x
_cod_original_cell_volume        702.90(11)
_cod_database_code               4130654
_shelxl_version_number           2013-4
_shelx_space_group_comment
;
The symmetry employed for this shelxl refinement is uniquely defined
by the following loop, which should always be used as a source of
symmetry information in preference to the above space-group names.
They are only intended as comments.
;
_shelx_estimated_absorpt_t_max   0.814
_shelx_estimated_absorpt_t_min   0.067
_olex2_refinement_description
;
1. Fixed Uiso
 At 1.2 times of:
  All C(H) groups
 At 1.5 times of:
  All C(H,H,H) groups
2.a Aromatic/amide H refined with riding coordinates:
 C7(H7), C8(H8), C10(H10)
2.b Idealised Me refined as rotating group:
 C5(H5a,H5b,H5c)
;
_shelx_res_file
;
TITL Me2TDPP_x in P21/n #14
REM reset to P21/n #14
CELL 1.54178 11.2356 12.9918 11.368077 90 154.938909 90
ZERR 2 0.0009 0.001 0.000985 0 0.004 0
LATT 1
SYMM -X,0.5+Y,0.5-Z
SFAC C H N O S
UNIT 32 24 4 4 4

L.S. 10
PLAN  20
SIZE 0.061 0.11 1.674
TEMP -173.14
BOND
fmap 2
MORE -1
BOND $H
CONF
ACTA
REM <olex2.extras>
REM <HklSrc "%.\\Me2TDPP_x.hkl">
REM </olex2.extras>

WGHT    0.057800    0.339600
FVAR       0.25376
S1    5    0.159979    0.166474   -0.130086    11.00000    0.02265    0.01917 =
         0.01947    0.00057    0.01930   -0.00118
O1    4    0.780759    0.189761    0.835540    11.00000    0.02237    0.01566 =
         0.01926   -0.00255    0.01890   -0.00190
N2    3    0.497738    0.149837    0.421625    11.00000    0.01667    0.01351 =
         0.01539    0.00039    0.01455   -0.00012
C3    1    0.585612    0.017378    0.623520    11.00000    0.01476    0.01640 =
         0.01524   -0.00011    0.01376    0.00005
C4    1    0.361629    0.064219    0.253437    11.00000    0.01344    0.01538 =
         0.01677    0.00128    0.01375    0.00151
C5    1    0.483884    0.255390    0.366703    11.00000    0.02752    0.01406 =
         0.02485    0.00045    0.02421   -0.00019
AFIX 137
H5A   2    0.566409    0.259209    0.361728    11.00000   -1.50000
H5B   2    0.588656    0.300417    0.513982    11.00000   -1.50000
H5C   2    0.287260    0.277614    0.187421    11.00000   -1.50000
AFIX   0
C6    1    0.642700    0.125624    0.657084    11.00000    0.01528    0.01706 =
         0.01703    0.00259    0.01493    0.00252
C7    1    0.063093   -0.023802   -0.164800    11.00000    0.01670    0.02171 =
         0.01641    0.00322    0.01527    0.00381
AFIX  43
H7    2    0.060436   -0.088683   -0.128652    11.00000   -1.20000
AFIX   0
C8    1   -0.074032   -0.003499   -0.394908    11.00000    0.02155    0.02135 =
         0.01952   -0.00086    0.01876    0.00108
AFIX  43
H8    2   -0.179270   -0.053761   -0.530876    11.00000   -1.20000
AFIX   0
C9    1    0.203209    0.062645    0.003643    11.00000    0.01458    0.01643 =
         0.01597    0.00304    0.01402    0.00278
C10   1   -0.041153    0.095187   -0.403635    11.00000    0.02169    0.02423 =
         0.01884    0.00216    0.01882    0.00218
AFIX  43
H10   2   -0.121104    0.121229   -0.545766    11.00000   -1.20000
AFIX   0
HKLF 4 1 0 0 1 0 1 0 -1 0 -1

REM  Me2TDPP_x in P21/n #14
REM R1 =  0.0320 for    1162 Fo > 4sig(Fo)  and  0.0324 for all    1184 data
REM    101 parameters refined using      0 restraints

END

WGHT      0.0578      0.3396

REM Highest difference peak  0.322,  deepest hole -0.317,  1-sigma level  0.061
Q1    1   0.6239  0.0656  0.6572  11.00000  0.05    0.32
Q2    1   0.5000  0.0000  0.5000  10.50000  0.05    0.28
Q3    1   0.0388  0.1291 -0.2895  11.00000  0.05    0.26
Q4    1   0.1630  0.1131 -0.0722  11.00000  0.05    0.26
Q5    1   0.5674  0.1383  0.5315  11.00000  0.05    0.23
Q6    1   0.0101 -0.0170 -0.2599  11.00000  0.05    0.22
Q7    1   0.6802 -0.0210  0.7397  11.00000  0.05    0.21
Q8    1   0.3909  0.1104  0.2996  11.00000  0.05    0.21
Q9    1   0.5789 -0.0103  0.6709  11.00000  0.05    0.21
Q10   1   0.1592  0.0060 -0.0497  11.00000  0.05    0.20
Q11   1   0.2699  0.0690  0.1094  11.00000  0.05    0.20
Q12   1   0.4794  0.2021  0.3898  11.00000  0.05    0.19
Q13   1   0.0639  0.0208 -0.1336  11.00000  0.05    0.18
Q14   1  -0.0861  0.0536 -0.4116  11.00000  0.05    0.18
Q15   1   0.2961  0.1107  0.0209  11.00000  0.05    0.17
Q16   1   0.4284  0.1694  0.0920  11.00000  0.05    0.17
Q17   1   0.9611  0.0813  0.8976  11.00000  0.05    0.16
Q18   1   1.0904  0.1938  1.0987  11.00000  0.05    0.16
Q19   1  -0.1396 -0.1298 -0.2399  11.00000  0.05    0.15
Q20   1  -0.3138  0.0575 -0.6168  11.00000  0.05    0.14
;
_shelx_res_checksum              65005
_shelx_hkl_file
;
   2   0   0    0.89    0.08
   3   0   0    0.00    0.01
   4   0   0  155.57    5.56
   4   0   0  158.99    5.56
   4   0   0  164.42    5.58
   4   0   0  163.88    5.56
   0   1   0   -0.01    0.01
   1  -1   0    9.01    0.32
   2   1   0  222.38    7.85
   3  -1   0    0.31    0.03
   3   1   0    0.30    0.03
   4  -1   0    0.64    0.05
   4  -1   0    0.72    0.05
   4  -1   0    0.80    0.06
   4   1   0    0.64    0.05
   4   1   0    0.72    0.04
   4   1   0    0.65    0.05
   4   1   0    0.69    0.05
   5  -1   0   13.29    0.47
   5  -1   0   13.24    0.47
   5  -1   0   12.80    0.47
   5   1   0   12.82    0.47
   5   1   0   13.15    0.47
   5   1   0   13.07    0.48
   0   2   0   15.99    0.56
   0   2   0   16.18    0.56
   1   2   0  137.65    4.84
   1   2   0  141.41    4.89
   2   2   0    3.25    0.16
   3  -2   0   33.11    1.16
   3   2   0   33.43    1.16
   4  -2   0   13.45    0.49
   4  -2   0   13.33    0.48
   4  -2   0   12.82    0.48
   4  -2   0   13.18    0.49
   4   2   0   13.85    0.49
   4   2   0   13.46    0.49
   4   2   0   14.14    0.48
   5  -2   0   51.50    1.80
   5  -2   0   50.20    1.80
   5  -2   0   53.31    1.80
   5   2   0   51.43    1.80
   5   2   0   52.23    1.81
   0   3   0   -0.23    0.02
   1   3   0   63.36    2.23
   1   3   0   64.24    2.21
   2   3   0  119.07    4.16
   2   3   0  118.67    4.11
   3  -3   0   75.01    2.58
   3   3   0   73.38    2.66
   3   3   0   75.37    2.58
   4  -3   0    2.67    0.12
   4  -3   0    2.69    0.11
   4  -3   0    2.79    0.12
   4  -3   0    2.79    0.12
   4   3   0    2.75    0.11
   4   3   0    2.71    0.13
   4   3   0    2.80    0.12
   5  -3   0   17.00    0.60
   5  -3   0   16.76    0.60
   5   3   0   16.75    0.60
   0   4   0    1.55    0.07
   1   4   0  218.39    7.76
   1   4   0  228.43    7.82
   2  -4   0    3.83    0.15
   2   4   0    4.18    0.16
   2   4   0    4.10    0.20
   3  -4   0    1.09    0.05
   3   4   0    1.19    0.12
   4  -4   0    0.58    0.05
   4  -4   0    0.54    0.04
   4  -4   0    0.44    0.04
   4   4   0    0.43    0.05
   4   4   0    0.44    0.05
   5  -4   0   18.81    0.67
   5  -4   0   18.69    0.67
   5   4   0   19.15    0.67
   0   5   0   -0.01    0.02
   1   5   0   36.69    1.29
   1   5   0   35.81    1.27
   2  -5   0  112.91    3.82
   2   5   0  106.93    3.85
   2   5   0  109.85    3.81
   3  -5   0   49.38    1.70
   3  -5   0   46.35    1.69
   3  -5   0   47.29    1.69
   3   5   0   52.94    1.79
   3   5   0   47.39    1.70
   4  -5   0    0.91    0.07
   4  -5   0    0.91    0.05
   4   5   0    0.95    0.06
   5  -5   0    0.01    0.01
   5  -5   0    0.02    0.02
   5   5   0    0.02    0.02
   0   6   0  154.81    5.37
   1   6   0    0.87    0.06
   2   6   0    0.39    0.05
   2   6   0    0.44    0.07
   3  -6   0    5.47    0.21
   3  -6   0    5.82    0.22
   3   6   0    5.36    0.23
   4  -6   0   77.98    2.65
   4  -6   0   75.67    2.64
   4   6   0   74.29    2.64
   5  -6   0    0.00    0.02
   5   6   0   -0.02    0.02
   0   7   0    0.01    0.02
   1   7   0   40.99    1.45
   2   7   0   56.39    2.02
   2   7   0   56.31    1.98
   3  -7   0    1.58    0.09
  -3   7   0    1.77    0.08
   4  -7   0    0.03    0.03
   5  -7   0    0.13    0.02
   1   8   0    1.49    0.09
  -2   8   0    1.14    0.06
   2   8   0    1.16    0.05
   2   8   0    1.13    0.08
  -3   8   0    0.71    0.04
   4  -8   0    5.69    0.23
   0  -9   0    0.00    0.01
   1  -9   0   72.19    2.52
  -1  -9   0   71.33    2.52
   1   9   0   72.79    2.51
   1   9   0   73.80    2.56
  -1   9   0   72.71    2.51
  -2   9   0    1.03    0.06
   2   9   0    1.11    0.05
   3  -9   0   25.31    0.96
  -3   9   0   28.38    0.94
   4  -9   0   15.95    0.60
  -4   9   0   17.03    0.58
   0 -10   0   12.63    0.45
   0  10   0   12.26    0.44
   1 -10   0    7.78    0.28
  -1 -10   0    7.68    0.28
  -1  10   0    7.69    0.28
  -1  10   0    7.50    0.28
   1  10   0    7.81    0.27
  -2 -10   0    0.41    0.04
   2  10   0    0.41    0.03
  -2  10   0    0.44    0.04
   3 -10   0    9.74    0.37
  -3  10   0    9.84    0.35
   4 -10   0    0.32    0.04
  -4  10   0    0.31    0.03
   0 -11   0    0.01    0.01
   0  11   0    0.01    0.01
   1 -11   0    1.79    0.08
  -1 -11   0    1.82    0.08
  -1  11   0    1.78    0.08
   1  11   0    1.85    0.07
  -1  11   0    1.92    0.08
  -2 -11   0   82.65    3.00
  -2  11   0   86.07    2.99
   2  11   0   90.60    2.99
   3 -11   0    9.14    0.34
  -3  11   0    8.77    0.33
  -3  11   0    8.98    0.33
   0 -12   0   62.56    2.14
   0  12   0   60.53    2.13
   1 -12   0   10.05    0.36
  -1 -12   0    9.90    0.36
   1  12   0   10.40    0.35
  -1  12   0    9.92    0.36
  -1  12   0    9.50    0.35
  -1  12   0    9.86    0.36
  -2 -12   0    0.80    0.05
   2  12   0    0.84    0.04
  -2  12   0    0.99    0.05
  -2  12   0    0.85    0.05
   3 -12   0    1.76    0.08
  -3  12   0    1.76    0.08
   0 -13   0    0.06    0.02
   0  13   0    0.01    0.01
  -1 -13   0    0.08    0.02
  -1  13   0    0.04    0.01
  -1  13   0    0.06    0.02
   1  13   0    0.05    0.01
  -2 -13   0   10.75    0.38
  -2  13   0   10.47    0.38
   2  13   0   10.28    0.37
   0 -14   0    1.01    0.05
   0  14   0    1.07    0.05
  -1 -14   0    3.94    0.15
   1  14   0    3.82    0.14
  -1  14   0    4.04    0.16
  -2 -14   0    1.66    0.07
  -2  14   0    1.58    0.07
   2  14   0    1.56    0.06
   0 -15   0   -0.02    0.01
   0  15   0   -0.02    0.01
   1  15   0    6.33    0.22
   5   0  -1    5.85    0.22
   5   0  -1    5.76    0.22
   5   0  -1    5.86    0.22
   4   0  -1   -0.01    0.02
   4   0  -1    0.00    0.02
   4   0  -1    0.00    0.02
   4   0  -1    0.01    0.02
   3   0  -1   97.08    3.36
   1   0  -1    8.00    0.28
   0   0   1   -0.03    0.01
   1   0   1  189.53    6.59
   2   0   1    0.00    0.03
   3   0   1   19.84    0.67
   3   0   1   18.25    0.74
   4   0   1   -0.03    0.02
   4   0   1    0.02    0.02
   4   0   1    0.00    0.02
   5   0   1   53.41    1.83
   5   0   1   52.37    1.84
   5   0   1   52.02    1.83
   5  -1  -1    0.32    0.04
   5  -1  -1    0.37    0.04
   5   1  -1    0.37    0.04
   5   1  -1    0.37    0.04
   5   1  -1    0.40    0.04
   4  -1  -1    5.55    0.21
   4  -1  -1    5.65    0.22
   4  -1  -1    5.56    0.21
   4   1  -1    5.51    0.22
   4   1  -1    5.51    0.21
   4   1  -1    5.49    0.21
   4   1  -1    5.38    0.21
   3  -1  -1    3.37    0.13
   3   1  -1    3.47    0.13
   1  -1  -1    9.52    0.34
   1  -1  -1    9.44    0.33
   1   1  -1    9.78    0.34
   0   1  -1  195.13    6.67
   0   1   1  189.43    6.67
   1  -1   1    0.04    0.02
   1   1   1    0.05    0.03
   1   1   1    0.06    0.02
   2  -1   1   71.33    2.56
   2   1   1   74.27    2.54
   2   1   1   73.28    2.57
   3  -1   1   27.15    0.92
   3   1   1   27.09    0.92
   3   1   1   25.09    1.00
   4  -1   1    6.36    0.22
   4  -1   1    5.21    0.23
   4  -1   1    6.09    0.23
   4  -1   1    5.81    0.23
   4   1   1    6.25    0.23
   4   1   1    6.08    0.24
   4   1   1    6.52    0.23
   5  -1   1    6.86    0.26
   5  -1   1    6.79    0.26
   5  -1   1    6.79    0.25
   5   1   1    6.67    0.25
   5   1   1    7.28    0.27
   5  -2  -1    2.82    0.11
   5  -2  -1    2.93    0.12
   5  -2  -1    2.87    0.12
   5   2  -1    2.73    0.12
   5   2  -1    2.82    0.12
   5   2  -1    2.97    0.12
   4  -2  -1   33.28    1.15
   4  -2  -1   32.77    1.14
   4  -2  -1   33.17    1.15
   4  -2  -1   32.13    1.14
   4   2  -1   31.75    1.14
   4   2  -1   31.53    1.15
   4   2  -1   34.05    1.14
   4   2  -1   31.88    1.14
   3  -2  -1   15.25    0.55
   3   2  -1   15.68    0.54
   2   2  -1    2.92    0.15
   1  -2  -1   73.46    2.53
   1   2  -1   74.19    2.53
   1   2  -1   73.53    2.54
   1   2  -1   71.95    2.55
   0  -2   1  344.43   12.23
   0   2  -1  355.18   12.75
   0   2   1  361.94   12.26
   1   2   1    1.04    0.05
   1   2   1    1.04    0.07
   2  -2   1   18.52    0.71
   2   2   1   19.65    0.68
   2   2   1   20.16    0.68
   2   2   1   18.86    0.72
   3  -2   1    0.12    0.02
   3   2   1    0.13    0.05
   4  -2   1    3.08    0.13
   4  -2   1    3.53    0.14
   4  -2   1    3.33    0.14
   4  -2   1    3.17    0.13
   4   2   1    3.16    0.13
   4   2   1    3.15    0.13
   4   2   1    3.03    0.14
   5  -2   1    0.56    0.04
   5  -2   1    0.54    0.04
   5  -2   1    0.51    0.04
   5   2   1    0.56    0.04
   5   2   1    0.71    0.06
   5  -3  -1   14.11    0.51
   5  -3  -1   13.67    0.50
   5  -3  -1   13.75    0.50
   5   3  -1   14.46    0.51
   4  -3  -1    3.28    0.14
   4  -3  -1    3.26    0.14
   4  -3  -1    3.21    0.13
   4  -3  -1    3.21    0.14
   4   3  -1    3.38    0.13
   4   3  -1    3.20    0.14
   4   3  -1    3.17    0.13
   3  -3  -1    0.26    0.03
   3   3  -1    0.21    0.03
   2   3  -1   66.21    2.38
   2   3  -1   71.23    2.43
   1   3  -1   21.28    0.72
   1   3  -1   20.35    0.75
   1   3  -1   20.82    0.73
   0  -3   1   14.46    0.53
   0   3  -1   15.26    0.53
   0   3   1   15.55    0.54
   1   3   1    0.66    0.06
   1   3   1    0.66    0.05
   2   3   1   74.96    2.70
   2   3   1   77.82    2.65
   3  -3   1    6.60    0.24
   3   3   1    6.75    0.32
   4  -3   1    5.53    0.21
   4  -3   1    5.39    0.21
   4  -3   1    5.59    0.22
   4  -3   1    5.61    0.22
   4   3   1    5.83    0.21
   4   3   1    5.64    0.21
   4   3   1    5.46    0.22
   5  -3   1    1.06    0.05
   5  -3   1    1.07    0.06
   5   3   1    1.08    0.07
   5  -4  -1    5.96    0.22
   5  -4  -1    5.83    0.23
   5   4  -1    6.07    0.23
   4  -4  -1   36.87    1.30
   4  -4  -1   36.02    1.31
   4  -4  -1   37.24    1.30
   4   4  -1   38.48    1.30
   4   4  -1   37.11    1.31
   3  -4  -1    7.04    0.26
   3   4  -1    7.35    0.26
   2   4  -1   23.05    0.81
   2   4  -1   23.10    0.86
   1   4  -1    1.22    0.07
   1   4  -1    1.21    0.05
   1   4  -1    1.18    0.08
   0   4  -1   13.14    0.47
   0   4   1   13.82    0.49
   0   4  -1   13.39    0.48
   1   4   1   14.22    0.52
   1   4   1   14.95    0.54
   2  -4   1    5.23    0.19
   2   4   1    5.23    0.25
   2   4   1    5.28    0.21
   3  -4   1    0.69    0.04
   3   4   1    0.64    0.10
   3   4   1    0.65    0.05
   3   4   1    0.76    0.04
   4  -4   1   59.61    2.19
   4  -4   1   62.62    2.19
   4  -4   1   64.28    2.20
   4   4   1   63.94    2.19
   4   4   1   64.70    2.20
   5  -4   1    2.12    0.09
   5  -4   1    2.02    0.08
   5   4   1    2.01    0.10
   5  -5  -1    4.43    0.19
   5  -5  -1    5.08    0.18
   5   5  -1    4.94    0.19
   4  -5  -1    3.15    0.13
   4  -5  -1    3.14    0.13
   4  -5  -1    3.05    0.14
   4   5  -1    3.12    0.13
   3  -5  -1   21.36    0.76
   3  -5  -1   22.27    0.77
   3   5  -1   21.01    0.76
   2   5  -1   13.43    0.54
   2   5  -1   14.65    0.51
   1   5  -1    0.34    0.05
   1   5  -1    0.33    0.04
   0   5   1    6.92    0.26
   0   5  -1    6.85    0.26
   0   5   1    6.99    0.27
   0   5  -1    6.72    0.24
   1   5   1   41.22    1.48
   1   5   1   43.10    1.50
   2   5   1   18.13    0.68
   2   5   1   16.99    0.63
   3  -5   1  125.95    4.61
   3  -5   1  141.67    4.64
   3   5   1  140.63    4.71
   3   5   1  131.69    4.62
   3   5   1  126.57    4.62
   4  -5   1    1.08    0.06
   4  -5   1    1.24    0.07
   4   5   1    1.17    0.07
   5  -5   1    9.63    0.34
   5   5   1    9.12    0.34
   5  -6  -1    3.21    0.15
   5  -6  -1    4.49    0.15
   4  -6  -1   37.40    1.23
   4  -6  -1   36.09    1.25
   4  -6  -1   34.71    1.24
   4   6  -1   33.08    1.24
   3  -6  -1    4.53    0.18
   3  -6  -1    4.22    0.17
   3  -6  -1    4.57    0.17
   3   6  -1    4.11    0.18
   2   6  -1    0.00    0.02
   1   6  -1   31.41    1.11
   0   6  -1   21.49    0.77
   0   6   1   21.34    0.77
   1   6   1  174.69    6.13
   1   6   1  179.16    6.15
   2   6   1    3.03    0.18
   2   6   1    3.02    0.14
   3  -6   1   20.25    0.71
   3   6   1   20.03    0.80
   3   6   1   18.63    0.70
   4  -6   1    0.07    0.03
   4   6   1    0.01    0.02
   5  -6   1   34.76    1.20
   5   6   1   33.71    1.19
   5  -7  -1    3.40    0.14
   4  -7  -1    6.66    0.27
   4  -7  -1    7.21    0.26
   3  -7  -1   15.02    0.54
   3  -7  -1   14.76    0.55
  -3   7   1   15.44    0.54
   2   7  -1   62.94    2.21
   1   7  -1   20.31    0.74
   0   7   1    3.10    0.15
   0   7  -1    3.10    0.15
   1   7   1   81.28    2.84
   2   7   1    8.86    0.35
   2   7   1    9.03    0.39
   3  -7   1    2.48    0.13
  -3   7  -1    2.43    0.11
   3   7   1    2.96    0.20
   4  -7   1    2.74    0.13
   4  -8  -1   17.91    0.62
   4  -8  -1   15.80    0.61
   3  -8  -1    1.47    0.09
   3  -8  -1    1.42    0.07
  -3   8   1    1.48    0.07
   2   8  -1    7.60    0.27
  -2   8   1    8.02    0.28
   2   8  -1    7.65    0.31
   1   8  -1   22.52    0.82
   1   8   1   18.40    0.69
   2   8   1    4.04    0.19
  -2   8  -1    4.02    0.16
   2   8   1    4.04    0.15
   3  -8   1   26.21    1.05
  -3   8  -1   32.71    1.03
   4  -8   1    3.80    0.16
   4  -9  -1    7.54    0.28
  -4   9   1    7.48    0.27
  -4   9   1    7.22    0.27
   3  -9  -1    0.45    0.05
  -3   9   1    0.48    0.04
   2   9  -1   71.50    2.45
  -2   9   1   70.12    2.46
   1  -9  -1    0.04    0.01
  -1   9   1    0.02    0.02
   1   9  -1    0.06    0.03
   1   9  -1    0.04    0.01
   0  -9   1    4.17    0.15
   0  -9  -1    3.81    0.15
  -1  -9  -1    4.19    0.16
   1  -9   1    4.37    0.16
   1   9   1    4.20    0.16
   1   9   1    4.23    0.20
  -1   9  -1    4.24    0.16
   2   9   1   55.64    1.90
  -2   9  -1   54.19    1.91
   3  -9   1    0.12    0.03
  -3   9  -1    0.20    0.03
  -3   9  -1    0.14    0.02
   4  -9   1    1.99    0.09
  -4   9  -1    1.85    0.08
   4 -10  -1    5.35    0.20
  -4  10   1    4.99    0.19
   3 -10  -1    4.02    0.17
  -3  10   1    3.76    0.15
  -2 -10   1   13.11    0.49
  -2  10   1   13.84    0.49
   2  10  -1   13.73    0.48
   1 -10  -1   23.03    0.78
  -1 -10   1   21.06    0.78
   1  10  -1   22.01    0.77
  -1  10   1   21.57    0.77
  -1  10   1   22.29    0.77
   0 -10   1  102.33    3.48
   0 -10  -1   98.49    3.48
   0  10  -1  100.32    3.47
   1 -10   1   13.02    0.45
  -1 -10  -1   12.21    0.45
  -1  10  -1   12.15    0.45
   1  10   1   12.69    0.44
  -2 -10  -1    7.00    0.27
  -2  10  -1    7.57    0.27
   2  10   1    7.30    0.26
   3 -10   1   13.28    0.51
  -3  10  -1   14.18    0.50
  -3  10  -1   14.06    0.50
   4 -10   1   22.49    0.78
  -4  10  -1   21.61    0.77
   3 -11  -1    0.18    0.03
  -3  11   1    0.17    0.03
  -2 -11   1    0.60    0.04
   2  11  -1    0.64    0.03
  -2  11   1    0.59    0.05
  -1 -11   1  101.63    3.37
   1 -11  -1   93.63    3.36
  -1  11   1   98.11    3.36
   1  11  -1   98.09    3.36
  -1  11   1   94.16    3.36
   0 -11  -1    2.48    0.11
   0 -11   1    2.59    0.11
   0  11   1    2.64    0.10
   0  11  -1    2.55    0.10
  -1 -11  -1    3.19    0.13
   1 -11   1    3.09    0.13
   1  11   1    3.13    0.12
  -1  11  -1    2.99    0.12
  -1  11  -1    2.97    0.12
  -1  11  -1    3.00    0.12
  -2 -11  -1    1.44    0.07
   2  11   1    1.53    0.06
  -2  11  -1    1.42    0.07
  -2  11  -1    1.40    0.07
   3 -11   1   24.55    0.86
  -3  11  -1   24.02    0.85
   3 -12  -1   16.76    0.62
  -3  12   1   18.03    0.62
  -3  12   1   17.74    0.62
  -2 -12   1    0.04    0.02
   2  12  -1    0.05    0.01
  -2  12   1    0.04    0.02
   1 -12  -1    9.36    0.33
  -1 -12   1    8.93    0.33
  -1  12   1    8.51    0.32
  -1  12   1    8.60    0.32
   1  12  -1    9.49    0.32
   0 -12  -1   18.70    0.67
   0 -12   1   19.43    0.67
   0  12   1   18.53    0.66
   0  12  -1   18.54    0.66
  -1 -12  -1   20.70    0.73
   1 -12   1   19.25    0.72
  -1  12  -1   20.98    0.72
   1  12   1   21.46    0.72
  -1  12  -1   19.90    0.72
  -2 -12  -1    0.03    0.02
  -2  12  -1    0.03    0.02
   2  12   1    0.03    0.01
   3 -12   1    8.87    0.32
  -3  12  -1    8.47    0.31
   3 -13  -1    0.99    0.05
  -3  13   1    0.92    0.05
  -2 -13   1    8.85    0.32
  -2  13   1    8.85    0.32
  -2  13   1    8.87    0.32
   2  13  -1    8.48    0.31
  -1 -13   1    0.98    0.06
  -1  13   1    1.04    0.05
   1  13  -1    1.01    0.05
  -1  13   1    0.97    0.05
   0 -13  -1    3.44    0.14
   0 -13   1    3.50    0.14
   0  13  -1    3.53    0.13
   0  13   1    3.55    0.13
  -1 -13  -1    0.04    0.02
   1  13   1    0.03    0.01
  -1  13  -1    0.06    0.02
  -2 -13  -1    0.09    0.02
  -2  13  -1    0.09    0.02
   2  13   1    0.10    0.01
  -2 -14   1    2.33    0.09
   2 -14  -1    2.29    0.10
  -2  14   1    2.40    0.09
   2  14  -1    2.18    0.08
  -1 -14   1    4.45    0.17
  -1  14   1    4.18    0.16
   1  14  -1    4.30    0.16
   0 -14   1    5.30    0.20
   0 -14  -1    5.11    0.20
   0  14  -1    5.28    0.19
   0  14   1    5.31    0.19
  -1 -14  -1    2.22    0.09
   1  14   1    2.15    0.08
  -2 -14  -1    2.38    0.10
  -1 -15   1    0.10    0.02
   1  15  -1    0.10    0.01
   0 -15  -1   17.25    0.63
   0 -15   1   17.74    0.63
   0  15  -1   18.00    0.62
   0  15   1   18.33    0.62
   5   0  -2   -0.01    0.02
   5   0  -2    0.00    0.02
   5   0  -2    0.03    0.02
   4   0  -2   36.31    1.26
   4   0  -2   36.52    1.26
   4   0  -2   35.96    1.26
   4   0  -2   35.21    1.26
   3   0  -2    0.01    0.02
   2   0  -2   10.00    0.35
   0   0   2   37.55    1.25
   0   0   2   34.46    1.25
   1   0   2   -0.01    0.02
   1   0   2   -0.04    0.02
   1   0   2    0.00    0.02
   2   0   2   85.26    2.90
   2   0   2   85.04    2.92
   2   0   2   81.48    2.95
   4   0   2    0.37    0.05
   4   0   2    0.41    0.04
   4   0   2    0.42    0.04
   5   0   2    0.03    0.02
   5   0   2   -0.02    0.02
   5  -1  -2    0.08    0.02
   5  -1  -2    0.07    0.02
   5  -1  -2    0.04    0.02
   5   1  -2    0.05    0.02
   5   1  -2    0.04    0.02
   5   1  -2    0.01    0.02
   4  -1  -2    6.10    0.25
   4  -1  -2    6.48    0.25
   4  -1  -2    6.18    0.24
   4  -1  -2    6.56    0.25
   4   1  -2    6.62    0.25
   4   1  -2    6.44    0.24
   4   1  -2    6.78    0.25
   4   1  -2    6.49    0.25
   3  -1  -2    0.07    0.02
   3   1  -2    0.06    0.02
   2  -1  -2   40.77    1.42
  -2  -1   2   41.32    1.44
   2   1  -2   41.07    1.43
   2   1  -2   41.18    1.42
  -1  -1   2  597.81   23.27
   1   1  -2  685.75   22.43
   1   1  -2  634.09   22.60
   0  -1   2    0.51    0.03
   0   1   2    0.49    0.03
   0   1   2    0.54    0.04
   1  -1   2    0.96    0.06
   1  -1   2    0.83    0.05
   1   1   2    0.99    0.05
   1   1   2    0.82    0.06
   1   1   2    0.81    0.05
   2  -1   2    6.30    0.27
   2   1   2    6.20    0.28
   2   1   2    6.87    0.25
   2   1   2    6.67    0.23
   3  -1   2   71.17    2.30
   3  -1   2   62.73    2.37
   3   1   2   65.28    2.38
   4  -1   2   14.19    0.53
   4  -1   2   14.19    0.51
   4  -1   2   14.15    0.52
   4   1   2   14.62    0.53
   4   1   2   14.32    0.52
   4   1   2   14.97    0.51
   5  -1   2    0.01    0.01
   5  -1   2    0.05    0.02
   5   1   2    0.01    0.02
   5  -2  -2    1.30    0.07
   5  -2  -2    1.24    0.07
   5  -2  -2    1.33    0.06
   5   2  -2    1.29    0.07
   5   2  -2    1.34    0.07
   5   2  -2    1.24    0.06
   4  -2  -2   10.13    0.37
   4  -2  -2    9.73    0.37
   4  -2  -2    9.82    0.36
   4  -2  -2   10.40    0.37
   4   2  -2   10.02    0.37
   4   2  -2   10.17    0.37
  -4   2   2    9.18    0.40
   4   2  -2   10.30    0.36
   4   2  -2   10.09    0.36
   3  -2  -2   74.98    2.61
   3   2  -2   75.99    2.61
  -2  -2   2   28.71    1.01
   2   2  -2   29.17    1.01
  -1  -2   2    5.04    0.18
   1   2  -2    4.83    0.18
   0  -2   2   37.05    1.25
   0   2   2   36.02    1.25
   0   2   2   34.51    1.25
   0   2  -2   36.03    1.25
   1  -2   2   15.44    0.56
   1   2   2   14.72    0.55
   1   2   2   16.17    0.56
   1   2   2   16.03    0.58
   2  -2   2   43.31    1.53
   2  -2   2   41.70    1.56
   2   2   2   47.02    1.54
   2   2   2   44.34    1.59
   3  -2   2    0.13    0.02
   3   2   2    0.20    0.06
   4  -2   2    1.93    0.09
   4  -2   2    1.90    0.10
   4  -2   2    1.92    0.09
   4   2   2    2.11    0.09
   4   2   2    1.97    0.10
   5  -2   2    1.11    0.06
   5  -2   2    1.11    0.06
   5   2   2    1.11    0.07
   5  -3  -2   39.81    1.42
   5  -3  -2   40.25    1.41
   5  -3  -2   40.68    1.41
   5   3  -2   41.10    1.42
   4  -3  -2   11.65    0.43
   4  -3  -2   12.03    0.43
   4  -3  -2   12.05    0.44
   4   3  -2   11.57    0.42
   4   3  -2   11.89    0.43
   4   3  -2   12.27    0.43
   4   3  -2   11.63    0.43
   3  -3  -2    1.71    0.08
   3   3  -2    1.60    0.07
   2   3  -2    0.00    0.01
   1  -3  -2  115.51    4.08
  -1  -3   2  117.58    4.10
   1   3  -2  118.52    4.08
   1   3  -2  121.44    4.11
   0  -3   2    4.15    0.17
   0   3   2    4.51    0.18
   0   3   2    4.10    0.17
   1   3   2    0.03    0.02
   1   3   2    0.03    0.03
   2  -3   2    5.86    0.21
   2   3   2    6.12    0.23
   2   3   2    5.86    0.27
   3  -3   2   29.52    1.08
   3   3   2   31.99    1.19
   3   3   2   32.83    1.09
   3   3   2   30.23    1.10
   4  -3   2   30.17    1.04
   4  -3   2   29.48    1.03
   4   3   2   27.47    1.03
   4   3   2   30.74    1.05
   5  -3   2    2.72    0.11
   5   3   2    2.73    0.12
   5  -4  -2    1.17    0.07
   5  -4  -2    1.22    0.06
   5  -4  -2    1.19    0.06
   4  -4  -2    7.36    0.28
   4  -4  -2    7.39    0.27
   4  -4  -2    7.20    0.28
   4   4  -2    6.98    0.28
   4   4  -2    7.57    0.27
   3   4  -2   83.27    2.89
   2   4  -2   20.97    0.74
   2   4  -2   21.04    0.73
   1   4  -2   19.19    0.67
   1   4  -2   19.13    0.68
   0  -4   2    6.97    0.27
   0   4   2    7.73    0.28
   0   4  -2    7.41    0.27
   0   4   2    6.95    0.26
   1   4   2  197.89    6.84
   1   4   2  190.92    6.76
   2   4   2   13.57    0.49
   2   4   2   13.06    0.53
   3  -4   2    4.28    0.17
   3  -4   2    3.84    0.15
   3   4   2    4.22    0.24
   3   4   2    4.17    0.17
   3   4   2    3.66    0.17
   4  -4   2    0.02    0.02
   4   4   2    0.02    0.03
   5  -4   2   17.03    0.60
   5   4   2   16.72    0.60
   5  -5  -2   17.29    0.64
   5  -5  -2   18.42    0.63
   4  -5  -2    3.44    0.14
   4  -5  -2    3.32    0.14
   4  -5  -2    3.41    0.15
   4   5  -2    3.35    0.14
   3   5  -2    0.16    0.03
   2   5  -2   72.50    2.52
   1   5  -2    4.80    0.20
   1   5  -2    4.92    0.18
   0   5   2  107.57    3.69
   0   5  -2  106.29    3.68
   0   5   2  108.43    3.68
   0   5  -2  102.33    3.66
   1   5   2    3.63    0.18
   1   5   2    3.74    0.16
   2   5   2    7.81    0.34
   2   5   2    7.39    0.30
   3  -5   2   11.00    0.40
   3   5   2   10.66    0.49
   3   5   2   11.00    0.41
   4  -5   2    9.94    0.37
   4   5   2   10.13    0.38
   5  -5   2    0.03    0.02
   5   5   2    0.04    0.02
   5  -6  -2    0.08    0.02
   5  -6  -2    0.05    0.02
   4  -6  -2   42.99    1.49
   4  -6  -2   43.41    1.48
   4  -6  -2   40.69    1.48
   3  -6  -2    0.82    0.05
   3  -6  -2    0.66    0.05
   3  -6  -2    0.68    0.04
   3   6  -2    0.63    0.05
   3   6  -2    0.69    0.04
   2   6  -2    4.50    0.19
   1   6  -2    6.70    0.25
   1   6  -2    6.99    0.27
   0   6   2   11.63    0.44
   0   6  -2   11.50    0.43
   1   6   2   16.18    0.60
   1   6   2   16.09    0.62
   2   6   2   48.30    1.77
   2   6   2   51.89    1.82
   3  -6   2   12.73    0.47
   3   6   2   13.10    0.57
   3   6   2   12.51    0.47
   4  -6   2    7.32    0.28
   4   6   2    7.17    0.28
   5  -7  -2   12.50    0.45
   5  -7  -2   12.59    0.45
   4  -7  -2   34.92    1.26
   4  -7  -2   36.67    1.26
   3  -7  -2    1.35    0.08
   3  -7  -2    1.44    0.08
   3  -7  -2    1.28    0.06
  -3   7   2    1.41    0.07
   3   7  -2    1.27    0.07
   2   7  -2   23.25    0.84
   1   7  -2   37.12    1.32
   0   7   2   19.37    0.71
   0   7  -2   18.96    0.70
   1   7   2   10.42    0.44
   1   7   2   11.21    0.42
  -2   7  -2    0.15    0.02
   2   7   2    0.15    0.02
   2   7   2    0.12    0.04
   2   7   2    0.24    0.06
   3  -7   2  102.22    3.46
   3   7   2  103.19    3.57
  -3   7  -2   96.69    3.45
  -3   7  -2   96.49    3.45
   4  -7   2    4.10    0.17
   4   7   2    4.13    0.17
   4  -8  -2    4.17    0.17
   4  -8  -2    4.13    0.17
   3  -8  -2   24.13    0.83
   3  -8  -2   23.80    0.83
   3   8  -2   21.86    0.82
  -3   8   2   22.90    0.82
  -2   8   2  100.12    3.47
   2   8  -2   98.72    3.46
   2   8  -2  102.19    3.51
   1   8  -2   12.21    0.47
   1   8   2   65.52    2.39
  -1   8  -2   70.16    2.36
  -2   8  -2   24.41    0.89
   2   8   2   26.30    0.89
   2   8   2   25.75    0.99
   3  -8   2    0.68    0.06
  -3   8  -2    0.51    0.04
   3   8   2    0.50    0.10
   4  -8   2    1.10    0.06
   4  -9  -2   13.36    0.48
   4  -9  -2   13.31    0.48
  -4   9   2   13.47    0.48
   3  -9  -2    1.75    0.09
   3  -9  -2    1.82    0.09
   3   9  -2    1.83    0.09
  -3   9   2    1.74    0.08
   2   9  -2   10.13    0.36
  -2   9   2   10.06    0.37
  -1  -9   2   73.51    2.62
   1  -9  -2   77.07    2.62
   1   9  -2   75.22    2.66
  -1   9   2   75.57    2.62
   1   9  -2   76.92    2.61
   0  -9   2   15.97    0.56
   0  -9  -2   15.93    0.55
   0   9  -2   15.22    0.55
   0   9  -2   15.09    0.55
   0   9   2   15.55    0.55
   0   9   2   15.88    0.56
  -1  -9  -2    1.55    0.08
   1  -9   2    1.81    0.08
  -1   9  -2    1.78    0.08
  -1   9  -2    1.78    0.08
   1   9   2    1.65    0.11
   1   9   2    1.71    0.07
   2   9   2    1.60    0.06
  -2   9  -2    1.58    0.08
  -2   9  -2    1.60    0.07
   3  -9   2    0.87    0.07
  -3   9  -2    0.88    0.05
   4  -9   2    2.57    0.11
  -4   9  -2    2.37    0.10
   4 -10  -2    0.29    0.03
  -4  10   2    0.30    0.03
  -4  10   2    0.26    0.03
   3 -10  -2   44.06    1.49
   3  10  -2   40.63    1.48
  -3  10   2   42.92    1.48
  -2 -10   2    0.00    0.02
   2  10  -2    0.00    0.01
  -2  10   2    0.02    0.02
  -1 -10   2   18.38    0.66
   1 -10  -2   18.69    0.66
  -1  10   2   18.69    0.66
   1  10  -2   18.86    0.65
  -1  10   2   17.98    0.65
   0 -10  -2   10.48    0.38
   0 -10   2   10.60    0.38
   0  10  -2   10.19    0.37
   0  10   2   10.33    0.37
  -1 -10  -2   64.96    2.30
   1 -10   2   69.90    2.30
  -1  10  -2   66.21    2.30
   1  10   2   65.19    2.29
  -1  10  -2   64.89    2.30
  -2 -10  -2    1.27    0.07
   2  10   2    1.37    0.06
  -2  10  -2    1.40    0.07
  -2  10  -2    1.40    0.07
   3 -10   2    0.03    0.02
  -3  10  -2    0.03    0.02
   4 -10   2    3.92    0.15
   3 -11  -2    6.12    0.24
   3  11  -2    5.76    0.23
  -3  11   2    6.57    0.23
  -2 -11   2    5.82    0.23
   2  11  -2    6.46    0.22
  -2  11   2    6.48    0.24
  -1 -11   2    3.89    0.15
   1 -11  -2    3.59    0.15
  -1  11   2    3.71    0.15
   1  11  -2    3.87    0.14
  -1  11   2    3.76    0.14
   0 -11   2   17.73    0.64
   0 -11  -2   18.29    0.64
   0  11   2   18.03    0.63
   0  11  -2   18.22    0.63
  -1 -11  -2   15.65    0.55
   1 -11   2   14.99    0.55
  -1  11  -2   15.10    0.54
   1  11   2   15.43    0.54
  -2 -11  -2    9.75    0.36
  -2  11  -2   10.07    0.36
   2  11   2   10.12    0.35
   3 -11   2    6.58    0.25
  -3  11  -2    6.62    0.24
   3 -12  -2    0.90    0.05
  -3  12   2    0.87    0.05
   3  12  -2    0.76    0.05
  -2 -12   2    1.38    0.07
  -2  12   2    1.27    0.07
   2  12  -2    1.37    0.06
   1 -12  -2   11.23    0.40
  -1 -12   2   11.03    0.40
  -1  12   2   10.75    0.40
   1  12  -2   11.40    0.39
  -1  12   2   11.19    0.40
   0 -12   2   41.75    1.45
   0 -12  -2   42.72    1.45
   0  12   2   41.08    1.44
   0  12  -2   40.92    1.44
   1 -12   2   14.41    0.52
  -1 -12  -2   14.69    0.52
  -1  12  -2   14.26    0.52
   1  12   2   14.84    0.51
  -2  12  -2    0.05    0.02
   2  12   2    0.08    0.01
   3 -12   2    2.71    0.12
  -3  12  -2    2.84    0.11
   3 -13  -2    0.47    0.04
  -3  13   2    0.47    0.03
  -2 -13   2    8.17    0.29
   2  13  -2    7.76    0.27
  -2  13   2    7.53    0.28
  -2  13   2    7.70    0.28
  -1 -13   2   12.89    0.46
   1  13  -2   12.55    0.45
  -1  13   2   13.22    0.46
   0 -13  -2   22.25    0.80
   0 -13   2   22.88    0.80
   0  13  -2   22.44    0.79
   0  13   2   23.05    0.79
  -1 -13  -2    0.77    0.05
   1  13   2    0.74    0.04
  -1  13  -2    0.58    0.05
  -2 -13  -2    8.76    0.31
   2  13   2    8.40    0.30
  -2 -14   2    0.21    0.03
  -2  14   2    0.22    0.02
   2  14  -2    0.20    0.02
  -1 -14   2    3.09    0.12
  -1  14   2    3.01    0.12
   1  14  -2    3.08    0.11
   0 -14  -2    2.43    0.10
   0 -14   2    2.55    0.10
   0  14   2    2.53    0.10
   0  14  -2    2.59    0.10
  -1 -14  -2   14.39    0.51
   1  14   2   14.14    0.50
   0 -15  -2    0.22    0.02
   0 -15   2    0.30    0.03
   0  15  -2    0.22    0.02
   0  15   2    0.25    0.02
   5   0  -3   18.92    0.65
   5   0  -3   17.77    0.65
   5   0  -3   18.06    0.65
   4   0  -3    0.06    0.02
   4   0  -3    0.02    0.02
   4   0  -3   -0.01    0.02
   4   0  -3    0.05    0.02
   3   0  -3   85.92    2.89
  -3   0   3   81.06    2.92
   2   0  -3    0.00    0.01
  -2   0   3    0.01    0.03
  -1   0   3 1000.00   36.11
   0   0   3    0.11    0.03
   1   0   3  297.11   10.69
   1   0   3  317.49   10.71
   1   0   3  306.21   10.76
   2   0   3    0.01    0.03
   2   0   3    0.01    0.02
   3   0   3    4.98    0.19
   3   0   3    5.37    0.27
   4   0   3    0.00    0.02
   4   0   3   -0.01    0.02
   5   0   3   26.53    0.94
   5  -1  -3   45.97    1.62
   5  -1  -3   46.71    1.62
   5  -1  -3   46.58    1.62
   5   1  -3   46.53    1.61
   5   1  -3   46.33    1.62
   5   1  -3   46.66    1.62
   4  -1  -3   27.14    0.97
   4  -1  -3   28.33    0.98
   4  -1  -3   26.62    0.97
   4  -1  -3   29.16    0.98
   4   1  -3   27.37    0.97
   4   1  -3   27.00    0.97
   4   1  -3   27.14    0.97
   4   1  -3   28.02    0.97
  -3  -1   3    1.03    0.11
  -3   1   3    1.26    0.09
   3   1  -3    1.43    0.06
   2  -1  -3    9.41    0.33
  -2  -1   3    9.53    0.35
  -2   1   3    9.53    0.36
   2   1  -3    9.34    0.34
  -1  -1   3  803.15   29.19
  -1   1   3  831.68   30.43
   0  -1   3  187.84    6.56
   0  -1   3  191.24    6.55
   0   1   3  184.01    6.56
   0   1   3  190.40    6.55
   1  -1   3    0.11    0.03
   1  -1   3    0.17    0.03
   1  -1   3    0.14    0.04
   1   1   3    0.17    0.05
   1   1   3    0.15    0.03
   2  -1   3    8.17    0.35
   2   1   3    8.68    0.36
   2   1   3    8.55    0.32
   3  -1   3   74.68    2.98
   3  -1   3   81.74    3.04
   3   1   3   90.85    2.98
   3   1   3   92.29    2.97
   3   1   3   89.31    3.07
   4  -1   3   80.47    2.89
   4  -1   3   85.47    2.91
   4   1   3   84.74    2.91
   5  -1   3    2.12    0.10
   5   1   3    2.16    0.10
   5  -2  -3    0.10    0.02
   5   2  -3    0.13    0.03
   5   2  -3    0.12    0.02
   4  -2  -3   21.59    0.75
   4  -2  -3   20.61    0.74
   4  -2  -3   20.65    0.74
   4   2  -3   20.79    0.74
   4   2  -3   21.76    0.74
   4   2  -3   20.66    0.74
   4   2  -3   20.86    0.74
  -4   2   3   20.22    0.78
   3   2  -3   90.82    3.14
  -3   2   3   91.08    3.18
  -2  -2   3    3.71    0.15
   2  -2  -3    3.62    0.13
   2   2  -3    3.73    0.14
  -2   2   3    3.68    0.16
  -1  -2   3  179.89    6.18
  -1   2   3  174.93    6.18
   0  -2   3   17.94    0.62
   0   2  -3   17.12    0.62
   0   2   3   16.68    0.61
   0   2   3   17.84    0.62
   1  -2   3  230.74    8.72
   1  -2   3  242.47    8.75
   1   2   3  268.48    8.84
   1   2   3  261.21    8.73
   1   2   3  247.98    8.69
   2  -2   3   14.23    0.59
   2   2   3   15.29    0.60
   2   2   3   15.51    0.55
   3  -2   3    2.95    0.14
   3   2   3    3.64    0.15
   3   2   3    3.80    0.22
   4  -2   3    8.84    0.33
   4  -2   3    9.85    0.35
   4  -2   3    8.55    0.34
   4   2   3    9.93    0.36
   5   2   3   11.23    0.41
   5  -3  -3    0.08    0.02
   5  -3  -3    0.06    0.02
   5  -3  -3    0.03    0.02
   5   3  -3    0.07    0.02
   4  -3  -3    0.94    0.06
   4  -3  -3    0.88    0.06
   4  -3  -3    0.92    0.06
   4   3  -3    0.93    0.06
   4   3  -3    0.98    0.05
   4   3  -3    1.01    0.05
   4   3  -3    0.95    0.06
  -3   3   3   28.42    1.03
   3   3  -3   27.98    0.98
   2   3  -3   97.77    3.32
   2   3  -3   93.70    3.31
  -1  -3   3   18.94    0.65
   1   3  -3   18.27    0.64
  -1   3   3   18.09    0.66
   1   3  -3   18.43    0.66
   0  -3   3  139.18    4.73
   0   3  -3  137.76    4.75
   0   3   3  130.00    4.73
   0   3   3  136.65    4.71
   1  -3   3   10.00    0.38
   1   3   3   10.61    0.41
   1   3   3   10.04    0.38
   2   3   3   15.26    0.58
   2   3   3   16.71    0.64
   3  -3   3    9.03    0.35
   3   3   3    9.55    0.37
   3   3   3   10.16    0.37
   3   3   3    9.88    0.46
   4  -3   3   20.59    0.75
   4   3   3   22.00    0.77
   5   3   3    0.06    0.03
   5  -4  -3    5.77    0.24
   5  -4  -3    6.64    0.24
   5  -4  -3    6.66    0.24
   4  -4  -3   19.87    0.72
   4  -4  -3   20.20    0.72
   4  -4  -3   20.27    0.72
   4   4  -3   19.84    0.72
   4   4  -3   20.78    0.71
   3  -4  -3    3.53    0.19
   3   4  -3    4.85    0.17
   2   4  -3    1.51    0.07
   2   4  -3    1.47    0.08
  -1  -4   3   11.18    0.40
   1   4  -3   11.32    0.41
  -1   4   3   11.35    0.41
   1   4  -3   10.99    0.39
   0  -4   3  170.27    6.07
   0   4   3  167.68    6.05
   0   4  -3  178.70    6.09
   0   4   3  183.14    6.07
   1   4   3    0.10    0.05
   1   4   3    0.06    0.03
   2   4   3  208.64    7.30
   2   4   3  209.48    7.26
   3  -4   3    0.03    0.02
   3   4   3    0.02    0.05
   3   4   3    0.01    0.03
   4  -4   3   12.27    0.44
   4   4   3   12.21    0.46
   5   4   3    0.35    0.04
   5  -5  -3   30.67    1.09
   5  -5  -3   31.30    1.09
   4  -5  -3    1.04    0.06
   4  -5  -3    1.00    0.06
   4  -5  -3    1.07    0.06
   4   5  -3    0.96    0.06
   3  -5  -3    9.57    0.38
   3   5  -3    9.61    0.36
   3   5  -3    9.92    0.35
   2   5  -3   22.16    0.75
   2   5  -3   20.79    0.77
  -1   5   3   66.93    2.36
   1   5  -3   68.46    2.36
   1   5  -3   67.44    2.34
   0  -5   3   54.24    1.95
   0   5   3   56.90    1.96
   0   5  -3   56.46    1.96
   1   5   3   22.75    0.82
   1   5   3   22.34    0.84
   2   5   3   17.22    0.68
   2   5   3   19.69    0.74
   3  -5   3   38.10    1.35
   3   5   3   40.07    1.48
   3   5   3   37.59    1.36
   4  -5   3   21.80    0.77
   4   5   3   21.29    0.77
   5  -6  -3   13.06    0.47
   5  -6  -3   13.18    0.47
   4  -6  -3    9.02    0.33
   4  -6  -3    8.62    0.33
   4  -6  -3    8.85    0.32
   3  -6  -3   65.44    2.34
  -3   6   3   69.84    2.39
   3   6  -3   66.64    2.33
   2   6  -3   49.05    1.71
   2   6  -3   48.79    1.68
  -2   6   3   47.67    1.72
   1   6  -3   19.10    0.68
   1   6  -3   19.93    0.71
  -1   6   3   19.61    0.71
   0   6   3   23.35    0.84
   0   6  -3   22.80    0.83
   1   6   3  116.60    4.00
   1   6   3  113.19    4.03
   2   6   3    0.03    0.05
   2   6   3    0.04    0.03
  -2   6  -3    0.03    0.01
  -2   6  -3    0.06    0.02
   3  -6   3   28.17    0.98
  -3   6  -3   26.67    0.97
   3   6   3   28.60    1.10
   3   6   3   27.38    0.99
   4  -6   3    0.06    0.02
   4   6   3    0.11    0.03
   5  -7  -3    5.55    0.21
   5  -7  -3    5.56    0.21
   4  -7  -3    0.06    0.02
   4  -7  -3    0.12    0.02
   4  -7  -3    0.08    0.02
   3  -7  -3    1.82    0.09
  -3   7   3    1.73    0.08
  -3   7   3    1.84    0.13
   3   7  -3    1.79    0.08
  -2   7   3    6.18    0.23
  -2   7   3    6.42    0.27
   2   7  -3    6.48    0.26
   1   7  -3   32.62    1.18
  -1   7   3   33.67    1.18
   1   7   3   -0.01    0.03
   1   7   3    0.00    0.03
   2   7   3    1.04    0.12
   2   7   3    0.94    0.09
  -2   7  -3    1.12    0.05
   3  -7   3    6.95    0.27
  -3   7  -3    7.22    0.26
   3   7   3    6.67    0.27
   3   7   3    7.01    0.37
   4  -7   3   10.46    0.38
   4   7   3   10.07    0.38
   4  -8  -3    6.97    0.26
   4  -8  -3    6.64    0.26
   3  -8  -3   12.84    0.48
  -3   8   3   13.25    0.48
   3   8  -3   13.62    0.48
  -2   8   3   18.45    0.69
  -2   8   3   19.14    0.65
   2   8  -3   17.97    0.64
   2   8  -3   18.20    0.69
  -1   8   3    0.24    0.03
   1   8  -3    0.30    0.05
  -1  -8  -3   30.84    1.10
   1  -8   3   31.81    1.10
   1   8   3   30.77    1.14
   1   8   3   31.97    1.09
  -1   8  -3   31.79    1.10
   2   8   3   24.50    0.94
   2   8   3   24.28    0.83
  -2   8  -3   22.51    0.84
   3  -8   3   47.05    1.59
  -3   8  -3   43.43    1.58
   4  -8   3    7.83    0.29
   4  -9  -3    0.36    0.04
   4  -9  -3    0.43    0.04
  -4   9   3    0.42    0.03
   3  -9  -3    8.41    0.32
   3  -9  -3    8.48    0.32
   3   9  -3    8.85    0.31
  -3   9   3    8.37    0.31
  -2  -9   3   26.23    0.94
   2   9  -3   27.08    0.93
  -2   9   3   27.02    0.94
  -1  -9   3    0.12    0.02
   1  -9  -3    0.16    0.02
   1   9  -3    0.12    0.02
  -1   9   3    0.15    0.02
   1   9  -3    0.23    0.05
  -1   9   3    0.17    0.02
   0  -9  -3    1.84    0.08
   0  -9   3    1.84    0.08
   0   9  -3    1.72    0.08
   0   9   3    1.79    0.07
   0   9  -3    1.94    0.07
   1  -9   3    3.41    0.14
  -1  -9  -3    3.48    0.14
   1   9   3    3.44    0.13
  -1   9  -3    3.51    0.14
  -2  -9  -3   10.17    0.38
   2   9   3   10.33    0.37
  -2   9  -3   10.90    0.38
   3  -9   3    4.92    0.20
  -3   9  -3    5.18    0.19
   4  -9   3   12.22    0.42
  -4   9  -3   11.37    0.42
   4 -10  -3   15.71    0.55
   4 -10  -3   14.86    0.55
  -4  10   3   15.79    0.55
   3 -10  -3   28.77    1.03
   3 -10  -3   28.53    1.03
   3  10  -3   28.66    1.02
  -3  10   3   30.59    1.02
  -2 -10   3   28.83    1.05
   2  10  -3   29.77    1.04
  -2  10   3   30.91    1.05
  -1 -10   3    0.11    0.02
   1 -10  -3    0.13    0.02
  -1  10   3    0.14    0.02
   1  10  -3    0.13    0.02
  -1  10   3    0.13    0.02
   0 -10  -3   20.31    0.70
   0 -10   3   19.68    0.70
   0  10  -3   19.26    0.69
   0  10   3   20.18    0.70
   1 -10   3   30.15    1.04
  -1 -10  -3   30.61    1.04
   1  10   3   29.17    1.03
  -1  10  -3   28.81    1.04
  -2 -10  -3   18.68    0.69
   2  10   3   19.71    0.68
  -2  10  -3   20.03    0.69
   3 -10   3    0.61    0.05
  -3  10  -3    0.58    0.04
   3 -11  -3    5.31    0.22
   3  11  -3    5.65    0.21
  -3  11   3    6.09    0.22
  -2 -11   3    9.48    0.36
  -2  11   3    9.86    0.36
   2  11  -3   10.25    0.35
  -1 -11   3   49.31    1.72
   1 -11  -3   50.42    1.72
   1  11  -3   50.42    1.71
  -1  11   3   48.97    1.72
  -1  11   3   47.76    1.71
   0 -11   3   18.21    0.65
   0 -11  -3   18.16    0.65
   0  11  -3   18.29    0.64
   0  11   3   18.81    0.64
   1 -11   3   15.42    0.54
  -1 -11  -3   14.71    0.54
   1  11   3   15.41    0.53
  -1  11  -3   15.04    0.54
  -2 -11  -3   18.96    0.66
  -2  11  -3   18.56    0.66
   2  11   3   18.32    0.65
   3 -11   3   16.99    0.60
  -3  11  -3   16.68    0.59
  -3  12   3   37.97    1.28
   3  12  -3   35.56    1.28
  -2 -12   3    4.24    0.16
   2  12  -3    3.93    0.15
  -2  12   3    3.96    0.16
  -1 -12   3    1.40    0.07
   1 -12  -3    1.37    0.07
   1  12  -3    1.46    0.06
  -1  12   3    1.35    0.07
  -1  12   3    1.40    0.06
   0 -12   3    5.02    0.19
   0 -12  -3    4.78    0.19
   0  12  -3    4.79    0.18
   0  12   3    4.91    0.18
  -1 -12  -3   27.06    0.94
  -1  12  -3   26.56    0.94
   1  12   3   26.45    0.93
  -2 -12  -3    0.14    0.02
   2  12   3    0.10    0.01
  -2  12  -3    0.21    0.03
   3 -12   3    0.33    0.03
  -2 -13   3    1.65    0.07
  -2  13   3    1.57    0.07
   2  13  -3    1.59    0.06
  -1 -13   3   16.47    0.57
   1  13  -3   15.88    0.56
  -1  13   3   15.98    0.57
   0 -13   3    2.13    0.09
   0 -13  -3    2.13    0.09
   0  13   3    2.20    0.09
   0  13  -3    2.01    0.08
  -1 -13  -3    1.82    0.08
   1  13   3    1.68    0.07
  -2 -13  -3    0.02    0.01
  -2  13  -3    0.01    0.01
   2  13   3    0.03    0.01
  -2 -14   3    2.87    0.11
   2  14  -3    2.63    0.10
  -1 -14   3    2.85    0.11
   1  14  -3    2.69    0.10
  -1  14   3    2.62    0.10
   0 -14  -3    0.46    0.04
   0 -14   3    0.49    0.03
   0  14   3    0.47    0.03
   0  14  -3    0.52    0.03
  -1 -14  -3   15.26    0.52
   1  14   3   14.13    0.51
   5   0  -4   -0.01    0.02
   5   0  -4    0.01    0.02
   5   0  -4   -0.01    0.02
   4   0  -4    4.84    0.19
   4   0  -4    4.95    0.20
   4   0  -4    5.14    0.19
  -3   0   4    0.01    0.03
   3   0  -4    0.01    0.01
  -2   0   4   13.89    0.52
   2   0  -4   14.33    0.50
  -1   0   4    0.03    0.03
   0   0   4   12.29    0.45
   0   0   4   12.20    0.45
   1   0   4   -0.10    0.02
   1   0   4   -0.09    0.03
   1   0   4   -0.08    0.03
   2   0   4   33.36    1.23
   3   0   4    0.00    0.02
   3   0   4   -0.01    0.04
   4   0   4   28.71    1.02
   5   0   4    0.01    0.02
   5  -1  -4    1.41    0.07
   5  -1  -4    1.44    0.07
   5  -1  -4    1.39    0.07
   5   1  -4    1.30    0.07
   5   1  -4    1.34    0.07
   5   1  -4    1.23    0.06
   4  -1  -4   20.90    0.75
   4  -1  -4   20.90    0.74
   4  -1  -4   20.53    0.74
   4   1  -4   21.61    0.74
   4   1  -4   21.08    0.74
   4   1  -4   20.92    0.74
  -3  -1   4    1.05    0.07
   3  -1  -4    0.98    0.05
   3   1  -4    1.01    0.05
  -3   1   4    1.06    0.08
   3   1  -4    1.05    0.06
  -2  -1   4    0.55    0.05
   2  -1  -4    0.50    0.03
   2   1  -4    0.53    0.03
  -2   1   4    0.51    0.05
  -1  -1   4   10.40    0.38
  -1   1   4   10.16    0.38
   0  -1   4   48.31    1.58
   0   1   4   42.62    1.58
   0   1   4   44.78    1.59
   1  -1   4   65.88    2.28
   1  -1   4   67.56    2.29
   1   1   4   67.18    2.28
   1   1   4   66.14    2.28
   1   1   4   59.53    2.30
   2  -1   4    7.09    0.31
   2   1   4    7.07    0.29
   2   1   4    7.51    0.33
   3  -1   4   10.45    0.39
   3  -1   4   10.30    0.39
   3   1   4   10.49    0.39
   3   1   4   10.22    0.47
   4  -1   4   11.87    0.44
   4   1   4   11.99    0.45
   5  -1   4    0.10    0.02
   5   1   4    0.08    0.03
   5  -2  -4    0.01    0.02
   5  -2  -4    0.05    0.02
   5  -2  -4    0.03    0.02
   5   2  -4    0.04    0.02
   5   2  -4    0.02    0.02
   4  -2  -4    7.08    0.27
   4  -2  -4    7.07    0.26
   4  -2  -4    7.30    0.27
   4   2  -4    7.24    0.26
   4   2  -4    7.08    0.26
   4   2  -4    6.26    0.26
   4   2  -4    6.91    0.26
   3   2  -4   25.48    0.92
  -3   2   4   26.64    0.96
   3   2  -4   26.91    0.92
   2  -2  -4    6.80    0.24
  -2  -2   4    6.87    0.26
   2   2  -4    6.95    0.25
  -2   2   4    6.55    0.27
  -1  -2   4   70.30    2.48
  -1   2   4   72.38    2.48
   0  -2   4    2.77    0.12
   0   2   4    2.78    0.12
   0   2  -4    2.86    0.12
   0   2   4    2.93    0.13
   1  -2   4   37.21    1.26
   1  -2   4   35.78    1.27
   1   2   4   32.75    1.26
   1   2   4   38.55    1.27
   1   2   4   34.30    1.29
   2   2   4   18.40    0.71
   2   2   4   17.24    0.66
   3  -2   4   12.96    0.49
   3   2   4   12.48    0.57
   3   2   4   12.68    0.47
   4  -2   4    0.27    0.04
   4   2   4    0.27    0.05
   5   2   4   11.36    0.41
   5  -3  -4   36.96    1.29
   5  -3  -4   35.77    1.28
   5  -3  -4   37.16    1.28
   4  -3  -4   10.11    0.36
   4  -3  -4    9.91    0.36
   4  -3  -4    9.87    0.37
   4   3  -4    9.84    0.36
   4   3  -4    9.37    0.35
   3  -3  -4    0.52    0.03
   3   3  -4    0.53    0.04
   3   3  -4    0.53    0.04
  -3   3   4    0.63    0.07
   3   3  -4    0.56    0.04
  -2  -3   4   18.54    0.73
   2   3  -4   20.06    0.69
  -2   3   4   19.90    0.72
   2   3  -4   20.33    0.70
  -1  -3   4   30.00    1.01
  -1   3   4   28.11    1.02
   1   3  -4   27.84    1.01
   0  -3   4    0.75    0.06
   0   3   4    0.70    0.06
   0   3   4    0.70    0.06
   0   3  -4    0.69    0.06
   1  -3   4    1.74    0.10
   1   3   4    1.65    0.10
   1   3   4    1.82    0.13
   2   3   4    6.98    0.33
   2   3   4    6.43    0.27
   3   3   4    6.73    0.37
   3   3   4    6.82    0.27
   4   3   4    0.53    0.07
   5  -4  -4    4.59    0.18
   5  -4  -4    4.56    0.18
   4  -4  -4    2.08    0.10
   4  -4  -4    2.14    0.10
   4  -4  -4    2.04    0.10
   4   4  -4    2.00    0.09
   3  -4  -4   10.71    0.38
  -3   4   4   10.89    0.43
   3   4  -4   10.72    0.39
   3   4  -4   10.90    0.40
  -2   4   4   31.78    1.14
   2   4  -4   31.82    1.13
   2   4  -4   32.29    1.11
  -1  -4   4    0.55    0.04
   1   4  -4    0.54    0.05
   0  -4   4    2.66    0.12
   0   4  -4    2.68    0.12
   0   4   4    2.51    0.12
   0   4   4    2.67    0.13
   1  -4   4   28.55    1.01
   1   4   4   27.21    1.03
   1   4   4   28.35    1.01
   2   4   4   55.52    1.95
   2   4   4   50.81    1.88
   3   4   4   28.33    1.02
   3   4   4   28.91    1.15
   4   4   4    2.58    0.13
   5  -5  -4    1.03    0.06
   5  -5  -4    1.16    0.06
   4  -5  -4    4.63    0.19
   4  -5  -4    4.79    0.19
   4  -5  -4    4.92    0.20
   4   5  -4    4.65    0.18
   3   5  -4    4.61    0.17
   3   5  -4    4.31    0.19
  -3   5   4    4.67    0.22
  -2   5   4    0.14    0.04
   2   5  -4    0.10    0.03
   2   5  -4    0.09    0.02
  -1   5   4    0.06    0.03
   1   5  -4    0.05    0.02
   1   5  -4    0.04    0.01
   0  -5   4   83.28    2.96
   0   5  -4   84.41    2.97
   0   5   4   87.82    2.98
   1   5   4    1.39    0.09
   1   5   4    1.36    0.11
   2   5   4   82.53    2.84
  -2   5  -4   78.48    2.73
   2   5   4   75.13    2.76
   3   5   4   18.88    0.70
  -3   5  -4   19.96    0.69
   3   5   4   19.38    0.82
   4   5   4   19.93    0.72
   5  -6  -4   16.04    0.56
   5  -6  -4   15.55    0.56
   4  -6  -4   11.20    0.41
   4  -6  -4   11.35    0.42
   4  -6  -4   11.54    0.41
   4   6  -4   11.26    0.41
   3   6  -4    1.12    0.06
  -3   6   4    1.08    0.06
  -3   6   4    1.24    0.10
  -2   6   4    6.30    0.26
   2   6  -4    6.14    0.23
   2   6  -4    6.26    0.25
   1   6  -4    0.48    0.05
   1   6  -4    0.43    0.03
  -1   6   4    0.51    0.05
   0  -6   4  125.85    4.45
   0   6   4  130.85    4.49
   1   6   4    0.76    0.07
   1   6   4    0.68    0.09
   2   6   4   54.89    1.97
  -2   6  -4   57.34    1.96
   2   6   4   57.94    2.07
   2   6   4   55.47    2.00
   3  -6   4    0.25    0.04
  -3   6  -4    0.24    0.03
   3   6   4    0.20    0.08
   3   6   4    0.30    0.04
   4   6   4   30.17    1.07
   5  -7  -4    5.81    0.21
   5  -7  -4    5.46    0.21
   4  -7  -4    1.23    0.07
   4  -7  -4    1.18    0.06
   4  -7  -4    1.30    0.06
   4   7  -4    1.08    0.06
   3   7  -4    0.83    0.05
  -3   7   4    0.77    0.05
   2   7  -4   11.38    0.44
  -2   7   4   11.60    0.41
   2   7  -4   11.37    0.41
   2   7  -4   10.91    0.40
  -2   7   4   11.47    0.44
   1   7  -4    8.08    0.33
  -1  -7  -4    6.27    0.23
  -1   7  -4    6.12    0.23
   1   7   4    6.44    0.30
   1   7   4    5.95    0.27
   2   7   4    6.91    0.34
   2   7   4    6.36    0.25
  -2   7  -4    6.31    0.24
   3  -7   4    0.25    0.03
   3   7   4    0.20    0.04
  -3   7  -4    0.27    0.03
   4   7   4   12.04    0.44
   4  -8  -4    0.36    0.04
   4  -8  -4    0.43    0.04
   4   8  -4    0.31    0.04
   3   8  -4   87.54    2.96
  -3   8   4   83.29    2.96
  -2   8   4    6.88    0.30
  -2   8   4    7.05    0.26
   2   8  -4    7.10    0.25
   1  -8  -4    0.29    0.03
  -1  -8   4    0.18    0.02
   1   8  -4    0.21    0.04
   1   8  -4    0.22    0.02
  -1   8   4    0.22    0.03
   0  -8  -4    0.47    0.03
   0   8  -4    0.47    0.04
   0   8  -4    0.44    0.03
   0   8   4    0.39    0.04
  -1  -8  -4   39.95    1.42
   1  -8   4   40.66    1.42
  -1   8  -4   42.33    1.42
   1   8   4   40.46    1.50
   1   8   4   39.75    1.47
  -2  -8  -4    2.50    0.11
   2   8   4    2.64    0.10
   2   8   4    2.72    0.20
  -2   8  -4    3.12    0.12
   3  -8   4    0.94    0.06
  -3   8  -4    1.08    0.06
   4  -9  -4    0.90    0.05
  -4   9   4    0.88    0.05
   4   9  -4    0.67    0.06
   3   9  -4    1.00    0.06
  -3   9   4    0.93    0.06
  -2  -9   4   34.38    1.25
   2   9  -4   36.15    1.24
  -2   9   4   36.93    1.25
   1  -9  -4   28.61    1.02
  -1  -9   4   28.29    1.02
   1   9  -4   29.70    1.01
  -1   9   4   29.86    1.02
  -1   9   4   28.81    1.01
   0  -9  -4    9.34    0.34
   0  -9   4    9.26    0.34
   0   9  -4    9.35    0.33
   0   9   4    9.36    0.33
   0   9  -4    9.12    0.33
   1  -9   4    1.29    0.06
  -1  -9  -4    1.06    0.06
   1   9   4    1.09    0.05
  -1   9  -4    1.12    0.06
  -2  -9  -4   30.42    1.11
   2   9   4   32.11    1.10
  -2   9  -4   32.45    1.11
   3  -9   4   18.46    0.65
  -3   9  -4   18.10    0.65
   4 -10  -4    0.05    0.02
  -4  10   4    0.05    0.02
   3 -10  -4    0.39    0.04
  -3  10   4    0.46    0.04
   3  10  -4    0.44    0.04
  -2 -10   4   56.73    2.12
  -2  10   4   65.08    2.12
   2  10  -4   61.39    2.11
   1 -10  -4   12.47    0.45
  -1 -10   4   12.31    0.45
  -1  10   4   12.58    0.44
   1  10  -4   12.39    0.44
  -1  10   4   12.41    0.45
   0 -10   4    0.15    0.02
   0 -10  -4    0.23    0.03
   0  10   4    0.22    0.02
   0  10  -4    0.15    0.02
  -1 -10  -4    5.50    0.21
   1 -10   4    5.17    0.21
   1  10   4    5.57    0.20
  -1  10  -4    5.64    0.21
  -2 -10  -4   23.70    0.85
   2  10   4   24.57    0.84
  -2  10  -4   24.29    0.85
   3 -10   4    1.20    0.06
  -3  10  -4    1.28    0.06
   3 -11  -4    0.01    0.02
  -3  11   4    0.00    0.02
   3  11  -4   -0.01    0.02
  -2 -11   4   17.41    0.63
   2  11  -4   18.12    0.62
  -2  11   4   17.74    0.63
   1 -11  -4   16.27    0.57
  -1 -11   4   15.87    0.58
   1  11  -4   16.84    0.57
  -1  11   4   16.05    0.57
  -1  11   4   15.48    0.57
   0 -11   4   47.00    1.64
   0 -11  -4   48.43    1.64
   0  11  -4   45.19    1.63
   0  11   4   47.72    1.63
  -1 -11  -4    0.83    0.05
  -1  11  -4    0.78    0.05
   1  11   4    0.75    0.04
  -2 -11  -4    1.41    0.07
   2  11   4    1.36    0.06
  -2  11  -4    1.36    0.07
   3 -11   4   24.59    0.86
  -3  11  -4   24.48    0.86
  -3  12   4    0.63    0.04
   3  12  -4    0.56    0.04
  -2 -12   4   16.15    0.56
  -2  12   4   15.62    0.56
   2  12  -4   15.38    0.55
  -1 -12   4   15.87    0.54
   1 -12  -4   14.56    0.54
   1  12  -4   15.19    0.53
  -1  12   4   14.64    0.54
  -1  12   4   15.50    0.53
   0 -12  -4    0.58    0.04
   0 -12   4    0.54    0.04
   0  12   4    0.65    0.04
   0  12  -4    0.56    0.03
  -1 -12  -4    0.99    0.06
   1  12   4    1.03    0.05
  -1  12  -4    0.85    0.05
  -2 -12  -4   10.06    0.35
   2  12   4    9.45    0.34
  -2  12  -4    9.75    0.35
  -2 -13   4    0.66    0.04
   2  13  -4    0.63    0.03
  -2  13   4    0.54    0.04
   2  13  -4    0.67    0.04
  -1 -13   4   17.37    0.62
  -1  13   4   17.64    0.61
   1  13  -4   17.25    0.61
   0 -13  -4   10.08    0.36
   0 -13   4    9.85    0.36
   0  13   4   10.06    0.36
   0  13  -4   10.13    0.36
  -1 -13  -4    3.80    0.15
   1  13   4    3.70    0.14
   2 -13   4    4.37    0.17
  -2 -13  -4    4.35    0.16
  -1 -14   4   23.18    0.80
   1  14  -4   22.28    0.79
   0 -14  -4    2.06    0.08
   0 -14   4    2.04    0.08
   0  14   4    2.04    0.08
   0  14  -4    2.01    0.08
  -1 -14  -4    6.27    0.22
   1  14   4    6.02    0.22
   5   0  -5    6.05    0.23
   5   0  -5    6.06    0.23
   5   0  -5    6.04    0.23
   4   0  -5    0.01    0.02
   4   0  -5    0.02    0.02
   4   0  -5    0.00    0.02
   3   0  -5    7.63    0.27
  -3   0   5    7.20    0.30
   3   0  -5    7.34    0.27
  -2   0   5   -0.02    0.03
   2   0  -5   -0.01    0.01
  -1   0   5   28.17    1.00
   0   0   5   -0.05    0.03
   0   0   5   -0.04    0.03
   1   0   5   19.25    0.75
   1   0   5   20.78    0.73
   1   0   5   19.82    0.73
   2   0   5   -0.01    0.03
   3   0   5   83.35    3.15
   3   0   5   92.60    3.07
   4   0   5    0.00    0.03
   5  -1  -5   18.57    0.64
   5  -1  -5   18.15    0.64
   5  -1  -5   17.67    0.64
   5   1  -5   17.81    0.64
   5   1  -5   17.86    0.64
   4  -1  -5    8.13    0.29
   4  -1  -5    8.47    0.30
   4  -1  -5    8.13    0.29
   4  -1  -5    8.05    0.30
   4   1  -5    7.81    0.29
   4   1  -5    7.60    0.29
   4   1  -5    7.58    0.29
   4   1  -5    7.91    0.29
   3  -1  -5    1.23    0.06
  -3  -1   5    1.50    0.09
   3  -1  -5    1.34    0.06
   3   1  -5    1.38    0.06
  -3   1   5    1.45    0.10
   2  -1  -5  153.13    4.99
  -2  -1   5  134.72    5.01
  -2   1   5  140.52    5.02
   2   1  -5  150.07    4.99
  -1  -1   5    0.29    0.05
  -1   1   5    0.29    0.05
   0  -1   5    4.81    0.20
   0   1   5    4.75    0.19
   0   1   5    4.83    0.20
   1  -1   5    0.76    0.07
   1  -1   5    0.97    0.07
   1   1   5    0.88    0.07
   2  -1   5   25.87    1.00
   2   1   5   26.78    1.03
   2   1   5   27.19    0.97
   3  -1   5    6.29    0.25
   3   1   5    6.50    0.35
   3   1   5    6.64    0.26
   4  -1   5    1.03    0.07
   4   1   5    0.92    0.07
   5  -2  -5    0.78    0.05
   5  -2  -5    0.86    0.05
   5  -2  -5    0.73    0.05
   4  -2  -5    0.11    0.02
   4  -2  -5    0.12    0.02
   4  -2  -5    0.15    0.03
   4  -2  -5    0.18    0.03
   4   2  -5    0.11    0.02
   4   2  -5    0.11    0.03
   3  -2  -5   33.62    1.20
   3  -2  -5   33.99    1.22
  -3   2   5   34.43    1.24
   3   2  -5   35.00    1.20
   3   2  -5   35.15    1.21
  -2  -2   5  240.51    8.60
   2  -2  -5  251.02    8.59
   2   2  -5  251.62    8.59
  -2   2   5  250.41    8.66
  -1  -2   5   26.69    0.93
  -1   2   5   25.96    0.94
   0  -2   5   11.97    0.45
   0   2   5   11.83    0.45
   0   2  -5   12.10    0.45
   0   2   5   12.53    0.46
   1  -2   5   21.92    0.76
   1   2   5   22.56    0.77
   1   2   5   19.86    0.76
   1   2   5   19.04    0.79
   2   2   5   57.40    2.31
   2   2   5   69.95    2.25
   3   2   5    1.86    0.18
   3   2   5    1.61    0.10
   4   2   5    0.41    0.06
   5  -3  -5    3.09    0.13
   5  -3  -5    2.95    0.12
   4  -3  -5   57.03    2.00
   4  -3  -5   58.78    2.01
   4  -3  -5   57.67    2.01
   4  -3  -5   56.09    1.99
   4   3  -5   58.06    2.00
   3  -3  -5    0.05    0.01
   3   3  -5    0.04    0.02
   3   3  -5    0.04    0.02
  -3   3   5    0.08    0.04
   3   3  -5    0.05    0.02
  -2  -3   5   14.16    0.53
  -2   3   5   15.40    0.55
   2   3  -5   14.81    0.54
   2   3  -5   14.30    0.52
  -1  -3   5    1.34    0.08
   1   3  -5    1.41    0.08
  -1   3   5    1.32    0.08
   0  -3   5  100.05    3.48
   0   3   5  101.72    3.48
   0   3   5   98.76    3.49
   1  -3   5   15.71    0.58
   1   3   5   15.92    0.58
   1   3   5   14.97    0.62
   2   3   5    0.16    0.07
   2   3   5    0.32    0.05
   3   3   5    2.11    0.20
   3   3   5    2.02    0.12
   4   3   5    4.53    0.20
   5  -4  -5    1.06    0.05
   5  -4  -5    1.07    0.06
   4  -4  -5    3.71    0.16
   4  -4  -5    3.76    0.16
   4   4  -5    3.70    0.15
   3  -4  -5   31.39    1.10
  -3   4   5   32.55    1.15
   3   4  -5   31.13    1.12
   3   4  -5   31.15    1.10
   3   4  -5   31.21    1.10
   2   4  -5   45.66    1.61
  -2   4   5   46.70    1.64
   2   4  -5   46.53    1.63
  -1  -4   5   56.09    2.00
   1   4  -5   57.25    2.01
  -1   4   5   58.36    2.01
   0  -4   5   13.86    0.52
   0   4   5   14.04    0.54
   0   4   5   14.78    0.52
   1  -4   5   15.68    0.58
   1   4   5   15.49    0.58
   1   4   5   15.22    0.62
   2   4   5   15.19    0.61
  -2   4  -5   16.73    0.57
   2   4   5   16.16    0.68
   2   4   5   15.86    0.58
   3   4   5   23.08    1.06
  -3   4  -5   28.89    0.93
   3   4   5   27.31    0.96
   4   4   5    3.24    0.15
   5  -5  -5    1.23    0.07
   4  -5  -5   17.89    0.64
   4  -5  -5   17.00    0.64
   4   5  -5   18.22    0.63
  -3   5   5    0.27    0.06
   3   5  -5    0.17    0.02
   2   5  -5    1.98    0.09
   2   5  -5    2.08    0.11
  -2   5   5    2.06    0.12
  -1  -5   5   17.15    0.65
  -1   5   5   18.17    0.65
   1   5  -5   17.61    0.66
   1   5  -5   18.67    0.63
   0  -5   5   35.90    1.27
   1   5   5   53.02    1.91
   1   5   5   52.58    1.88
  -2   5  -5    3.95    0.15
   2   5   5    3.54    0.16
   2   5   5    3.82    0.25
   3   5   5    4.57    0.19
   3   5   5    4.04    0.35
  -3   5  -5    4.35    0.17
   4   5   5    7.27    0.28
   5  -6  -5    0.07    0.02
   4  -6  -5    0.10    0.03
   4  -6  -5    0.15    0.04
   4   6  -5    0.06    0.02
  -3   6   5   10.65    0.43
   3   6  -5   10.47    0.38
  -3   6   5   10.42    0.38
  -2   6   5    0.01    0.02
   2   6  -5   -0.01    0.02
   2   6  -5    0.02    0.02
  -2   6   5    0.02    0.04
   2   6  -5    0.04    0.01
   1   6  -5   43.27    1.53
   1   6  -5   42.95    1.50
  -1   6   5   43.09    1.52
   0  -6   5   18.94    0.69
  -1  -6  -5    7.08    0.27
   1   6   5    7.25    0.31
  -1   6  -5    7.16    0.27
   1   6   5    7.77    0.35
  -2  -6  -5    3.38    0.14
  -2   6  -5    3.12    0.13
   2   6   5    3.13    0.14
   2   6   5    3.44    0.23
  -3   6  -5   15.08    0.53
   3   6   5   14.66    0.55
   4   6   5    1.16    0.07
   4  -7  -5    4.32    0.19
   4  -7  -5    4.92    0.18
   4   7  -5    4.55    0.18
   3   7  -5   35.00    1.21
  -3   7   5   34.44    1.22
  -2  -7   5    0.40    0.04
   2   7  -5    0.37    0.02
   2   7  -5    0.44    0.04
   2   7  -5    0.38    0.08
  -2   7   5    0.38    0.04
  -2   7   5    0.41    0.07
  -1  -7   5   13.76    0.51
   1  -7  -5   14.33    0.51
  -1   7   5   14.17    0.51
   1   7  -5   14.63    0.50
   1   7  -5   14.19    0.54
   0  -7  -5   25.80    0.90
   0  -7   5   25.60    0.90
   0   7  -5   25.90    0.90
   1  -7   5   70.17    2.44
  -1  -7  -5   72.07    2.45
   1   7   5   71.76    2.54
  -1   7  -5   69.72    2.45
   1   7   5   68.84    2.50
  -2  -7  -5   77.25    2.72
  -2   7  -5   77.88    2.72
   2   7   5   78.10    2.73
   2   7   5   80.85    2.85
   3   7   5    3.61    0.16
  -3   7  -5    3.57    0.14
   4   7   5    9.02    0.33
   4  -8  -5    1.41    0.08
   4   8  -5    1.59    0.07
  -4   8   5    1.52    0.07
   3   8  -5   27.43    0.93
  -3   8   5   25.34    0.93
  -2  -8   5   74.16    2.62
  -2   8   5   74.48    2.67
   2   8  -5   76.92    2.61
  -2   8   5   76.81    2.62
  -1  -8   5    1.25    0.07
   1  -8  -5    1.39    0.06
   1   8  -5    1.33    0.06
  -1   8   5    1.33    0.07
   1   8  -5    1.17    0.09
   0  -8   5    5.76    0.22
   0  -8  -5    6.06    0.22
   0   8  -5    5.93    0.22
   0   8  -5    5.96    0.21
   1  -8   5    4.17    0.16
  -1  -8  -5    4.21    0.16
   1   8   5    4.18    0.24
  -1   8  -5    4.14    0.16
  -2  -8  -5   27.15    1.00
  -2   8  -5   28.72    1.00
   2   8   5   29.15    0.99
   2   8   5   28.37    1.11
   3   8   5    3.46    0.15
  -3   8  -5    3.26    0.13
   4  -9  -5   27.45    0.93
   4   9  -5   25.37    0.92
  -4   9   5   26.29    0.92
   3   9  -5   19.24    0.68
  -3   9   5   19.20    0.68
  -2  -9   5    3.14    0.13
  -2   9   5    3.45    0.14
   2   9  -5    3.28    0.12
  -1  -9   5    1.48    0.07
   1  -9  -5    1.47    0.07
  -1   9   5    1.48    0.07
  -1   9   5    1.39    0.07
   1   9  -5    1.56    0.06
   0  -9   5   63.53    2.21
   0  -9  -5   64.61    2.21
   0   9  -5   62.68    2.20
   0   9   5   65.44    2.20
   0   9  -5   62.03    2.21
   1  -9   5    1.68    0.08
  -1  -9  -5    1.81    0.08
  -1   9  -5    1.76    0.08
   1   9   5    1.68    0.07
  -2  -9  -5   14.64    0.53
   2   9   5   15.26    0.52
  -2   9  -5   14.47    0.53
  -3   9  -5    0.12    0.02
   4 -10  -5    2.12    0.09
   4  10  -5    2.05    0.08
  -4  10   5    1.87    0.08
   3  10  -5   12.07    0.44
  -3  10   5   12.79    0.45
  -2 -10   5    4.93    0.20
  -2  10   5    5.20    0.20
   2  10  -5    5.27    0.19
  -1 -10   5   16.94    0.61
   1 -10  -5   16.88    0.60
  -1  10   5   16.52    0.60
   1  10  -5   17.39    0.60
  -1  10   5   17.24    0.60
   0 -10   5    4.58    0.18
   0 -10  -5    4.51    0.18
   0  10  -5    4.53    0.17
   0  10   5    4.50    0.17
  -1 -10  -5    8.20    0.31
   1  10   5    8.53    0.30
  -1  10  -5    8.68    0.31
  -2 -10  -5    7.77    0.28
   2  10   5    7.57    0.27
  -2  10  -5    7.72    0.28
  -3  10  -5    0.33    0.03
   3 -11  -5    1.57    0.08
   3  11  -5    1.52    0.07
  -3  11   5    1.62    0.07
  -2 -11   5    0.56    0.04
  -2  11   5    0.55    0.04
   2  11  -5    0.59    0.04
   2  11  -5    0.56    0.03
   1 -11  -5    2.82    0.12
  -1 -11   5    2.87    0.12
  -1  11   5    2.86    0.11
  -1  11   5    2.95    0.12
   1  11  -5    2.98    0.11
   0 -11  -5   14.47    0.52
   0 -11   5   15.00    0.52
   0  11   5   14.48    0.51
   0  11  -5   14.17    0.51
  -1 -11  -5    1.58    0.08
   1  11   5    1.62    0.07
  -1  11  -5    1.50    0.07
  -2 -11  -5    0.23    0.03
   2  11   5    0.18    0.02
  -2  11  -5    0.21    0.03
   3 -12  -5    1.10    0.05
  -3  12   5    1.19    0.05
   3  12  -5    1.12    0.05
  -2 -12   5    0.96    0.05
   2  12  -5    0.90    0.05
   2  12  -5    0.96    0.04
  -2  12   5    0.86    0.05
  -1 -12   5    0.10    0.02
   1  12  -5    0.12    0.02
  -1  12   5    0.13    0.02
   0 -12   5   22.02    0.79
   0 -12  -5   22.12    0.79
   0  12  -5   22.58    0.78
   0  12   5   22.47    0.78
  -1 -12  -5    6.19    0.22
  -1  12  -5    5.45    0.21
   1  12   5    5.83    0.21
  -2 -12  -5    1.07    0.05
   2 -12   5    1.00    0.05
   2  12   5    1.06    0.04
  -2  12  -5    1.05    0.05
  -2 -13   5   11.87    0.41
   2  13  -5   11.86    0.41
   2  13  -5   11.17    0.40
  -2  13   5   11.08    0.41
  -1 -13   5   36.48    1.23
   1  13  -5   35.04    1.22
  -1  13   5   34.29    1.22
   0 -13  -5   18.04    0.64
   0 -13   5   18.17    0.64
   0  13  -5   18.31    0.63
   0  13   5   18.11    0.63
  -1 -13  -5    1.70    0.07
   1  13   5    1.64    0.07
  -1 -14   5    3.13    0.12
   1  14  -5    3.04    0.12
   1  14  -5    3.13    0.11
   0 -14  -5    1.41    0.06
   0  14  -5    1.52    0.06
   0  14   5    1.46    0.06
   4   0  -6    0.04    0.02
   4   0  -6    0.04    0.02
   3   0  -6    0.00    0.01
   3   0  -6    0.03    0.02
  -3   0   6    0.00    0.03
  -2   0   6   24.49    0.89
   2   0  -6   25.07    0.87
  -1   0   6    0.03    0.03
   0   0   6   11.51    0.43
   1   0   6   -0.01    0.03
   1   0   6    0.00    0.03
   1   0   6    0.04    0.04
  -2   0  -6   77.78    2.58
   2   0   6   75.86    2.59
   2   0   6   69.37    2.67
   3   0   6    0.02    0.03
   4   0   6    1.29    0.07
   5  -1  -6   16.39    0.58
   4  -1  -6   43.12    1.59
   4  -1  -6   46.20    1.58
   4  -1  -6   44.73    1.59
   4   1  -6   48.72    1.61
   4   1  -6   45.07    1.58
   3  -1  -6    0.32    0.02
  -3  -1   6    0.28    0.05
   3  -1  -6    0.26    0.04
   3  -1  -6    0.34    0.03
  -3   1   6    0.37    0.06
   3   1  -6    0.30    0.03
   3   1  -6    0.29    0.03
  -2  -1   6  112.14    3.95
   2  -1  -6  109.64    3.93
  -2   1   6  115.79    3.95
   2   1  -6  116.68    3.93
  -1  -1   6   34.20    1.23
  -1   1   6   35.33    1.23
   0  -1   6  160.75    5.78
   0   1   6  172.66    5.78
   1  -1   6    0.52    0.07
   1   1   6    0.47    0.06
   1   1   6    0.43    0.08
   1   1   6    0.46    0.06
   2  -1   6    0.93    0.07
  -2  -1  -6    0.81    0.05
  -2   1  -6    0.85    0.05
   2   1   6    1.02    0.12
   3  -1   6   48.37    1.69
   3   1   6   49.54    1.70
   3   1   6   46.58    1.80
   4  -1   6   32.42    1.15
   4   1   6   32.89    1.15
   5  -2  -6    8.44    0.31
   4  -2  -6   20.87    0.71
   4  -2  -6   20.41    0.72
   4  -2  -6   19.57    0.72
   4   2  -6   20.35    0.71
   3  -2  -6   23.05    0.80
   3  -2  -6   23.08    0.81
   3  -2  -6   22.97    0.82
   3   2  -6   22.95    0.81
  -3   2   6   23.07    0.85
   3   2  -6   23.43    0.82
  -2  -2   6  180.17    6.34
   2  -2  -6  177.86    6.32
   2   2  -6  188.50    6.32
  -2   2   6  185.66    6.35
  -1  -2   6   98.37    3.55
  -1   2   6  106.14    3.56
   0  -2   6   26.31    0.95
   0   2   6   26.52    0.95
   1  -2   6    5.31    0.23
   1   2   6    5.21    0.23
   1   2   6    5.17    0.27
   1   2   6    5.21    0.23
  -2  -2  -6   50.63    1.56
   2   2   6   46.21    1.61
   2   2   6   38.85    1.58
  -2   2  -6   49.08    1.56
   2   2   6   39.12    1.67
   3   2   6   42.47    1.55
   3   2   6   45.04    1.68
   4   2   6    0.01    0.03
   5  -3  -6    5.21    0.20
   4  -3  -6    0.02    0.02
   4  -3  -6    0.04    0.03
   4  -3  -6    0.04    0.03
   4   3  -6    0.05    0.02
   3  -3  -6    1.90    0.08
   3   3  -6    1.82    0.09
   3   3  -6    2.02    0.09
  -3   3   6    2.19    0.13
  -2  -3   6   27.43    1.03
  -2   3   6   29.69    1.04
   2   3  -6   29.46    1.01
   2   3  -6   29.08    1.03
  -1  -3   6   42.36    1.52
  -1   3   6   46.15    1.53
   1   3  -6   40.79    1.52
   0  -3   6   10.38    0.40
   0   3   6   10.10    0.39
   1  -3   6  124.97    4.32
   1   3   6  124.08    4.37
   1   3   6  122.58    4.33
  -2  -3  -6    3.50    0.13
   2   3   6    3.00    0.15
  -2   3  -6    3.63    0.13
   2   3   6    3.02    0.23
   3   3   6    6.30    0.29
  -3   3  -6    7.85    0.26
   4   3   6    2.63    0.12
   5  -4  -6    0.08    0.02
   4  -4  -6    0.33    0.04
   4  -4  -6    0.29    0.04
   4   4  -6    0.36    0.04
   3  -4  -6    6.76    0.25
   3   4  -6    7.07    0.25
  -3   4   6    6.77    0.30
   2  -4  -6   68.38    2.38
   2   4  -6   68.92    2.38
   2   4  -6   69.71    2.41
   2   4  -6   69.95    2.38
  -2   4   6   66.51    2.41
  -1  -4   6   17.32    0.66
   1   4  -6   18.24    0.67
  -1   4   6   19.08    0.67
   0  -4   6    0.01    0.03
   0   4   6    0.01    0.03
   1  -4   6  116.45    3.99
   1   4   6  117.64    4.04
   1   4   6  108.66    4.00
  -1   4  -6  114.24    3.97
  -2  -4  -6    5.58    0.22
   2   4   6    5.68    0.24
  -2   4  -6    6.00    0.22
   2   4   6    5.77    0.33
  -3   4  -6   23.07    0.81
   3   4   6   22.86    0.83
   4   4   6    0.09    0.03
   5  -5  -6    3.10    0.13
   4  -5  -6    7.36    0.28
   4  -5  -6    6.68    0.28
   4   5  -6    7.81    0.27
  -3   5   6    7.64    0.29
  -3   5   6    7.96    0.41
   3   5  -6    7.68    0.28
   2  -5  -6    1.77    0.07
   2  -5  -6    1.84    0.07
  -2  -5   6    1.82    0.08
   2   5  -6    1.75    0.10
   2   5  -6    1.72    0.07
  -2   5   6    1.72    0.08
  -2   5   6    1.87    0.11
   2   5  -6    1.81    0.08
   2   5  -6    1.85    0.08
  -1  -5   6   88.59    3.21
  -1   5   6   94.40    3.21
   1   5  -6   93.21    3.22
   0  -5   6   15.88    0.59
  -1  -5  -6   20.15    0.71
   1   5   6   19.66    0.76
   1   5   6   21.42    0.81
  -1   5  -6   19.73    0.71
  -2  -5  -6   23.49    0.83
   2   5   6   23.52    0.85
   2   5   6   24.35    0.97
  -2   5  -6   23.32    0.83
   3   5   6   23.14    0.83
  -3   5  -6   22.84    0.81
   4   5   6    5.80    0.22
   5  -6  -6    2.04    0.09
   4  -6  -6    6.58    0.25
   4   6  -6    6.28    0.24
   3   6  -6   32.41    1.11
  -3   6   6   31.09    1.11
  -2  -6   6   11.24    0.42
  -2   6   6   11.83    0.42
   2   6  -6   11.87    0.42
  -2   6   6   11.89    0.46
   2   6  -6   11.90    0.41
   2   6  -6   11.87    0.42
   2   6  -6   11.71    0.49
   1  -6  -6    8.17    0.28
  -1  -6   6    7.39    0.28
  -1   6   6    7.48    0.28
   1   6  -6    7.74    0.27
   1   6  -6    7.52    0.32
  -1   6   6    7.73    0.31
   1   6  -6    7.65    0.28
   0  -6  -6    5.20    0.19
   0  -6   6    4.98    0.22
   0  -6   6    4.95    0.19
   0   6   6    4.78    0.19
   0   6  -6    4.73    0.18
   1   6   6    0.91    0.12
  -1   6  -6    0.96    0.05
  -2  -6  -6    1.11    0.06
   2   6   6    1.17    0.08
   2   6   6    1.07    0.14
  -2   6  -6    1.16    0.06
  -3   6  -6    0.84    0.05
   3   6   6    0.84    0.07
   4   6   6    1.23    0.07
   4  -7  -6   31.39    1.12
   4   7  -6   32.18    1.11
   3   7  -6    1.88    0.08
  -3   7   6    1.80    0.09
  -2  -7   6    1.09    0.06
   2   7  -6    1.19    0.06
  -2   7   6    1.05    0.06
  -2   7   6    1.08    0.09
   2   7  -6    1.11    0.05
  -1  -7   6   23.36    0.83
   1  -7  -6   22.77    0.83
   1   7  -6   24.32    0.82
  -1   7   6   23.73    0.83
   0  -7  -6   77.41    2.59
   0  -7   6   73.85    2.59
   0   7   6   74.01    2.59
   0   7  -6   74.53    2.59
   0   7  -6   73.84    2.58
  -1  -7  -6   18.66    0.69
   1   7   6   19.90    0.79
  -1   7  -6   19.88    0.69
  -2  -7  -6    5.98    0.23
  -2   7  -6    6.15    0.23
   2   7   6    5.78    0.33
   2   7   6    5.99    0.24
  -3   7  -6   12.04    0.43
   3   7   6   12.01    0.44
   4  -8  -6    7.24    0.27
   4   8  -6    7.09    0.26
  -4   8   6    6.68    0.26
   3   8  -6    4.67    0.18
  -3   8   6    4.80    0.19
  -2  -8   6   11.89    0.45
  -2   8   6   12.56    0.45
   2   8  -6   12.14    0.44
   2   8  -6   12.96    0.44
  -1  -8   6   16.66    0.60
   1  -8  -6   16.66    0.60
   1   8  -6   17.57    0.59
  -1   8   6   16.88    0.60
   0  -8   6   10.22    0.38
   0  -8  -6   10.64    0.38
   0   8  -6   10.05    0.37
   0   8  -6   10.17    0.37
   0   8   6   10.53    0.45
  -1  -8  -6    1.28    0.07
  -1   8  -6    1.30    0.06
   1   8   6    1.29    0.14
  -2  -8  -6   53.05    1.85
  -2   8  -6   54.62    1.85
   2   8   6   52.06    1.86
   3   8   6   13.66    0.50
  -3   8  -6   13.80    0.49
   4  -9  -6   10.94    0.38
   4   9  -6   10.10    0.37
  -4   9   6   10.04    0.37
   3   9  -6   20.03    0.72
  -3   9   6   21.02    0.73
  -2  -9   6    1.46    0.08
  -2   9   6    1.62    0.08
   2   9  -6    1.59    0.08
   2   9  -6    1.62    0.07
   1  -9  -6    0.09    0.02
  -1  -9   6    0.12    0.02
   1   9  -6    0.11    0.02
  -1   9   6    0.11    0.02
  -1   9   6    0.11    0.02
   0  -9  -6    6.23    0.24
   0  -9   6    6.29    0.24
   0   9  -6    6.26    0.23
  -1  -9  -6   31.97    1.10
  -1   9  -6   30.46    1.09
  -2  -9  -6    0.76    0.05
  -2   9  -6    0.78    0.05
   2   9   6    0.76    0.04
  -3   9  -6    9.42    0.34
   3  10  -6   34.39    1.20
  -3  10   6   34.69    1.21
  -2 -10   6   10.34    0.38
   2  10  -6   10.37    0.37
  -2  10   6   10.33    0.38
   2  10  -6   10.33    0.37
   1 -10  -6    2.85    0.12
  -1 -10   6    2.79    0.12
  -1  10   6    2.81    0.12
  -1  10   6    2.66    0.11
   1  10  -6    2.91    0.11
   0 -10  -6    6.76    0.25
   0 -10   6    6.68    0.25
   0  10  -6    6.31    0.24
   0  10   6    6.59    0.24
  -1 -10  -6   26.21    0.93
   1  10   6   26.66    0.92
  -1  10  -6   26.59    0.93
  -2 -10  -6    3.14    0.13
  -2  10  -6    3.15    0.12
   2  10   6    3.06    0.12
   3 -11  -6    0.11    0.02
   3  11  -6    0.10    0.02
  -3  11   6    0.11    0.02
  -2 -11   6    6.46    0.24
  -2  11   6    6.33    0.24
   2  11  -6    6.76    0.24
   2  11  -6    6.19    0.23
  -1 -11   6   21.42    0.74
   1 -11  -6   19.92    0.74
  -1  11   6   20.63    0.74
   1  11  -6   20.99    0.73
  -1  11   6   21.98    0.74
   0 -11   6    6.25    0.23
   0 -11  -6    6.14    0.23
   0  11  -6    6.05    0.22
   0  11   6    6.11    0.22
  -1 -11  -6    0.06    0.02
   1  11   6    0.06    0.02
  -1  11  -6    0.05    0.02
  -2 -11  -6    0.53    0.04
  -2  11  -6    0.42    0.03
   2  11   6    0.45    0.02
  -2 -12   6   24.71    0.85
   2  12  -6   24.45    0.84
  -2  12   6   23.80    0.85
   2  12  -6   23.71    0.84
  -1 -12   6    0.03    0.02
  -1  12   6    0.05    0.02
   1  12  -6    0.08    0.02
   1  12  -6    0.05    0.01
   0 -12  -6    0.18    0.02
   0 -12   6    0.22    0.03
   0  12   6    0.18    0.02
   0  12  -6    0.20    0.02
  -1 -12  -6    7.23    0.26
   1  12   6    6.90    0.25
  -1 -13   6    0.18    0.02
   1  13  -6    0.18    0.02
   1  13  -6    0.20    0.02
   0 -13   6   28.84    1.02
   0 -13  -6   29.08    1.02
   0  13  -6   29.62    1.01
   0  13   6   29.28    1.01
   5   0  -7   11.70    0.41
   4   0  -7    0.04    0.02
   4   0  -7    0.01    0.02
   3   0  -7    3.08    0.13
   3   0  -7    2.96    0.12
  -3   0   7    2.79    0.15
   3   0  -7    2.86    0.11
  -2   0   7    0.05    0.04
  -1   0   7   23.11    0.84
  -1   0  -7   13.50    0.46
   1   0   7   13.26    0.50
   1   0   7   11.95    0.52
   2   0   7    0.00    0.05
   2   0   7    0.02    0.03
  -2   0  -7    0.01    0.01
   3   0   7    2.97    0.14
   4   0   7    0.01    0.02
   5   1  -7    0.86    0.04
   4  -1  -7    3.77    0.16
   4  -1  -7    3.98    0.15
   4   1  -7    3.90    0.15
  -3  -1   7   19.87    0.76
   3  -1  -7   21.41    0.72
   3  -1  -7   21.22    0.73
  -3   1   7   19.97    0.77
   3   1  -7   20.88    0.72
   3   1  -7   21.28    0.73
   2  -1  -7    5.36    0.19
  -2  -1   7    4.82    0.22
   2   1  -7    4.91    0.19
  -2   1   7    4.88    0.22
  -1  -1   7    1.51    0.09
  -1   1   7    1.50    0.10
   0  -1   7    8.38    0.34
   0   1   7    8.62    0.34
   1  -1   7   42.80    1.50
  -1  -1  -7   44.37    1.46
   1   1   7   43.28    1.50
   1   1   7   40.15    1.50
  -1   1  -7   40.91    1.46
   1   1   7   39.79    1.53
   2  -1   7    4.28    0.17
  -2  -1  -7    4.10    0.16
   2   1   7    4.26    0.18
   2   1   7    3.84    0.25
  -2   1  -7    4.15    0.16
   3  -1   7    6.06    0.24
   3   1   7    6.13    0.25
  -3   1  -7    6.15    0.24
   4   1   7    2.35    0.11
   5  -2  -7    5.04    0.19
   5   2  -7    5.17    0.19
   4  -2  -7    0.02    0.01
   4  -2  -7    0.02    0.02
   4  -2  -7    0.07    0.03
   4   2  -7    0.03    0.02
   3  -2  -7    2.30    0.09
   3  -2  -7    2.30    0.09
   3  -2  -7    2.11    0.13
  -3   2   7    2.32    0.14
   3   2  -7    2.29    0.10
   2  -2  -7    0.95    0.04
  -2  -2   7    0.91    0.08
   2  -2  -7    0.97    0.05
   2   2  -7    0.93    0.06
   2   2  -7    0.98    0.05
   2   2  -7    0.96    0.05
  -2   2   7    1.02    0.06
  -2   2   7    0.99    0.08
  -1  -2   7   15.01    0.56
  -1   2   7   15.42    0.57
   0  -2   7   12.45    0.47
   0   2   7   12.21    0.47
   1  -2   7    7.53    0.31
  -1  -2  -7    7.37    0.27
   1   2   7    7.15    0.31
   1   2   7    7.03    0.32
   1   2   7    7.82    0.35
  -1   2  -7    7.19    0.27
  -2  -2  -7   32.51    1.10
   2   2   7   32.22    1.12
   2   2   7   30.68    1.22
  -2   2  -7   30.15    1.10
   3   2   7    6.79    0.27
  -3   2  -7    6.46    0.25
   4   2   7    0.17    0.03
   5  -3  -7    5.04    0.19
   5   3  -7    4.83    0.18
   4  -3  -7   17.15    0.58
   4  -3  -7   15.61    0.59
   4  -3  -7   16.51    0.59
   4   3  -7   16.56    0.58
   3  -3  -7    0.03    0.01
   3  -3  -7    0.10    0.02
  -3   3   7    0.06    0.05
  -3   3   7    0.07    0.02
   3   3  -7    0.04    0.02
  -2  -3   7    0.01    0.03
  -2  -3   7    0.01    0.02
   2  -3  -7    0.01    0.01
   2  -3  -7    0.00    0.01
  -2   3   7    0.01    0.04
   2   3  -7    0.04    0.01
   2   3  -7    0.00    0.02
   2   3  -7    0.00    0.02
  -2   3   7    0.03    0.02
   2   3  -7    0.01    0.01
  -1  -3   7    0.47    0.06
   1   3  -7    0.31    0.05
  -1   3   7    0.32    0.06
   0  -3   7   43.56    1.52
   0   3   7   41.60    1.51
   1  -3   7   16.83    0.62
  -1  -3  -7   16.33    0.57
  -1   3  -7   15.61    0.57
   1   3   7   17.09    0.67
   1   3   7   15.03    0.62
  -2  -3  -7    4.12    0.16
   2   3   7    3.91    0.26
   2   3   7    4.29    0.18
  -2   3  -7    3.89    0.16
  -3   3  -7    0.58    0.04
   4   3   7   15.79    0.57
   5  -4  -7    5.60    0.20
   5   4  -7    5.20    0.20
   4  -4  -7    0.06    0.03
   4  -4  -7    0.05    0.03
   4   4  -7    0.04    0.02
   3  -4  -7   10.38    0.37
  -3   4   7   10.01    0.37
   3   4  -7   10.41    0.37
   2  -4  -7    7.12    0.26
   2  -4  -7    7.30    0.25
  -2  -4   7    6.71    0.26
  -2   4   7    7.46    0.30
   2   4  -7    7.17    0.26
  -2   4   7    6.93    0.26
   2   4  -7    7.18    0.26
   2   4  -7    7.02    0.25
   2   4  -7    6.87    0.29
  -1  -4   7   22.33    0.80
  -1  -4   7   21.29    0.77
  -1   4   7   21.69    0.77
  -1   4   7   22.55    0.80
   1   4  -7   21.82    0.81
   0  -4   7    0.65    0.07
   0  -4  -7    0.65    0.04
   0  -4   7    0.61    0.04
   0   4   7    0.68    0.06
   0   4  -7    0.68    0.04
   0   4   7    0.69    0.05
  -1  -4  -7   24.60    0.90
   1  -4   7   27.02    0.95
   1   4   7   23.53    0.96
  -1   4  -7   25.90    0.90
   1   4   7   26.56    0.99
  -2  -4  -7    0.26    0.03
   2   4   7    0.20    0.04
  -2   4  -7    0.21    0.03
   2   4   7    0.18    0.08
  -3   4  -7    3.70    0.14
   3   4   7    3.36    0.16
   5  -5  -7    2.50    0.10
   4  -5  -7    0.03    0.03
   4  -5  -7    0.06    0.03
   4   5  -7    0.06    0.02
  -3   5   7   24.69    0.89
   3   5  -7   25.61    0.88
   2  -5  -7    0.02    0.01
  -2  -5   7    0.00    0.02
   2   5  -7    0.02    0.01
  -2   5   7    0.00    0.02
   2   5  -7    0.01    0.01
  -2   5   7    0.03    0.05
  -1  -5   7   51.51    1.83
   1  -5  -7   52.76    1.82
  -1  -5   7   52.56    1.86
   1  -5  -7   50.37    1.83
   1   5  -7   50.21    1.82
   1   5  -7   54.64    1.82
  -1   5   7   55.42    1.86
  -1   5   7   53.64    1.83
   0  -5   7    2.46    0.10
   0  -5   7    2.35    0.13
   0  -5  -7    2.53    0.10
   0   5  -7    2.47    0.09
   0   5   7    2.35    0.10
   0   5  -7    2.31    0.10
  -1  -5  -7   12.50    0.44
   1   5   7   12.09    0.53
  -1   5  -7   12.17    0.44
  -2  -5  -7   17.63    0.65
  -2   5  -7   18.43    0.65
   2   5   7   18.90    0.67
   2   5   7   18.62    0.78
   3   5   7   25.80    0.93
  -3   5  -7   26.51    0.92
   4  -6  -7    0.06    0.03
   4  -6  -7    0.05    0.02
   4   6  -7    0.04    0.02
  -3   6   7    0.07    0.02
   3   6  -7    0.08    0.02
  -2  -6   7    0.07    0.02
  -2   6   7    0.08    0.05
  -2   6   7    0.07    0.02
   2   6  -7    0.08    0.02
   2   6  -7    0.07    0.01
   1  -6  -7    5.35    0.20
  -1  -6   7    5.13    0.20
   1  -6  -7    5.45    0.19
   1   6  -7    5.58    0.19
   1   6  -7    4.99    0.20
  -1   6   7    5.59    0.20
   1   6  -7    5.19    0.20
   0  -6  -7    0.55    0.04
   0  -6   7    0.45    0.06
   0  -6   7    0.47    0.04
   0   6  -7    0.47    0.03
   0   6   7    0.44    0.04
   0   6  -7    0.45    0.03
  -1  -6  -7   49.29    1.73
   1   6   7   52.30    1.83
  -1   6  -7   47.13    1.72
  -2  -6  -7    6.98    0.27
   2   6   7    7.28    0.28
  -2   6  -7    7.24    0.27
  -3   6  -7   14.56    0.51
   3   6   7   14.02    0.52
   4  -7  -7    8.48    0.32
   4   7  -7    8.57    0.31
  -4   7   7    8.62    0.31
  -3   7   7   11.15    0.41
   3   7  -7   11.10    0.40
  -2  -7   7    0.42    0.04
   2   7  -7    0.48    0.04
  -2   7   7    0.44    0.04
   2   7  -7    0.43    0.03
  -1  -7   7   12.92    0.47
   1  -7  -7   13.01    0.46
   1   7  -7   13.19    0.46
   1   7  -7   12.62    0.46
  -1   7   7   12.91    0.46
   0  -7   7   17.01    0.62
   0  -7  -7   17.53    0.62
   0   7   7   18.59    0.71
   0   7  -7   16.72    0.61
   0   7  -7   17.66    0.62
  -1  -7  -7   18.63    0.66
   1   7   7   18.07    0.76
  -1   7  -7   18.49    0.65
  -2  -7  -7    0.48    0.04
   2   7   7    0.48    0.06
  -2   7  -7    0.49    0.04
   3   7   7   22.02    0.80
  -3   7  -7   22.80    0.79
   4  -8  -7    8.87    0.32
  -4   8   7    8.18    0.31
   4   8  -7    8.64    0.31
  -3   8   7   29.77    1.04
   3   8  -7   29.11    1.03
  -2  -8   7   16.47    0.61
  -2   8   7   17.78    0.62
   2   8  -7   16.99    0.61
   2   8  -7   17.67    0.60
   1  -8  -7    1.75    0.07
  -1  -8   7    1.54    0.08
   1   8  -7    1.47    0.07
  -1   8   7    1.50    0.08
   1   8  -7    1.58    0.07
   0  -8   7    0.38    0.04
   0   8   7    0.25    0.07
   0   8  -7    0.34    0.03
   0   8  -7    0.32    0.03
  -1  -8  -7    0.52    0.04
  -1   8  -7    0.53    0.04
  -2  -8  -7    7.53    0.27
   2   8   7    7.41    0.28
  -2   8  -7    7.16    0.27
   2   8   7    7.12    0.26
   3   8   7    0.85    0.05
  -3   8  -7    0.92    0.05
   4  -9  -7   14.95    0.51
  -4   9   7   14.08    0.51
   4   9  -7   13.99    0.50
  -3   9   7   32.12    1.12
   3   9  -7   31.97    1.12
  -2  -9   7    1.41    0.07
   2   9  -7    1.35    0.06
   2   9  -7    1.47    0.07
  -2   9   7    1.31    0.07
   1  -9  -7    0.09    0.02
  -1  -9   7    0.10    0.02
  -1   9   7    0.15    0.02
   1   9  -7    0.13    0.02
  -1   9   7    0.10    0.02
   1   9  -7    0.13    0.02
   0  -9  -7   11.70    0.41
   0  -9   7   11.70    0.41
   0   9  -7   10.78    0.40
  -1  -9  -7   37.01    1.29
  -1   9  -7   36.48    1.28
  -2  -9  -7    2.22    0.09
   2   9   7    2.13    0.08
  -2   9  -7    2.07    0.09
  -3  10   7    4.98    0.19
   3  10  -7    4.94    0.18
  -2 -10   7    3.43    0.14
  -2  10   7    3.28    0.14
   2  10  -7    3.42    0.13
   2  10  -7    3.34    0.12
  -1 -10   7   20.50    0.71
   1 -10  -7   19.49    0.71
   1  10  -7   20.30    0.70
  -1  10   7   19.89    0.71
  -1  10   7   20.35    0.71
   1  10  -7   20.09    0.71
   0 -10  -7    0.30    0.03
   0 -10   7    0.25    0.03
   0  10  -7    0.31    0.03
   0  10   7    0.28    0.03
  -1 -10  -7    1.77    0.08
  -1  10  -7    1.58    0.07
   1  10   7    1.70    0.07
  -2 -10  -7   30.31    1.04
  -2  10  -7   30.29    1.04
   2  10   7   29.06    1.03
   3 -11  -7    6.86    0.25
  -3  11   7    6.66    0.24
   3  11  -7    6.62    0.24
  -2 -11   7    0.25    0.03
   2  11  -7    0.28    0.03
   2  11  -7    0.24    0.02
  -2  11   7    0.21    0.03
  -1 -11   7    3.29    0.13
  -1  11   7    3.08    0.12
   1  11  -7    3.20    0.12
   1  11  -7    3.17    0.12
   0 -11  -7    0.93    0.05
   0 -11   7    0.94    0.05
   0  11   7    1.05    0.05
   0  11  -7    1.00    0.05
  -1 -11  -7   11.41    0.41
   1  11   7   11.19    0.40
  -2 -12   7   11.34    0.39
  -2  12   7   10.25    0.39
   2  12  -7   10.78    0.38
   2  12  -7   11.32    0.39
  -1 -12   7   44.18    1.52
   1  12  -7   43.45    1.52
   0 -12  -7    4.33    0.17
   0 -12   7    4.40    0.17
   0  12  -7    4.46    0.16
   0  12   7    4.57    0.16
  -1 -12  -7    2.18    0.09
   1  12   7    2.16    0.08
   5   0  -8    0.02    0.01
   4   0  -8    4.44    0.17
  -2   0   8    7.51    0.28
   2   0  -8    7.77    0.27
   2   0  -8    7.32    0.28
  -2   0   8    7.96    0.32
  -1   0   8    0.07    0.02
  -1   0   8    0.01    0.04
   1   0  -8    0.01    0.01
   0   0   8   26.04    0.95
   0   0   8   28.83    0.99
   0   0  -8   26.44    0.95
   1   0   8    0.00    0.04
   1   0   8    0.01    0.04
  -2   0  -8   66.91    2.37
   2   0   8   69.85    2.39
  -3   0  -8    0.01    0.01
   3   0   8    0.00    0.03
   5   1  -8    0.20    0.02
   4  -1  -8    9.93    0.35
   4  -1  -8    9.28    0.36
   4   1  -8    9.95    0.35
   3  -1  -8    0.94    0.05
   3  -1  -8    1.13    0.05
   3   1  -8    1.13    0.05
   3   1  -8    1.04    0.05
  -3   1   8    0.94    0.06
  -2  -1   8   30.21    1.07
   2  -1  -8   31.30    1.06
  -2  -1   8   29.96    1.10
   2  -1  -8   29.86    1.06
   2   1  -8   31.27    1.06
  -2   1   8   31.29    1.07
   2   1  -8   29.32    1.07
  -2   1   8   31.56    1.11
   2   1  -8   30.14    1.07
  -1  -1   8    5.94    0.25
  -1  -1   8    5.91    0.22
   1  -1  -8    5.75    0.21
  -1   1   8    5.91    0.22
   1   1  -8    5.92    0.21
  -1   1   8    6.10    0.26
   0  -1   8    0.13    0.02
   0  -1  -8    0.10    0.02
   0  -1   8    0.17    0.05
   0   1   8    0.14    0.02
   0   1   8    0.14    0.05
   0   1  -8    0.11    0.02
   1  -1   8    0.67    0.08
  -1  -1  -8    0.74    0.05
  -1   1  -8    0.78    0.05
   1   1   8    0.74    0.08
  -2  -1  -8   23.61    0.82
   2  -1   8   23.60    0.84
   2   1   8   23.66    0.84
  -2   1  -8   25.09    0.83
   2   1   8   20.71    0.92
  -3  -1  -8    1.13    0.06
  -3   1  -8    1.17    0.06
   3   1   8    1.18    0.08
   5   2  -8   17.88    0.62
   4  -2  -8    2.13    0.09
   4  -2  -8    1.99    0.10
   4   2  -8    2.07    0.09
   3  -2  -8   54.26    1.89
   3  -2  -8   56.84    1.89
   3   2  -8   52.73    1.89
   3   2  -8   56.47    1.90
  -3   2   8   52.75    1.90
   2  -2  -8    8.26    0.30
   2  -2  -8    8.41    0.30
  -2  -2   8    8.24    0.31
  -2  -2   8    8.13    0.34
   2   2  -8    8.66    0.30
   2   2  -8    8.40    0.30
  -2   2   8    9.10    0.35
  -2   2   8    8.00    0.31
   2   2  -8    8.29    0.31
   1  -2  -8   49.34    1.80
  -1  -2   8   51.92    1.80
  -1  -2   8   50.44    1.83
   1  -2  -8   51.36    1.79
  -1   2   8   54.74    1.84
  -1   2   8   52.31    1.80
   1   2  -8   52.30    1.79
   0  -2  -8    1.67    0.07
   0  -2   8    1.67    0.08
   0  -2   8    1.72    0.11
   0   2  -8    1.54    0.07
   0   2   8    1.60    0.11
   0   2   8    1.61    0.08
   0   2  -8    1.60    0.07
   1  -2   8   14.58    0.56
  -1  -2  -8   14.15    0.51
  -1   2  -8   13.58    0.50
   1   2   8   14.21    0.59
  -2  -2  -8    2.84    0.12
   2   2   8    2.80    0.21
  -2   2  -8    3.18    0.12
   2   2   8    3.11    0.14
  -3   2  -8   10.86    0.39
   3   2   8   11.00    0.41
   5   3  -8    4.05    0.15
   4  -3  -8    0.16    0.02
   4  -3  -8    0.16    0.03
   4  -3  -8    0.15    0.03
   4   3  -8    0.15    0.02
   3  -3  -8  140.03    4.80
   3  -3  -8  142.61    4.81
  -3   3   8  135.04    4.82
   3   3  -8  144.07    4.81
   3   3  -8  134.38    4.80
   2  -3  -8    6.85    0.24
  -2  -3   8    6.35    0.28
  -2  -3   8    6.61    0.25
   2  -3  -8    6.68    0.24
  -2   3   8    6.82    0.29
   2   3  -8    6.64    0.24
   2   3  -8    6.80    0.24
  -2   3   8    6.71    0.25
  -1  -3   8    3.11    0.13
   1  -3  -8    3.15    0.12
  -1  -3   8    3.16    0.16
   1  -3  -8    2.98    0.12
  -1   3   8    3.38    0.16
  -1   3   8    3.14    0.13
   0  -3   8    8.45    0.31
   0  -3  -8    8.56    0.31
   0  -3   8    8.59    0.35
   0   3   8    8.47    0.34
   0   3   8    8.36    0.31
   0   3  -8    8.71    0.31
   0   3  -8    8.28    0.30
   1  -3   8   80.78    2.80
  -1  -3  -8   79.19    2.75
   1   3   8   78.19    2.85
  -1   3  -8   78.90    2.75
  -2  -3  -8    8.93    0.34
  -2   3  -8    9.24    0.34
   2   3   8    9.85    0.36
  -3   3  -8    0.02    0.01
   3   3   8    0.02    0.03
   4  -4  -8    2.86    0.14
   4  -4  -8    3.55    0.14
   4   4  -8    3.75    0.13
   3  -4  -8    3.65    0.14
   3   4  -8    3.47    0.13
   3   4  -8    3.56    0.14
  -3   4   8    3.65    0.15
  -2  -4   8    9.03    0.34
   2  -4  -8    9.46    0.33
   2  -4  -8    9.32    0.33
  -2   4   8    9.41    0.38
   2   4  -8    9.35    0.33
   2   4  -8    9.46    0.34
  -2   4   8    9.14    0.34
   1  -4  -8   26.13    0.95
  -1  -4   8   27.42    1.00
   1  -4  -8   26.19    0.96
  -1  -4   8   27.31    0.96
  -1   4   8   27.93    0.96
  -1   4   8   28.66    1.00
   1   4  -8   27.72    0.95
   0  -4   8    0.50    0.04
   0  -4   8    0.48    0.07
   0  -4  -8    0.47    0.04
   0   4  -8    0.47    0.04
   0   4  -8    0.41    0.03
   0   4   8    0.48    0.04
  -1  -4  -8    0.91    0.06
  -1   4  -8    1.14    0.06
   1   4   8    1.06    0.13
  -2  -4  -8    8.91    0.33
  -2   4  -8    8.98    0.33
   2   4   8    9.27    0.35
  -3   4  -8    6.12    0.23
   3   4   8    6.09    0.24
   4  -5  -8    2.74    0.14
   4  -5  -8    3.24    0.13
   4   5  -8    3.27    0.12
   3   5  -8    2.97    0.12
   3   5  -8    2.89    0.11
  -3   5   8    2.83    0.12
   2  -5  -8   28.57    0.98
  -2  -5   8   27.47    0.99
   2   5  -8   27.70    0.98
   2   5  -8   28.01    0.98
  -2   5   8   28.93    0.99
  -1  -5   8    2.42    0.11
   1  -5  -8    2.39    0.10
  -1  -5   8    2.24    0.13
   1  -5  -8    2.43    0.09
   1   5  -8    2.46    0.09
  -1   5   8    2.39    0.13
  -1   5   8    2.39    0.10
   0  -5   8   27.15    1.03
   0  -5   8   28.01    0.99
   0  -5  -8   28.56    0.99
   0   5   8   28.03    0.98
   0   5  -8   27.37    0.98
   0   5  -8   29.25    0.98
  -1  -5  -8    3.86    0.15
   1   5   8    3.80    0.24
  -1   5  -8    3.94    0.15
  -2  -5  -8   27.56    0.99
   2   5   8   28.92    1.00
  -2   5  -8   27.80    0.99
  -3   5  -8    0.94    0.05
   3   5   8    0.96    0.07
   4  -6  -8   17.06    0.61
   4   6  -8   17.01    0.60
  -4   6   8   16.96    0.60
  -3   6   8    0.02    0.02
   3   6  -8    0.04    0.02
  -2  -6   8   32.12    1.17
   2   6  -8   33.88    1.17
  -2   6   8   34.22    1.17
   2   6  -8   33.60    1.16
   1  -6  -8    6.35    0.24
  -1  -6   8    6.72    0.25
   1  -6  -8    6.58    0.24
   1   6  -8    6.66    0.24
  -1   6   8    6.35    0.25
   0  -6  -8   73.37    2.55
   0  -6   8   72.01    2.55
   0   6  -8   73.13    2.54
   0   6  -8   72.02    2.54
   0   6   8   76.08    2.64
  -1  -6  -8   21.24    0.75
  -1   6  -8   21.55    0.75
   1   6   8   20.54    0.85
  -2  -6  -8   14.24    0.52
  -2   6  -8   13.93    0.52
   2   6   8   15.15    0.53
   3   6   8    1.01    0.06
  -3   6  -8    1.05    0.05
   4  -7  -8   27.98    0.96
  -4   7   8   26.32    0.95
   3   7  -8   11.52    0.42
  -3   7   8   11.72    0.42
  -2  -7   8    6.86    0.26
  -2   7   8    7.07    0.26
   2   7  -8    7.23    0.25
   2   7  -8    6.75    0.26
  -1  -7   8    8.57    0.31
   1  -7  -8    7.58    0.30
  -1   7   8    8.40    0.31
   1   7  -8    8.54    0.30
   0  -7  -8   25.01    0.90
   0  -7   8   26.27    0.90
   0   7   8   25.29    0.98
   0   7  -8   25.57    0.89
   0   7  -8   25.12    0.89
  -1  -7  -8    8.13    0.30
  -1   7  -8    8.35    0.30
  -2  -7  -8   15.44    0.55
   2   7   8   15.65    0.56
  -2   7  -8   15.14    0.55
   3   7   8    0.80    0.05
  -3   7  -8    0.79    0.04
   4  -8  -8    4.01    0.15
  -4   8   8    3.81    0.15
   4   8  -8    3.82    0.14
   3   8  -8    8.47    0.31
  -3   8   8    8.36    0.31
  -2  -8   8    0.35    0.04
   2   8  -8    0.30    0.02
   2   8  -8    0.30    0.03
  -2   8   8    0.27    0.04
  -1  -8   8   43.94    1.51
   1  -8  -8   40.23    1.51
  -1   8   8   44.59    1.51
   1   8  -8   44.22    1.50
   0  -8  -8   12.04    0.43
   0  -8   8   12.50    0.43
   0   8  -8   11.46    0.42
  -1  -8  -8    4.77    0.18
  -1   8  -8    4.57    0.18
  -2  -8  -8    1.00    0.05
  -2   8  -8    0.95    0.05
   2   8   8    0.95    0.04
   2   8   8    1.01    0.06
  -3   9   8   22.12    0.76
   3   9  -8   21.19    0.76
  -2  -9   8    2.08    0.09
  -2   9   8    2.12    0.09
   2   9  -8    2.10    0.09
   2   9  -8    1.98    0.08
  -1  -9   8   12.89    0.47
   1   9  -8   13.24    0.46
  -1   9   8   12.62    0.46
   0  -9   8    0.02    0.02
   0  -9  -8    0.01    0.02
   0   9  -8    0.00    0.01
  -1  -9  -8   70.82    2.42
   1   9   8   71.88    2.42
  -1   9  -8   66.87    2.42
  -2  -9  -8    0.01    0.01
   2   9   8    0.01    0.01
  -2   9  -8    0.01    0.01
   3 -10  -8    0.09    0.02
  -3  10   8    0.12    0.02
   3  10  -8    0.12    0.02
  -2 -10   8    5.81    0.21
  -2  10   8    5.59    0.21
   2  10  -8    5.84    0.21
   2  10  -8    5.53    0.20
  -1 -10   8   12.11    0.43
   1  10  -8   12.02    0.43
   0 -10  -8    0.05    0.02
   0 -10   8    0.08    0.02
   0  10  -8    0.07    0.01
   0  10   8    0.07    0.02
  -1 -10  -8    4.56    0.17
  -1  10  -8    4.12    0.16
   1  10   8    4.46    0.16
  -2 -11   8    0.08    0.02
  -2  11   8    0.06    0.02
   2  11  -8    0.08    0.01
   2  11  -8    0.08    0.01
  -1 -11   8    0.12    0.02
   1  11  -8    0.10    0.01
   0 -11   8    4.45    0.17
   0 -11  -8    4.67    0.17
   0  11  -8    4.71    0.17
   0  11   8    4.63    0.17
  -1 -11  -8    2.49    0.10
   1  11   8    2.47    0.09
  -1 -12   8    4.57    0.17
   1  12  -8    4.63    0.17
   0  12   8    4.86    0.17
   0  12  -8    4.90    0.17
   4   0  -9    0.02    0.01
   3   0  -9   16.86    0.57
  -3   0   9   15.29    0.58
   3   0  -9   16.40    0.57
   2   0  -9    0.01    0.01
  -2   0   9    0.08    0.02
   2   0  -9   -0.01    0.01
  -1   0   9   64.10    2.24
  -1   0   9   62.89    2.20
   1   0  -9   63.02    2.19
   0   0   9    0.06    0.02
   0   0  -9    0.00    0.01
   0   0  -9    0.01    0.01
   0   0   9    0.03    0.05
  -1   0  -9    0.94    0.06
   2   0   9    0.02    0.03
  -2   0  -9    0.01    0.02
   3   0   9   37.72    1.42
  -3   0  -9   42.49    1.40
   4  -1  -9    1.94    0.08
   4   1  -9    1.91    0.08
   3  -1  -9   12.47    0.42
  -3  -1   9   11.50    0.43
   3  -1  -9   11.86    0.43
  -3   1   9   11.56    0.43
   3   1  -9   12.49    0.42
   3   1  -9   11.72    0.43
  -2  -1   9    3.96    0.16
   2  -1  -9    4.16    0.15
   2  -1  -9    3.93    0.15
  -2   1   9    4.25    0.16
   2   1  -9    4.10    0.15
   2   1  -9    3.75    0.15
   1  -1  -9   16.60    0.60
  -1  -1   9   19.88    0.66
  -1  -1   9   16.69    0.61
  -1   1   9   16.72    0.61
   1   1  -9   16.39    0.60
  -1   1   9   17.12    0.65
   0  -1   9    0.72    0.05
   0  -1   9    0.78    0.09
   0  -1  -9    0.71    0.04
   0   1  -9    0.69    0.04
   0   1   9    0.73    0.08
   0   1   9    0.72    0.05
   0   1  -9    0.69    0.04
  -1  -1  -9   64.95    2.16
  -1   1  -9   59.51    2.16
  -2  -1  -9    0.14    0.02
   2   1   9    0.16    0.04
  -2   1  -9    0.14    0.02
   3   1   9    0.11    0.03
  -3   1  -9    0.08    0.02
   4  -2  -9    0.20    0.02
   4   2  -9    0.16    0.02
   3  -2  -9   27.38    0.91
   3  -2  -9   26.57    0.91
  -3  -2   9   24.28    0.92
   3   2  -9   26.10    0.92
   3   2  -9   26.98    0.91
  -3   2   9   25.67    0.92
  -2  -2   9   37.21    1.29
   2  -2  -9   37.70    1.28
   2  -2  -9   36.00    1.28
   2   2  -9   36.24    1.28
   2   2  -9   36.28    1.28
  -2   2   9   37.95    1.29
   1  -2  -9   21.95    0.77
  -1  -2   9   22.09    0.78
  -1  -2   9   22.40    0.82
   1   2  -9   22.31    0.77
  -1   2   9   22.15    0.78
  -1   2   9   21.88    0.82
   0  -2   9   45.65    1.60
   0  -2   9   46.25    1.64
   0  -2  -9   43.84    1.59
   0   2  -9   44.92    1.59
   0   2   9   45.63    1.64
   0   2   9   46.03    1.59
   0   2  -9   48.11    1.60
  -1  -2  -9    8.47    0.30
  -1   2  -9    7.84    0.30
  -2  -2  -9   40.24    1.44
   2   2   9   41.47    1.45
  -2   2  -9   42.11    1.44
  -3  -2  -9   14.43    0.52
   3   2   9   15.34    0.54
  -3   2  -9   14.87    0.53
   4   3  -9    6.15    0.22
   3  -3  -9   15.07    0.51
   3  -3  -9   14.48    0.51
  -3  -3   9   13.82    0.52
   3   3  -9   14.56    0.51
  -3   3   9   14.01    0.52
   3   3  -9   15.08    0.51
   2  -3  -9   35.40    1.20
   2  -3  -9   33.43    1.20
  -2  -3   9   34.86    1.21
  -2   3   9   35.63    1.21
   2   3  -9   34.23    1.20
   2   3  -9   33.95    1.20
   1  -3  -9    2.28    0.10
  -1  -3   9    2.30    0.14
  -1  -3   9    2.43    0.10
   1  -3  -9    2.31    0.09
   1   3  -9    2.28    0.09
  -1   3   9    2.31    0.14
  -1   3   9    2.30    0.10
   0  -3   9   84.22    2.80
   0  -3  -9   82.17    2.80
   0   3   9   83.23    2.80
   0   3  -9   79.64    2.80
   0   3   9   73.61    2.85
   0   3  -9   82.05    2.79
  -1  -3  -9    0.55    0.04
  -1   3  -9    0.59    0.04
   1   3   9    0.52    0.10
  -2  -3  -9   55.48    1.94
   2   3   9   53.50    1.95
  -2   3  -9   58.52    1.94
  -3  -3  -9   -0.01    0.01
  -3   3  -9    0.00    0.01
   3   3   9    0.01    0.03
   4   4  -9   10.28    0.37
  -3  -4   9   21.30    0.78
   3   4  -9   22.82    0.76
   3   4  -9   21.21    0.77
  -3   4   9   22.38    0.78
   2  -4  -9   40.84    1.39
  -2  -4   9   39.21    1.40
  -2   4   9   40.99    1.40
   2   4  -9   37.86    1.39
   2   4  -9   41.09    1.39
  -1  -4   9    0.87    0.05
   1  -4  -9    0.76    0.05
   1  -4  -9    0.79    0.04
  -1   4   9    0.82    0.05
   1   4  -9    0.80    0.04
   0  -4  -9    7.35    0.28
   0  -4   9    7.46    0.28
   0   4  -9    7.61    0.27
   0   4  -9    7.81    0.28
  -1  -4  -9    0.79    0.05
  -1   4  -9    0.80    0.05
  -2  -4  -9   24.96    0.86
  -2   4  -9   23.81    0.86
   2   4   9   24.36    0.87
  -3   4  -9    0.07    0.01
   3   4   9    0.08    0.03
   4  -5  -9    7.38    0.28
  -4   5   9    7.21    0.28
   4   5  -9    8.10    0.27
  -3  -5   9   16.19    0.60
   3   5  -9   17.30    0.59
  -3   5   9   17.22    0.60
   3   5  -9   16.43    0.58
  -2  -5   9    6.86    0.26
   2  -5  -9    7.16    0.25
   2   5  -9    6.58    0.25
  -2   5   9    6.82    0.26
   2   5  -9    7.20    0.25
  -1  -5   9    0.02    0.02
   1  -5  -9    0.03    0.01
   1  -5  -9    0.07    0.02
  -1   5   9    0.05    0.02
   0  -5   9   20.68    0.71
   0  -5  -9   19.59    0.71
   0   5  -9   18.16    0.70
   0   5  -9   19.99    0.70
   0   5   9   21.58    0.81
  -1  -5  -9    3.45    0.14
  -1   5  -9    3.51    0.14
  -2  -5  -9    0.46    0.04
   2   5   9    0.39    0.06
  -2   5  -9    0.42    0.04
   4  -6  -9    3.38    0.13
  -4   6   9    3.32    0.13
   4   6  -9    3.44    0.13
  -3  -6   9    0.48    0.04
  -3   6   9    0.58    0.04
   3   6  -9    0.50    0.03
   3   6  -9    0.53    0.04
  -2  -6   9    0.02    0.02
  -2   6   9    0.01    0.02
   2   6  -9    0.00    0.01
   2   6  -9   -0.01    0.01
   1  -6  -9   30.79    1.20
  -1  -6   9   35.58    1.21
   1  -6  -9   33.59    1.19
   1   6  -9   35.82    1.20
  -1   6   9   36.06    1.20
   0  -6   9    0.13    0.03
   0  -6  -9    0.16    0.02
   0   6  -9    0.18    0.02
   0   6  -9    0.15    0.02
  -1  -6  -9    0.90    0.05
  -1   6  -9    0.96    0.05
  -2  -6  -9    1.68    0.08
   2   6   9    1.69    0.09
  -2   6  -9    1.63    0.07
  -3  -7   9    7.89    0.29
   3   7  -9    8.07    0.29
  -3   7   9    8.25    0.30
  -2  -7   9    0.04    0.02
   2   7  -9    0.03    0.02
   2   7  -9    0.06    0.01
  -2   7   9    0.03    0.02
  -1  -7   9   16.62    0.60
  -1   7   9   16.96    0.60
   1   7  -9   16.72    0.59
   0  -7   9    1.51    0.07
   0  -7  -9    1.33    0.07
   0   7  -9    1.35    0.06
  -1  -7  -9   38.14    1.30
  -1   7  -9   35.95    1.29
  -2  -7  -9    0.07    0.02
   2   7   9    0.05    0.02
  -2   7  -9    0.11    0.02
  -3  -8   9    3.19    0.13
  -3   8   9    3.41    0.13
   3   8  -9    3.36    0.13
  -2  -8   9    8.27    0.30
  -2   8   9    7.96    0.30
   2   8  -9    7.97    0.29
   2   8  -9    8.37    0.29
  -1  -8   9    0.03    0.02
  -1   8   9    0.04    0.02
   1   8  -9    0.04    0.01
   0  -8  -9   39.21    1.41
   0  -8   9   40.69    1.41
   0   8  -9   41.34    1.40
  -1  -8  -9    1.81    0.08
   1   8   9    1.87    0.09
  -1   8  -9    1.75    0.08
  -2  -8  -9   15.56    0.53
   2   8   9   14.59    0.52
   2   8   9   14.52    0.53
  -2   8  -9   15.41    0.53
  -3  -9   9    0.68    0.04
   3  -9  -9    0.81    0.05
  -3   9   9    0.80    0.04
   3   9  -9    0.74    0.04
  -2  -9   9   25.10    0.86
   2   9  -9   23.97    0.85
   2   9  -9   24.55    0.85
  -2   9   9   24.07    0.86
  -1  -9   9    2.26    0.10
   1   9  -9    2.36    0.09
   0  -9   9   14.73    0.53
   0  -9  -9   14.77    0.53
   0   9   9   15.05    0.52
   0   9  -9   15.12    0.52
  -1  -9  -9    7.35    0.26
   1   9   9    7.25    0.25
  -1   9  -9    6.68    0.25
  -2 -10   9    2.39    0.10
  -2  10   9    2.20    0.09
   2  10  -9    2.30    0.09
  -1 -10   9    0.84    0.05
   1  10  -9    0.89    0.04
   0 -10   9    1.05    0.05
   0 -10  -9    1.04    0.05
   0  10  -9    1.05    0.05
   0  10   9    1.11    0.05
  -1 -10  -9    0.37    0.03
   1  10   9    0.34    0.02
  -1 -11   9    0.24    0.03
   1  11  -9    0.26    0.02
   4   0 -10    8.66    0.31
  -3   0  10    0.02    0.02
   3   0 -10    0.00    0.01
   3   0 -10    0.01    0.01
  -2   0  10    0.06    0.02
   2   0 -10    0.05    0.02
   2   0 -10    0.07    0.02
   1   0 -10    0.00    0.01
  -1   0  10    0.02    0.02
   0   0  10   29.83    1.05
   0   0 -10   29.97    1.05
  -1   0 -10    0.01    0.02
  -2   0 -10    0.12    0.02
   2   0  10    0.11    0.03
   4  -1 -10    2.57    0.10
   4   1 -10    2.52    0.10
   3  -1 -10    0.27    0.02
   3  -1 -10    0.29    0.03
  -3  -1  10    0.29    0.04
   3   1 -10    0.27    0.02
   3   1 -10    0.31    0.03
  -3   1  10    0.22    0.03
   2  -1 -10   16.67    0.58
   2  -1 -10   16.07    0.58
  -2  -1  10   16.38    0.59
  -2   1  10   16.17    0.59
   2   1 -10   16.76    0.58
  -1  -1  10    5.25    0.20
   1  -1 -10    5.13    0.19
   1   1 -10    5.29    0.19
  -1   1  10    5.36    0.20
   0  -1  10   16.60    0.59
   0  -1 -10   17.08    0.59
   0   1 -10   16.76    0.59
   0   1  10   16.50    0.59
   0   1 -10   15.32    0.58
  -1  -1 -10   16.95    0.62
  -1   1 -10   17.68    0.62
  -2  -1 -10    5.37    0.20
   2   1  10    5.11    0.21
  -2   1 -10    5.46    0.20
   4   2 -10   11.14    0.39
  -3  -2  10    1.93    0.09
   3  -2 -10    1.99    0.08
   3  -2 -10    2.08    0.08
   3   2 -10    2.00    0.08
  -3   2  10    2.04    0.09
   3   2 -10    1.97    0.08
  -2  -2  10    2.83    0.12
   2  -2 -10    2.81    0.11
   2  -2 -10    2.62    0.11
   2   2 -10    2.90    0.11
  -2   2  10    2.86    0.12
   0  -2  10    1.43    0.07
   0  -2 -10    1.47    0.07
   0   2 -10    1.32    0.06
   0   2 -10    1.39    0.07
  -1  -2 -10    3.64    0.14
  -1   2 -10    3.21    0.14
  -2  -2 -10    3.64    0.14
  -2   2 -10    3.64    0.14
   2   2  10    3.57    0.15
   4   3 -10    6.19    0.22
   3  -3 -10    7.12    0.26
  -3  -3  10    7.43    0.27
   3   3 -10    7.07    0.26
  -3   3  10    7.46    0.27
   3   3 -10    7.21    0.26
   2  -3 -10    1.64    0.07
  -2  -3  10    1.58    0.08
  -2   3  10    1.62    0.08
   2   3 -10    1.64    0.07
  -1  -3  10    3.27    0.13
   1  -3 -10    3.04    0.12
  -1   3  10    3.24    0.13
   1   3 -10    3.20    0.12
   0  -3  10   13.88    0.48
   0  -3 -10   14.03    0.48
   0   3 -10   12.36    0.47
   0   3 -10   13.40    0.48
  -1  -3 -10   15.53    0.56
  -1   3 -10   15.67    0.56
  -2  -3 -10    0.32    0.03
  -2   3 -10    0.31    0.03
   2   3  10    0.27    0.04
   4   4 -10    2.92    0.11
  -4   4  10    2.73    0.11
  -3  -4  10    0.37    0.04
   3   4 -10    0.36    0.02
   3   4 -10    0.34    0.03
  -3   4  10    0.39    0.04
   2  -4 -10   10.30    0.36
  -2  -4  10    9.97    0.37
   2   4 -10   10.21    0.36
  -2   4  10    9.94    0.37
   1  -4 -10   19.92    0.72
  -1  -4  10   20.80    0.73
   1   4 -10   20.60    0.72
  -1   4  10   21.12    0.73
   0  -4  10    9.00    0.32
   0  -4 -10    8.69    0.31
   0   4 -10    8.12    0.31
   0   4 -10    8.38    0.31
  -1  -4 -10    3.33    0.13
  -1   4 -10    3.34    0.13
  -2  -4 -10    2.20    0.09
  -2   4 -10    2.24    0.09
   2   4  10    2.20    0.11
   4   5 -10    2.07    0.08
  -3  -5  10    1.02    0.05
   3   5 -10    0.96    0.05
  -3   5  10    0.95    0.06
   3   5 -10    0.94    0.04
   2  -5 -10    1.73    0.07
  -2  -5  10    1.71    0.08
  -2   5  10    1.64    0.08
   2   5 -10    1.63    0.07
  -1  -5  10    2.87    0.12
   1  -5 -10    2.66    0.11
  -1   5  10    2.84    0.12
   1   5 -10    2.73    0.11
   0  -5 -10   19.28    0.69
   0  -5  10   20.11    0.69
   0   5 -10   19.59    0.69
   0   5 -10   19.27    0.68
  -1  -5 -10    2.25    0.09
  -1   5 -10    2.01    0.09
  -2  -5 -10    1.98    0.08
   2   5  10    1.97    0.09
  -2   5 -10    1.86    0.08
  -3  -6  10    0.57    0.04
  -3   6  10    0.68    0.04
   3   6 -10    0.57    0.04
  -2  -6  10   17.06    0.60
   2   6 -10   16.60    0.59
  -2   6  10   16.62    0.60
  -1  -6  10    1.01    0.06
   1   6 -10    1.01    0.05
  -1   6  10    1.02    0.06
   0  -6 -10    0.94    0.05
   0  -6  10    0.98    0.06
   0   6 -10    0.98    0.05
  -1  -6 -10   14.81    0.51
  -1   6 -10   13.50    0.50
  -2  -6 -10   26.48    0.91
  -2   6 -10   25.06    0.91
   2   6  10   26.59    0.92
  -3  -7  10    4.20    0.16
   3  -7 -10    4.11    0.16
   3   7 -10    4.32    0.16
  -3   7  10    4.64    0.16
  -2  -7  10    5.41    0.20
   2   7 -10    5.27    0.19
  -2   7  10    5.14    0.20
  -1  -7  10    0.17    0.03
   1   7 -10    0.18    0.02
   0  -7  10   14.36    0.52
   0  -7 -10   14.89    0.52
   0   7 -10   14.73    0.51
  -1  -7 -10    0.16    0.02
  -1   7 -10    0.11    0.02
   1   7  10    0.12    0.03
   3  -8 -10    0.40    0.03
   3   8 -10    0.37    0.03
  -3   8  10    0.39    0.03
  -2  -8  10    2.72    0.11
  -2   8  10    2.60    0.11
   2   8 -10    2.68    0.10
  -1  -8  10   13.38    0.48
   1   8 -10   13.57    0.47
   0  -8 -10    2.52    0.10
   0  -8  10    2.65    0.11
   0   8 -10    2.54    0.10
  -1  -8 -10    2.17    0.09
   1   8  10    1.98    0.09
  -2  -9  10    1.15    0.06
   2   9 -10    1.15    0.05
  -2   9  10    1.11    0.05
  -1  -9  10    1.51    0.07
   1   9 -10    1.51    0.06
   0  -9 -10    4.75    0.18
   0   9 -10    4.98    0.18
   0   9  10    5.18    0.18
   4   0 -11   -0.01    0.01
   3   0 -11   18.14    0.64
   3   0 -11   18.07    0.64
  -3   0  11   18.54    0.65
   2   0 -11    0.00    0.01
  -2   0  11    0.00    0.02
  -1   0  11    1.90    0.09
   1   0 -11    1.72    0.07
   0   0 -11    0.00    0.01
  -1   0 -11    1.00    0.05
   1   0  11    0.80    0.06
  -2   0 -11    0.00    0.01
   4   1 -11    0.00    0.01
   3  -1 -11   16.12    0.57
   3  -1 -11   16.00    0.57
  -3  -1  11   16.33    0.58
   3   1 -11   15.94    0.57
   3   1 -11   16.28    0.57
  -3   1  11   16.80    0.58
  -2  -1  11   18.45    0.65
   2  -1 -11   18.21    0.64
  -2   1  11   18.78    0.65
   2   1 -11   17.97    0.64
  -1  -1  11   14.07    0.49
   1  -1 -11   13.56    0.48
  -1   1  11   13.74    0.49
   1   1 -11   13.61    0.48
   0  -1 -11    0.08    0.02
   0   1 -11    0.07    0.02
  -1  -1 -11   24.86    0.87
   1   1  11   24.75    0.88
  -1   1 -11   24.91    0.87
  -2  -1 -11    6.87    0.24
   2   1  11    6.31    0.25
  -2   1 -11    6.76    0.24
   3  -2 -11    0.18    0.02
  -3  -2  11    0.17    0.02
   3   2 -11    0.15    0.02
   3   2 -11    0.18    0.02
  -3   2  11    0.15    0.02
  -2  -2  11    0.82    0.05
   2  -2 -11    0.77    0.04
   2   2 -11    0.76    0.04
  -2   2  11    0.82    0.05
   1  -2 -11    4.79    0.18
  -1  -2  11    5.00    0.19
  -1   2  11    4.92    0.19
   1   2 -11    4.96    0.18
   0  -2 -11   14.60    0.52
   0   2 -11   14.85    0.52
  -1  -2 -11   13.74    0.48
  -1   2 -11   13.28    0.48
  -2  -2 -11    0.17    0.02
  -2   2 -11    0.17    0.02
   2   2  11    0.15    0.03
  -3  -3  11    0.88    0.05
   3   3 -11    0.90    0.04
  -3   3  11    0.96    0.05
   3   3 -11    0.89    0.04
  -2  -3  11   20.01    0.69
   2  -3 -11   19.34    0.68
   2   3 -11   18.85    0.68
  -2   3  11   19.17    0.69
   1  -3 -11    2.72    0.10
  -1  -3  11    2.77    0.12
  -1   3  11    2.61    0.11
   1   3 -11    2.77    0.11
   0  -3 -11   24.82    0.87
   0   3 -11   23.86    0.86
   0   3 -11   25.27    0.86
  -1  -3 -11   11.41    0.40
  -1   3 -11   10.67    0.40
  -2  -3 -11   10.79    0.39
  -2   3 -11   10.95    0.39
   2   3  11   11.09    0.40
  -3  -4  11   12.14    0.43
   3   4 -11   11.75    0.42
  -3   4  11   12.36    0.43
   3   4 -11   11.58    0.42
  -2  -4  11    2.46    0.11
   2  -4 -11    2.41    0.09
   2   4 -11    2.50    0.09
  -2   4  11    2.41    0.10
  -1  -4  11    0.11    0.02
   1  -4 -11    0.13    0.02
   1   4 -11    0.13    0.02
  -1   4  11    0.12    0.02
   0  -4 -11    3.61    0.14
   0   4 -11    3.77    0.14
  -1  -4 -11   21.36    0.77
  -1   4 -11   21.88    0.76
   1   4  11   22.08    0.78
  -3  -5  11   21.20    0.74
   3   5 -11   20.42    0.73
  -3   5  11   22.35    0.74
   3   5 -11   20.26    0.73
  -2  -5  11    8.22    0.30
  -2   5  11    7.97    0.30
   2   5 -11    8.15    0.29
  -1  -5  11    9.56    0.35
   1  -5 -11    9.66    0.34
  -1   5  11    9.27    0.34
   1   5 -11    9.75    0.34
   0  -5 -11   22.20    0.79
   0   5 -11   22.91    0.79
  -1  -5 -11   16.21    0.57
   1   5  11   16.79    0.58
  -1   5 -11   15.43    0.57
  -3  -6  11    1.72    0.08
  -3   6  11    1.90    0.08
  -2  -6  11    2.99    0.12
   2   6 -11    2.93    0.11
  -2   6  11    2.78    0.12
  -1  -6  11   45.19    1.60
  -1   6  11   45.67    1.60
   1   6 -11   46.82    1.59
   0  -6 -11    9.37    0.34
   0   6 -11    9.42    0.33
  -1  -6 -11   11.16    0.39
   1   6  11   10.88    0.39
  -1   6 -11   10.58    0.38
  -2  -7  11    4.04    0.15
   2   7 -11    3.83    0.14
  -2   7  11    3.82    0.15
  -1  -7  11   19.86    0.70
   1   7 -11   20.17    0.70
   0  -7 -11    1.76    0.08
   0   7 -11    1.84    0.07
  -1  -8  11    6.77    0.25
   1   8 -11    7.05    0.25
   0   8  11    4.67    0.18
   0   8 -11    5.45    0.19
   3   0 -12   -0.01    0.01
  -3   0  12   -0.02    0.01
   2   0 -12    5.46    0.19
  -2   0  12    5.30    0.20
   1   0 -12   -0.02    0.01
  -1   0  12   -0.02    0.02
  -1   0 -12    0.00    0.01
   3  -1 -12    2.74    0.10
  -3  -1  12    2.75    0.11
  -3   1  12    2.81    0.11
   3   1 -12    2.61    0.10
  -2  -1  12   12.98    0.46
   2  -1 -12   12.90    0.45
   2   1 -12   13.08    0.45
  -2   1  12   12.73    0.46
   1  -1 -12   26.07    0.88
  -1  -1  12   24.81    0.89
  -1   1  12   24.92    0.89
   1   1 -12   25.75    0.88
   0  -1 -12    4.76    0.18
  -1  -1 -12    0.24    0.03
   1   1  12    0.24    0.04
  -1   1 -12    0.22    0.02
  -3  -2  12    5.85    0.21
   3   2 -12    5.40    0.20
  -3   2  12    5.80    0.21
   2  -2 -12    5.83    0.21
  -2  -2  12    5.89    0.22
   2   2 -12    5.80    0.21
  -2   2  12    5.70    0.22
   1  -2 -12   29.44    1.01
  -1  -2  12   28.27    1.01
  -1   2  12   27.96    1.01
   1   2 -12   30.16    1.01
   0  -2 -12    2.27    0.09
  -1  -2 -12    3.25    0.12
  -1   2 -12    3.15    0.12
   1   2  12    3.07    0.13
  -3  -3  12   33.55    1.15
   3   3 -12   32.00    1.14
  -3   3  12   33.30    1.15
  -2  -3  12    3.36    0.13
   2  -3 -12    3.26    0.12
  -2   3  12    3.28    0.13
   2   3 -12    3.33    0.12
   1  -3 -12    1.48    0.06
  -1  -3  12    1.46    0.07
   1   3 -12    1.45    0.06
  -1   3  12    1.42    0.07
   0  -3 -12    0.66    0.04
  -1  -3 -12   48.70    1.68
  -1   3 -12   48.60    1.68
   1   3  12   48.16    1.69
  -2  -4  12    0.55    0.04
   2   4 -12    0.53    0.03
  -2   4  12    0.51    0.04
  -1  -4  12   17.59    0.62
   1  -4 -12   17.48    0.62
   1   4 -12   18.08    0.62
   0  -4 -12    0.02    0.01
  -2  -5  12   13.42    0.48
  -2   5  12   13.20    0.47
   2   5 -12   13.70    0.47
  -1  -5  12    0.93    0.05
   1   5 -12    0.98    0.04
  -1  -6  12    2.72    0.11
   1   6 -12    2.81    0.10
  -2   0  13   -0.02    0.01
   2   0 -13    0.01    0.01
   1   0 -13   14.26    0.50
   1  -1 -13    2.97    0.11
   1   1 -13    3.02    0.11
   1  -2 -13    0.15    0.02
   1   2 -13    0.19    0.02
   0   0   0    0.00    0.00
;
_shelx_hkl_checksum              57762
_olex2_submission_special_instructions 'No special instructions were received'
loop_
_space_group_symop_operation_xyz
'x, y, z'
'-x, y+1/2, -z+1/2'
'-x, -y, -z'
'x, -y-1/2, z-1/2'
loop_
_atom_site_label
_atom_site_type_symbol
_atom_site_fract_x
_atom_site_fract_y
_atom_site_fract_z
_atom_site_U_iso_or_equiv
_atom_site_adp_type
_atom_site_occupancy
_atom_site_site_symmetry_order
_atom_site_calc_flag
_atom_site_refinement_flags_posn
S1 S 0.15998(8) 0.16647(3) -0.13009(8) 0.01967(19) Uani 1 1 d .
O1 O 0.7808(2) 0.18976(9) 0.8355(2) 0.0189(3) Uani 1 1 d .
N2 N 0.4977(3) 0.14984(10) 0.4216(3) 0.0151(3) Uani 1 1 d .
C3 C 0.5856(3) 0.01738(12) 0.6235(3) 0.0149(4) Uani 1 1 d .
C4 C 0.3616(3) 0.06422(12) 0.2534(3) 0.0150(4) Uani 1 1 d .
C5 C 0.4839(4) 0.25539(13) 0.3667(4) 0.0205(4) Uani 1 1 d .
H5A H 0.5664 0.2592 0.3617 0.031 Uiso 1 1 calc GR
H5B H 0.5887 0.3004 0.5140 0.031 Uiso 1 1 calc GR
H5C H 0.2873 0.2776 0.1874 0.031 Uiso 1 1 calc GR
C6 C 0.6427(3) 0.12562(13) 0.6571(3) 0.0155(4) Uani 1 1 d .
C7 C 0.0631(3) -0.02380(13) -0.1648(3) 0.0174(4) Uani 1 1 d .
H7 H 0.0604 -0.0887 -0.1287 0.021 Uiso 1 1 calc R
C8 C -0.0740(4) -0.00350(14) -0.3949(3) 0.0203(4) Uani 1 1 d .
H8 H -0.1793 -0.0538 -0.5309 0.024 Uiso 1 1 calc R
C9 C 0.2032(3) 0.06264(12) 0.0036(3) 0.0150(4) Uani 1 1 d .
C10 C -0.0412(4) 0.09519(14) -0.4036(3) 0.0200(4) Uani 1 1 d .
H10 H -0.1211 0.1212 -0.5458 0.024 Uiso 1 1 calc R
loop_
_atom_site_aniso_label
_atom_site_aniso_U_11
_atom_site_aniso_U_22
_atom_site_aniso_U_33
_atom_site_aniso_U_23
_atom_site_aniso_U_13
_atom_site_aniso_U_12
S1 0.0226(3) 0.0192(3) 0.0195(3) 0.00057(15) 0.0193(3) -0.00118(15)
O1 0.0224(6) 0.0157(6) 0.0193(6) -0.0026(5) 0.0189(6) -0.0019(5)
N2 0.0167(7) 0.0135(7) 0.0154(7) 0.0004(5) 0.0145(6) -0.0001(5)
C3 0.0148(7) 0.0164(8) 0.0152(7) -0.0001(6) 0.0138(7) 0.0000(6)
C4 0.0134(7) 0.0154(8) 0.0168(8) 0.0013(6) 0.0137(7) 0.0015(6)
C5 0.0275(9) 0.0141(8) 0.0249(9) 0.0005(6) 0.0242(8) -0.0002(6)
C6 0.0153(7) 0.0171(8) 0.0170(7) 0.0026(6) 0.0149(7) 0.0025(6)
C7 0.0167(7) 0.0217(9) 0.0164(8) 0.0032(6) 0.0153(7) 0.0038(6)
C8 0.0215(8) 0.0214(9) 0.0195(8) -0.0009(7) 0.0188(8) 0.0011(7)
C9 0.0146(7) 0.0164(8) 0.0160(8) 0.0030(6) 0.0140(7) 0.0028(6)
C10 0.0217(8) 0.0242(9) 0.0188(8) 0.0022(7) 0.0188(8) 0.0022(7)
loop_
_atom_type_symbol
_atom_type_description
_atom_type_scat_dispersion_real
_atom_type_scat_dispersion_imag
_atom_type_scat_source
C C 0.0181 0.0091 'International Tables Vol C Tables 4.2.6.8 and 6.1.1.4'
H H 0.0000 0.0000 'International Tables Vol C Tables 4.2.6.8 and 6.1.1.4'
N N 0.0311 0.0180 'International Tables Vol C Tables 4.2.6.8 and 6.1.1.4'
O O 0.0492 0.0322 'International Tables Vol C Tables 4.2.6.8 and 6.1.1.4'
S S 0.3331 0.5567 'International Tables Vol C Tables 4.2.6.8 and 6.1.1.4'
loop_
_geom_angle_atom_site_label_1
_geom_angle_atom_site_label_2
_geom_angle_atom_site_label_3
_geom_angle
_geom_angle_site_symmetry_1
_geom_angle_site_symmetry_3
C10 S1 C9 91.85(8) . .
C4 N2 C5 127.35(14) . .
C4 N2 C6 111.67(13) . .
C6 N2 C5 120.76(13) . .
C3 C3 C6 108.33(17) 3_656 .
C4 C3 C3 109.13(18) 3_656 3_656
C4 C3 C6 142.54(15) 3_656 .
N2 C4 C9 125.29(15) . .
C3 C4 N2 106.93(14) 3_656 .
C3 C4 C9 127.76(15) 3_656 .
N2 C5 H5A 109.5 . .
N2 C5 H5B 109.5 . .
N2 C5 H5C 109.5 . .
H5A C5 H5B 109.5 . .
H5A C5 H5C 109.5 . .
H5B C5 H5C 109.5 . .
O1 C6 N2 122.53(15) . .
O1 C6 C3 133.53(15) . .
N2 C6 C3 103.93(13) . .
C8 C7 H7 124.0 . .
C9 C7 H7 124.0 . .
C9 C7 C8 111.98(15) . .
C7 C8 H8 123.2 . .
C10 C8 C7 113.50(16) . .
C10 C8 H8 123.2 . .
C4 C9 S1 125.43(12) . .
C7 C9 S1 110.49(12) . .
C7 C9 C4 124.08(15) . .
S1 C10 H10 123.9 . .
C8 C10 S1 112.17(13) . .
C8 C10 H10 123.9 . .
loop_
_geom_bond_atom_site_label_1
_geom_bond_atom_site_label_2
_geom_bond_distance
_geom_bond_site_symmetry_2
S1 C9 1.7404(16) .
S1 C10 1.7039(17) .
O1 C6 1.231(2) .
N2 C4 1.391(2) .
N2 C5 1.456(2) .
N2 C6 1.421(2) .
C3 C3 1.416(3) 3_656
C3 C4 1.389(2) 3_656
C3 C6 1.446(2) .
C4 C3 1.389(2) 3_656
C4 C9 1.441(2) .
C5 H5A 0.9800 .
C5 H5B 0.9800 .
C5 H5C 0.9800 .
C7 H7 0.9500 .
C7 C8 1.409(2) .
C7 C9 1.395(2) .
C8 H8 0.9500 .
C8 C10 1.363(3) .
C10 H10 0.9500 .
loop_
_geom_torsion_atom_site_label_1
_geom_torsion_atom_site_label_2
_geom_torsion_atom_site_label_3
_geom_torsion_atom_site_label_4
_geom_torsion
_geom_torsion_site_symmetry_1
_geom_torsion_site_symmetry_4
N2 C4 C9 S1 1.9(2) . .
N2 C4 C9 C7 -178.40(14) . .
C3 C3 C6 O1 -179.04(17) 3_656 .
C3 C3 C6 N2 0.2(2) 3_656 .
C3 C4 C9 S1 -176.50(12) 3_656 .
C3 C4 C9 C7 3.2(3) 3_656 .
C4 N2 C6 O1 178.93(14) . .
C4 N2 C6 C3 -0.41(17) . .
C4 C3 C6 O1 1.1(4) 3_656 .
C4 C3 C6 N2 -179.7(2) 3_656 .
C5 N2 C4 C3 -174.17(15) . 3_656
C5 N2 C4 C9 7.2(2) . .
C5 N2 C6 O1 -6.0(2) . .
C5 N2 C6 C3 174.63(14) . .
C6 N2 C4 C3 0.47(17) . 3_656
C6 N2 C4 C9 -178.19(14) . .
C7 C8 C10 S1 0.33(19) . .
C8 C7 C9 S1 -0.11(17) . .
C8 C7 C9 C4 -179.87(14) . .
C9 S1 C10 C8 -0.33(14) . .
C9 C7 C8 C10 -0.1(2) . .
C10 S1 C9 C4 180.00(14) . .
C10 S1 C9 C7 0.25(12) . .
