#------------------------------------------------------------------------------
#$Date: 2019-11-25 13:49:43 +0200 (Mon, 25 Nov 2019) $
#$Revision: 241016 $
#$URL: file:///home/coder/svn-repositories/cod/cif/4/13/06/4130623.cif $
#------------------------------------------------------------------------------
#
# This file is available in the Crystallography Open Database (COD),
# http://www.crystallography.net/
#
# All data on this site have been placed in the public domain by the
# contributors.
#
data_4130623
loop_
_publ_author_name
'Liu, Jie'
'Cao, Chao-Guo'
'Sun, Hong-Bao'
'Zhang, Xia'
'Niu, Dawen'
_publ_section_title
;
 Catalytic Asymmetric Umpolung Allylation of Imines.
;
_journal_issue                   40
_journal_name_full               'Journal of the American Chemical Society'
_journal_page_first              13103
_journal_page_last               13106
_journal_paper_doi               10.1021/jacs.6b05288
_journal_volume                  138
_journal_year                    2016
_chemical_absolute_configuration ad
_chemical_formula_moiety         'Cl, C16 H16 Cl2 N'
_chemical_formula_sum            'C16 H16 Cl3 N'
_chemical_formula_weight         328.65
_space_group_crystal_system      monoclinic
_space_group_IT_number           4
_space_group_name_Hall           'P 2yb'
_space_group_name_H-M_alt        'P 1 21 1'
_atom_sites_solution_hydrogens   mixed
_atom_sites_solution_primary     direct
_audit_creation_date             2016-05-06
_audit_creation_method
;
Olex2 1.2
(compiled 2016.02.19 svn.r3266 for OlexSys, GUI svn.r5155)
;
_cell_angle_alpha                90
_cell_angle_beta                 100.719(3)
_cell_angle_gamma                90
_cell_formula_units_Z            2
_cell_length_a                   9.5249(3)
_cell_length_b                   5.8864(2)
_cell_length_c                   14.3094(4)
_cell_measurement_reflns_used    4077
_cell_measurement_temperature    293
_cell_measurement_theta_max      72.5090
_cell_measurement_theta_min      5.1530
_cell_volume                     788.29(4)
_computing_cell_refinement
;
CrysAlisPro, Agilent Technologies,
Version 1.171.37.35 (release 13-08-2014 CrysAlis171 .NET)
(compiled Aug 13 2014,18:06:01)
;
_computing_data_collection
;
CrysAlisPro, Agilent Technologies,
Version 1.171.37.35 (release 13-08-2014 CrysAlis171 .NET)
(compiled Aug 13 2014,18:06:01)
;
_computing_data_reduction
;
CrysAlisPro, Agilent Technologies,
Version 1.171.37.35 (release 13-08-2014 CrysAlis171 .NET)
(compiled Aug 13 2014,18:06:01)
;
_computing_molecular_graphics    'Olex2 (Dolomanov et al., 2009)'
_computing_publication_material  'Olex2 (Dolomanov et al., 2009)'
_computing_structure_refinement  'ShelXL (Sheldrick, 2015)'
_computing_structure_solution    'ShelXT (Sheldrick, 2015)'
_diffrn_ambient_temperature      293
_diffrn_detector                 'CCD plate'
_diffrn_detector_area_resol_mean 15.9595
_diffrn_detector_type            EosS2
_diffrn_measured_fraction_theta_full 0.998
_diffrn_measured_fraction_theta_max 0.985
_diffrn_measurement_details
;
#__ type_ start__ end____ width___ exp.time_
  1 omega   20.00  104.00   1.0000    2.2900
omega____ theta____ kappa____ phi______ frames
    -       36.2921   57.0000    0.0000 84

#__ type_ start__ end____ width___ exp.time_
  2 omega   23.00   90.00   1.0000    2.2900
omega____ theta____ kappa____ phi______ frames
    -       36.2921 -125.0000 -150.0000 67

#__ type_ start__ end____ width___ exp.time_
  3 omega  -31.00   53.00   1.0000    2.2900
omega____ theta____ kappa____ phi______ frames
    -       36.2921  -57.0000   30.0000 84

#__ type_ start__ end____ width___ exp.time_
  4 omega   10.00  104.00   1.0000    2.2900
omega____ theta____ kappa____ phi______ frames
    -       36.2921   77.0000  120.0000 94

#__ type_ start__ end____ width___ exp.time_
  5 omega  -11.00  106.00   1.0000    2.2900
omega____ theta____ kappa____ phi______ frames
    -       36.2921   11.0000    4.0000 117

#__ type_ start__ end____ width___ exp.time_
  6 omega   20.00  104.00   1.0000    2.2900
omega____ theta____ kappa____ phi______ frames
    -       36.2921   57.0000 -120.0000 84

#__ type_ start__ end____ width___ exp.time_
  7 omega   17.00  105.00   1.0000    2.2900
omega____ theta____ kappa____ phi______ frames
    -       36.2921   38.0000   30.0000 88

#__ type_ start__ end____ width___ exp.time_
  8 omega   20.00  104.00   1.0000    2.2900
omega____ theta____ kappa____ phi______ frames
    -       36.2921   57.0000 -180.0000 84

#__ type_ start__ end____ width___ exp.time_
  9 omega   10.00  104.00   1.0000    2.2900
omega____ theta____ kappa____ phi______ frames
    -       36.2921   77.0000   60.0000 94

#__ type_ start__ end____ width___ exp.time_
 10 omega  -31.00   53.00   1.0000    2.2900
omega____ theta____ kappa____ phi______ frames
    -       36.2921  -57.0000  120.0000 84

#__ type_ start__ end____ width___ exp.time_
 11 omega   81.00  176.00   1.0000   10.0000
omega____ theta____ kappa____ phi______ frames
    -      108.0000   77.0000    0.0000 95

#__ type_ start__ end____ width___ exp.time_
 12 omega   81.00  176.00   1.0000   10.0000
omega____ theta____ kappa____ phi______ frames
    -      108.0000   77.0000   90.0000 95

#__ type_ start__ end____ width___ exp.time_
 13 omega   87.00  178.00   1.0000   10.0000
omega____ theta____ kappa____ phi______ frames
    -      108.0000   30.0000  120.0000 91

#__ type_ start__ end____ width___ exp.time_
 14 omega   81.00  176.00   1.0000   10.0000
omega____ theta____ kappa____ phi______ frames
    -      108.0000   77.0000  150.0000 95

#__ type_ start__ end____ width___ exp.time_
 15 omega   70.00  178.00   1.0000   10.0000
omega____ theta____ kappa____ phi______ frames
    -      108.0000   15.0000  120.0000 108

#__ type_ start__ end____ width___ exp.time_
 16 omega   81.00  107.00   1.0000   10.0000
omega____ theta____ kappa____ phi______ frames
    -      108.0000   77.0000   30.0000 26

#__ type_ start__ end____ width___ exp.time_
 17 omega   90.00  128.00   1.0000   10.0000
omega____ theta____ kappa____ phi______ frames
    -      108.0000   61.0000  150.0000 38

#__ type_ start__ end____ width___ exp.time_
 18 omega  142.00  168.00   1.0000   10.0000
omega____ theta____ kappa____ phi______ frames
    -      108.0000   61.0000   30.0000 26

#__ type_ start__ end____ width___ exp.time_
 19 omega  133.00  172.00   1.0000   10.0000
omega____ theta____ kappa____ phi______ frames
    -      108.0000   61.0000  150.0000 39

#__ type_ start__ end____ width___ exp.time_
 20 omega   90.00  116.00   1.0000   10.0000
omega____ theta____ kappa____ phi______ frames
    -      108.0000   61.0000   90.0000 26

#__ type_ start__ end____ width___ exp.time_
 21 omega   41.00   96.00   1.0000   10.0000
omega____ theta____ kappa____ phi______ frames
    -      108.0000  -45.0000   30.0000 55

#__ type_ start__ end____ width___ exp.time_
 22 omega   90.00  116.00   1.0000   10.0000
omega____ theta____ kappa____ phi______ frames
    -      108.0000   61.0000   30.0000 26

#__ type_ start__ end____ width___ exp.time_
 23 omega   93.00  119.00   1.0000   10.0000
omega____ theta____ kappa____ phi______ frames
    -      108.0000   61.0000  120.0000 26

#__ type_ start__ end____ width___ exp.time_
 24 omega   72.00   98.00   1.0000   10.0000
omega____ theta____ kappa____ phi______ frames
    -      108.0000   15.0000   90.0000 26

#__ type_ start__ end____ width___ exp.time_
 25 omega   90.00  116.00   1.0000   10.0000
omega____ theta____ kappa____ phi______ frames
    -      108.0000   61.0000   60.0000 26

#__ type_ start__ end____ width___ exp.time_
 26 omega   88.00  122.00   1.0000   10.0000
omega____ theta____ kappa____ phi______ frames
    -      108.0000   30.0000 -180.0000 34

#__ type_ start__ end____ width___ exp.time_
 27 omega  118.00  172.00   1.0000   10.0000
omega____ theta____ kappa____ phi______ frames
    -      108.0000   77.0000   60.0000 54

#__ type_ start__ end____ width___ exp.time_
 28 omega  117.00  143.00   1.0000   10.0000
omega____ theta____ kappa____ phi______ frames
    -      108.0000   77.0000  120.0000 26

#__ type_ start__ end____ width___ exp.time_
 29 omega   40.00   92.00   1.0000   10.0000
omega____ theta____ kappa____ phi______ frames
    -      108.0000  -45.0000  -60.0000 52

#__ type_ start__ end____ width___ exp.time_
 30 omega   82.00  108.00   1.0000   10.0000
omega____ theta____ kappa____ phi______ frames
    -      108.0000   77.0000   60.0000 26

#__ type_ start__ end____ width___ exp.time_
 31 omega   90.00  119.00   1.0000   10.0000
omega____ theta____ kappa____ phi______ frames
    -      108.0000   30.0000  150.0000 29

#__ type_ start__ end____ width___ exp.time_
 32 omega   41.00  104.00   1.0000   10.0000
omega____ theta____ kappa____ phi______ frames
    -      108.0000  -94.0000   60.0000 63

#__ type_ start__ end____ width___ exp.time_
 33 omega   91.00  117.00   1.0000   10.0000
omega____ theta____ kappa____ phi______ frames
    -      108.0000   45.0000   30.0000 26

#__ type_ start__ end____ width___ exp.time_
 34 omega   94.00  120.00   1.0000   10.0000
omega____ theta____ kappa____ phi______ frames
    -      108.0000   45.0000  120.0000 26

#__ type_ start__ end____ width___ exp.time_
 35 omega   82.00  108.00   1.0000   10.0000
omega____ theta____ kappa____ phi______ frames
    -      108.0000   77.0000  120.0000 26

#__ type_ start__ end____ width___ exp.time_
 36 omega   88.00  114.00   1.0000   10.0000
omega____ theta____ kappa____ phi______ frames
    -      108.0000   30.0000   30.0000 26

#__ type_ start__ end____ width___ exp.time_
 37 omega   46.00   89.00   1.0000   10.0000
omega____ theta____ kappa____ phi______ frames
    -      108.0000  -94.0000  150.0000 43
;
_diffrn_measurement_device       'four-circle diffractometer'
_diffrn_measurement_device_type  'New Gemini, Dual, Cu at zero, EosS2'
_diffrn_measurement_method       '\w scans'
_diffrn_orient_matrix_UB_11      -0.1390187000
_diffrn_orient_matrix_UB_12      -0.0106335000
_diffrn_orient_matrix_UB_13      -0.0746573000
_diffrn_orient_matrix_UB_21      -0.0876622000
_diffrn_orient_matrix_UB_22      0.0423560000
_diffrn_orient_matrix_UB_23      0.0786348000
_diffrn_orient_matrix_UB_31      0.0085927000
_diffrn_orient_matrix_UB_32      0.2580203000
_diffrn_orient_matrix_UB_33      -0.0159838000
_diffrn_radiation_monochromator  graphite
_diffrn_radiation_probe          x-ray
_diffrn_radiation_type           CuK\a
_diffrn_radiation_wavelength     1.54184
_diffrn_reflns_av_R_equivalents  0.0377
_diffrn_reflns_av_unetI/netI     0.0359
_diffrn_reflns_Laue_measured_fraction_full 0.998
_diffrn_reflns_Laue_measured_fraction_max 0.985
_diffrn_reflns_limit_h_max       11
_diffrn_reflns_limit_h_min       -10
_diffrn_reflns_limit_k_max       7
_diffrn_reflns_limit_k_min       -6
_diffrn_reflns_limit_l_max       14
_diffrn_reflns_limit_l_min       -17
_diffrn_reflns_number            7744
_diffrn_reflns_point_group_measured_fraction_full 0.902
_diffrn_reflns_point_group_measured_fraction_max 0.880
_diffrn_reflns_theta_full        67.684
_diffrn_reflns_theta_max         72.455
_diffrn_reflns_theta_min         6.149
_diffrn_source                   'Enhance (Cu) X-ray Source'
_exptl_absorpt_coefficient_mu    5.161
_exptl_absorpt_correction_T_max  1.00000
_exptl_absorpt_correction_T_min  0.34128
_exptl_absorpt_correction_type   multi-scan
_exptl_absorpt_process_details
;
CrysAlisPro, Agilent Technologies,
Version 1.171.37.35 (release 13-08-2014 CrysAlis171 .NET)
(compiled Aug 13 2014,18:06:01)
Empirical absorption correction using spherical harmonics,
 implemented in SCALE3 ABSPACK scaling algorithm.
;
_exptl_crystal_colour            'clear light colourless'
_exptl_crystal_colour_lustre     clear
_exptl_crystal_colour_modifier   light
_exptl_crystal_colour_primary    colourless
_exptl_crystal_density_diffrn    1.385
_exptl_crystal_description       needle
_exptl_crystal_F_000             340
_exptl_crystal_size_max          0.7
_exptl_crystal_size_mid          0.2
_exptl_crystal_size_min          0.2
_refine_diff_density_max         0.351
_refine_diff_density_min         -0.316
_refine_diff_density_rms         0.066
_refine_ls_abs_structure_details
;
 Flack x determined using 975 quotients [(I+)-(I-)]/[(I+)+(I-)]
 (Parsons, Flack and Wagner, Acta Cryst. B69 (2013) 249-259).
;
_refine_ls_abs_structure_Flack   -0.002(13)
_refine_ls_extinction_method     none
_refine_ls_goodness_of_fit_ref   1.057
_refine_ls_hydrogen_treatment    mixed
_refine_ls_matrix_type           full
_refine_ls_number_parameters     190
_refine_ls_number_reflns         2748
_refine_ls_number_restraints     1
_refine_ls_restrained_S_all      1.057
_refine_ls_R_factor_all          0.0493
_refine_ls_R_factor_gt           0.0481
_refine_ls_shift/su_max          0.001
_refine_ls_shift/su_mean         0.000
_refine_ls_structure_factor_coef Fsqd
_refine_ls_weighting_details
'w=1/[\s^2^(Fo^2^)+(0.0991P)^2^] where P=(Fo^2^+2Fc^2^)/3'
_refine_ls_weighting_scheme      calc
_refine_ls_wR_factor_gt          0.1260
_refine_ls_wR_factor_ref         0.1281
_reflns_Friedel_coverage         0.620
_reflns_Friedel_fraction_full    0.782
_reflns_Friedel_fraction_max     0.751
_reflns_number_gt                2662
_reflns_number_total             2748
_reflns_threshold_expression     'I > 2\s(I)'
_cod_data_source_file            ja6b05288_si_002.cif
_cod_data_source_block           yxq-lj-3
_cod_original_cell_volume        788.28(4)
_cod_database_code               4130623
_shelx_space_group_comment
;
The symmetry employed for this shelxl refinement is uniquely defined
by the following loop, which should always be used as a source of
symmetry information in preference to the above space-group names.
They are only intended as comments.
;
_reflns_odcompleteness_completeness 99.81
_reflns_odcompleteness_iscentric 1
_reflns_odcompleteness_theta     66.97
_olex2_refinement_description
;
1. Fixed Uiso
 At 1.2 times of:
  All C(H) groups, All C(H,H) groups
 At 1.5 times of:
  All N(H) groups
2.a Ternary CH refined with riding coordinates:
 C10(H10)
2.b Secondary CH2 refined with riding coordinates:
 C9(H9A,H9B)
2.c Aromatic/amide H refined with riding coordinates:
 C1(H1), C4(H4), C5(H5), C7(H7), C12(H12), C16(H16), C8(H8), C13(H13),
 C14(H14), C15(H15)
2.d Idealised tetrahedral OH refined as rotating group:
 N1(H1A)
;
_shelx_res_file
;
    yxq-lj-3.res created by SHELXL-2014/7

TITL yxq-lj-3_a.res in P2(1)
REM Old TITL YXQ-LJ-3 in P21 #4
REM SHELXT solution in P2(1)
REM R1 0.129, Rweak 0.052, Alpha 0.001, Orientation as input
REM Flack x = 0.012 ( 0.014 ) from Parsons' quotients
REM Formula found by SHELXT: C16 O Cl3
CELL 1.54184 9.524868 5.886358 14.309427 90 100.719 90
ZERR 2 0.000262 0.000219 0.000422 0 0.0027 0
LATT -1
SYMM -X,0.5+Y,-Z
SFAC C H Cl N
UNIT 32 32 6 2

L.S. 10
PLAN  20
TEMP 19.85
BOND $H
LIST 6
fmap 2
acta
REM <olex2.extras>
REM <HklSrc "%.\\YXQ-LJ-3.hkl">
REM </olex2.extras>

WGHT    0.099100
FVAR       0.92644
CL3   3    0.347969    0.509801    0.396265    11.00000    0.03494    0.04543 =
         0.04819   -0.00124    0.00029   -0.00067
CL0A  3    1.299109    0.485560    1.008784    11.00000    0.04795    0.07430 =
         0.06633    0.01073   -0.00473    0.01651
CL1A  3    1.345497    0.947839    0.908621    11.00000    0.04766    0.07258 =
         0.09495   -0.00678    0.00919   -0.01841
N1    4    0.510145    0.506704    0.610361    11.00000    0.03775    0.03918 =
         0.04347   -0.00072    0.00090   -0.00709
AFIX 147
H1A   2    0.562899    0.617781    0.614533    11.00000   -1.50000
AFIX   0
C6    1    0.911635    0.609975    0.854833    11.00000    0.04022    0.04304 =
         0.03985   -0.00119    0.00316   -0.00206
C1    1    1.027222    0.508857    0.914929    11.00000    0.04597    0.03970 =
         0.04284    0.00727    0.00651    0.00261
AFIX  43
H1    2    1.015395    0.368797    0.942526    11.00000   -1.20000
AFIX   0
C4    1    1.064128    0.925503    0.833440    11.00000    0.05601    0.03727 =
         0.04825    0.00527    0.00681   -0.00260
AFIX  43
H4    2    1.076290    1.066142    0.806421    11.00000   -1.20000
AFIX   0
C5    1    0.931860    0.819495    0.815110    11.00000    0.04322    0.04611 =
         0.04493    0.00381   -0.00379    0.00384
AFIX  43
H5    2    0.855677    0.889896    0.775634    11.00000   -1.20000
AFIX   0
C3    1    1.178231    0.821400    0.892138    11.00000    0.04177    0.04652 =
         0.04442   -0.00847    0.00679   -0.00402
C7    1    0.775406    0.484178    0.833480    11.00000    0.04885    0.04331 =
         0.04655   -0.00006    0.00377   -0.00601
AFIX  43
H7    2    0.779826    0.327054    0.840185    11.00000   -1.20000
AFIX   0
C11   1    0.284826    0.380666    0.656152    11.00000    0.03285    0.04510 =
         0.04181   -0.00011    0.00357   -0.00179
C10   1    0.419911    0.519041    0.686121    11.00000    0.03692    0.03976 =
         0.04540   -0.00868    0.00341   -0.00279
AFIX  13
H10   2    0.392384    0.677909    0.692477    11.00000   -1.20000
AFIX   0
C12   1    0.286641    0.170861    0.614106    11.00000    0.03512    0.05021 =
         0.06478   -0.00464    0.00537   -0.00636
AFIX  43
H12   2    0.373134    0.108516    0.605678    11.00000   -1.20000
AFIX   0
C16   1    0.154362    0.466893    0.670766    11.00000    0.03892    0.06385 =
         0.04643    0.00071    0.00733    0.00978
AFIX  43
H16   2    0.150770    0.607339    0.699996    11.00000   -1.20000
AFIX   0
C9    1    0.511110    0.443177    0.781329    11.00000    0.04246    0.06017 =
         0.03962   -0.00730    0.00266   -0.01183
AFIX  23
H9A   2    0.456345    0.462517    0.831548    11.00000   -1.20000
H9B   2    0.533571    0.283049    0.777755    11.00000   -1.20000
AFIX   0
C2    1    1.159037    0.615036    0.933766    11.00000    0.03977    0.04470 =
         0.03890   -0.00165    0.00257    0.00599
C8    1    0.647131    0.575751    0.805540    11.00000    0.04286    0.05153 =
         0.04095   -0.01031   -0.00039   -0.00786
AFIX  43
H8    2    0.641358    0.733152    0.800667    11.00000   -1.20000
AFIX   0
C13   1    0.160798    0.051180    0.584120    11.00000    0.04730    0.05374 =
         0.06307   -0.00217   -0.00113   -0.01631
AFIX  43
H13   2    0.163306   -0.088784    0.554325    11.00000   -1.20000
AFIX   0
C14   1    0.033286    0.137749    0.598110    11.00000    0.03372    0.08555 =
         0.05641    0.01452   -0.00243   -0.01655
AFIX  43
H14   2   -0.050740    0.056795    0.577963    11.00000   -1.20000
AFIX   0
C15   1    0.029393    0.342917    0.641634    11.00000    0.03385    0.09757 =
         0.05290    0.00956    0.00793    0.00427
AFIX  43
H15   2   -0.057346    0.400556    0.651957    11.00000   -1.20000
AFIX   0
H1B   2    0.451268    0.501455    0.545906    11.00000    0.04505
H1C   2    0.555866    0.386005    0.614665    11.00000    0.05219
HKLF 4

REM  yxq-lj-3_a.res in P2(1)
REM R1 =  0.0481 for    2662 Fo > 4sig(Fo)  and  0.0493 for all    2748 data
REM    190 parameters refined using      1 restraints

END

WGHT      0.0991      0.0000

REM Highest difference peak  0.351,  deepest hole -0.316,  1-sigma level  0.066
Q1    1   1.2561  0.6153  0.9806  11.00000  0.05    0.35
Q2    1   0.3604  0.6534  0.4170  11.00000  0.05    0.33
Q3    1   1.2568  0.3751  0.9719  11.00000  0.05    0.32
Q4    1   0.3551  0.3429  0.4028  11.00000  0.05    0.31
Q5    1   1.3115  0.8043  0.9086  11.00000  0.05    0.27
Q6    1   1.3378  1.1004  0.9161  11.00000  0.05    0.26
Q7    1   0.2959  0.4999  0.4453  11.00000  0.05    0.25
Q8    1   1.1796  0.6696  0.8792  11.00000  0.05    0.25
Q9    1   0.3842  0.5155  0.3428  11.00000  0.05    0.24
Q10   1   0.3960  0.3918  0.4329  11.00000  0.05    0.22
Q11   1   1.1587  0.7669  0.9460  11.00000  0.05    0.21
Q12   1   1.1071  0.5102  0.9033  11.00000  0.05    0.20
Q13   1   1.2649  0.4920  1.0559  11.00000  0.05    0.19
Q14   1   1.2860  0.9205  0.9421  11.00000  0.05    0.19
Q15   1   1.0733  0.6125  0.9671  11.00000  0.05    0.18
Q16   1   0.1722  0.6461  0.6780  11.00000  0.05    0.17
Q17   1   0.2984  0.2335  0.6575  11.00000  0.05    0.17
Q18   1   0.3419  0.4918  0.6615  11.00000  0.05    0.16
Q19   1   0.3550  0.4326  0.6641  11.00000  0.05    0.16
Q20   1   1.0489  0.3376  0.9221  11.00000  0.05    0.15
;
_shelx_res_checksum              54964
_shelx_hkl_file
;
   0  -6  -9    8.73    1.45
   0  -5 -10   10.17    1.56
   0  -5 -11   20.50    2.58
   0  -5 -12    3.36    0.98
   0  -4   0  312.66   19.05
   0  -4   1   73.00    9.40
   0  -4  -1   70.65    8.31
   0  -4  -1   85.18    9.58
   0  -4  -2   91.17    9.94
   0  -4  -2   97.37   10.15
   0  -4  -3  130.23   12.24
   0  -4  -3  124.44   12.06
   0  -4  -4    7.52    3.22
   0  -4  -4    7.50    2.55
   0  -4  -5  127.48   13.13
   0  -4  -5  130.71   13.45
   0  -4   6    9.55    3.83
   0  -4 -10  179.23    8.08
   0  -4 -11    7.37    1.70
   0  -4 -11    4.60    1.17
   0  -4 -12   22.83    2.56
   0  -4 -12   24.44    2.99
   0  -4 -12   24.82    2.49
   0  -4 -13   62.79    3.70
   0  -4 -13   67.05    4.05
   0  -4 -14   22.56    2.05
   0  -4 -14   27.24    2.11
   0  -4 -14   24.72    1.90
   0  -3   0   -0.61    0.81
   0  -3  -1   51.98    6.00
   0  -3   1   50.61    5.19
   0  -3  -1   50.35    6.03
   0  -3  -2  968.36   31.65
   0  -3  -2  957.97   30.21
   0  -3   2  985.98   30.50
   0  -3  -3  313.82   16.42
   0  -3   3  328.17   16.36
   0  -3   4   71.42    7.76
   0  -3  -4   69.79    7.60
   0  -3   4   81.10    8.24
   0  -3   5   51.70    6.98
   0  -3   5   53.81    7.16
   0  -3  -5   51.57    6.88
   0  -3  -5   45.21    6.54
   0  -3  -6   73.79    8.61
   0  -3   6   70.07    8.65
   0  -3   6   80.47    9.55
   0  -3  -6   87.60    9.91
   0  -3   7   46.36    7.41
   0  -3  -7   43.21    8.04
   0  -3  -7   44.82    7.11
   0  -3   7   41.59    7.11
   0  -3  -8   44.59    7.43
   0  -3  -8   49.88    9.46
   0  -3   8   46.26    8.14
   0  -3   8   47.88    7.77
   0  -3  -9   36.65    3.38
   0  -3 -10   44.58    4.06
   0  -3 -10   50.98    4.11
   0  -3 -11    3.73    1.12
   0  -3 -11    7.22    1.54
   0  -3 -11    4.63    1.21
   0  -3 -12    1.80    0.90
   0  -3 -12    0.28    0.61
   0  -3 -12    2.07    1.01
   0  -3 -12    0.71    0.48
   0  -3 -12    3.41    1.14
   0  -3 -12    0.49    0.65
   0  -3 -12    1.41    0.98
   0  -3 -13    0.18    0.49
   0  -3 -13    0.12    0.43
   0  -3 -13   -0.26    0.57
   0  -3 -13    0.04    0.38
   0  -3 -13    0.31    0.94
   0  -3 -13    0.54    0.74
   0  -3 -14   12.06    1.71
   0  -3 -14   11.20    1.58
   0  -3 -14   10.84    1.56
   0  -3 -14   11.97    1.71
   0  -3 -14   12.06    1.78
   0  -3 -15   24.57    2.07
   0  -3 -15   18.83    1.79
   0  -3 -15   23.47    2.11
   0  -3 -15   23.34    2.10
   0  -3 -15   25.46    2.25
   0  -2   0 8599.76  162.79
   0  -2   1  665.16   18.46
   0  -2  -1  664.71   20.21
   0  -2   2  491.03   14.62
   0  -2  -2  507.27   17.41
   0  -2  -2  504.21   16.26
   0  -2   2  489.94   12.96
   0  -2   3  506.83   15.68
   0  -2  -3  511.06   16.49
   0  -2  -3  519.23   18.47
   0  -2  -4  323.82   14.51
   0  -2   4  305.31   12.74
   0  -2  -4  285.26   11.82
   0  -2   5  702.39   24.80
   0  -2   5  711.34   23.72
   0  -2  -5  651.09   21.01
   0  -2  -5  748.53   26.22
   0  -2  -6  197.18   13.89
   0  -2   6  179.45   11.61
   0  -2  -6  176.00   11.62
   0  -2   6  173.25   11.80
   0  -2  -7  180.63   15.13
   0  -2  -7  149.86   11.55
   0  -2   7  163.02   12.98
   0  -2   7  162.73   11.98
   0  -2   7  146.07   11.61
   0  -2  -8   18.12    4.36
   0  -2   8   24.57    5.19
   0  -2  -8   30.49    7.15
   0  -2   8   25.08    5.06
   0  -2   9  196.30   16.23
   0  -2  -9  170.00   19.45
   0  -2   9  192.40   15.23
   0  -2   9  194.04   15.08
   0  -2  -9  168.28   14.26
   0  -2 -10  275.48   11.45
   0  -2 -10  257.33   19.34
   0  -2 -10  324.76   11.55
   0  -2 -10  310.82   11.16
   0  -2 -10  323.49   11.32
   0  -2 -11  108.12    6.11
   0  -2 -11  108.18    6.24
   0  -2 -11  107.57    6.40
   0  -2 -11  106.26    6.07
   0  -2 -11   87.18    6.57
   0  -2 -11   98.81    6.27
   0  -2 -12  132.68    6.94
   0  -2 -12  144.06    7.45
   0  -2 -12  136.47    6.77
   0  -2 -12  147.32    7.25
   0  -2 -12  140.12    7.36
   0  -2 -12  149.99    7.47
   0  -2 -12  139.76    8.20
   0  -2 -13  149.06    7.37
   0  -2 -13  149.76    7.18
   0  -2 -13  142.93    6.82
   0  -2 -13  154.93    7.44
   0  -2 -13  145.61    7.21
   0  -2 -13  163.46    8.23
   0  -2 -13  142.45    7.00
   0  -2 -14   13.36    1.83
   0  -2 -14   11.71    1.91
   0  -2 -14   11.60    1.90
   0  -2 -14   12.54    1.83
   0  -2 -14   12.59    1.90
   0  -2 -14   11.54    1.87
   0  -2 -14   10.93    1.66
   0  -2 -15   47.58    3.48
   0  -2 -15   42.74    3.08
   0  -2 -15   49.07    3.40
   0  -2 -15   43.46    3.16
   0  -2 -15   47.31    3.40
   0  -2 -15   40.21    2.96
   0  -2 -16   11.92    1.46
   0  -2 -16   10.27    1.30
   0  -2 -16   11.32    1.45
   0  -1   0    9.26    0.88
   0  -1   1  320.73    8.01
   0  -1  -1  349.89    9.93
   0  -1   2 3851.84   74.20
   0  -1  -2 3857.55   76.33
   0  -1   2 3902.57   75.87
   0  -1  -3 2610.35   52.17
   0  -1   3 2593.64   52.95
   0  -1   4  439.29   15.09
   0  -1  -4  436.10   14.19
   0  -1  -5  563.65   18.32
   0  -1   5  581.31   19.58
   0  -1  -5  562.88   19.29
   0  -1   6  231.22   12.24
   0  -1  -6  213.07   11.56
   0  -1  -6  236.71   15.60
   0  -1   6  213.64   11.74
   0  -1  -7 1101.12   34.09
   0  -1  -7 1029.76   42.33
   0  -1   7 1133.15   34.82
   0  -1   7 1070.74   33.88
   0  -1   8  443.35   18.97
   0  -1   8  466.42   21.77
   0  -1   8  442.33   20.64
   0  -1  -8  461.59   21.42
   0  -1  -9   82.95   12.97
   0  -1   9  101.25   10.02
   0  -1   9  102.61   10.46
   0  -1   9  100.22   10.57
   0  -1  -9   82.64    9.54
   0  -1  10   16.66    4.20
   0  -1  10   14.37    4.05
   0  -1 -10    5.40    3.28
   0  -1  10    7.89    3.06
   0  -1 -11  170.33    7.79
   0  -1 -11  173.51    9.13
   0  -1 -11  167.63    8.26
   0  -1 -11  163.25    7.62
   0  -1 -11  175.02    8.00
   0  -1 -11  169.88    7.70
   0  -1 -11  168.72    8.40
   0  -1 -12   16.61    2.57
   0  -1 -12   12.67    1.98
   0  -1 -12   14.79    2.23
   0  -1 -12   15.34    2.39
   0  -1 -12   12.51    1.98
   0  -1 -12   19.89    2.74
   0  -1 -13  168.90    7.72
   0  -1 -13  161.61    7.66
   0  -1 -13  166.28    8.06
   0  -1 -13  152.82    7.47
   0  -1 -13  183.17    8.89
   0  -1 -13  170.07    8.19
   0  -1 -13  166.71    7.79
   0  -1 -14    2.25    0.97
   0  -1 -14    2.00    0.85
   0  -1 -14    2.92    0.98
   0  -1 -14    3.22    0.94
   0  -1 -14    3.80    1.09
   0  -1 -14    3.31    1.02
   0  -1 -15    3.03    0.85
   0  -1 -15    4.30    1.07
   0  -1 -15    4.61    1.10
   0  -1 -15    3.51    1.03
   0  -1 -16    0.39    0.39
   0  -1 -16    1.12    0.49
   0  -1 -16    1.96    0.69
   0  -1 -16    1.39    0.62
   0  -1 -17    6.72    1.02
   0  -1 -17    6.77    1.01
   0   0  -2  239.63    6.94
   0   0  -3  867.10   20.51
   0   0  -4 5578.52  111.79
   0   0  -4 5004.94  122.61
   0   0   5 2727.15   61.76
   0   0  -5 2761.80   60.64
   0   0  -5 2592.75   72.24
   0   0   6   11.87    2.53
   0   0  -6   11.15    3.19
   0   0   6   11.26    2.41
   0   0   6   12.00    2.63
   0   0  -6    6.46    1.76
   0   0   7   34.55    4.78
   0   0   7   41.05    5.15
   0   0  -7   28.27    4.17
   0   0  -7   31.83    6.48
   0   0   7   39.35    5.00
   0   0   8   26.07    4.47
   0   0  -8   22.45    5.57
   0   0   8   19.53    3.98
   0   0   8   20.53    3.93
   0   0   9   18.69    4.10
   0   0   9   24.01    4.81
   0   0   9   24.27    4.65
   0   0   9   24.33    4.83
   0   0  -9   19.13    5.76
   0   0  10  744.16   32.23
   0   0  10  774.09   31.52
   0   0  10  804.46   33.48
   0   0  11   16.65    4.87
   0   0 -11   18.20    2.39
   0   0 -11   17.90    2.53
   0   0 -11   22.69    2.73
   0   0 -11   16.90    4.99
   0   0 -11   18.15    2.43
   0   0 -11   18.25    2.37
   0   0 -11   19.18    2.59
   0   0 -11   18.70    2.34
   0   0 -12  208.69    9.01
   0   0 -12  212.33    9.63
   0   0 -12  206.95    9.20
   0   0 -12  198.34    8.77
   0   0 -12  213.37    9.04
   0   0 -12  200.67    9.13
   0   0 -13  150.24    7.64
   0   0 -13  154.38    7.60
   0   0 -13  139.20    7.20
   0   0 -13  153.17    7.74
   0   0 -13  155.46    7.54
   0   0 -14   28.29    2.98
   0   0 -14   30.33    3.06
   0   0 -14   30.42    3.07
   0   0 -14   19.68    2.46
   0   0 -15   67.13    4.43
   0   0 -15   69.93    4.46
   0   0 -15   74.79    4.85
   0   0 -15   68.79    4.44
   0   0 -16    9.72    1.49
   0   0 -16    8.06    1.34
   0   0 -16    9.09    1.47
   0   0 -16    9.68    1.47
   0   0 -17    0.54    0.42
   0   0 -17   -0.30    0.24
   0   0 -17   -0.22    0.27
   0   1   0    8.94    1.17
   0   1   0    8.03    1.14
   0   1  -1  297.19    8.28
   0   1   1  321.49    9.77
   0   1   1  307.27    7.70
   0   1   2 4109.93   78.66
   0   1  -2 3941.36   77.17
   0   1   3 2542.10   51.93
   0   1   3 2841.14   55.79
   0   1   4  405.06   12.20
   0   1   4  450.00   14.81
   0   1   4  464.34   16.15
   0   1  -4  402.50   11.83
   0   1   5  632.40   20.55
   0   1   5  611.61   19.12
   0   1  -5  601.23   17.77
   0   1   6  279.58   13.54
   0   1   6  299.59   14.73
   0   1   7 1180.87   34.62
   0   1   7 1245.33   36.45
   0   1   8  449.87   21.40
   0   1   8  452.68   20.78
   0   1   8  464.07   22.15
   0   1   9   58.33    7.78
   0   1   9   91.48    9.85
   0   1  10   12.01    3.93
   0   1  10    8.13    3.05
   0   1 -11  166.69    7.88
   0   1 -11  164.89    7.77
   0   1 -11  152.58    7.42
   0   1 -11  158.21    7.67
   0   1 -12   18.51    2.50
   0   1 -12   16.62    2.27
   0   1 -12   15.54    2.31
   0   1 -12   17.09    2.34
   0   1 -12   21.73    2.92
   0   1 -13  158.26    7.69
   0   1 -13  144.97    7.01
   0   1 -13  149.58    7.39
   0   1 -14    2.75    1.00
   0   1 -14    2.46    0.82
   0   1 -14    2.90    1.00
   0   1 -14    3.88    1.24
   0   1 -15    5.98    1.26
   0   1 -15    5.30    1.26
   0   1 -15    7.85    1.45
   0   1 -15    5.56    1.22
   0   1 -16    1.31    0.55
   0   1 -16    1.46    0.60
   0   1 -16    0.75    0.59
   0   1 -17    6.43    0.97
   0   2   0 9656.22  186.09
   0   2   0 9517.65  188.41
   0   2   0 9664.72  185.84
   0   2   1  665.80   19.64
   0   2   1  651.43   19.67
   0   2  -1  630.01   18.06
   0   2  -1  651.83   18.18
   0   2  -1  630.17   20.18
   0   2   1  619.83   20.36
   0   2   2  580.91   14.49
   0   2   2  617.23   19.88
   0   2   2  615.38   18.99
   0   2   2  640.44   19.50
   0   2  -2  620.90   19.59
   0   2   3  561.28   18.62
   0   2   3  566.11   18.41
   0   2   4  337.33   14.83
   0   2   4  323.95   15.03
   0   2   5  764.14   27.20
   0   2   5  792.03   26.48
   0   2   6  238.21   14.56
   0   2   6  227.97   13.40
   0   2   7  169.25   12.48
   0   2   7  190.79   13.87
   0   2   8   16.67    4.21
   0   2   8   16.08    4.07
   0   2   9  181.28   14.90
   0   2   9  186.72   15.56
   0   2  10  343.47   11.55
   0   2 -10  368.74   13.00
   0   2 -10  331.38   11.77
   0   2 -11  101.83    6.18
   0   2  11   97.35    5.62
   0   2 -11   93.12    5.69
   0   2 -12  134.49    7.19
   0   2  12  138.94    6.92
   0   2 -12  143.96    7.18
   0   2 -13  150.63    7.38
   0   2 -13  154.03    7.30
   0   2 -14    8.76    1.57
   0   2 -15   54.85    3.72
   0   2 -16    9.55    1.30
   0   3   0    2.51    1.39
   0   3   0    0.20    0.79
   0   3   0    1.31    0.96
   0   3   1   25.00    4.12
   0   3  -1   33.75    4.26
   0   3   1   31.15    4.89
   0   3   1   37.08    4.84
   0   3  -1   32.69    4.90
   0   3   2 1010.79   32.58
   0   3   2 1011.94   33.47
   0   3  -2  977.66   32.31
   0   3   3  324.50   16.66
   0   3   3  286.56   16.00
   0   3   4   82.44    8.45
   0   3   4   79.46    8.26
   0   3   5   54.39    7.35
   0   3   5   48.58    6.80
   0   3   6   74.47    9.15
   0   3   6   54.76    7.74
   0   3   7   39.97    7.08
   0   3   7   34.49    6.54
   0   3   8   36.71    7.12
   0   3   8   38.77    3.22
   0   3   8   37.26    7.49
   0   3  -8   39.63    3.45
   0   3  -8   49.88    4.87
   0   3  -9   34.57    4.07
   0   3   9   33.23    3.05
   0   3  -9   32.93    3.19
   0   3  10   60.10    4.24
   0   3 -10   59.45    5.22
   0   3 -10   52.39    4.17
   0   3 -11    6.81    1.50
   0   3  11    7.95    1.54
   0   3 -11    4.97    1.31
   0   3  12    0.53    0.66
   0   3 -12   -0.03    0.58
   0   3 -13    2.83    0.95
   0   3 -14    9.66    1.54
   0   3 -15   25.78    2.25
   0   4   0  255.61   17.58
   0   4   1   53.17    7.82
   0   4  -1   52.22    7.71
   0   4   2   78.79    9.70
   0   4   3  116.41   11.82
   0   4   4    8.25    3.49
   0   4   4   11.55    3.85
   0   4   5  126.07   13.71
   0   4   5  139.81    6.58
   0   4   5  115.75   12.60
   0   4  -6   14.64    2.69
   0   4   6   11.72    1.80
   0   4   6   11.55    1.80
   0   4   7   48.66    3.86
   0   4   7   47.38    3.83
   0   4  -7   49.78    5.24
   0   4   8   42.42    3.60
   0   4  -8   42.03    5.01
   0   4   9   17.12    2.28
   0   4  -9   18.61    3.26
   0   4 -10  206.90   10.81
   0   4  10  217.94    8.72
   0   4  11    6.87    1.36
   0   4 -11    6.45    1.70
   0   4  12   27.47    2.57
   0   4 -12   26.05    2.89
   0   4 -13   61.21    3.95
   0   5   0   -0.23    0.48
   0   5   0    0.25    0.63
   0   5  -1   19.47    2.42
   0   5   1   19.35    2.69
   0   5   1   20.84    2.50
   0   5   2   16.61    2.20
   0   5   2   15.74    2.41
   0   5  -2   14.73    2.12
   0   5   3   65.32    5.14
   0   5   3   67.15    4.58
   0   5   4   40.61    4.19
   0   5   4   40.54    3.52
   0   5   5    3.42    1.49
   0   5   5    1.30    0.69
   0   5   6   53.27    5.08
   0   5   6   53.10    4.09
   0   5   7   11.44    1.88
   0   5   7   16.48    2.31
   0   5   8   28.64    2.90
   0   5   8   29.70    3.15
   0   5   9    3.94    1.07
   0   5  10   13.65    1.80
   0   5  11   30.74    3.22
   0   5  12    4.49    1.03
   0   6   0  169.75    7.68
   0   6   1  134.91    6.61
   0   6  -1  123.38    6.29
   0   6   2   25.40    2.81
   0   6  -2   17.29    2.24
   0   6   2   18.69    2.50
   0   6   3   88.19    5.13
   0   6   3   50.13    4.33
   0   6   4   25.92    3.13
   0   6   4   33.35    3.06
   0   6   5   45.79    4.41
   0   6   5   53.35    3.91
   0   6   6    4.92    1.56
   0   6   6    5.70    1.44
   0   6   7    4.09    1.50
   0   6   8   26.04    3.27
   0   6   9    8.11    1.58
   0   7   0    2.23    1.12
   0   7   1    2.67    1.12
   0   7   2   23.76    2.73
   1  -5 -12    5.79    1.34
   1  -5 -12    2.67    0.86
   1  -5 -11    0.76    0.58
  -1  -5 -10   31.36    3.19
  -1  -5 -11    4.88    1.16
  -1  -5 -12    2.22    0.65
  -1  -5 -12    1.35    0.64
   1  -4 -14   13.05    1.61
   1  -4 -14   12.22    1.45
   1  -4 -14   15.80    1.86
   1  -4 -13    0.47    0.40
   1  -4 -13    0.33    0.27
   1  -4 -13    1.62    0.94
   1  -4 -13    1.36    0.78
   1  -4 -12    1.04    0.68
   1  -4 -12    1.48    0.73
   1  -4 -12    1.23    1.00
   1  -4 -12    0.50    0.55
   1  -4 -11   57.87    4.20
   1  -4 -11   49.63    4.15
   1  -4 -11   55.83    4.17
   1  -4 -10   43.79    3.79
   1  -4 -10   41.20    3.96
  -1  -4   6  103.88   11.94
   1  -4  -5  128.12   13.29
   1  -4  -4   20.97    5.20
   1  -4  -3   40.20    6.93
   1  -4  -2  133.21   12.67
   1  -4  -1  379.62   22.11
   1  -4  -1  365.68   21.65
   1  -4   0  432.30   24.68
   1  -4   1    7.30    3.59
  -1  -4  -1    6.04    2.46
   1  -4   2   34.77    7.05
  -1  -4  -2   34.19    5.84
  -1  -4  -2   32.29    5.85
  -1  -4  -3  283.60   19.21
  -1  -4  -3  270.58   18.03
  -1  -4  -4   85.89   10.81
  -1  -4  -4   82.75   10.09
  -1  -4  -5   91.33   11.47
  -1  -4  -5   88.34   11.47
  -1  -4 -10   35.70    3.47
  -1  -4 -11    4.05    1.57
  -1  -4 -11    3.24    0.88
  -1  -4 -11    3.80    1.12
  -1  -4 -12    3.39    0.88
  -1  -4 -12    4.02    1.29
  -1  -4 -12    5.76    1.23
  -1  -4 -13   64.30    3.84
  -1  -4 -13   65.57    3.96
  -1  -4 -13   54.63    3.23
  -1  -4 -14    9.93    1.20
  -1  -4 -14   11.53    1.31
   1  -3 -16    4.29    0.81
   1  -3 -15   23.25    2.12
   1  -3 -15   20.62    1.94
   1  -3 -15   24.04    2.19
   1  -3 -15   17.62    1.79
   1  -3 -15   25.51    2.31
   1  -3 -15   21.55    1.96
   1  -3 -15   27.90    2.45
   1  -3 -14   25.18    2.55
   1  -3 -14   23.65    2.68
   1  -3 -14   20.81    2.39
   1  -3 -14   22.13    2.37
   1  -3 -14   21.90    2.33
   1  -3 -14   20.54    2.25
   1  -3 -14   22.16    2.36
   1  -3 -13  145.17    7.15
   1  -3 -13  157.83    7.13
   1  -3 -13  140.41    6.98
   1  -3 -13  135.09    7.62
   1  -3 -13  141.42    6.84
   1  -3 -13  149.80    7.00
   1  -3 -13  153.40    7.09
   1  -3 -12   17.76    2.39
   1  -3 -12   17.95    2.36
   1  -3 -12   15.22    2.31
   1  -3 -12   14.87    2.27
   1  -3 -11    1.04    0.66
   1  -3 -11    1.74    1.09
   1  -3 -11    0.05    0.39
   1  -3 -11    1.78    0.86
   1  -3 -10   85.12    5.87
   1  -3 -10   95.93    5.76
   1  -3  -9   22.22    2.65
  -1  -3   8  190.01   16.47
   1  -3  -8  173.57   14.68
  -1  -3   8  182.44   15.87
   1  -3  -8  201.10   17.96
   1  -3  -7   26.13    5.35
   1  -3  -7   26.02    5.78
  -1  -3   7   39.37    6.99
  -1  -3   7   33.07    6.48
   1  -3  -6  134.12   12.04
   1  -3  -5  598.79   25.95
   1  -3  -4  116.60    9.30
   1  -3  -4  116.55   10.10
   1  -3  -3 1234.67   38.60
   1  -3  -3 1187.24   36.52
   1  -3  -2  536.39   22.80
  -1  -3   2  511.74   20.07
   1  -3  -2  577.27   22.83
   1  -3  -1   67.92    7.46
  -1  -3   1   63.48    5.82
  -1  -3   0  388.18   17.20
  -1  -3   0  405.31   17.10
   1  -3   1  146.63    8.96
  -1  -3  -1  154.53   10.26
  -1  -3  -1  163.67   10.71
  -1  -3  -2   70.05    7.24
   1  -3   2   54.24    5.81
  -1  -3  -2   63.76    6.61
   1  -3   3  117.69    9.82
   1  -3   3  108.36    8.97
  -1  -3  -3  116.54    9.88
  -1  -3  -3  115.62    9.52
  -1  -3  -4    1.02    0.82
  -1  -3  -4    4.16    1.96
   1  -3   4    2.10    1.32
   1  -3   4    0.91    1.29
   1  -3   5  285.02   17.02
  -1  -3  -5  296.87   18.35
   1  -3   5  310.59   18.73
  -1  -3  -5  283.55   17.59
   1  -3   6  151.92   13.63
  -1  -3  -6  136.27   12.55
  -1  -3  -6  147.39   14.01
   1  -3   6  139.91   12.29
  -1  -3  -7  294.46   19.77
  -1  -3  -7  274.20   22.17
   1  -3   7  320.35   21.37
   1  -3   7  302.47   19.45
  -1  -3  -8  163.97   18.91
   1  -3   8  185.34   16.80
  -1  -3  -9  170.90    7.96
  -1  -3 -10  167.88    7.88
  -1  -3 -10  149.78    7.75
  -1  -3 -10  151.87    7.48
  -1  -3 -11   49.32    3.96
  -1  -3 -11   47.47    4.08
  -1  -3 -11   55.60    4.28
  -1  -3 -11   43.79    4.36
  -1  -3 -12   19.55    2.76
  -1  -3 -12   20.50    2.43
  -1  -3 -12   19.85    2.47
  -1  -3 -13   35.74    3.28
  -1  -3 -13   31.23    3.14
  -1  -3 -13   36.07    3.06
  -1  -3 -13   36.28    3.11
  -1  -3 -14   15.90    1.91
  -1  -3 -14   17.37    1.96
  -1  -3 -14   15.50    1.81
  -1  -3 -14   16.14    1.87
  -1  -3 -15   28.74    2.20
  -1  -3 -15   25.33    1.96
   1  -2 -16    9.83    1.47
   1  -2 -16   10.34    1.44
   1  -2 -16   10.74    1.39
   1  -2 -16    8.54    1.24
   1  -2 -15   31.79    2.90
   1  -2 -15   28.26    2.68
   1  -2 -15   24.86    2.50
   1  -2 -15   24.99    2.57
   1  -2 -15   25.61    2.47
   1  -2 -15   25.60    2.49
   1  -2 -14   40.60    3.40
   1  -2 -14   45.19    3.71
   1  -2 -14   43.70    3.67
   1  -2 -14   51.64    4.22
   1  -2 -14   42.38    3.44
   1  -2 -14   46.55    3.86
   1  -2 -14   40.75    3.49
   1  -2 -13   29.75    3.03
   1  -2 -13   32.24    3.18
   1  -2 -13   32.22    3.36
   1  -2 -13   26.12    3.06
   1  -2 -13   30.05    2.96
   1  -2 -13   26.19    3.01
   1  -2 -13   33.37    3.75
   1  -2 -12   39.99    3.88
   1  -2 -12   39.42    3.93
   1  -2 -12   43.35    3.75
   1  -2 -12   42.24    4.60
   1  -2 -12   43.38    3.84
   1  -2 -12   41.41    3.70
   1  -2 -11  162.68    7.84
   1  -2 -11  154.73    7.43
   1  -2 -11  158.18    7.49
   1  -2 -11  141.44    7.95
   1  -2 -11  146.10    7.30
   1  -2 -10  156.30   14.12
   1  -2 -10  197.29    8.48
  -1  -2  10  182.28   15.53
   1  -2 -10  168.00   20.81
   1  -2 -10  180.34    8.04
  -1  -2  10  195.79   17.28
   1  -2 -10  173.24    8.78
   1  -2 -10  193.25    8.23
   1  -2  -9   60.55   11.25
  -1  -2   9   74.59    9.32
   1  -2  -9   81.79    9.32
  -1  -2   9   64.42    8.74
  -1  -2   8  190.96   14.04
   1  -2  -8  181.94   13.27
  -1  -2   8  198.22   14.58
   1  -2  -8  222.70   18.39
  -1  -2   7   26.30    4.60
   1  -2  -7   25.43    5.34
   1  -2  -7   21.64    3.88
   1  -2  -6  999.55   31.61
  -1  -2   6 1051.53   32.72
   1  -2  -5  721.64   24.08
   1  -2  -5  759.45   25.92
  -1  -2   5  711.44   23.74
   1  -2  -4  171.22   10.31
  -1  -2   4  186.44    9.16
  -1  -2   4  173.58    9.16
   1  -2  -4  176.72   10.00
  -1  -2   3   33.18    3.27
   1  -2  -3   33.75    4.17
   1  -2  -3   32.94    3.95
  -1  -2   3   33.87    3.82
  -1  -2   2 1066.16   27.51
  -1  -2   2  956.47   22.92
  -1  -2   2  947.30   23.27
   1  -2  -2 1067.86   28.71
   1  -2  -1  536.04   17.83
   1  -2  -1  438.39   11.85
  -1  -2   1  502.16   14.71
   1  -2  -1  468.78   12.80
  -1  -2   1  427.63   10.84
  -1  -2   0 1239.98   28.68
   1  -2   0 1214.83   27.06
   1  -2   0 1199.08   26.54
   1  -2   1   27.46    3.32
  -1  -2  -1   19.28    2.86
   1  -2   1   22.03    2.75
  -1  -2  -1   24.09    2.69
  -1  -2  -1   21.35    2.99
  -1  -2  -2  116.01    7.57
   1  -2   2  114.79    6.28
   1  -2   2  121.37    7.69
  -1  -2  -2  118.96    7.50
  -1  -2  -2  100.12    5.17
   1  -2   2  110.49    7.06
   1  -2   3  438.96   15.79
   1  -2   3  426.22   16.59
  -1  -2  -3  456.29   17.55
   1  -2   3  486.48   18.11
  -1  -2  -3  432.95   17.13
   1  -2   4  726.77   24.85
   1  -2   4  802.60   26.64
   1  -2   4  768.00   24.58
  -1  -2  -4  825.22   27.42
  -1  -2  -4  774.88   25.89
   1  -2   5  286.83   15.44
  -1  -2  -5  270.88   14.74
  -1  -2  -5  303.06   17.21
   1  -2   5  272.18   14.12
   1  -2   5  253.78   13.91
  -1  -2  -6  183.98   12.90
  -1  -2  -6  208.24   16.23
   1  -2   6  189.85   12.46
   1  -2   6  212.42   14.07
   1  -2   6  194.33   12.68
  -1  -2  -7   57.49    9.62
   1  -2   7   48.20    6.52
   1  -2   7   51.34    6.89
   1  -2   7   60.63    7.92
  -1  -2  -7   48.66    6.97
   1  -2   8  796.49   32.16
   1  -2   8  765.63   30.50
  -1  -2  -8  692.56   39.07
  -1  -2  -9   16.16    6.75
   1  -2   9   18.24    4.49
   1  -2   9   15.63    4.61
   1  -2   9   16.29    4.54
  -1  -2  -9   14.40    4.33
  -1  -2 -10  131.43    6.83
  -1  -2 -10  136.06    6.79
  -1  -2 -10  143.26    7.27
  -1  -2 -10  134.16    6.93
  -1  -2 -10  137.56    7.30
  -1  -2 -11   94.94    5.61
  -1  -2 -11   98.23    5.88
  -1  -2 -11   90.54    5.85
  -1  -2 -11   94.22    6.50
  -1  -2 -11   98.26    5.88
  -1  -2 -11  106.70    6.21
  -1  -2 -12   41.90    3.71
  -1  -2 -12   39.44    3.58
  -1  -2 -12   39.72    3.48
  -1  -2 -12   42.61    3.87
  -1  -2 -12   40.71    3.73
  -1  -2 -12   44.06    4.16
  -1  -2 -13   74.92    5.12
  -1  -2 -13   67.26    4.61
  -1  -2 -13   66.11    4.54
  -1  -2 -13   71.83    4.81
  -1  -2 -13   68.69    4.49
  -1  -2 -14   32.88    2.89
  -1  -2 -14   31.98    2.78
  -1  -2 -14   32.57    2.94
  -1  -2 -14   33.67    3.06
  -1  -2 -14   34.00    3.07
  -1  -2 -14   33.16    3.05
  -1  -2 -15    8.37    1.35
  -1  -2 -15    6.40    1.12
  -1  -2 -15    6.62    1.17
  -1  -2 -15    4.85    1.05
  -1  -2 -16   16.55    1.57
  -1  -2 -16   17.56    1.66
  -1  -2 -16   15.88    1.48
  -1  -2 -16   13.48    1.46
   1  -1 -17    1.80    0.62
   1  -1 -17    1.60    0.54
   1  -1 -17    2.06    0.54
   1  -1 -16   26.32    2.42
   1  -1 -16   26.23    2.41
   1  -1 -16   23.13    2.20
   1  -1 -16   23.24    2.31
   1  -1 -16   24.83    2.34
   1  -1 -15  187.05    7.83
   1  -1 -15  155.30    7.05
   1  -1 -15  165.88    7.18
   1  -1 -15  165.44    7.14
   1  -1 -15  164.55    7.30
   1  -1 -14    2.19    0.96
   1  -1 -14    0.26    0.52
   1  -1 -14    1.22    0.75
   1  -1 -14    0.49    0.59
   1  -1 -14    0.45    0.75
   1  -1 -14    0.28    0.90
   1  -1 -14    1.21    0.90
   1  -1 -13   70.08    4.79
   1  -1 -13   71.13    5.27
   1  -1 -13   84.29    6.02
   1  -1 -13   70.07    4.81
   1  -1 -13   68.42    4.88
   1  -1 -13   69.42    4.82
   1  -1 -13   79.35    5.49
   1  -1 -12   12.36    2.32
   1  -1 -12   10.78    2.12
   1  -1 -12   12.18    2.41
   1  -1 -12    9.17    1.75
   1  -1 -12   11.08    1.86
   1  -1 -12    9.78    1.90
   1  -1 -11   59.01    5.36
   1  -1 -11   63.07    4.90
   1  -1 -11   53.97    4.08
   1  -1 -11   61.81    4.50
  -1  -1  11   47.82    7.84
   1  -1 -11   58.35    4.25
   1  -1 -11   52.39    4.59
   1  -1 -11   50.99   11.01
   1  -1 -10    4.65    3.30
  -1  -1  10    3.36    1.95
  -1  -1  10    7.19    3.04
  -1  -1   9   62.41    8.00
   1  -1  -9   58.51   11.12
   1  -1  -9   50.30    6.71
  -1  -1   9   60.37    7.79
   1  -1  -8   34.64    7.92
  -1  -1   8   49.88    6.45
  -1  -1   8   41.41    5.86
   1  -1  -8   38.00    5.34
   1  -1  -7   24.63    3.84
  -1  -1   7   37.90    5.28
   1  -1  -7   23.39    5.14
   1  -1  -7   22.47    3.88
   1  -1  -6  470.92   18.58
   1  -1  -6  523.22   22.25
  -1  -1   6  494.75   19.35
  -1  -1   5 1462.56   37.65
   1  -1  -5 1388.44   36.89
  -1  -1   5 1415.41   34.49
  -1  -1   4 3928.04   79.85
   1  -1  -4 4021.14   82.97
   1  -1  -4 3788.67   81.76
  -1  -1   4 3885.79   81.48
  -1  -1   3 9440.15  186.41
  -1  -1   3 9999.00  186.48
   1  -1  -3 9603.46  187.42
  -1  -1   2 2578.61   50.20
   1  -1  -2 2626.58   52.25
  -1  -1   2 2549.82   51.31
  -1  -1   1 1362.70   30.34
   1  -1  -1 1292.13   28.16
  -1  -1   1 1349.99   28.03
   1  -1  -1 1254.48   26.70
  -1  -1   0  292.04    8.60
   1  -1   0  284.01    8.67
  -1  -1   0  306.17    9.60
   1  -1   0  294.87    9.21
  -1  -1  -1  368.41   10.81
   1  -1   1  353.25   11.17
   1  -1   1  376.85   10.69
   1  -1   1  341.12   10.73
  -1  -1  -2  356.19   12.06
   1  -1   2  327.79   10.85
   1  -1   2  339.17   11.67
  -1  -1  -3 1161.04   29.91
   1  -1   3 1077.18   27.64
   1  -1   3 1077.28   26.66
   1  -1   4  195.82    9.74
  -1  -1  -4  217.29   12.64
   1  -1   4  190.93    9.70
   1  -1   4  181.05    7.12
   1  -1   4  191.62   10.00
  -1  -1  -4  208.08   10.58
   1  -1   5  929.63   27.90
   1  -1   5  900.56   27.13
  -1  -1  -5  884.02   32.69
   1  -1   5  826.52   22.70
  -1  -1  -5  975.03   28.77
   1  -1   5  910.60   27.05
   1  -1   6  619.33   22.65
   1  -1   6  547.12   18.30
  -1  -1  -6  633.40   23.77
  -1  -1  -6  518.51   27.37
   1  -1   6  642.97   23.35
   1  -1   6  593.41   21.92
   1  -1   7  436.13   19.42
  -1  -1  -7  432.17   20.82
   1  -1   7  453.39   20.57
   1  -1   7  454.18   20.26
  -1  -1  -8  233.92   16.26
  -1  -1  -8  213.58   19.51
   1  -1   8  279.19   16.90
   1  -1   8  260.27   15.65
   1  -1   8  263.77   16.33
  -1  -1  -9    3.81    2.13
   1  -1   9    3.44    1.81
  -1  -1  -9    6.26    3.93
   1  -1   9    3.44    1.55
   1  -1   9    7.07    2.81
  -1  -1 -10   99.38    5.70
  -1  -1 -10   97.36    5.54
  -1  -1 -10   98.79   14.01
  -1  -1 -10   92.57    5.56
   1  -1  10   92.97   11.16
  -1  -1 -10   95.07    5.89
   1  -1  10   82.15    9.91
   1  -1  10   92.42   10.92
  -1  -1 -10   98.32    6.41
  -1  -1 -10   85.84    5.45
  -1  -1 -11    8.23    1.70
  -1  -1 -11    6.52    1.56
  -1  -1 -11    4.48    1.35
  -1  -1 -11    6.87    1.53
  -1  -1 -11    5.70    1.37
  -1  -1 -11    5.35    1.24
  -1  -1 -11    5.77    1.45
  -1  -1 -12   10.80    1.84
  -1  -1 -12   10.74    1.94
  -1  -1 -12   11.84    2.02
  -1  -1 -12   10.83    2.00
  -1  -1 -12   10.79    1.84
  -1  -1 -12   12.17    2.27
  -1  -1 -12   11.77    1.94
  -1  -1 -13   10.48    1.79
  -1  -1 -13    9.69    1.72
  -1  -1 -13   11.87    1.97
  -1  -1 -13    9.70    1.78
  -1  -1 -13   10.46    1.87
  -1  -1 -13    9.37    1.73
  -1  -1 -13    7.60    1.69
  -1  -1 -14    4.25    1.07
  -1  -1 -14    5.45    1.32
  -1  -1 -14    2.66    0.73
  -1  -1 -14    4.61    1.16
  -1  -1 -14    3.36    1.00
  -1  -1 -15   28.21    2.62
  -1  -1 -15   25.43    2.47
  -1  -1 -15   25.09    2.33
  -1  -1 -15   26.76    2.49
  -1  -1 -16    3.85    0.92
  -1  -1 -16    4.17    0.94
  -1  -1 -16    3.96    0.83
   1   0 -17    4.41    0.88
   1   0 -17    3.85    0.84
   1   0 -17    6.56    1.09
   1   0 -16   19.43    2.17
   1   0 -16   22.09    2.30
   1   0 -16   21.20    2.24
   1   0 -15   12.47    1.89
   1   0 -15   13.14    2.02
   1   0 -15   10.92    1.77
   1   0 -15   10.72    1.71
   1   0 -15   12.38    1.87
   1   0 -14   20.84    2.61
   1   0 -14   30.62    3.11
   1   0 -14   30.41    3.09
   1   0 -14   28.05    3.08
   1   0 -13   16.02    2.32
   1   0 -13   16.79    2.38
   1   0 -13   15.49    2.40
   1   0 -13   16.47    2.49
   1   0 -13    8.84    1.72
   1   0 -12    8.76    1.67
   1   0 -12    8.53    1.66
   1   0 -12   10.62    1.99
   1   0 -12    7.15    1.57
   1   0 -12    4.71    1.39
   1   0 -12    6.09    1.44
   1   0 -12    8.76    1.81
   1   0 -11  207.70    9.27
  -1   0  11  211.37   17.01
   1   0 -11  218.10    9.52
   1   0 -11  221.47    9.05
  -1   0  11  190.66   15.98
   1   0 -11  209.05   19.87
  -1   0  11  193.11   15.84
   1   0 -11  205.67    8.97
   1   0 -11  213.27    8.88
  -1   0  10  318.72   19.71
  -1   0  10  338.62   20.22
  -1   0   9   30.31    5.25
  -1   0   9   38.54    6.15
  -1   0   9   38.25    5.65
   1   0  -9   34.01    7.50
  -1   0   8  389.39   18.64
   1   0  -8  382.82   25.54
  -1   0   8  403.70   18.58
   1   0  -7  126.85    8.05
   1   0  -7  121.61   13.25
  -1   0   7  131.87    9.11
  -1   0   7  128.93    9.41
   1   0  -6 1241.57   42.83
  -1   0   6 1325.10   32.40
   1   0  -5  357.94   19.52
  -1   0   5  386.89   14.49
   1   0  -4 4302.87   90.77
   1   0  -4 4685.79   97.33
  -1   0   3 3391.36   68.18
  -1   0   3 3273.80   65.71
   1   0  -3 3358.39   69.43
   1   0  -2   13.78    1.43
  -1   0   2   14.67    1.35
   1   0   1 1016.03   21.77
   1   0   2   26.20    2.17
  -1   0  -3   43.06    4.07
   1   0   3   45.43    3.81
   1   0   3   42.97    3.35
   1   0   3   51.76    4.01
   1   0   4 1782.29   40.59
   1   0   4 1737.66   40.53
   1   0   4 1678.39   39.03
   1   0   5  255.88   11.78
  -1   0  -5  238.81   12.04
   1   0   5  242.80   10.97
   1   0   5  253.46   11.92
   1   0   5  232.11   11.38
  -1   0  -5  245.32   15.62
   1   0   6   61.52    5.74
   1   0   6   62.84    6.09
   1   0   6   68.49    6.45
  -1   0  -6   58.32    6.25
   1   0   6   70.43    6.40
  -1   0  -6   74.47    8.93
   1   0   7   23.67    4.00
  -1   0  -7   11.82    3.03
   1   0   7   16.97    3.45
  -1   0  -7   14.54    4.32
   1   0   7   19.14    3.47
   1   0   7   13.82    3.25
   1   0   8 1685.14   48.95
   1   0   8 1745.14   48.88
  -1   0  -8 1579.36   48.70
   1   0   8 1595.38   45.86
   1   0   8 1633.45   48.10
   1   0   9  148.67   11.55
  -1   0  -9  190.83   16.86
   1   0   9  151.74   12.55
   1   0   9  161.13   12.82
   1   0   9  162.41   13.11
   1   0  10  255.05   18.02
   1   0  10  254.80   17.62
  -1   0 -11   57.19    4.39
  -1   0 -11   59.43    4.36
  -1   0 -11   62.31    4.56
  -1   0 -11   55.35    4.51
  -1   0 -11   59.76    4.45
  -1   0 -11   60.92    4.61
  -1   0 -12   65.83    4.69
  -1   0 -12   66.19    4.89
  -1   0 -12   64.97    4.78
  -1   0 -12   74.58    5.04
  -1   0 -12   63.45    4.67
  -1   0 -13   90.47    5.61
  -1   0 -13   94.75    5.66
  -1   0 -13   88.69    5.58
  -1   0 -13   86.61    5.45
  -1   0 -14    7.60    1.51
  -1   0 -14    6.49    1.34
  -1   0 -14    7.18    1.54
  -1   0 -14    6.57    1.41
  -1   0 -15    9.94    1.51
  -1   0 -15   10.42    1.69
  -1   0 -15   10.47    1.63
  -1   0 -15   10.32    1.65
  -1   0 -16   19.65    2.04
  -1   0 -16   18.09    1.89
  -1   0 -16   15.68    1.71
  -1   0 -16   18.80    1.97
  -1   0 -17    2.60    0.62
   1   1 -17    2.17    0.62
   1   1 -16   25.99    2.44
   1   1 -16   23.10    2.32
   1   1 -16   25.43    2.47
   1   1 -15  174.05    7.54
   1   1 -15  175.78    7.54
   1   1 -15  161.09    7.29
   1   1 -14    1.22    0.86
   1   1 -14    1.26    0.53
   1   1 -14    1.28    0.74
   1   1 -14    1.06    0.72
   1   1 -13   68.77    4.80
   1   1 -13   76.11    5.22
   1   1 -13   69.22    4.98
   1   1 -13   73.16    5.15
   1   1 -12    9.98    1.84
   1   1 -12    8.62    1.67
   1   1 -12    7.37    1.56
   1   1 -12   10.45    1.92
   1   1 -11   64.20    4.79
   1   1 -11   56.49    4.31
   1   1 -11   55.95    4.30
   1   1 -11   53.74    4.55
   1   1 -11   55.85    4.30
  -1   1  10   10.62    3.81
  -1   1  10    0.51    0.79
  -1   1   9   39.62    6.30
  -1   1   9   64.08    8.31
  -1   1   8   39.32    5.65
  -1   1   8   40.89    6.22
  -1   1   7  161.79   10.61
  -1   1   7   36.67    5.47
  -1   1   6  455.58   18.85
  -1   1   6  416.33   14.86
  -1   1   6  420.60   17.40
  -1   1   5  763.64   22.02
  -1   1   5 1254.98   29.19
  -1   1   4 3753.78   81.43
  -1   1   4 4104.90   82.07
  -1   1   3 9978.48  191.72
   1   1  -2 2665.91   57.76
  -1   1   2 2723.18   56.17
  -1   1   1 1335.31   29.56
   1   1  -1 1440.00   31.76
  -1   1   0  258.44    8.61
  -1   1   0  258.32    6.86
  -1   1  -1  285.97    9.87
   1   1   1  265.76    8.00
   1   1   1  274.67    8.89
   1   1   2  246.44    8.98
   1   1   2  253.80    8.28
   1   1   2  263.31    9.46
  -1   1  -3 1068.57   29.06
   1   1   3 1176.18   27.12
   1   1   3 1139.01   28.27
   1   1   3 1073.06   27.14
   1   1   4  221.27   10.45
  -1   1  -4  227.86   12.39
   1   1   4  222.77   10.77
   1   1   4  213.47    9.67
   1   1   4  228.45    9.98
   1   1   5  595.14   20.28
   1   1   5  527.84   19.42
   1   1   5  778.93   23.54
  -1   1  -5  563.89   24.37
   1   1   5  772.34   23.08
   1   1   6  650.23   23.26
   1   1   6  627.64   22.72
   1   1   6  664.08   22.33
   1   1   7  431.91   19.83
   1   1   7  432.75   19.49
   1   1   7  440.61   19.97
   1   1   8  286.91   16.68
   1   1   8  259.92   15.96
   1   1   8  275.70   16.59
   1   1   9    6.63    1.88
   1   1   9    3.75    2.02
  -1   1 -10   94.37    5.62
   1   1  10   98.09   10.79
   1   1  10  114.31   12.03
  -1   1 -11    3.45    1.08
  -1   1 -11    3.01    1.10
  -1   1 -11    3.05    1.07
  -1   1 -11    3.36    1.11
  -1   1 -11    2.91    0.90
  -1   1 -12   11.51    1.91
  -1   1 -12   13.37    2.13
  -1   1 -12   12.85    2.11
  -1   1 -12   10.84    2.04
  -1   1 -13    9.20    1.72
  -1   1 -13   10.76    1.93
  -1   1 -13    9.92    1.82
  -1   1 -13   11.15    1.96
  -1   1 -14    6.01    1.33
  -1   1 -14    3.86    1.09
  -1   1 -14    4.74    1.19
  -1   1 -14    5.33    1.38
  -1   1 -15   21.86    2.32
  -1   1 -15   25.16    2.56
  -1   1 -15   26.52    2.68
  -1   1 -15   29.83    2.77
  -1   1 -16    5.42    1.03
  -1   1 -16    4.93    1.00
  -1   1 -16    3.80    0.91
   1   2 -16    5.76    1.09
   1   2 -15   21.18    2.35
   1   2 -14   42.87    3.65
   1   2 -14   42.23    3.49
   1   2 -13   30.26    3.11
   1   2 -13   29.60    3.23
  -1   2  13   32.32    3.10
   1   2 -12   32.54    3.52
  -1   2  12   30.02    3.05
   1   2 -12   28.40    3.08
   1   2 -11  140.61    7.83
   1   2 -11  132.15    6.86
  -1   2  11  135.86    6.74
  -1   2  10  193.63   16.58
  -1   2  10  158.52   14.73
   1   2 -10  180.86    8.08
  -1   2  10  185.22    7.86
   1   2 -10  211.38    9.91
  -1   2   9   92.88   10.85
  -1   2   9   89.17   10.29
  -1   2   8  217.95   16.02
  -1   2   8  181.73   13.81
  -1   2   7   14.98    3.59
  -1   2   7   11.78    2.96
  -1   2   7   16.42    4.03
  -1   2   6  956.02   31.07
  -1   2   6  906.98   30.90
  -1   2   5  751.12   24.48
  -1   2   5  742.59   25.10
  -1   2   5  811.95   27.21
  -1   2   4  184.26   10.40
  -1   2   4  206.23   11.43
  -1   2   4  179.14    9.90
  -1   2   3   29.91    3.24
   1   2  -3   39.62    4.59
  -1   2   3   43.45    4.44
  -1   2   3   42.48    4.66
  -1   2   3   44.65    4.77
  -1   2   2  870.91   23.08
  -1   2   2  882.25   23.48
  -1   2   2  919.40   24.33
   1   2  -2  842.91   24.00
  -1   2   1  496.04   16.66
  -1   2   1  503.53   15.32
   1   2  -1  479.63   17.29
   1   2  -1  495.70   16.65
  -1   2   1  446.15   11.20
  -1   2   1  528.43   17.40
   1   2   0 1250.47   31.43
   1   2   0 1403.32   31.20
  -1   2   0 1325.95   30.29
  -1   2   0 1455.60   31.09
   1   2   1   27.83    3.69
  -1   2  -1   27.71    3.36
   1   2   1   23.72    3.48
  -1   2  -1   27.93    3.51
   1   2   2  118.14    8.48
  -1   2  -2  128.82    7.56
   1   2   2  138.62    8.53
   1   2   3  428.78   16.40
  -1   2  -3  293.99   12.85
   1   2   3  386.47   17.01
   1   2   3  267.75   11.99
   1   2   4  758.43   28.32
   1   2   4  795.20   25.96
  -1   2  -4  843.51   24.21
   1   2   5  162.86   10.76
   1   2   5  231.27   13.42
   1   2   6  209.40   13.33
   1   2   6  202.76   13.62
   1   2   7   48.31    6.89
   1   2   7   42.71    6.34
   1   2   8  771.23   32.66
   1   2   8  778.73   32.56
   1   2   9   18.11    4.84
   1   2   9   21.70    5.57
  -1   2 -10  150.45    7.45
   1   2  10  153.22    7.12
  -1   2 -10  149.20    7.36
  -1   2 -10  176.60    9.77
  -1   2 -10  147.86    7.56
  -1   2 -11  112.71    6.24
   1   2  11  112.59    6.00
  -1   2 -11  110.76    6.21
  -1   2 -11  122.46    7.66
  -1   2 -12   34.17    3.28
  -1   2 -12   23.84    2.89
  -1   2 -13   55.17    4.08
  -1   2 -13   47.63    4.19
  -1   2 -13   60.12    4.35
  -1   2 -14   33.11    3.00
  -1   2 -14   33.77    2.98
  -1   2 -15    5.95    1.16
  -1   2 -16   20.06    1.78
   1   3 -15   24.60    2.26
   1   3 -14   17.38    2.17
   1   3 -13  158.70    7.69
  -1   3  13  156.49    7.08
  -1   3  12   18.62    2.37
   1   3 -12   19.76    2.90
   1   3 -12   13.84    2.04
   1   3 -11    1.09    1.04
  -1   3  11    0.69    0.54
  -1   3  10   94.83    5.46
   1   3 -10   86.09    5.43
   1   3  -9   29.12    4.13
  -1   3   9   32.18    2.99
   1   3  -9   23.39    2.76
  -1   3   8  170.96    7.33
   1   3  -8  175.74    8.05
  -1   3   7   31.51    6.27
  -1   3   6  108.41   10.04
  -1   3   6  127.69   12.17
  -1   3   5  492.04   22.25
  -1   3   5  549.94   24.88
  -1   3   4  118.31   10.20
  -1   3   4  111.92    9.81
  -1   3   4   99.59    9.00
  -1   3   3 1114.93   35.58
  -1   3   3 1177.56   36.84
   1   3  -3 1161.35   37.19
  -1   3   3 1249.59   37.99
   1   3  -2  604.50   24.36
  -1   3   2  635.95   23.13
  -1   3   2  635.69   24.36
  -1   3   2  647.59   24.49
  -1   3   1   82.64    7.68
   1   3  -1   73.64    7.64
  -1   3   1   76.68    7.46
   1   3   0  393.36   18.09
  -1   3   0  395.53   17.59
   1   3   0  384.52   18.89
  -1   3   0  382.32   17.68
  -1   3  -1  144.10   10.28
   1   3   1  149.41   11.29
   1   3   1  162.50   11.33
  -1   3  -2   46.23    5.45
   1   3   2   40.78    5.82
   1   3   2   44.54    5.96
   1   3   3   96.25    9.42
   1   3   3  116.81   10.21
   1   3   4    0.08    1.07
   1   3   4    4.75    2.32
   1   3   5  281.37   17.77
   1   3   5  252.10   18.37
   1   3   6  110.69   11.65
   1   3   6  138.13   14.72
   1   3   7  337.93   21.73
   1   3   7  331.88   25.84
   1   3   8  206.23    8.22
   1   3   8  203.74   21.90
  -1   3  -8  221.91    9.99
  -1   3  -9  175.39    8.67
   1   3   9  160.45    7.19
  -1   3 -10  162.16    8.14
   1   3  10  153.36    7.10
  -1   3 -11   45.74    3.96
   1   3  11   48.37    3.74
  -1   3 -12   24.91    2.77
  -1   3 -13   33.42    2.95
  -1   3 -14   17.05    1.93
  -1   3 -15   22.31    1.93
  -1   3 -15   19.66    1.83
  -1   4  13    1.25    0.60
   1   4 -13    0.90    0.56
  -1   4  12    1.88    0.77
   1   4 -12    0.76    0.47
   1   4 -11   44.49    4.55
  -1   4  11   57.92    4.04
   1   4 -10   30.39    4.26
  -1   4  10   48.13    3.76
   1   4  -9   34.52    4.73
  -1   4   9   62.90    4.39
  -1   4   8   17.27    2.25
   1   4  -8    8.29    2.27
  -1   4   7   71.84    4.70
  -1   4   7   65.19    4.51
  -1   4   6  140.85    6.78
  -1   4   6  137.81    6.73
  -1   4   5  133.06    6.58
  -1   4   4   11.61    3.62
  -1   4   3   28.18    5.48
   1   4  -2  131.14   12.62
  -1   4   2  145.22   12.85
   1   4  -1  380.33   22.37
  -1   4   1  375.81   21.22
  -1   4   1  366.74   21.00
   1   4   0  421.13   23.75
  -1   4   0  423.28   22.76
   1   4   1    5.12    2.97
   1   4   2   23.65    5.46
   1   4   2   34.16    6.50
   1   4   3  167.29   15.27
   1   4   3  252.19   18.44
   1   4   4   95.42   11.54
   1   4   4  101.18   12.14
  -1   4  -5   76.02    5.58
   1   4   5   78.77    4.83
   1   4   5   67.62    9.97
   1   4   5   75.80    4.77
   1   4   5   61.63    9.98
   1   4   6  173.97    7.81
  -1   4  -6  172.67    9.16
   1   4   6  166.68    7.59
   1   4   7   12.64    2.09
  -1   4  -7   10.27    2.23
   1   4   7   11.80    1.90
  -1   4  -8  193.80   10.15
   1   4   8  199.13    9.09
  -1   4  -9   57.16    5.20
   1   4   9   51.17    3.91
  -1   4 -10   34.52    3.72
   1   4  10   29.61    2.92
  -1   4 -11    0.93    0.82
  -1   4 -11    2.46    1.84
  -1   4 -12    3.50    1.04
  -1   4 -12    3.47    1.03
  -1   5  12    3.12    0.97
  -1   5  11    0.13    0.39
  -1   5  10   30.30    2.70
  -1   5   9    6.77    1.36
  -1   5   8   23.32    2.60
  -1   5   8   23.36    2.68
  -1   5   7   26.73    2.90
  -1   5   7   28.35    2.93
  -1   5   6   13.76    2.06
  -1   5   6   24.81    2.79
  -1   5   5   77.13    6.14
  -1   5   5   80.69    5.34
  -1   5   4   68.13    5.54
  -1   5   4  108.77    5.88
  -1   5   3   66.37    5.18
  -1   5   3   74.31    4.86
   1   5  -3   77.25    5.51
  -1   5   2   18.32    2.36
   1   5  -2   26.32    3.06
   1   5  -2   20.28    2.49
   1   5  -1    9.51    1.70
  -1   5   1    9.71    1.67
   1   5  -1    8.96    1.75
  -1   5   0  103.51    6.01
   1   5   0  108.11    5.90
   1   5   0   98.57    6.19
  -1   5  -1    2.55    0.80
   1   5   1    4.90    1.29
   1   5   1    4.13    1.37
  -1   5  -2   45.87    3.85
   1   5   2   51.41    3.97
   1   5   2   42.86    4.06
   1   5   3    6.10    1.43
   1   5   3    3.41    1.24
  -1   5  -3    4.38    1.16
   1   5   4   37.86    3.48
   1   5   4   36.54    3.85
   1   5   5   87.88    5.48
   1   5   5   86.69    6.19
   1   5   6   45.01    3.82
   1   5   6   52.71    4.87
   1   5   6   48.68    4.11
   1   5   7   78.09    5.32
   1   5   7   73.00    5.78
   1   5   8    7.67    1.50
   1   5   8    9.67    2.09
   1   5   9   49.50    4.50
   1   5  10   50.93    4.21
   1   5  11    4.53    1.06
   1   5  12    3.13    0.74
  -1   6   9   16.29    2.17
  -1   6   8    4.56    1.41
  -1   6   7   48.62    4.46
  -1   6   7   49.39    3.54
  -1   6   6   13.85    2.31
  -1   6   6   16.27    2.05
  -1   6   5   15.86    2.08
  -1   6   5   10.60    1.92
  -1   6   4   29.32    2.84
  -1   6   3   13.88    2.04
  -1   6   2   30.18    3.05
   1   6  -2   26.70    2.86
  -1   6   1   62.35    4.40
   1   6  -1   66.86    4.51
  -1   6   0   19.26    2.43
   1   6   0   22.63    2.65
   1   6   0   20.28    2.61
  -1   6  -1    8.14    1.63
   1   6   1    6.85    1.52
   1   6   1   11.10    1.85
  -1   6  -2    0.66    0.45
   1   6   2    1.38    0.70
   1   6   2    1.71    0.84
   1   6   3   81.86    5.51
  -1   6  -3   71.45    4.50
   1   6   4   18.11    2.66
   1   6   4   25.43    2.88
   1   6   5   53.00    4.10
   1   6   5   43.78    4.26
   1   6   6   33.53    3.68
   1   6   7   24.80    3.10
   1   6   8   74.10    5.07
   1   6   9   32.91    2.83
  -1   7   4   57.99    3.96
  -1   7   3   22.71    2.57
  -1   7   2   15.16    2.21
  -1   7   1    3.58    1.12
  -1   7   0   52.84    3.91
  -1   7  -1    4.80    1.15
   2  -5 -12    5.96    1.43
   2  -5 -12    4.12    0.97
   2  -5 -11   15.19    1.86
   2  -5 -10   47.07    3.78
   2  -5  -9    6.21    1.63
  -2  -5  -8   14.81    2.42
  -2  -5  -9   10.79    1.82
  -2  -5 -10   42.30    3.14
  -2  -5 -11   14.23    1.59
   2  -4 -14    0.29    0.29
   2  -4 -14    0.30    0.31
   2  -4 -14    0.43    0.46
   2  -4 -14    0.14    0.36
   2  -4 -14    0.40    0.36
   2  -4 -13   17.40    2.07
   2  -4 -13   20.07    2.36
   2  -4 -13   18.10    2.53
   2  -4 -13   19.62    2.12
   2  -4 -13   21.97    2.26
   2  -4 -12    0.55    0.62
   2  -4 -12    1.43    0.75
   2  -4 -11   18.70    2.70
   2  -4 -11   18.19    2.36
   2  -4 -10   20.10    2.82
   2  -4  -5   54.64    8.73
   2  -4  -4   27.76    6.10
   2  -4  -3   96.02   11.21
   2  -4  -3   73.52    9.48
   2  -4  -2   32.98    6.35
   2  -4  -2   28.48    6.09
   2  -4  -1  107.87   11.86
   2  -4  -1  108.61   12.03
  -2  -4   0   64.76    8.46
   2  -4   0   85.95   10.88
   2  -4   1   57.78    9.15
   2  -4   2  324.70   22.90
  -2  -4  -2  271.24   19.42
  -2  -4  -3  369.17   23.77
   2  -4   3  419.56   27.03
   2  -4   4   68.96   10.80
  -2  -4  -4   45.91    8.31
  -2  -4  -9   19.03    2.91
  -2  -4 -10    1.59    1.03
  -2  -4 -11   47.26    3.87
  -2  -4 -12   49.40    3.47
  -2  -4 -12   47.02    3.67
  -2  -4 -12   49.70    3.50
  -2  -4 -12   48.03    3.34
  -2  -4 -13   18.70    1.78
  -2  -4 -13   20.31    1.89
   2  -3 -16   12.32    1.34
   2  -3 -16   10.40    1.23
   2  -3 -15    5.58    1.13
   2  -3 -15    5.21    1.06
   2  -3 -15    5.54    1.14
   2  -3 -15    6.00    1.10
   2  -3 -15    4.21    0.94
   2  -3 -15    5.65    1.06
   2  -3 -15    5.15    1.01
   2  -3 -14   10.43    1.66
   2  -3 -14   10.15    1.62
   2  -3 -14   10.75    1.73
   2  -3 -14   10.79    1.84
   2  -3 -14   11.05    1.86
   2  -3 -14   14.22    1.98
   2  -3 -14    9.57    1.56
   2  -3 -13    1.60    0.76
   2  -3 -13   -0.14    0.62
   2  -3 -13    0.55    0.92
   2  -3 -13    2.85    1.39
   2  -3 -13   -0.15    0.79
   2  -3 -13    0.91    0.62
   2  -3 -12   10.56    1.84
   2  -3 -12    9.45    1.72
   2  -3 -12   10.39    1.99
   2  -3 -12    9.65    1.79
   2  -3 -12   10.42    1.83
   2  -3 -11   57.82    4.93
   2  -3 -11   59.48    4.52
   2  -3 -11   59.49    4.48
   2  -3 -11   61.68    4.67
   2  -3 -10   47.21    3.97
   2  -3 -10   43.14    4.22
   2  -3 -10   44.45    3.83
   2  -3 -10   46.43    4.02
   2  -3  -9   15.14    2.13
   2  -3  -9   13.26    2.05
   2  -3  -8    1.01    1.35
   2  -3  -7   79.62    9.94
   2  -3  -6   76.06    8.56
   2  -3  -6   76.29    9.19
   2  -3  -5  325.67   18.94
   2  -3  -5  314.57   17.62
   2  -3  -4  120.67   10.84
   2  -3  -4  119.23   10.23
  -2  -3   3    1.84    1.33
   2  -3  -3   -0.77    1.11
   2  -3  -3    1.77    1.10
  -2  -3   2  180.88   12.14
   2  -3  -2  218.17   13.95
  -2  -3   1  426.40   19.77
   2  -3  -1  504.11   22.64
  -2  -3   0  417.19   18.94
   2  -3   0  470.07   22.03
   2  -3   1    5.57    2.34
  -2  -3  -1    6.93    2.28
  -2  -3  -1    1.02    0.79
  -2  -3  -2    8.51    2.82
   2  -3   2    5.08    2.02
  -2  -3  -2    3.78    1.38
  -2  -3  -3  567.86   24.25
   2  -3   3  576.53   25.03
  -2  -3  -3  568.51   25.39
   2  -3   3  513.92   22.28
  -2  -3  -4  141.55   12.70
  -2  -3  -4  138.16   12.43
   2  -3   4  137.09   11.17
   2  -3   4  174.79   13.75
   2  -3   5 1421.77   47.65
  -2  -3  -5 1310.22   46.00
   2  -3   5 1280.46   42.99
  -2  -3  -5 1306.87   49.30
   2  -3   6  234.40   16.53
  -2  -3  -6  221.52   17.42
   2  -3   6  250.23   18.50
  -2  -3  -6  204.79   19.34
  -2  -3  -7   11.79    5.58
   2  -3   7   11.86    3.78
   2  -3   7   10.19    3.95
  -2  -3  -7   13.98    4.57
  -2  -3  -8   57.18    4.50
  -2  -3  -8   66.87    4.70
  -2  -3  -9  208.98    9.30
  -2  -3  -9  225.89    9.38
  -2  -3 -10   75.73    5.80
  -2  -3 -10   89.56    5.52
  -2  -3 -10   84.35    5.46
  -2  -3 -11   47.15    4.23
  -2  -3 -11   46.06    3.81
  -2  -3 -11   42.44    3.64
  -2  -3 -12    1.85    0.73
  -2  -3 -12    3.83    1.29
  -2  -3 -12    2.50    0.90
  -2  -3 -12    2.30    0.99
  -2  -3 -13   93.22    4.88
  -2  -3 -13   97.97    5.07
  -2  -3 -13  102.44    5.22
  -2  -3 -13   90.84    5.01
  -2  -3 -13   98.63    5.18
  -2  -3 -14    2.21    0.74
  -2  -3 -14    1.25    0.50
  -2  -3 -15   24.08    1.81
   2  -2 -17    2.36    0.59
   2  -2 -16   38.48    2.83
   2  -2 -16   36.57    2.72
   2  -2 -16   37.57    2.75
   2  -2 -16   36.37    2.71
   2  -2 -16   39.65    2.93
   2  -2 -15    2.91    0.87
   2  -2 -15    4.61    1.16
   2  -2 -15    4.48    1.06
   2  -2 -15    2.66    0.83
   2  -2 -15    4.43    1.10
   2  -2 -15    4.39    1.10
   2  -2 -15    5.04    1.07
   2  -2 -14   16.19    2.33
   2  -2 -14   14.08    2.04
   2  -2 -14   14.11    2.12
   2  -2 -14   14.54    2.06
   2  -2 -14   14.98    2.08
   2  -2 -14   12.13    1.93
   2  -2 -14   13.38    2.15
   2  -2 -13   23.48    3.23
   2  -2 -13   19.45    2.71
   2  -2 -13   18.81    2.40
   2  -2 -13   16.98    2.44
   2  -2 -13   21.53    2.60
   2  -2 -13   18.87    2.72
   2  -2 -12    2.66    1.12
   2  -2 -12    4.64    1.30
   2  -2 -12    7.12    2.32
   2  -2 -12    5.08    1.40
   2  -2 -12    4.11    1.41
   2  -2 -12    3.41    1.16
   2  -2 -11   90.08    5.51
   2  -2 -11   92.94    6.34
   2  -2 -11   96.48    5.81
   2  -2 -11  100.46    5.95
   2  -2 -10   55.12    4.21
   2  -2 -10   46.52    7.39
  -2  -2  10   51.94    8.21
   2  -2 -10   56.90    4.29
   2  -2 -10   52.91    4.63
   2  -2 -10   45.97   10.69
   2  -2 -10   54.14    4.05
   2  -2  -9  271.92   17.35
  -2  -2   9  290.63   19.06
  -2  -2   8  486.57   23.49
   2  -2  -8  505.49   23.56
  -2  -2   7  157.52   12.00
   2  -2  -7  176.60   13.75
   2  -2  -7  164.29   12.16
   2  -2  -6 1376.12   41.15
  -2  -2   6 1258.04   38.73
   2  -2  -6 1322.53   39.83
  -2  -2   5  722.41   24.30
   2  -2  -5  662.67   24.64
  -2  -2   5  654.12   23.43
   2  -2  -5  670.96   24.84
   2  -2  -4  181.75   11.14
  -2  -2   4  213.20   11.88
   2  -2  -4  195.38   11.41
  -2  -2   4  178.89   10.14
   2  -2  -3  400.85   17.00
  -2  -2   3  431.10   17.30
   2  -2  -3  398.27   16.72
  -2  -2   3  408.68   15.12
  -2  -2   2  250.88   10.59
  -2  -2   2  264.20   12.78
  -2  -2   2  232.95   10.26
   2  -2  -2  252.89   12.67
   2  -2  -1  762.05   24.08
  -2  -2   1  662.11   18.54
  -2  -2   1  714.29   23.04
  -2  -2   1  693.92   21.48
   2  -2  -1  742.47   21.37
   2  -2  -1  647.04   18.60
  -2  -2   0  186.14    8.48
   2  -2   0  189.30    9.65
   2  -2   0  174.56    8.50
  -2  -2   0  192.62   10.26
   2  -2   0  199.59   10.99
  -2  -2  -1  158.65    9.70
   2  -2   1  151.78    8.96
  -2  -2  -1  160.04    8.60
   2  -2   1  142.61    8.15
   2  -2   2 2385.08   56.61
   2  -2   2 2194.42   53.82
  -2  -2  -2 2297.64   56.76
  -2  -2  -2 2493.76   56.66
  -2  -2  -3  282.18   15.07
   2  -2   3  265.85   14.16
   2  -2   3  251.71   12.68
  -2  -2  -3  266.10   14.35
   2  -2   3  266.93   13.52
  -2  -2  -4  876.72   30.73
   2  -2   4  806.52   27.69
   2  -2   4  894.41   30.45
  -2  -2  -4  980.49   34.99
   2  -2   4  899.57   29.81
   2  -2   5  243.17   14.58
  -2  -2  -5  235.71   15.15
   2  -2   5  212.29   13.09
   2  -2   5  247.05   15.17
  -2  -2  -5  238.62   18.03
   2  -2   6  127.55   10.59
   2  -2   6  146.69   11.91
  -2  -2  -6  156.72   16.26
  -2  -2  -6  141.08   12.45
   2  -2   6  161.06   12.82
  -2  -2  -7  166.77   14.46
   2  -2   7  161.87   13.69
   2  -2   7  171.95   13.07
  -2  -2  -7  138.83   16.75
   2  -2   7  169.50   13.74
   2  -2   8  149.44   13.93
  -2  -2  -8  119.98   15.98
   2  -2   8  145.34   12.68
   2  -2   8  139.27   13.20
  -2  -2  -8   99.18   11.91
  -2  -2  -9   36.27    3.34
  -2  -2  -9   33.13    3.24
  -2  -2  -9   19.79    5.69
  -2  -2  -9   33.75    3.89
  -2  -2  -9   34.19    3.49
  -2  -2  -9   33.52    3.25
  -2  -2  -9   33.29    3.38
  -2  -2 -10   18.69    2.53
  -2  -2 -10   17.26    2.37
  -2  -2 -10   18.65    2.87
  -2  -2 -10   18.05    2.41
  -2  -2 -10   17.89    2.53
  -2  -2 -11    2.01    1.18
  -2  -2 -11    2.45    0.97
  -2  -2 -11    3.42    1.16
  -2  -2 -11    2.49    1.02
  -2  -2 -11    3.38    1.18
  -2  -2 -12  138.94    6.95
  -2  -2 -12  137.55    6.68
  -2  -2 -12  134.81    6.86
  -2  -2 -12  152.88    7.45
  -2  -2 -12  143.43    7.19
  -2  -2 -12  140.56    7.28
  -2  -2 -13   41.82    3.59
  -2  -2 -13   50.81    3.80
  -2  -2 -13   44.17    3.56
  -2  -2 -13   45.26    3.49
  -2  -2 -13   46.04    3.73
  -2  -2 -13   43.06    3.47
  -2  -2 -13   45.24    3.66
  -2  -2 -14   19.84    2.16
  -2  -2 -14   19.66    2.14
  -2  -2 -14   20.40    2.18
  -2  -2 -14   20.15    2.22
  -2  -2 -15    8.95    1.25
  -2  -2 -15    6.54    1.08
  -2  -2 -15   10.02    1.36
  -2  -2 -15    7.95    1.12
  -2  -2 -15    8.13    1.27
   2  -1 -17    2.70    0.73
   2  -1 -17    2.42    0.70
   2  -1 -17    2.83    0.76
   2  -1 -16   52.03    3.52
   2  -1 -16   47.33    3.25
   2  -1 -16   53.67    3.59
   2  -1 -16   51.54    3.53
   2  -1 -15    1.01    0.63
   2  -1 -15    0.30    0.57
   2  -1 -15    1.73    0.88
   2  -1 -15   -0.02    0.39
   2  -1 -15    1.73    0.80
   2  -1 -14   87.85    5.46
   2  -1 -14   79.77    5.06
   2  -1 -14   93.08    5.89
   2  -1 -14   87.31    5.65
   2  -1 -14   88.75    5.84
   2  -1 -14   80.03    5.06
   2  -1 -14   79.38    5.05
   2  -1 -13   13.34    2.04
   2  -1 -13   17.61    2.67
   2  -1 -13    9.59    2.02
   2  -1 -13   13.95    2.20
   2  -1 -13   14.17    2.07
   2  -1 -13   15.61    2.48
   2  -1 -12   31.62    3.64
   2  -1 -12   31.55    3.17
   2  -1 -12   36.85    4.33
   2  -1 -12   28.67    3.45
   2  -1 -12   29.99    3.24
   2  -1 -12   29.18    3.19
   2  -1 -12   31.91    3.17
   2  -1 -11  479.33   14.76
   2  -1 -11  390.12   32.71
   2  -1 -11  453.97   14.07
   2  -1 -11  462.97   14.67
   2  -1 -11  435.71   13.94
   2  -1 -11  413.43   16.53
  -2  -1  11  386.86   23.98
   2  -1 -11  461.24   15.89
  -2  -1  10    3.90    1.92
   2  -1 -10   -1.21    3.10
   2  -1  -9   66.83   11.74
  -2  -1   9   49.01    7.23
   2  -1  -8  380.39   24.90
  -2  -1   8  344.31   18.82
   2  -1  -8  353.38   18.92
  -2  -1   7 3091.70   74.67
   2  -1  -7 3248.10   78.68
  -2  -1   7 3294.98   78.44
   2  -1  -6    6.74    2.06
   2  -1  -6    8.07    2.67
  -2  -1   6    5.84    1.92
  -2  -1   6    6.18    2.04
   2  -1  -5  824.30   26.44
   2  -1  -5  834.97   26.05
  -2  -1   5  814.93   25.33
  -2  -1   5  809.64   25.92
   2  -1  -4  267.79   12.04
  -2  -1   4  281.40   12.68
   2  -1  -4  258.37   12.42
  -2  -1   4  274.28   12.33
  -2  -1   3  363.95   13.60
  -2  -1   3  366.80   13.27
   2  -1  -3  344.46   12.56
   2  -1  -3  361.47   13.69
  -2  -1   2  546.05   15.21
  -2  -1   2  574.13   18.22
   2  -1  -1 2358.35   45.45
   2  -1  -1 2301.49   43.71
  -2  -1   0  451.58   15.58
   2  -1   0  458.20   14.20
  -2  -1   0  459.00   13.58
   2  -1   0  452.76   14.70
   2  -1   1   87.49    5.59
  -2  -1  -1   86.27    6.32
   2  -1   1   88.02    5.85
  -2  -1  -1   87.78    6.28
   2  -1   2   40.45    4.27
  -2  -1  -2   44.78    4.68
   2  -1   2   44.36    4.21
   2  -1   2   48.73    4.56
  -2  -1  -2   49.89    5.59
   2  -1   3 2030.16   46.24
  -2  -1  -3 1760.46   50.14
  -2  -1  -3 2038.32   47.68
   2  -1   3 1688.34   37.32
   2  -1   3 1948.51   44.95
   2  -1   3 2077.73   46.08
  -2  -1  -4  133.97   11.66
   2  -1   4  160.86    9.53
   2  -1   4  157.60    9.77
   2  -1   4  174.71   10.13
  -2  -1  -4  161.49   10.58
  -2  -1  -5 2448.70   61.96
   2  -1   5 2465.48   59.26
   2  -1   5 2423.91   58.33
   2  -1   5 2560.81   59.65
  -2  -1  -6  468.27   22.41
   2  -1   6  472.98   20.22
   2  -1   6  473.12   20.71
   2  -1   6  478.83   20.82
   2  -1   7  186.78   13.35
  -2  -1  -7  174.87   16.59
   2  -1   7  176.37   12.63
  -2  -1  -7  185.10   14.54
   2  -1   7  194.57   13.58
   2  -1   8  191.46   14.47
   2  -1   8  133.42   11.90
  -2  -1  -8  195.94   17.90
   2  -1   8  177.09   13.95
  -2  -1  -8  172.41   15.00
   2  -1   9   43.13    7.40
   2  -1   9   46.89    7.25
  -2  -1  -9   54.53    8.86
  -2  -1  -9   73.48   11.27
   2  -1   9   60.01    8.61
  -2  -1 -10   87.68    5.50
  -2  -1 -10   92.42    5.47
  -2  -1 -10   92.99    5.81
  -2  -1 -10   88.69    5.93
  -2  -1 -10   90.95    5.59
  -2  -1 -10   95.59    6.49
  -2  -1 -11   18.00    2.41
  -2  -1 -11   18.11    2.39
  -2  -1 -11   19.94    2.61
  -2  -1 -11   16.47    2.54
  -2  -1 -11   18.03    2.44
  -2  -1 -11   19.47    2.84
  -2  -1 -11   20.87    2.74
  -2  -1 -12    0.76    0.45
  -2  -1 -12    0.12    0.60
  -2  -1 -12    1.37    0.68
  -2  -1 -12    1.88    1.20
  -2  -1 -12    1.37    0.84
  -2  -1 -12    1.65    0.69
  -2  -1 -12   -1.17    1.19
  -2  -1 -13   60.22    4.24
  -2  -1 -13   70.27    4.77
  -2  -1 -13   59.47    4.30
  -2  -1 -13   57.61    4.22
  -2  -1 -13   61.44    4.35
  -2  -1 -14    5.33    1.19
  -2  -1 -14    4.47    1.17
  -2  -1 -14    3.60    0.99
  -2  -1 -14    4.20    1.11
  -2  -1 -15   30.91    2.57
  -2  -1 -15   29.38    2.44
  -2  -1 -15   26.17    2.26
  -2  -1 -15   33.31    2.71
  -2  -1 -15   34.77    2.82
  -2  -1 -16    7.09    1.07
  -2  -1 -16    5.41    0.97
  -2  -1 -16    5.33    0.91
   2   0 -17    0.10    0.29
   2   0 -17   -0.35    0.39
   2   0 -17    0.61    0.46
   2   0 -16   23.31    2.43
   2   0 -16   21.61    2.34
   2   0 -16   24.20    2.43
   2   0 -15    2.82    0.94
   2   0 -15    3.59    1.12
   2   0 -15    4.43    1.13
   2   0 -14   36.99    3.54
   2   0 -14   38.48    3.71
   2   0 -14   30.69    3.02
   2   0 -14   36.72    3.42
   2   0 -14   27.75    3.18
   2   0 -13   14.63    2.35
   2   0 -13   20.55    2.85
   2   0 -13   20.02    2.66
   2   0 -13   16.68    2.34
   2   0 -13   13.11    2.18
   2   0 -13   21.37    2.65
   2   0 -13   20.20    2.61
   2   0 -12    3.69    1.13
   2   0 -12    4.25    1.24
   2   0 -12    4.23    1.16
   2   0 -12    6.18    1.68
   2   0 -12    5.13    1.44
   2   0 -12    4.57    1.21
   2   0 -11  180.70    8.82
   2   0 -11  186.10    8.17
   2   0 -11  165.78    7.91
  -2   0  11  177.85   15.67
  -2   0  11  158.88   14.58
   2   0 -11  173.31    7.85
   2   0 -11  176.45    8.21
   2   0 -10   81.27   12.00
  -2   0  10   68.84    8.74
  -2   0   9   26.26    4.89
   2   0  -9   30.07    7.36
  -2   0   9   30.16    5.23
   2   0  -8  716.25   37.27
  -2   0   8  698.25   27.29
   2   0  -7   18.24    5.03
  -2   0   7   25.32    4.17
   2   0  -6 1570.92   51.14
  -2   0   6 1593.76   41.32
   2   0  -6 1462.26   41.23
   2   0  -5   82.62    8.17
  -2   0   5   77.61    6.32
  -2   0   5   79.91    6.38
  -2   0   5   76.89    5.16
   2   0  -5   68.84    6.13
   2   0  -4  196.97    9.68
  -2   0   4  175.75    9.05
  -2   0   4  177.11    7.64
   2   0  -3 2032.46   43.65
  -2   0   3 2098.66   44.24
   2   0  -2   42.39    2.65
  -2   0   2   48.40    3.57
  -2   0   1 1798.00   40.51
   2   0  -1 1949.59   41.02
  -2   0   0  191.36    8.02
   2   0   0  203.38    7.59
   2   0   1  147.41    6.76
   2   0   1  140.75    6.02
  -2   0  -1  132.28    6.52
   2   0   2 5537.11  106.64
  -2   0  -2 5498.66  108.79
  -2   0  -3   10.75    2.59
   2   0   3    8.56    1.92
   2   0   3    5.88    1.62
  -2   0  -3   11.14    2.63
   2   0   3   12.68    2.43
   2   0   3    8.16    1.65
   2   0   4 1031.05   28.58
   2   0   4  919.08   27.50
  -2   0  -4 1027.30   30.72
   2   0   4 1016.07   28.81
  -2   0  -4 1031.00   32.60
  -2   0  -5   38.69    5.74
   2   0   5   45.00    5.18
  -2   0  -5   42.08    5.48
   2   0   5   32.14    4.35
   2   0   5   35.79    4.01
   2   0   5   43.80    5.17
  -2   0  -6  283.23   15.94
   2   0   6  294.41   15.32
   2   0   6  304.51   15.51
  -2   0  -6  326.65   18.50
   2   0   6  256.74   14.12
   2   0   6  245.92   12.33
  -2   0  -7  475.43   24.04
   2   0   7  439.70   20.69
   2   0   7  451.67   20.81
  -2   0  -7  428.03   21.34
   2   0   7  415.59   19.88
   2   0   7  375.09   17.07
  -2   0  -8   55.37    8.34
   2   0   8   52.32    7.33
   2   0   8   51.41    7.04
  -2   0  -8   59.47    7.92
   2   0   8   55.32    7.33
   2   0   9  134.84   12.63
   2   0   9  145.02   13.22
  -2   0  -9  142.68   14.33
   2   0   9  124.79   12.03
  -2   0 -10    9.69    1.72
  -2   0 -10    9.60    1.66
  -2   0 -10   11.05    1.82
  -2   0 -10    8.93    1.62
  -2   0 -10    9.54    1.67
   2   0  10    3.95    2.29
  -2   0 -10   11.54    1.89
  -2   0 -11    7.95    1.65
  -2   0 -11    7.86    1.61
  -2   0 -11    7.69    1.58
  -2   0 -11    9.38    1.73
  -2   0 -11    6.23    1.51
  -2   0 -12  140.78    7.03
  -2   0 -12  127.71    6.72
  -2   0 -12   86.19    5.72
  -2   0 -12   85.56    5.75
  -2   0 -12  135.88    6.84
  -2   0 -12  149.13    7.21
  -2   0 -13   34.43    3.29
  -2   0 -13   37.06    3.40
  -2   0 -13   36.79    3.41
  -2   0 -13   35.60    3.44
  -2   0 -13   37.88    3.51
  -2   0 -13   32.19    3.13
  -2   0 -14   19.72    2.43
  -2   0 -14   18.33    2.18
  -2   0 -14   19.95    2.34
  -2   0 -14   19.00    2.28
  -2   0 -15   16.17    1.93
  -2   0 -15   12.10    1.54
  -2   0 -15   15.14    1.87
  -2   0 -15   17.18    2.04
  -2   0 -16    3.87    0.83
  -2   0 -16    4.48    0.89
   2   1 -17    2.38    0.62
   2   1 -16   42.01    2.95
   2   1 -16   47.18    3.31
   2   1 -16   53.39    3.69
   2   1 -16   46.00    3.29
   2   1 -15    1.28    0.63
   2   1 -15    1.96    0.73
   2   1 -15    3.26    1.07
   2   1 -15    2.22    0.90
   2   1 -14   82.48    5.47
   2   1 -14   76.88    4.96
   2   1 -14   79.00    5.24
   2   1 -13   10.91    2.03
   2   1 -13    9.26    1.80
   2   1 -13    8.02    1.76
   2   1 -13   12.14    1.99
   2   1 -12   24.74    2.98
   2   1 -12   25.93    3.20
   2   1 -12   24.16    2.86
   2   1 -12   23.98    2.88
   2   1 -11  486.78   15.89
   2   1 -11  435.37   14.51
   2   1 -11  457.40   14.68
   2   1 -11  454.60   14.61
  -2   1  10    9.43    3.29
  -2   1  10   12.09    3.82
  -2   1   9   34.70    6.06
  -2   1   9   56.67    7.93
  -2   1   8  344.23   18.66
  -2   1   7 3298.81   78.65
  -2   1   6    9.57    2.25
  -2   1   6    9.27    2.40
  -2   1   5  862.36   26.29
  -2   1   5  983.18   28.49
  -2   1   4  246.05   10.83
  -2   1   4  263.16   11.42
  -2   1   3  322.06    9.45
  -2   1   3  359.98   13.35
   2   1  -3  359.01   12.59
   2   1  -2  516.27   15.77
  -2   1   2  522.94   13.09
  -2   1   1 2707.33   54.86
   2   1  -1 2359.90   53.22
  -2   1   0  492.93   14.36
   2   1   0  439.23   14.50
   2   1   0  463.90   15.65
   2   1   1  112.27    6.39
  -2   1  -1  116.16    5.52
  -2   1  -1  106.66    6.93
   2   1   2   28.65    3.42
   2   1   2   33.03    3.65
   2   1   2   30.82    3.57
   2   1   2   32.81    3.42
  -2   1  -2   30.45    2.45
   2   1   3 2085.64   45.29
   2   1   3 2049.68   46.17
  -2   1  -3 2178.08   51.48
   2   1   3 2087.23   46.62
  -2   1  -4  190.94   13.08
   2   1   4  172.72   10.01
   2   1   4  185.51    9.94
   2   1   4  163.69    9.89
   2   1   4  164.22    9.59
  -2   1  -5 2251.25   63.59
   2   1   5 2323.92   56.57
   2   1   5 2498.60   57.86
   2   1   5 2435.71   56.33
   2   1   6  490.33   21.20
   2   1   6  428.43   19.75
   2   1   6  463.91   20.57
   2   1   6  485.27   20.19
   2   1   7  229.71   14.82
   2   1   7  240.83   15.17
   2   1   7  220.34   14.67
   2   1   7  206.85   13.51
   2   1   8  152.17   12.93
   2   1   8  202.86   14.03
   2   1   9   31.19    6.16
   2   1   9   58.68    7.80
  -2   1 -10   77.22    5.10
  -2   1 -10   86.81    5.66
  -2   1 -10   85.25    5.38
  -2   1 -10   86.19    5.44
  -2   1 -11   18.28    2.48
  -2   1 -11   16.13    2.32
  -2   1 -11   17.85    2.48
  -2   1 -11   19.58    2.53
  -2   1 -12    1.85    0.80
  -2   1 -12    2.35    0.99
  -2   1 -12    1.34    0.67
  -2   1 -12    0.77    0.75
  -2   1 -13   75.23    4.96
  -2   1 -13   75.27    5.06
  -2   1 -13   62.66    4.50
  -2   1 -13   75.03    4.97
  -2   1 -14    4.89    1.14
  -2   1 -14    5.43    1.34
  -2   1 -14    3.87    1.04
  -2   1 -14    5.17    1.25
  -2   1 -15   26.38    2.34
  -2   1 -15   32.23    2.77
  -2   1 -15   31.67    2.71
  -2   1 -15   30.54    2.66
  -2   1 -16    7.36    1.09
  -2   1 -16    5.07    0.79
   2   2 -16   36.53    2.79
   2   2 -15    3.23    0.92
   2   2 -15    5.22    1.23
   2   2 -14   14.29    2.15
   2   2 -14   15.63    2.14
   2   2 -13   22.53    2.88
   2   2 -13   21.19    2.61
  -2   2  13   22.42    2.57
   2   2 -12    6.07    1.70
  -2   2  12    5.92    1.37
   2   2 -12    6.76    1.55
   2   2 -11  106.92    7.19
   2   2 -11   98.95    5.89
  -2   2  11  101.69    5.77
   2   2 -10   36.30    3.42
  -2   2  10   42.30    3.49
  -2   2  10   32.73    6.69
  -2   2  10   29.88    6.45
  -2   2   9  275.26   18.23
  -2   2   9  210.25   17.12
  -2   2   8  568.47   27.75
  -2   2   8  501.99   24.21
  -2   2   7  179.07   14.24
  -2   2   7  170.49   12.46
  -2   2   6 1367.99   41.80
  -2   2   6 1404.20   41.52
  -2   2   5  700.33   22.28
  -2   2   5  726.46   25.59
  -2   2   4  181.57   11.10
  -2   2   4  165.47    9.08
  -2   2   4  207.45   12.23
   2   2  -4  192.05   11.20
  -2   2   3  270.32   12.12
  -2   2   3  448.77   16.74
  -2   2   3  382.18   16.01
   2   2  -3  387.86   15.69
  -2   2   3  273.50   12.41
  -2   2   2  187.30    9.25
  -2   2   2  260.43   10.80
   2   2  -2  260.97   12.47
  -2   2   2  210.12   10.33
  -2   2   2  297.78   13.31
   2   2  -1  764.51   23.51
   2   2  -1  733.28   23.04
  -2   2   1  766.87   20.90
  -2   2   1  769.49   23.28
   2   2   0  206.09   11.03
   2   2   0  189.71   10.94
  -2   2   0  199.58   10.78
  -2   2  -1  153.07    9.49
   2   2   1  146.68    9.39
   2   2   1  151.05   10.00
   2   2   2 2273.86   54.52
   2   2   2 2102.93   55.92
  -2   2  -2 2199.21   54.74
  -2   2  -3  243.49   14.00
   2   2   3  241.82   13.13
   2   2   3  231.36   14.47
  -2   2  -4  750.61   30.33
   2   2   4  683.75   25.69
   2   2   5  230.58   14.42
  -2   2  -5  264.79   18.08
   2   2   5  241.58   14.48
   2   2   6  172.01   13.02
   2   2   6  187.16   13.65
   2   2   7  149.98   12.92
   2   2   7  153.13   13.07
   2   2   8  144.49   13.66
   2   2   8  164.61   14.35
  -2   2  -9   36.89    3.50
   2   2   9   32.21    3.04
  -2   2  -9   40.21    4.32
   2   2   9   25.49    6.05
  -2   2  -9   34.95    3.37
  -2   2 -10   22.59    2.70
  -2   2 -10   25.39    2.94
  -2   2 -10   26.34    3.41
  -2   2 -10   20.75    2.64
  -2   2 -11    0.71    0.63
  -2   2 -11    0.42    0.64
  -2   2 -11    2.13    0.91
  -2   2 -11   -0.09    0.43
  -2   2 -12  113.86    6.12
  -2   2 -12  125.76    7.01
  -2   2 -12  118.24    6.44
  -2   2 -13   40.56    3.35
  -2   2 -13   40.07    3.60
  -2   2 -13   34.75    3.19
  -2   2 -13   37.18    3.27
  -2   2 -14   22.04    2.34
  -2   2 -14   24.16    2.39
  -2   2 -15    7.62    1.17
  -2   2 -15    7.49    1.11
   2   3 -15    5.62    1.02
   2   3 -14   12.73    1.78
   2   3 -14   10.59    1.72
  -2   3  14   12.58    1.71
   2   3 -13   -0.23    0.51
  -2   3  13   -0.01    0.50
   2   3 -13   -0.05    0.51
   2   3 -12    5.53    1.61
  -2   3  12    9.66    1.73
   2   3 -12    7.85    1.62
   2   3 -11   66.06    4.83
  -2   3  11   74.69    4.90
  -2   3  10   49.61    3.94
   2   3 -10   45.65    4.05
   2   3 -10   52.73    5.72
   2   3  -9   10.86    2.55
   2   3  -9   13.71    2.23
  -2   3   9   14.20    2.02
  -2   3   8    0.46    0.65
   2   3  -8    0.97    0.64
  -2   3   7  139.75   14.40
  -2   3   6   79.64   10.17
  -2   3   5  357.47   19.88
  -2   3   5  339.69   19.98
  -2   3   4  123.33   10.65
   2   3  -4  132.26   11.14
  -2   3   4  128.66   11.12
   2   3  -3    4.22    2.23
  -2   3   3    2.64    1.34
  -2   3   3    2.69    1.54
  -2   3   2  196.44   12.08
   2   3  -2  193.68   13.38
  -2   3   2  211.13   13.49
  -2   3   1  481.51   20.13
   2   3  -1  512.93   23.12
  -2   3   1  507.31   21.98
  -2   3   0  405.40   19.29
   2   3   0  429.80   21.18
   2   3   0  435.68   20.33
  -2   3  -1    8.65    2.69
   2   3   1    5.61    2.14
   2   3   1    7.61    2.43
  -2   3  -2    2.87    1.66
   2   3   2    2.23    1.84
   2   3   3  543.22   26.52
   2   3   3  610.20   26.60
   2   3   4  151.91   13.01
   2   3   4  136.10   13.51
   2   3   5 1363.30   46.77
   2   3   5 1227.64   50.73
   2   3   6  242.48   18.02
   2   3   6  135.89   17.25
   2   3   7   25.59    2.59
   2   3   7   21.47    5.57
   2   3   7   21.79    7.55
  -2   3  -7   21.20    2.66
  -2   3  -8   78.06    5.30
   2   3   8   84.71    4.93
   2   3   9  221.72    8.70
  -2   3  -9  214.08    9.28
  -2   3 -10   81.87    5.32
  -2   3 -11   39.57    3.49
  -2   3 -12    2.69    0.90
  -2   3 -13   91.26    4.84
  -2   3 -14    2.04    0.72
  -2   3 -14    1.71    0.66
  -2   4  13   19.57    2.13
  -2   4  12    0.53    0.54
  -2   4  11   17.65    2.28
  -2   4  10   18.41    2.31
   2   4  -9   38.53    4.21
  -2   4   9   38.90    3.44
   2   4  -8  147.31    8.77
  -2   4   8  147.92    7.12
  -2   4   7  107.29    5.92
   2   4  -7  118.48    7.89
  -2   4   7  101.76    5.80
  -2   4   6  140.92    6.83
  -2   4   6  134.18    6.77
  -2   4   5   64.24    4.39
  -2   4   5   67.60    4.62
  -2   4   4   24.59    5.65
  -2   4   3  112.80   11.93
   2   4  -3   93.64   11.40
   2   4  -2   34.66    6.69
  -2   4   2   30.80    6.14
  -2   4   2   32.66    5.89
   2   4  -1  129.41   13.16
  -2   4   1  115.65   11.87
   2   4   0   64.44    9.41
  -2   4   0   69.07    8.99
   2   4   1   48.88    8.15
   2   4   1   55.34    8.40
   2   4   2  292.21   21.10
   2   4   2  283.17   20.15
   2   4   3  363.06   11.77
   2   4   3  365.32   23.79
   2   4   3  394.04   13.23
   2   4   3  352.68   24.26
   2   4   4   74.22    4.66
   2   4   4   72.89   11.29
   2   4   4   64.69    9.87
   2   4   5  157.18    7.41
   2   4   5  145.20    6.96
  -2   4  -6   31.09    3.52
   2   4   6   26.30    2.79
   2   4   6   31.88    3.35
  -2   4  -7  317.54   12.35
   2   4   7  305.27   10.65
  -2   4  -8   13.64    2.58
  -2   4  -8   19.90    2.86
   2   4   8   20.15    2.48
  -2   4  -9   21.93    3.09
  -2   4  -9   29.49    3.31
  -2   4 -10    2.00    0.73
  -2   4 -10    2.62    0.97
  -2   4 -11   48.95    3.85
  -2   4 -12   36.84    2.98
  -2   4 -13   13.15    1.46
   2   4  13   14.38    1.55
  -2   5  12    5.17    1.20
  -2   5  12    3.69    0.82
  -2   5  11   23.11    2.21
  -2   5  10   56.73    3.76
  -2   5   9    3.89    1.03
  -2   5   8   10.56    1.70
  -2   5   8    7.58    1.48
  -2   5   7   29.49    2.91
  -2   5   7   31.27    3.08
  -2   5   6  112.34    6.01
  -2   5   6  108.23    7.26
  -2   5   6  108.66    6.15
  -2   5   5   30.31    3.04
  -2   5   5   20.80    2.62
  -2   5   4   59.62    4.39
  -2   5   3    5.45    1.27
   2   5  -3    9.15    1.87
   2   5  -2  156.46    7.88
  -2   5   2  162.52    7.64
   2   5  -1   53.94    4.48
  -2   5   1   51.65    4.30
   2   5  -1   58.15    4.32
   2   5   0  176.72    7.95
  -2   5   0  182.24    8.55
   2   5   0  161.81    8.20
   2   5   1   24.88    2.89
  -2   5  -1   24.23    2.94
   2   5   1   26.78    3.11
   2   5   2    1.40    1.04
   2   5   2    0.40    0.60
  -2   5  -2    1.06    0.94
   2   5   3  318.68   11.87
   2   5   3  363.22   11.80
   2   5   4   72.09    5.08
   2   5   4   68.15    5.13
   2   5   5   91.44    6.08
   2   5   5  106.97    6.35
   2   5   6   76.33    5.58
   2   5   7   22.05    2.89
   2   5   8   22.77    2.83
   2   5   9    9.97    1.82
   2   5  10   55.94    3.93
   2   5  11   12.60    1.55
  -2   6   9    4.15    0.86
  -2   6   8   18.16    1.88
  -2   6   8   17.24    1.89
  -2   6   7   25.81    2.34
  -2   6   6   12.48    1.80
  -2   6   5   25.94    2.57
  -2   6   4   24.29    2.56
  -2   6   3   52.19    3.94
  -2   6   2    5.13    1.21
   2   6  -2    5.33    1.54
   2   6  -1   13.90    2.23
  -2   6   1   16.48    2.29
   2   6  -1   16.23    2.38
  -2   6   0   10.30    1.84
   2   6   0    8.03    1.62
   2   6   1   59.13    4.60
  -2   6  -1   50.03    4.01
   2   6   1   47.91    4.01
  -2   6  -2   46.64    3.77
   2   6   2   44.48    3.89
  -2   6  -3   85.71    4.95
   2   6   3   98.56    5.91
   2   6   4    5.06    1.47
   2   6   5   18.96    2.55
   2   6   6    2.94    1.13
   2   6   7  133.44    6.62
   2   6   8    4.05    1.01
  -2   7   4    4.23    1.11
  -2   7   3    3.68    1.17
  -2   7   2    8.32    1.58
  -2   7   1    7.58    1.50
  -2   7   0   42.14    3.39
   3  -6  -8    7.77    1.29
   3  -5 -12   14.85    1.61
   3  -5 -12   15.58    2.08
   3  -5 -11   34.23    3.01
   3  -5 -11   30.05    2.42
   3  -5 -10    3.63    0.88
   3  -5 -10    4.93    1.33
  -3  -5  -9   17.54    2.02
  -3  -5 -10    4.81    0.93
  -3  -5 -10    6.62    1.31
   3  -4 -14    5.76    1.03
   3  -4 -14    6.53    1.11
   3  -4 -14    8.08    1.32
   3  -4 -14    9.55    1.43
   3  -4 -14    5.63    1.01
   3  -4 -13   15.13    2.02
   3  -4 -13   12.66    1.59
   3  -4 -13   14.16    1.83
   3  -4 -13   13.59    1.81
   3  -4 -13   14.10    2.21
   3  -4 -12    0.55    0.74
   3  -4 -12    1.54    0.62
   3  -4 -12    1.61    1.14
   3  -4 -12    0.38    0.38
   3  -4 -11   16.05    2.53
   3  -4 -11   16.91    2.25
   3  -4 -11   16.21    2.14
   3  -4 -10   47.13    3.84
   3  -4 -10   47.80    3.95
   3  -4  -4    8.48    3.44
   3  -4  -3   36.86    7.07
   3  -4  -3   40.70    7.55
   3  -4  -2   44.30    7.79
   3  -4  -2   51.39    8.57
   3  -4  -1   31.51    6.72
  -3  -4   0  136.49   13.17
   3  -4   0  155.59   15.32
   3  -4   1  313.52   22.56
  -3  -4  -1  257.15   18.86
  -3  -4  -2  494.84   27.56
   3  -4   2  599.81   32.64
  -3  -4  -3    3.73    2.77
  -3  -4  -9    2.40    0.95
  -3  -4  -9    3.08    1.05
  -3  -4 -10   77.38    4.84
  -3  -4 -10   91.39    5.13
  -3  -4 -11    3.91    0.88
  -3  -4 -11    6.53    1.46
  -3  -4 -11    4.56    1.01
  -3  -4 -11    6.07    1.29
  -3  -4 -12   34.60    2.65
  -3  -4 -12   34.99    2.59
  -3  -4 -12   34.68    2.53
   3  -3 -16   19.08    1.66
   3  -3 -15    0.45    0.38
   3  -3 -15    1.62    0.66
   3  -3 -15    1.11    0.56
   3  -3 -15    0.61    0.30
   3  -3 -15    2.06    0.76
   3  -3 -15    1.13    0.61
   3  -3 -15    0.63    0.45
   3  -3 -14    9.08    1.56
   3  -3 -14    8.44    1.47
   3  -3 -14    8.86    1.66
   3  -3 -14   10.80    1.80
   3  -3 -14   10.02    1.78
   3  -3 -14    7.48    1.43
   3  -3 -14    7.64    1.42
   3  -3 -13   31.48    3.59
   3  -3 -13   31.02    3.04
   3  -3 -13   35.20    3.24
   3  -3 -13   33.85    3.43
   3  -3 -13   36.33    3.32
   3  -3 -13   35.85    3.27
   3  -3 -12   41.89    3.75
   3  -3 -12   42.81    3.76
   3  -3 -12   44.71    3.88
   3  -3 -12   46.19    4.22
   3  -3 -12   44.42    3.81
   3  -3 -11  214.86    9.25
   3  -3 -11  212.35    9.25
   3  -3 -11  207.75    9.16
   3  -3 -11  204.85    9.76
   3  -3 -10   26.47    3.01
   3  -3 -10   25.51    2.99
   3  -3 -10   22.70    2.79
   3  -3  -9   34.76    3.39
   3  -3  -9   33.67    3.35
   3  -3  -8   88.87   11.57
   3  -3  -8   80.26    5.23
   3  -3  -7   55.24    8.45
   3  -3  -7   74.23    9.52
   3  -3  -6   61.59    8.52
   3  -3  -6   97.17   10.40
   3  -3  -5    3.22    1.82
   3  -3  -5    1.71    1.35
   3  -3  -4  115.99   11.31
  -3  -3   4   97.39    9.72
   3  -3  -4  112.71   10.56
   3  -3  -3  398.98   21.54
  -3  -3   3  355.11   19.07
   3  -3  -3  382.78   20.23
  -3  -3   2  278.86   16.67
   3  -3  -2  308.81   17.82
  -3  -3   1  858.51   32.18
   3  -3  -1  920.05   33.98
  -3  -3   0   58.00    7.29
  -3  -3   0   59.82    7.52
   3  -3   0   72.92    8.63
  -3  -3  -1   87.08    9.51
   3  -3   1  103.85   10.57
  -3  -3  -2  312.22   19.33
   3  -3   2  329.91   17.39
   3  -3   2  354.90   19.58
   3  -3   3  149.63   12.78
   3  -3   3  129.96   11.02
  -3  -3  -3  131.06   12.67
   3  -3   3  144.81   13.31
   3  -3   4   69.56    9.29
   3  -3   4   51.85    7.80
  -3  -3  -4   64.35    9.12
   3  -3   4   56.41    7.49
  -3  -3  -5  144.34   14.53
   3  -3   5  154.60   14.28
   3  -3   5  142.22   12.70
  -3  -3  -6   23.97    6.12
   3  -3   6   21.42    5.56
   3  -3   6   26.08    5.59
  -3  -3  -8   19.30    2.92
  -3  -3  -9   61.91    5.02
  -3  -3  -9   74.22    5.02
  -3  -3 -10    2.93    1.04
  -3  -3 -10    2.63    0.80
  -3  -3 -11   11.86    2.20
  -3  -3 -11    8.63    1.47
  -3  -3 -11   11.49    1.83
  -3  -3 -11   10.68    1.86
  -3  -3 -11   10.55    1.78
  -3  -3 -12    0.75    0.85
  -3  -3 -12   -1.13    0.90
  -3  -3 -12   -0.47    0.59
  -3  -3 -12    0.02    0.43
  -3  -3 -13   60.64    3.58
  -3  -3 -13   62.23    3.66
  -3  -3 -14    2.77    0.65
  -3  -3 -14    1.97    0.53
  -3  -3 -14    2.66    0.62
   3  -2 -16    0.46    0.43
   3  -2 -16    0.83    0.41
   3  -2 -16    0.70    0.39
   3  -2 -16    0.08    0.32
   3  -2 -16   -0.68    0.44
   3  -2 -15    6.69    1.26
   3  -2 -15    7.19    1.31
   3  -2 -15    9.24    1.62
   3  -2 -15    8.02    1.50
   3  -2 -15    8.86    1.50
   3  -2 -15    8.91    1.58
   3  -2 -14   36.04    3.53
   3  -2 -14   41.10    3.72
   3  -2 -14   39.11    3.41
   3  -2 -14   41.72    3.72
   3  -2 -14   42.77    3.60
   3  -2 -14   39.90    3.39
   3  -2 -13    2.84    0.93
   3  -2 -13    5.85    1.90
   3  -2 -13    5.34    1.39
   3  -2 -13    4.17    1.18
   3  -2 -13    3.22    1.06
   3  -2 -13    3.44    1.12
   3  -2 -12   45.81    4.42
   3  -2 -12   45.27    3.87
   3  -2 -12   49.78    4.15
   3  -2 -12   49.69    4.11
   3  -2 -11   98.05    5.96
   3  -2 -11   96.63    6.53
   3  -2 -11  106.43    5.97
   3  -2 -11  100.37    6.02
   3  -2 -10  190.61    8.41
   3  -2 -10  217.88    9.04
   3  -2 -10  199.39    9.59
   3  -2 -10  206.44    8.59
   3  -2 -10  213.52    9.03
   3  -2  -9   43.62    7.46
  -3  -2   9   41.66    7.29
   3  -2  -9   46.00    9.04
   3  -2  -8  136.80   13.62
   3  -2  -8  114.24   11.51
  -3  -2   8  116.53   11.51
   3  -2  -7   59.69    7.78
  -3  -2   7   61.21    7.65
   3  -2  -7   58.14    7.72
   3  -2  -6   55.14    6.90
  -3  -2   6   58.12    7.01
   3  -2  -6   59.77    7.49
  -3  -2   6   54.65    6.83
   3  -2  -5   40.83    5.61
  -3  -2   5   48.77    5.97
  -3  -2   5   49.15    6.37
   3  -2  -5   43.77    6.02
   3  -2  -4   74.38    7.40
  -3  -2   4   88.49    8.30
   3  -2  -4   72.40    7.36
  -3  -2   4   70.55    6.92
  -3  -2   3   79.25    7.57
  -3  -2   3   64.00    6.31
   3  -2  -3   71.29    7.14
   3  -2  -2  133.12    9.00
  -3  -2   2  139.07    9.95
  -3  -2   2  144.22    8.92
   3  -2  -2  133.60    9.60
  -3  -2   1  332.73   15.33
   3  -2  -1  346.89   15.38
   3  -2  -1  297.78   12.86
  -3  -2   1  333.55   15.84
   3  -2  -1  325.37   15.69
  -3  -2   0  791.14   27.56
   3  -2   0  774.63   24.45
  -3  -2   0  811.20   27.46
   3  -2   0  832.20   26.80
   3  -2   0  844.95   27.99
  -3  -2  -1 1806.02   50.11
   3  -2   1 1948.89   48.99
   3  -2   1 1818.64   46.33
  -3  -2  -1 1792.22   49.22
   3  -2   1 1893.31   49.52
   3  -2   2 1992.99   51.78
  -3  -2  -2 1905.50   52.81
   3  -2   2 1959.62   50.94
   3  -2   2 1867.98   48.49
   3  -2   3  254.93   14.71
  -3  -2  -3  252.09   15.79
   3  -2   3  223.80   13.01
  -3  -2  -4   42.53    6.85
   3  -2   4   45.03    6.41
  -3  -2  -4   40.49    7.71
   3  -2   4   39.21    5.42
  -3  -2  -5  172.79   16.90
  -3  -2  -5  197.56   15.61
   3  -2   5  215.71   15.14
   3  -2   5  215.11   15.33
   3  -2   5  210.48   13.86
   3  -2   6   86.66    9.35
  -3  -2  -6   74.30   11.37
  -3  -2  -6  100.69   11.65
   3  -2   6   99.46   10.65
   3  -2   6  100.24   10.77
  -3  -2  -7  154.64   15.51
  -3  -2  -7  201.53   19.41
   3  -2   7  229.30   17.28
   3  -2   7  202.78   15.17
   3  -2   7  220.71   17.15
  -3  -2  -8   72.96    5.59
  -3  -2  -8   71.96   10.83
  -3  -2  -8   79.27    5.02
  -3  -2  -8   69.00    4.86
  -3  -2  -8   71.76   11.75
   3  -2   8   74.03   10.25
  -3  -2  -8   71.60    5.03
   3  -2   8   69.13    9.16
  -3  -2  -9   11.83    1.95
  -3  -2  -9   12.47    2.29
  -3  -2  -9   12.15    2.03
  -3  -2  -9   12.05    2.07
  -3  -2 -10  243.85   10.40
  -3  -2 -10  224.94    9.51
  -3  -2 -10  232.06    9.46
  -3  -2 -10  230.35    9.62
  -3  -2 -10  231.05    9.85
  -3  -2 -11   52.30    4.25
  -3  -2 -11   50.62    4.16
  -3  -2 -11   47.93    3.87
  -3  -2 -11   43.29    3.78
  -3  -2 -11   47.34    4.06
  -3  -2 -11   44.58    3.79
  -3  -2 -11   56.92    4.65
  -3  -2 -12   86.86    5.33
  -3  -2 -12   81.73    4.97
  -3  -2 -12   80.45    5.01
  -3  -2 -12   93.08    5.58
  -3  -2 -12   88.02    5.22
  -3  -2 -13   55.46    3.81
  -3  -2 -13   53.73    3.74
  -3  -2 -13   59.77    3.89
  -3  -2 -13   60.35    3.95
  -3  -2 -13   60.72    4.08
  -3  -2 -14   40.33    2.88
  -3  -2 -14   41.49    2.90
  -3  -2 -14   34.41    2.59
  -3  -2 -14   41.73    2.84
  -3  -2 -14   37.54    2.82
  -3  -2 -15   10.06    1.19
  -3  -2 -15    8.56    1.07
  -3  -2 -15   10.63    1.15
   3  -1 -17   18.39    1.74
   3  -1 -17   16.56    1.71
   3  -1 -16   31.24    2.55
   3  -1 -16   33.43    2.76
   3  -1 -16   37.09    2.96
   3  -1 -16   31.72    2.74
   3  -1 -15    0.51    0.55
   3  -1 -15    1.51    0.71
   3  -1 -15    0.77    0.49
   3  -1 -15   -0.22    0.51
   3  -1 -15   -0.26    0.66
   3  -1 -15    0.38    0.50
   3  -1 -14   67.49    5.11
   3  -1 -14   92.58    5.64
   3  -1 -14   89.73    5.39
   3  -1 -14   99.13    6.08
   3  -1 -14   89.14    5.33
   3  -1 -14   84.82    5.21
   3  -1 -14   75.92    4.80
   3  -1 -13  100.55    5.86
   3  -1 -13  108.51    6.79
   3  -1 -13   86.91    5.48
   3  -1 -13   91.48    6.27
   3  -1 -13  103.87    6.16
   3  -1 -13   94.52    5.71
   3  -1 -12  103.91    6.24
   3  -1 -12  100.50    6.12
   3  -1 -12   97.39    5.73
   3  -1 -12   97.58    5.97
   3  -1 -12  101.96    5.91
   3  -1 -12  104.98    6.88
   3  -1 -11  155.45    8.62
   3  -1 -11  148.12    7.15
   3  -1 -11  142.76    7.35
   3  -1 -11  155.58    7.27
  -3  -1  10   13.50    4.27
   3  -1  -9    8.99    3.23
  -3  -1   9   12.09    3.62
   3  -1  -9    9.28    4.87
  -3  -1   8  502.63   23.07
   3  -1  -8  516.71   25.14
  -3  -1   8  489.46   23.98
   3  -1  -7  162.28   13.07
   3  -1  -7  138.54   11.63
  -3  -1   7  156.00   11.84
  -3  -1   7  143.41   11.01
   3  -1  -6  762.51   27.27
  -3  -1   6  747.32   27.01
   3  -1  -6  747.42   28.00
  -3  -1   6  728.36   27.29
  -3  -1   5  186.80   11.67
   3  -1  -5  193.51   11.10
  -3  -1   5  193.76   11.92
   3  -1  -5  186.71   11.95
   3  -1  -4  163.38    9.46
  -3  -1   4  171.74   10.77
  -3  -1   4  161.48   10.37
   3  -1  -4  160.64   10.34
   3  -1  -3 1490.36   37.89
  -3  -1   3 1549.26   40.71
  -3  -1   3 1493.12   35.02
   3  -1  -3 1603.03   40.66
   3  -1  -2  580.21   19.90
  -3  -1   2  582.29   18.62
  -3  -1   2  587.91   20.65
   3  -1  -2  627.59   20.83
   3  -1  -1 3110.16   69.48
   3  -1  -1 3068.19   68.02
  -3  -1   1 3022.92   69.90
  -3  -1   1 3310.25   70.02
   3  -1  -1 3235.59   70.05
  -3  -1   0   58.23    5.54
  -3  -1   0   56.82    3.84
   3  -1   0   55.88    5.08
  -3  -1   0   68.63    6.32
   3  -1   0   58.50    5.37
   3  -1   0   64.20    5.64
  -3  -1  -1  284.49   13.94
  -3  -1  -1  255.72   11.87
   3  -1   1  263.20   12.16
  -3  -1  -1  259.11   12.66
   3  -1   1  244.11   12.11
   3  -1   1  273.39   12.37
  -3  -1  -2  625.83   23.30
  -3  -1  -2  579.71   22.42
   3  -1   2  576.24   20.81
   3  -1   2  616.82   21.11
   3  -1   2  622.51   20.90
   3  -1   3 1751.33   45.34
  -3  -1  -3 1711.72   48.19
  -3  -1  -3 1617.33   48.56
   3  -1   3 1744.94   45.90
  -3  -1  -4  184.74   13.96
   3  -1   4  182.14   11.80
  -3  -1  -4  191.01   13.23
   3  -1   4  177.76   11.80
   3  -1   4  184.88   11.52
  -3  -1  -5  153.94   12.53
  -3  -1  -5  150.82   13.30
   3  -1   5  148.26   11.32
   3  -1   5  148.34   11.38
   3  -1   5  139.69   10.54
  -3  -1  -6   62.72    8.52
   3  -1   6   67.53    8.02
  -3  -1  -6   65.17    9.19
   3  -1   6   61.33    7.69
   3  -1   6   59.76    7.25
  -3  -1  -7  508.43   26.77
   3  -1   7  462.60   23.82
  -3  -1  -7  499.75   28.16
   3  -1   7  455.32   23.72
   3  -1   7  458.32   23.05
   3  -1   8   14.07    4.25
  -3  -1  -8   11.05    3.82
   3  -1   8    9.46    3.33
  -3  -1  -8   20.77    5.98
   3  -1   8   11.42    3.54
  -3  -1  -9  141.92   15.13
  -3  -1  -9  153.83    7.89
  -3  -1  -9  166.67    7.97
  -3  -1  -9  153.74    7.34
  -3  -1  -9  168.06    8.50
  -3  -1  -9  153.67    7.51
  -3  -1  -9  160.92    7.80
   3  -1   9  145.18   14.50
  -3  -1  -9  151.12    7.51
   3  -1   9  130.71   13.21
  -3  -1 -10    4.29    1.31
  -3  -1 -10    3.14    1.03
  -3  -1 -10    4.07    1.14
  -3  -1 -10    2.77    0.95
  -3  -1 -10    2.88    0.98
  -3  -1 -10    5.45    1.51
  -3  -1 -10    1.50    0.68
  -3  -1 -11   48.15    4.25
  -3  -1 -11   37.59    3.40
  -3  -1 -11   38.43    3.63
  -3  -1 -11   39.11    3.64
  -3  -1 -11   42.89    3.79
  -3  -1 -11   34.22    3.41
  -3  -1 -12  145.40    7.10
  -3  -1 -12  146.91    7.13
  -3  -1 -12  143.70    7.11
  -3  -1 -12  157.70    7.40
  -3  -1 -13   88.01    5.11
  -3  -1 -13   91.69    5.18
  -3  -1 -13   93.06    5.21
  -3  -1 -13   82.80    4.99
  -3  -1 -13   92.10    5.28
  -3  -1 -14    1.66    0.66
  -3  -1 -14    0.46    0.47
  -3  -1 -14    1.77    0.71
  -3  -1 -14    0.65    0.53
  -3  -1 -14    2.00    0.77
  -3  -1 -15    5.57    1.00
  -3  -1 -15    5.48    0.99
  -3  -1 -15    4.42    0.88
  -3  -1 -15    3.67    0.76
  -3  -1 -15    5.86    1.05
   3   0 -17    2.47    0.64
   3   0 -17    2.39    0.66
   3   0 -17    2.05    0.63
   3   0 -16   -0.86    0.64
   3   0 -16   -0.36    0.61
   3   0 -16    0.04    0.24
   3   0 -16   -0.39    0.58
   3   0 -15    6.10    1.38
   3   0 -15    5.30    1.12
   3   0 -15    7.52    1.51
   3   0 -15    5.86    1.24
   3   0 -14   84.89    5.65
   3   0 -14   76.78    5.14
   3   0 -14   69.12    4.75
   3   0 -14   75.18    4.98
   3   0 -13   -0.14    0.68
   3   0 -13    0.91    0.69
   3   0 -13    1.16    0.81
   3   0 -13    1.27    0.85
   3   0 -13    1.43    0.81
   3   0 -12   24.28    3.01
   3   0 -12   22.17    2.74
   3   0 -12   25.58    2.98
   3   0 -12   29.16    3.58
   3   0 -12   24.58    2.96
   3   0 -11  251.12   10.37
   3   0 -11  257.85   10.47
   3   0 -11  260.58   10.19
   3   0 -11  254.61   10.42
   3   0 -11  274.65   11.59
   3   0 -11  248.49    9.81
  -3   0  10  305.68   20.33
  -3   0   9    1.52    1.26
  -3   0   8  139.18   11.59
   3   0  -7  225.13   18.75
  -3   0   7  207.99   13.55
   3   0  -7  194.08   13.60
  -3   0   6   40.80    5.19
   3   0  -6   43.25    7.08
  -3   0   6   36.49    4.13
   3   0  -6   39.44    5.52
  -3   0   5  223.32   12.35
  -3   0   5  200.09   11.34
  -3   0   5  200.54    9.62
   3   0  -5  212.80   12.32
  -3   0   4 1290.88   33.78
   3   0  -4 1345.08   35.37
  -3   0   4 1356.08   31.86
  -3   0   3  582.05   19.47
   3   0  -3  561.43   19.40
  -3   0   3  613.10   18.53
  -3   0   2  364.85   12.99
  -3   0   2  343.81   13.23
   3   0  -2  336.32   12.88
  -3   0   1  239.56   10.81
  -3   0   1  249.10   11.29
   3   0  -1  260.67   10.84
   3   0   0 2887.21   63.15
  -3   0   0 2744.39   61.90
  -3   0   0 2695.80   62.40
   3   0   0 2780.28   60.12
   3   0   1  309.50   13.34
  -3   0  -1  299.94   12.48
   3   0   1  310.72   13.21
  -3   0  -1  293.84   13.48
   3   0   1  308.53   11.38
   3   0   2 1795.95   41.05
   3   0   2 1805.13   42.76
  -3   0  -2 1727.86   40.76
   3   0   2 1802.98   42.82
   3   0   3  576.37   20.57
   3   0   3  596.79   20.91
   3   0   3  606.21   19.29
   3   0   3  633.85   21.42
  -3   0  -3  581.51   19.34
  -3   0  -4    3.48    2.14
   3   0   4    4.03    2.12
   3   0   4    1.38    1.21
   3   0   4    0.86    0.91
   3   0   4    1.23    0.85
   3   0   5  618.10   22.31
   3   0   5  680.51   25.89
   3   0   5  637.08   24.78
  -3   0  -5  742.22   28.28
   3   0   5  715.01   26.24
   3   0   6   92.72    9.19
  -3   0  -6  106.89   10.31
   3   0   6   84.63    8.51
   3   0   6   81.39    7.38
   3   0   6  101.50    9.56
   3   0   7  109.31   10.51
  -3   0  -7  131.17   12.06
   3   0   7  129.58   11.61
   3   0   7  133.27   11.85
   3   0   8  171.19   14.41
  -3   0  -8  171.62   14.44
   3   0   8  177.20   14.68
   3   0   8  148.33   13.07
   3   0   9   29.21    6.10
  -3   0  -9   22.73    2.65
   3   0   9   23.23    5.44
  -3   0  -9   23.00    2.66
  -3   0  -9   21.78    2.62
  -3   0  -9   21.72    2.71
  -3   0  -9   20.44    2.50
  -3   0  -9   25.07    2.78
   3   0   9   17.30    4.85
  -3   0 -10  314.98   11.79
  -3   0 -10  342.63   12.37
  -3   0 -10  323.11   11.88
  -3   0 -10  327.82   11.75
  -3   0 -10  335.92   12.03
  -3   0 -11   60.33    4.57
  -3   0 -11   58.84    4.48
  -3   0 -11   59.75    4.48
  -3   0 -11   65.55    4.69
  -3   0 -12   81.70    5.26
  -3   0 -12   80.47    5.22
  -3   0 -12   80.60    5.20
  -3   0 -12   82.36    5.23
  -3   0 -13   69.81    4.56
  -3   0 -13   75.34    4.81
  -3   0 -13   72.97    4.67
  -3   0 -13   63.40    4.32
  -3   0 -14   13.78    1.87
  -3   0 -14   14.98    1.98
  -3   0 -14   12.06    1.68
  -3   0 -14   11.65    1.75
  -3   0 -15   45.27    3.00
  -3   0 -15   47.67    3.16
  -3   0 -15   44.44    3.02
   3   1 -17   11.30    1.37
   3   1 -17   11.55    1.22
   3   1 -16   32.61    2.84
   3   1 -16   29.43    2.52
   3   1 -15    1.24    0.58
   3   1 -15    0.81    0.44
   3   1 -15   -0.02    0.40
   3   1 -14   90.91    5.78
   3   1 -14   86.90    5.42
   3   1 -14   83.64    5.42
   3   1 -13  100.82    6.30
   3   1 -13   90.07    5.69
   3   1 -12   95.38    5.96
   3   1 -12   88.37    5.77
   3   1 -11  146.48    7.46
   3   1 -11  167.35    8.66
   3   1 -11  145.27    7.40
  -3   1  10    9.21    3.44
  -3   1  10   14.64    4.22
  -3   1   9   15.99    4.40
  -3   1   8  507.64   24.30
  -3   1   7  157.24   11.01
  -3   1   7  162.55   12.21
  -3   1   6  721.02   25.46
  -3   1   6  756.89   27.49
  -3   1   5  198.50   12.08
  -3   1   5  188.25   11.13
  -3   1   4  202.17   11.54
  -3   1   4  210.21   12.00
  -3   1   4  198.82   11.05
   3   1  -3 1524.04   37.19
  -3   1   3 1645.98   41.41
  -3   1   3 1648.47   42.11
   3   1  -2  472.70   16.03
  -3   1   2  595.33   20.24
   3   1  -2  612.97   22.18
  -3   1   2  522.32   18.80
   3   1  -1 3131.39   70.11
  -3   1   1 3136.83   72.26
  -3   1   0   71.49    6.09
   3   1   0   80.96    6.47
  -3   1   0   76.65    6.39
   3   1   0   68.52    6.04
   3   1   0   75.93    6.26
  -3   1  -1  266.83   13.12
   3   1   1  245.77   12.07
   3   1   1  282.74   12.72
   3   1   2  633.16   21.77
   3   1   2  674.69   21.65
   3   1   2  621.98   20.91
   3   1   3 2063.21   52.20
   3   1   3 2070.67   51.16
   3   1   3 2027.44   52.08
   3   1   3 1954.82   50.37
   3   1   4  167.35   10.77
   3   1   4  151.72   10.72
  -3   1  -4  189.28   14.04
   3   1   4  148.79   10.73
   3   1   4  153.24   10.26
   3   1   5  128.24    9.87
   3   1   5  136.20   10.33
   3   1   5  139.08   10.86
  -3   1  -5  160.15   13.51
   3   1   5  134.53   10.83
   3   1   6   57.24    7.38
   3   1   6   69.97    8.19
   3   1   6   66.31    7.77
   3   1   6   59.57    7.00
  -3   1  -6   82.15    9.92
   3   1   7  546.77   25.57
   3   1   7  473.37   22.30
   3   1   8   12.25    3.75
   3   1   8   14.02    3.69
  -3   1  -9  120.47    6.54
  -3   1  -9  132.63    6.98
  -3   1  -9  138.71    7.03
   3   1   9  123.30   13.14
  -3   1  -9  133.25    7.06
  -3   1  -9  143.96    7.21
  -3   1  -9  130.14    7.39
  -3   1 -10    4.49    1.28
  -3   1 -10    6.08    1.45
  -3   1 -10    5.49    1.39
  -3   1 -10    5.90    1.47
  -3   1 -10    6.21    1.47
  -3   1 -11   41.50    3.73
  -3   1 -11   35.59    3.45
  -3   1 -11   32.42    3.29
  -3   1 -11   39.53    3.68
  -3   1 -12  145.71    7.25
  -3   1 -12  154.94    7.42
  -3   1 -12  157.27    7.59
  -3   1 -12  133.68    6.84
  -3   1 -13   95.43    5.49
  -3   1 -13   84.37    4.92
  -3   1 -13   93.29    5.43
  -3   1 -13  100.34    5.55
  -3   1 -14    1.30    0.58
  -3   1 -14    1.12    0.69
  -3   1 -14    1.09    0.52
  -3   1 -14    0.75    0.54
  -3   1 -15    3.33    0.80
   3   2 -16    0.12    0.25
   3   2 -16   -0.46    0.37
   3   2 -15    8.14    1.43
   3   2 -15    6.96    1.30
   3   2 -14   42.49    3.70
   3   2 -14   41.40    3.55
   3   2 -13    2.00    0.84
   3   2 -13    0.79    0.79
   3   2 -12   46.66    4.00
  -3   2  12   46.99    3.81
   3   2 -11  101.76    6.12
  -3   2  11  103.98    5.92
   3   2 -10  234.05    9.83
  -3   2  10  237.22    9.35
  -3   2   9   39.78    7.00
  -3   2   9   26.84    6.25
  -3   2   8  109.22   12.25
  -3   2   8  146.28   12.88
  -3   2   7   61.74    7.81
  -3   2   7   63.43    9.04
  -3   2   7   64.93    7.95
  -3   2   6   76.37    8.33
  -3   2   6   87.30   10.05
  -3   2   6   70.64    7.76
  -3   2   5   63.72    7.20
  -3   2   5   64.79    8.19
  -3   2   5   62.96    6.87
   3   2  -4   82.51    7.42
  -3   2   4   87.59    8.11
  -3   2   4   96.87    9.36
   3   2  -3   49.45    5.55
  -3   2   3   38.37    4.79
  -3   2   3   37.34    5.16
  -3   2   3   54.32    6.12
   3   2  -2  147.79    9.90
  -3   2   2  161.45    9.61
  -3   2   2  138.05    9.85
   3   2  -1  346.74   16.06
  -3   2   1  313.30   15.42
   3   2   0  800.60   27.55
   3   2   0  802.58   26.83
  -3   2   0  725.23   26.26
   3   2   1 1974.19   51.15
   3   2   1 1951.90   52.60
  -3   2  -1 1904.56   51.91
  -3   2  -2 1909.49   53.62
   3   2   2 1828.09   49.91
   3   2   2 1882.13   53.27
  -3   2  -3  225.96   16.45
   3   2   3  191.92   12.76
   3   2   3  202.13   15.00
  -3   2  -4   39.91    7.70
   3   2   4   40.16    5.85
  -3   2  -5  284.24   23.07
   3   2   5  303.77   18.00
   3   2   5  309.58   18.38
   3   2   6  100.32   10.84
   3   2   6  125.50   11.85
   3   2   7  229.98   17.67
   3   2   7  218.39   16.71
  -3   2  -8   90.90    6.13
  -3   2  -8   70.37    4.89
  -3   2  -8   69.47    4.78
   3   2   8   70.93   10.10
   3   2   8   74.41    9.90
  -3   2  -8   67.99    4.85
  -3   2  -9    9.45    1.80
  -3   2  -9   11.98    2.19
  -3   2  -9   11.53    2.00
  -3   2  -9    9.31    1.74
  -3   2 -10  287.72   10.65
  -3   2 -10  303.63   11.44
  -3   2 -11   50.40    4.03
  -3   2 -11   53.74    4.34
  -3   2 -11   46.77    3.88
  -3   2 -12   78.19    4.94
  -3   2 -12   82.57    5.21
  -3   2 -12   78.98    4.87
  -3   2 -12   67.65    4.67
  -3   2 -13   61.48    4.05
  -3   2 -13   55.67    3.79
  -3   2 -14   41.84    2.95
  -3   2 -14   39.48    2.80
  -3   2 -15   10.58    1.28
   3   3 -14    7.03    1.32
  -3   3  14    7.89    1.36
   3   3 -13   26.28    2.79
  -3   3  13   30.86    2.95
   3   3 -12   38.35    3.64
  -3   3  12   47.36    3.83
  -3   3  11  209.20    8.86
   3   3 -11  197.26    9.22
   3   3 -10   28.01    3.35
  -3   3  10   27.92    3.04
   3   3  -9   35.03    3.92
  -3   3   9   34.33    3.30
   3   3  -8  106.29    7.16
  -3   3   8  106.15    5.86
  -3   3   8  100.74   13.94
  -3   3   7   79.20   10.14
  -3   3   7   66.50   10.87
  -3   3   6   81.60    9.95
  -3   3   6   95.46   12.04
  -3   3   5    7.47    2.96
   3   3  -4  119.77   10.92
  -3   3   4  129.53   11.66
   3   3  -3  392.70   20.42
  -3   3   3  369.57   20.01
   3   3  -2  287.33   17.57
  -3   3   2  275.91   16.80
   3   3  -1  901.01   34.33
  -3   3   1  834.09   31.73
   3   3   0   51.27    7.36
   3   3   0   56.71    7.33
  -3   3   0   56.88    7.36
   3   3   1   83.67    9.56
   3   3   1   83.46    9.17
  -3   3  -1   72.62    8.67
   3   3   2  345.67   20.90
   3   3   2  378.62   21.23
  -3   3  -2  348.82   21.04
   3   3   3  182.25   14.72
   3   3   3  148.26   14.17
  -3   3  -3  163.09   14.81
   3   3   4   49.47    8.73
   3   3   4   44.48    7.46
   3   3   5  142.73   13.86
   3   3   5  151.04   17.14
   3   3   6   21.11    2.31
   3   3   6   24.51    8.22
   3   3   6   21.29    5.53
  -3   3  -6   23.62    2.78
  -3   3  -7   68.80    4.82
  -3   3  -8   32.51    3.27
  -3   3  -9   45.61    3.88
  -3   3 -10    1.09    0.54
  -3   3 -11   10.36    1.68
  -3   3 -12    1.81    0.81
  -3   3 -12    1.69    0.63
  -3   3 -13   50.31    3.31
  -3   3 -13   59.79    3.69
  -3   3 -14    2.58    0.69
  -3   4  14    5.87    1.02
  -3   4  13   16.89    1.94
  -3   4  12    1.82    0.70
  -3   4  11   19.08    2.31
   3   4 -10   48.78    4.74
  -3   4  10   42.49    3.58
   3   4  -9   22.65    3.50
  -3   4   9   20.52    2.55
   3   4  -8   17.04    3.15
  -3   4   8   24.34    2.73
  -3   4   7   14.95    2.14
  -3   4   7   11.58    1.87
  -3   4   6   46.19    3.77
  -3   4   6   47.67    3.91
  -3   4   5   61.51    4.35
  -3   4   5   65.31    4.65
   3   4  -4   10.53    1.86
  -3   4   4   13.39    4.31
   3   4  -4    9.08    1.68
  -3   4   4    9.51    1.76
  -3   4   3   34.62    6.59
  -3   4   3   34.18    3.30
   3   4  -3   39.40    3.50
   3   4  -3   39.02    7.42
   3   4  -2   60.30    9.31
  -3   4   2   48.48    8.00
   3   4  -1   34.12    7.19
  -3   4   1   32.16    6.45
   3   4   0  136.90   14.65
  -3   4   0  141.12   14.17
   3   4   1  363.29   11.81
  -3   4  -1  365.93   12.97
   3   4   1  344.63   23.86
   3   4   1  349.50   12.40
  -3   4  -1  345.43   12.84
   3   4   2  572.11   15.97
  -3   4  -2  535.77   16.81
   3   4   2  535.55   16.59
   3   4   2  471.95   29.26
   3   4   2  480.25   28.21
  -3   4  -2  553.12   17.78
  -3   4  -3    5.96    1.49
   3   4   3    7.95    1.75
  -3   4  -3    5.06    1.55
  -3   4  -3    4.54    1.39
   3   4   3    6.73    1.51
   3   4   4   97.28    6.09
   3   4   4  107.45    6.16
  -3   4  -4   93.32    6.22
  -3   4  -4  102.17    7.24
  -3   4  -5  108.92    6.95
   3   4   5  108.56    6.56
  -3   4  -5  108.85    7.68
  -3   4  -6  104.02    6.85
  -3   4  -7  134.78    7.78
  -3   4  -8   31.26    3.48
  -3   4  -9    3.23    1.13
  -3   4 -10   85.66    5.26
   3   4  10  100.04    5.67
  -3   4 -11    3.70    0.96
   3   4  11    4.21    1.01
   3   4  12   27.26    2.17
  -3   4 -12   27.90    2.31
  -3   5  12   16.89    1.64
  -3   5  11   35.76    2.68
  -3   5  11   40.50    3.35
  -3   5  10    5.37    1.09
  -3   5   9   20.78    2.29
  -3   5   8  118.98    6.02
  -3   5   7    4.39    1.19
  -3   5   7    5.57    1.26
  -3   5   6   38.81    3.53
  -3   5   6   39.09    3.41
  -3   5   5   13.27    2.03
  -3   5   5    9.52    1.84
  -3   5   4   11.01    1.96
  -3   5   4   18.16    2.43
  -3   5   3   97.15    6.05
   3   5  -3  110.89    6.63
  -3   5   2   98.07    6.12
   3   5  -2  106.56    6.31
   3   5  -1  215.81    9.60
   3   5  -1  248.08   10.12
  -3   5   1  222.95   10.11
   3   5   0  197.53    8.85
  -3   5   0  185.17    9.20
   3   5   1   54.41    4.45
  -3   5  -1   45.90    4.38
   3   5   1   41.14    3.81
  -3   5  -2  298.82   12.11
   3   5   2  292.97   11.38
  -3   5  -3   16.80    2.50
   3   5   3   23.46    2.86
   3   5   4  204.60    9.13
   3   5   5   10.73    1.95
   3   5   6   62.51    4.73
   3   5   7   15.74    2.25
   3   5   8   46.93    3.80
   3   5   9   18.58    2.16
   3   5  10    3.48    0.80
  -3   6   8   11.61    1.52
  -3   6   7   10.96    1.46
  -3   6   7   11.03    1.63
  -3   6   6    9.27    1.44
  -3   6   5   27.37    2.57
  -3   6   4    9.80    1.65
  -3   6   3   61.92    4.46
  -3   6   2   24.81    2.87
  -3   6   1    3.38    1.03
   3   6  -1    4.67    1.27
  -3   6   0   28.10    3.21
   3   6   0   30.75    3.11
  -3   6  -1   11.38    1.94
   3   6   1   11.03    1.82
  -3   6  -2   30.11    3.05
   3   6   2   32.23    3.14
  -3   6  -3    5.52    1.21
   3   6   3    5.18    1.22
   3   6   4    6.21    1.37
   3   6   5   38.62    3.29
   3   6   6   15.56    1.97
   3   6   7   20.98    2.12
  -3   7   2   34.02    3.02
  -3   7   1    3.58    1.01
   4  -6  -8    1.35    0.75
   4  -5 -12    4.15    1.07
   4  -5 -11   11.17    1.43
   4  -5 -11   15.02    1.94
   4  -5 -10    1.25    0.69
   4  -5  -9   32.32    2.84
  -4  -5  -9   18.53    1.99
   4  -4 -14    4.48    0.87
   4  -4 -14    5.60    1.06
   4  -4 -14    4.71    0.98
   4  -4 -14    5.22    0.93
   4  -4 -13   32.38    2.54
   4  -4 -13   31.45    2.86
   4  -4 -13   31.11    2.92
   4  -4 -13   36.84    2.90
   4  -4 -12    5.40    1.27
   4  -4 -12    4.39    1.41
   4  -4 -12    4.63    1.11
   4  -4 -12    5.36    1.14
   4  -4 -11   67.28    4.44
   4  -4 -11   72.85    5.31
   4  -4 -11   76.55    4.92
   4  -4 -10   18.65    2.38
   4  -4 -10   20.69    2.62
   4  -4  -9   12.32    1.95
   4  -4  -8   12.09    1.95
  -4  -4   1  323.76   21.75
  -4  -4  -8   57.37    4.33
  -4  -4  -9   23.29    2.47
  -4  -4  -9   30.28    2.91
  -4  -4 -10   45.24    3.25
  -4  -4 -10   46.74    3.56
  -4  -4 -10   46.84    3.35
  -4  -4 -11    2.02    0.82
  -4  -4 -11    1.46    0.57
  -4  -4 -11    0.73    0.43
  -4  -4 -12    0.41    0.33
  -4  -4 -12   -0.17    0.26
   4  -3 -15   32.88    2.54
   4  -3 -15   37.42    2.74
   4  -3 -15   34.98    2.65
   4  -3 -15   35.65    2.71
   4  -3 -15   36.86    2.74
   4  -3 -15   29.00    2.39
   4  -3 -14   16.06    2.02
   4  -3 -14   15.44    2.00
   4  -3 -14   14.43    2.00
   4  -3 -14   15.02    2.05
   4  -3 -14   14.35    1.88
   4  -3 -13  107.03    5.74
   4  -3 -13  105.04    6.05
   4  -3 -13  119.21    6.10
   4  -3 -13  112.04    5.94
   4  -3 -13  105.76    5.82
   4  -3 -12   38.28    3.88
   4  -3 -12   44.65    3.81
   4  -3 -12   39.07    3.64
   4  -3 -12   42.34    3.72
   4  -3 -11   16.15    2.62
   4  -3 -11   12.65    2.02
   4  -3 -11   17.22    2.42
   4  -3 -11   16.76    2.35
   4  -3 -10   16.73    2.39
   4  -3 -10   10.89    1.92
   4  -3 -10   15.67    2.33
   4  -3  -9  192.63    8.55
   4  -3  -9  192.15    8.81
   4  -3  -8  280.05   10.49
   4  -3  -8  267.02   10.63
   4  -3  -7   32.03    6.52
   4  -3  -7   45.07    7.79
   4  -3  -7   32.28    3.25
   4  -3  -6   60.60    8.73
   4  -3  -6   58.51    8.50
   4  -3  -5  537.93   27.16
   4  -3  -5  509.03   26.16
  -4  -3   4  123.03   11.81
   4  -3  -4  124.53   11.86
  -4  -3   3  766.10   31.27
   4  -3  -3  817.05   32.15
  -4  -3   2  242.25   16.61
   4  -3  -2  261.05   17.18
  -4  -3   1  175.72   14.04
   4  -3  -1  191.21   14.74
  -4  -3   0   90.97   10.17
   4  -3   0  102.12   10.93
  -4  -3  -1  242.99   17.49
  -4  -3  -1  253.79   17.52
   4  -3   1  256.67   17.90
  -4  -3  -2  540.05   27.99
   4  -3   2  547.19   27.16
  -4  -3  -2  548.94   27.29
   4  -3   3   34.52    6.49
  -4  -3  -3   44.64    8.19
   4  -3   3   44.61    7.70
   4  -3   3   50.10    7.38
  -4  -3  -3   51.44    8.04
  -4  -3  -4  148.63   15.23
   4  -3   4  138.79   14.09
   4  -3   4  137.38   12.88
   4  -3   4  138.10   13.84
   4  -3   5  310.19   21.78
   4  -3   5  302.82   20.21
  -4  -3  -6  131.36    7.01
  -4  -3  -7  525.51   16.42
  -4  -3  -8   71.06    5.07
  -4  -3  -9   16.42    2.27
  -4  -3  -9   22.05    2.67
  -4  -3  -9   22.23    2.79
  -4  -3 -10  126.76    6.36
  -4  -3 -10  136.63    6.78
  -4  -3 -10  138.10    6.70
  -4  -3 -10  147.22    7.26
  -4  -3 -11   36.76    3.12
  -4  -3 -11   37.83    3.24
  -4  -3 -11   37.00    3.07
  -4  -3 -12   98.96    4.84
  -4  -3 -12  101.47    4.83
  -4  -3 -12  103.05    4.98
  -4  -3 -13   11.58    1.24
  -4  -3 -13   15.65    1.60
  -4  -3 -13   14.00    1.46
   4  -2 -16   18.89    1.88
   4  -2 -16   17.95    1.75
   4  -2 -16   20.71    1.97
   4  -2 -16   13.99    1.45
   4  -2 -16   17.23    1.87
   4  -2 -15   17.55    2.05
   4  -2 -15   20.12    2.19
   4  -2 -15   19.77    2.13
   4  -2 -15   19.53    2.26
   4  -2 -15   17.96    2.07
   4  -2 -15   19.23    2.21
   4  -2 -14   19.28    2.29
   4  -2 -14   21.12    2.61
   4  -2 -14   20.93    2.58
   4  -2 -14   21.48    2.47
   4  -2 -14   23.05    2.60
   4  -2 -13    8.10    1.63
   4  -2 -13   10.82    1.79
   4  -2 -13    6.19    1.68
   4  -2 -13   12.45    2.06
   4  -2 -13    7.83    1.63
   4  -2 -13    9.93    1.79
   4  -2 -12   34.99    3.35
   4  -2 -12   36.96    3.98
   4  -2 -12   36.48    3.52
   4  -2 -12   35.71    3.51
   4  -2 -11  119.98    6.48
   4  -2 -11  127.46    6.80
   4  -2 -11  135.79    7.90
   4  -2 -11  128.77    6.92
   4  -2 -10   13.18    2.10
   4  -2 -10   14.43    2.22
   4  -2 -10   15.32    2.26
   4  -2  -9   45.30    7.89
  -4  -2   9   37.68    7.18
   4  -2  -9   41.56    3.49
   4  -2  -9   44.12    3.75
   4  -2  -9   42.07    3.72
   4  -2  -8  190.39   16.22
   4  -2  -8  191.03   15.84
  -4  -2   8  160.24   14.40
  -4  -2   7   26.76    5.31
   4  -2  -7   35.24    6.19
  -4  -2   7   32.76    6.22
   4  -2  -7   38.89    6.75
   4  -2  -6  455.87   22.22
  -4  -2   6  498.45   24.25
   4  -2  -6  460.99   23.39
  -4  -2   6  432.21   22.66
   4  -2  -5  131.77   10.87
  -4  -2   5  159.07   12.90
   4  -2  -5  141.59   11.84
  -4  -2   5  131.98   11.21
  -4  -2   4  182.79   12.94
   4  -2  -4  180.32   12.53
  -4  -2   4  217.57   14.65
   4  -2  -4  181.77   12.92
   4  -2  -3   20.59    4.04
  -4  -2   3   18.14    3.87
  -4  -2   3   23.00    4.48
  -4  -2   2 1325.22   38.13
   4  -2  -2 1369.74   40.90
  -4  -2   2 1396.39   42.33
   4  -2  -2 1363.67   41.08
  -4  -2   1  423.82   19.32
   4  -2  -1  373.41   16.79
   4  -2  -1  430.59   19.79
  -4  -2   1  401.09   19.61
   4  -2  -1  408.91   19.26
  -4  -2   0  216.93   14.14
   4  -2   0  199.26   13.10
   4  -2   0  185.03   11.60
  -4  -2   0  191.30   13.02
   4  -2   0  210.53   13.37
  -4  -2  -1  246.86   15.82
   4  -2   1  224.04   13.40
   4  -2   1  217.09   14.11
  -4  -2  -1  241.34   14.97
   4  -2   1  219.79   14.22
  -4  -2  -2  948.05   35.45
   4  -2   2  927.65   33.05
   4  -2   2  853.43   30.80
  -4  -2  -2  888.26   32.95
   4  -2   2  915.21   32.84
  -4  -2  -3   92.68   10.40
   4  -2   3   93.03    9.56
   4  -2   3   87.95    8.85
   4  -2   3   89.65    9.27
  -4  -2  -4  390.75   23.21
   4  -2   4  355.92   20.36
   4  -2   4  374.07   19.96
   4  -2   4  354.11   19.92
   4  -2   5   27.08    5.29
  -4  -2  -5   38.31    7.49
   4  -2   5   26.27    5.51
   4  -2   5   27.34    5.41
  -4  -2  -6   88.14   11.65
   4  -2   6   68.97    9.34
   4  -2   6   68.92    8.92
   4  -2   6   71.56    9.08
  -4  -2  -7   10.65    1.83
  -4  -2  -8  128.93    7.21
  -4  -2  -8  131.00    6.89
  -4  -2  -8  139.84    7.40
  -4  -2  -9    4.31    1.13
  -4  -2  -9    6.96    1.93
  -4  -2  -9    5.19    1.36
  -4  -2  -9    5.49    1.55
  -4  -2  -9    4.51    1.21
  -4  -2 -10  181.85    8.34
  -4  -2 -10  173.89    7.97
  -4  -2 -10  177.55    8.16
  -4  -2 -10  167.70    8.19
  -4  -2 -11   55.86    4.24
  -4  -2 -11   40.07    3.48
  -4  -2 -11   50.86    3.88
  -4  -2 -11   46.68    3.92
  -4  -2 -12   21.42    2.39
  -4  -2 -12   20.76    2.28
  -4  -2 -12   18.43    2.15
  -4  -2 -12   21.20    2.42
  -4  -2 -13    9.01    1.33
  -4  -2 -13   11.83    1.57
  -4  -2 -13   11.04    1.54
  -4  -2 -13   11.27    1.50
  -4  -2 -14   26.71    2.05
  -4  -2 -14   25.62    1.96
   4  -1 -17    3.79    0.76
   4  -1 -17    6.63    0.97
   4  -1 -17    4.95    0.90
   4  -1 -16    2.43    0.69
   4  -1 -16    2.41    0.77
   4  -1 -16    2.98    0.92
   4  -1 -15   29.63    2.85
   4  -1 -15   28.76    2.77
   4  -1 -15   27.02    2.63
   4  -1 -15   31.80    3.04
   4  -1 -15   26.48    2.52
   4  -1 -15   27.25    2.72
   4  -1 -14   10.78    1.89
   4  -1 -14    9.06    1.69
   4  -1 -14    6.80    1.41
   4  -1 -14    8.57    1.90
   4  -1 -14    8.11    1.50
   4  -1 -13   42.26    3.70
   4  -1 -13   39.70    3.68
   4  -1 -13   49.93    4.47
   4  -1 -13   42.19    3.91
   4  -1 -13   40.56    3.77
   4  -1 -13   45.27    4.36
   4  -1 -13   35.46    3.40
   4  -1 -12    6.45    1.48
   4  -1 -12    6.23    1.46
   4  -1 -12    5.84    1.44
   4  -1 -12    7.24    1.95
   4  -1 -12    3.97    1.18
   4  -1 -11   44.53    3.76
   4  -1 -11   43.99    4.52
   4  -1 -11   46.01    4.13
   4  -1 -11   45.72    3.79
   4  -1 -10    0.66    0.46
  -4  -1  10   -0.37    1.06
   4  -1 -10    1.06    0.37
   4  -1 -10    2.09    1.14
   4  -1 -10    2.27    0.78
   4  -1  -9   25.76    5.88
  -4  -1   9   32.78    6.48
  -4  -1   8  261.18   17.55
   4  -1  -8  263.93   18.41
  -4  -1   8  253.43   17.57
  -4  -1   7  245.59   16.22
   4  -1  -7  257.54   17.23
  -4  -1   7  246.04   16.49
  -4  -1   6  322.60   18.23
   4  -1  -6  310.86   16.62
  -4  -1   6  352.13   18.67
   4  -1  -6  307.97   18.06
   4  -1  -5 1268.86   37.65
  -4  -1   5 1405.30   42.21
  -4  -1   5 1345.73   41.87
   4  -1  -5 1333.54   41.40
   4  -1  -4   29.74    4.16
  -4  -1   4   50.33    6.22
  -4  -1   4   48.57    6.36
   4  -1  -4   44.54    5.85
  -4  -1   3 2681.21   61.55
  -4  -1   3 2728.82   67.08
   4  -1  -3 2759.08   66.14
   4  -1  -2  274.52   14.24
  -4  -1   2  276.24   14.55
  -4  -1   2  271.82   13.21
   4  -1  -2  278.40   14.25
  -4  -1   1  846.18   27.26
   4  -1  -1  792.32   26.13
   4  -1  -1  775.57   27.04
  -4  -1   1  821.73   27.74
   4  -1  -1  862.51   27.33
   4  -1   0  846.74   28.45
   4  -1   0  869.28   28.05
  -4  -1   0  908.98   29.73
  -4  -1   0  867.16   29.08
   4  -1   0  884.76   28.09
   4  -1   1 1107.53   34.62
   4  -1   1 1110.00   34.06
  -4  -1  -1 1100.75   34.82
   4  -1   1 1167.78   34.29
  -4  -1  -2  884.25   31.35
   4  -1   2  767.72   27.75
   4  -1   2  797.12   28.07
  -4  -1  -2  784.39   28.12
   4  -1   2  809.73   27.53
  -4  -1  -3  125.67   11.12
  -4  -1  -3  124.25    9.90
   4  -1   3  115.71    9.73
   4  -1   3  116.29    9.82
  -4  -1  -3  118.48    9.91
   4  -1   3  114.65    9.26
  -4  -1  -4  377.85   20.95
  -4  -1  -4  362.45   19.32
   4  -1   4  316.76   17.63
   4  -1   4  338.69   18.11
  -4  -1  -4  328.08   17.85
   4  -1   4  327.52   16.80
  -4  -1  -5 1121.28   41.05
  -4  -1  -5 1081.13   39.05
   4  -1   5  955.16   35.59
   4  -1   5  986.71   36.08
   4  -1   6   30.71    6.04
  -4  -1  -6   24.71    5.79
   4  -1   6   25.33    5.08
   4  -1   6   31.43    5.78
  -4  -1  -6   30.67    6.12
   4  -1   7  609.59   29.80
  -4  -1  -7  607.07   32.22
   4  -1   7  626.43   30.06
  -4  -1  -8  225.53    9.64
  -4  -1  -8  216.10   18.80
  -4  -1  -8  241.49    9.57
  -4  -1  -8  227.36    9.52
  -4  -1  -8  252.68   10.37
  -4  -1  -8  224.91    9.55
  -4  -1  -8  213.98    9.25
  -4  -1  -9   67.96    5.07
  -4  -1  -9   64.79    4.69
  -4  -1  -9   59.90    4.58
  -4  -1  -9   63.77    4.70
  -4  -1  -9   63.90    4.78
  -4  -1 -10  233.01    9.86
  -4  -1 -10  218.02    9.37
  -4  -1 -10  224.31    9.41
  -4  -1 -10  235.14    9.58
  -4  -1 -10  215.71    9.42
  -4  -1 -11    0.47    0.54
  -4  -1 -11    0.53    0.46
  -4  -1 -11    1.52    0.79
  -4  -1 -11    0.26    0.76
  -4  -1 -11    0.70    0.54
  -4  -1 -12   48.27    3.76
  -4  -1 -12   50.91    3.91
  -4  -1 -12   48.50    3.76
  -4  -1 -12   50.41    3.89
  -4  -1 -12   48.27    3.71
  -4  -1 -12   48.16    3.82
  -4  -1 -13    8.70    1.43
  -4  -1 -13    9.93    1.57
  -4  -1 -13    8.37    1.45
  -4  -1 -13    9.69    1.55
  -4  -1 -13    8.88    1.44
  -4  -1 -13    8.59    1.49
  -4  -1 -14    1.80    0.62
  -4  -1 -14    2.69    0.74
  -4  -1 -14    1.26    0.62
  -4  -1 -14    1.73    0.58
  -4  -1 -15    2.72    0.58
   4   0 -17   12.71    1.43
   4   0 -17   12.11    1.38
   4   0 -16    6.28    1.20
   4   0 -16    7.45    1.26
   4   0 -16    8.08    1.38
   4   0 -16    8.20    1.39
   4   0 -15   55.93    4.08
   4   0 -15   66.70    4.52
   4   0 -15   52.95    3.87
   4   0 -15   52.88    3.94
   4   0 -14    0.38    0.47
   4   0 -14    0.10    0.76
   4   0 -14    0.67    0.64
   4   0 -14   -0.03    0.61
   4   0 -13   13.34    2.15
   4   0 -13   12.72    2.13
   4   0 -13   13.48    2.40
   4   0 -13   12.57    2.11
   4   0 -12   28.80    3.54
   4   0 -12   24.67    2.98
   4   0 -12   21.21    2.69
   4   0 -12   21.79    2.78
   4   0 -11  149.64    7.56
   4   0 -11  160.80    8.77
   4   0 -11  160.13    8.11
   4   0 -11  163.42    8.17
   4   0 -11  151.76    7.43
  -4   0  10   11.10    3.78
  -4   0   9    2.83    1.48
   4   0  -8  623.50   29.47
  -4   0   8  642.17   28.96
  -4   0   7   79.82    8.62
   4   0  -7   76.74    9.12
  -4   0   7   78.44    8.92
  -4   0   6  167.70   12.48
  -4   0   6  155.39   11.49
   4   0  -6  170.17   12.92
  -4   0   5  523.02   22.64
  -4   0   5  480.04   20.42
  -4   0   5  462.21   18.22
   4   0  -5  513.02   22.32
  -4   0   4   82.67    7.48
   4   0  -4   83.69    7.97
  -4   0   4   80.59    6.95
  -4   0   3   48.86    5.33
  -4   0   3   39.79    5.07
   4   0  -3   43.57    5.33
  -4   0   2  107.13    8.28
  -4   0   2  117.32    8.41
   4   0  -2  108.26    8.05
   4   0  -1    3.92    1.18
   4   0  -1    2.53    1.44
  -4   0   1    5.05    1.79
   4   0   0  158.00   10.28
  -4   0   0  141.03    9.45
  -4   0   0  158.48    9.93
   4   0   0  145.40    9.80
  -4   0  -1   46.92    5.68
   4   0   1   49.44    5.71
   4   0   1   44.89    5.55
  -4   0  -1   52.23    5.60
   4   0   1   31.72    3.83
  -4   0  -2   49.32    6.12
   4   0   2   45.41    5.70
   4   0   2   47.67    5.80
  -4   0  -2   51.13    5.64
   4   0   2   49.48    4.78
  -4   0  -3   91.03    8.84
   4   0   3   82.70    8.09
   4   0   3   89.05    8.33
   4   0   3   82.63    7.32
   4   0   4  341.34   18.08
  -4   0  -4  302.85   15.47
   4   0   4  322.74   17.47
   4   0   4  293.48   15.16
  -4   0  -4  312.89   17.84
   4   0   5   52.69    7.11
   4   0   5   54.57    7.34
  -4   0  -5   51.12    7.18
   4   0   5   54.11    7.15
  -4   0  -6  177.74   14.36
   4   0   6  174.46   13.95
   4   0   6  158.17   13.40
   4   0   6  159.03   13.35
  -4   0  -7   73.37    9.37
   4   0   7   71.71    9.27
   4   0   7   73.96    9.67
   4   0   7   63.34    8.75
  -4   0  -8   14.49    2.11
  -4   0  -8   17.19    2.39
  -4   0  -8   13.99    4.22
   4   0   8   10.73    4.09
  -4   0  -8   17.57    2.35
  -4   0  -8   16.94    2.27
  -4   0  -8   17.41    2.38
   4   0   8   15.09    4.30
  -4   0  -9   30.41    3.17
  -4   0  -9   28.60    3.14
  -4   0  -9   30.35    3.17
  -4   0  -9   31.30    3.19
  -4   0  -9   32.24    3.22
  -4   0  -9   30.64    3.22
  -4   0 -10  253.45   10.17
  -4   0 -10  254.52   10.27
  -4   0 -10  252.57   10.26
  -4   0 -10  251.66   10.15
  -4   0 -10  244.09    9.85
  -4   0 -10  248.34   10.08
  -4   0 -11   10.50    1.86
  -4   0 -11    7.54    1.53
  -4   0 -11   10.74    1.91
  -4   0 -11    7.60    1.59
  -4   0 -11    7.54    1.47
  -4   0 -11    7.54    1.58
  -4   0 -12    0.20    0.35
  -4   0 -12    0.87    0.68
  -4   0 -12   -0.30    0.54
  -4   0 -12   -0.16    0.68
  -4   0 -12    1.28    0.72
  -4   0 -12    1.40    0.74
  -4   0 -13    7.20    1.36
  -4   0 -13    5.36    1.27
  -4   0 -13    5.21    1.13
  -4   0 -13    6.58    1.24
  -4   0 -13    6.98    1.38
  -4   0 -14   43.76    3.05
  -4   0 -14   43.80    3.12
  -4   0 -15    1.60    0.52
   4   1 -17    6.53    0.94
   4   1 -16    1.04    0.58
   4   1 -16    1.75    0.64
   4   1 -15   30.24    2.89
   4   1 -15   26.86    2.74
   4   1 -14    8.42    1.69
   4   1 -14    9.74    1.78
   4   1 -14    8.65    1.68
   4   1 -13   36.94    3.77
   4   1 -13   46.40    4.06
   4   1 -13   48.14    4.14
   4   1 -12    4.34    1.34
   4   1 -12    1.81    0.86
   4   1 -12    3.45    1.12
   4   1 -11   48.69    4.59
   4   1 -11   40.97    3.82
   4   1 -11   36.19    3.42
   4   1 -10    3.31    1.22
  -4   1  10    4.57    2.47
   4   1 -10    2.80    0.97
  -4   1   9   17.75    4.82
  -4   1   8  181.91   14.98
  -4   1   7  236.80   14.65
  -4   1   7  241.55   16.66
  -4   1   6  270.81   15.50
  -4   1   6  296.14   17.49
  -4   1   5 1173.93   38.45
  -4   1   5 1246.84   38.27
  -4   1   4   65.13    7.12
  -4   1   4   70.61    7.15
  -4   1   4   86.99    8.55
  -4   1   3 2518.34   65.15
   4   1  -3 2762.19   71.64
  -4   1   3 2686.54   64.62
  -4   1   2  280.78   14.26
  -4   1   2  298.49   15.53
   4   1  -2  248.02   11.08
   4   1  -2  221.72   15.41
  -4   1   1  733.32   25.35
   4   1  -1  707.33   22.71
  -4   1   0  741.03   26.24
   4   1   0  800.22   27.05
   4   1   0  790.42   25.73
  -4   1  -1 1113.39   35.91
   4   1   1 1092.37   34.58
   4   1   1 1021.98   33.31
   4   1   2  837.72   29.15
   4   1   2  779.02   28.06
   4   1   3  114.39    9.92
   4   1   3  131.36   10.41
   4   1   3  117.97    9.69
   4   1   4  379.19   19.82
  -4   1  -4  419.39   22.87
   4   1   4  347.52   18.08
   4   1   4  378.58   19.40
   4   1   5  974.91   36.12
   4   1   5  974.07   36.30
   4   1   5  869.75   32.52
   4   1   5  949.71   35.11
   4   1   6   30.94    5.89
   4   1   6   26.44    5.40
  -4   1  -6   34.33    6.64
   4   1   6   29.17    5.32
   4   1   6   18.94    4.63
   4   1   7  845.34   35.27
   4   1   7  568.79   29.81
  -4   1  -8  230.63    9.42
  -4   1  -8  217.17    9.24
  -4   1  -8  200.40    8.84
  -4   1  -8  224.19    9.29
  -4   1  -8  220.65    9.38
  -4   1  -8  230.46   10.01
  -4   1  -9   68.24    5.08
  -4   1  -9   70.96    4.93
  -4   1  -9   59.55    4.56
  -4   1  -9   58.33    4.48
  -4   1  -9   59.44    4.56
  -4   1  -9   63.71    4.74
  -4   1 -10  198.69    8.71
  -4   1 -10  208.31    8.82
  -4   1 -10  219.23    9.34
  -4   1 -10  222.22    9.20
  -4   1 -11    2.75    0.89
  -4   1 -11    2.84    1.19
  -4   1 -11    2.32    1.01
  -4   1 -11    2.61    0.93
  -4   1 -11    1.80    0.87
  -4   1 -12   50.66    3.90
  -4   1 -12   44.10    3.64
  -4   1 -12   51.19    3.99
  -4   1 -13   11.34    1.68
  -4   1 -13    9.63    1.56
  -4   1 -13    7.61    1.36
  -4   1 -14    2.35    0.71
  -4   1 -14    1.67    0.51
   4   2 -16   16.33    1.77
   4   2 -15   16.83    2.05
   4   2 -14   13.85    2.02
   4   2 -13    8.16    1.69
   4   2 -12   40.91    3.86
  -4   2  12   34.53    3.27
   4   2 -11  110.21    6.58
  -4   2  11  105.91    6.05
   4   2 -10   11.25    2.10
  -4   2  10   10.95    1.86
   4   2 -10   11.51    1.89
   4   2  -9   56.19    4.72
  -4   2   9   44.97    7.81
   4   2  -9   46.17    3.81
  -4   2   9   44.27    3.72
   4   2  -9   46.54    3.79
  -4   2   9   42.44    8.23
  -4   2   8  186.32   15.37
  -4   2   8  216.70   18.62
  -4   2   8  176.77   14.95
  -4   2   7   44.76    7.17
  -4   2   7   58.20    9.56
  -4   2   7   45.95    7.11
  -4   2   6  458.66   23.23
  -4   2   6  412.73   21.78
  -4   2   5  167.95   13.05
  -4   2   5  150.39   12.02
  -4   2   4  180.94   12.71
   4   2  -4  174.34   11.41
  -4   2   4  196.84   13.52
  -4   2   3   25.62    4.59
   4   2  -3   26.23    4.20
  -4   2   3   25.48    4.71
   4   2  -2 1288.09   38.09
  -4   2   2 1221.24   38.78
   4   2  -1  390.58   18.59
  -4   2   1  385.32   19.00
   4   2   0  244.67   14.86
  -4   2   0  233.66   15.03
  -4   2  -1  218.21   15.25
   4   2   1  200.45   13.50
   4   2   1  202.62   14.12
  -4   2  -2  966.72   38.26
   4   2   2  893.50   32.94
   4   2   2  930.82   35.38
  -4   2  -3  102.78   12.42
   4   2   3   72.90    8.38
   4   2   3   76.72    9.70
  -4   2  -4  425.75   28.46
   4   2   4  350.78   20.23
   4   2   4  398.54   24.91
  -4   2  -5   41.77    9.22
   4   2   5   35.65    6.17
   4   2   6   69.53    9.32
  -4   2  -7    8.40    2.00
  -4   2  -7    9.98    1.76
  -4   2  -7    9.03    1.82
  -4   2  -7    6.90    1.54
   4   2   7    2.46    1.51
  -4   2  -8  102.98    6.03
  -4   2  -8  109.50    6.56
  -4   2  -8  105.55    6.20
  -4   2  -9    1.79    0.81
  -4   2  -9    4.05    1.36
  -4   2  -9    2.16    1.02
  -4   2  -9    2.13    0.93
  -4   2  -9    2.24    1.12
  -4   2 -10  175.92    8.52
  -4   2 -10  173.81    7.88
  -4   2 -10  158.20    7.50
  -4   2 -10  159.99    7.70
  -4   2 -11   43.17    3.63
  -4   2 -11   38.99    3.37
  -4   2 -12   24.89    2.57
  -4   2 -12   18.85    2.17
  -4   2 -13    6.45    1.26
  -4   2 -13    5.30    1.02
  -4   2 -14   35.10    2.47
   4   3 -15   33.41    2.59
   4   3 -14   17.64    2.12
  -4   3  14   17.68    1.94
   4   3 -13  107.37    5.92
  -4   3  13  110.92    5.67
  -4   3  12   35.44    3.26
   4   3 -12   33.19    3.39
   4   3 -11   17.56    2.64
  -4   3  11   17.43    2.40
   4   3 -10   17.02    2.81
  -4   3  10   21.46    2.66
   4   3  -9  209.52   11.00
  -4   3   9  220.61    9.21
   4   3  -8  300.28   13.96
   4   3  -8  299.84   11.23
  -4   3   8  300.14   11.02
  -4   3   7   32.62    6.85
   4   3  -7   35.11    3.31
   4   3  -7   31.52    3.13
  -4   3   6   51.76    8.43
  -4   3   5  526.05   26.86
   4   3  -4   98.84   10.18
  -4   3   4   98.48   10.71
   4   3  -3  776.77   31.74
  -4   3   3  758.01   32.06
   4   3  -2  279.44   18.20
  -4   3   2  273.03   17.74
   4   3  -1  181.12   14.65
  -4   3   1  110.38   11.30
   4   3   0   83.52    9.95
  -4   3   0   70.18    9.17
   4   3   1  204.29   16.42
   4   3   1  235.59   16.87
  -4   3  -1  222.57   18.01
   4   3   2  570.72   28.11
   4   3   2  537.29   28.56
  -4   3  -2  571.76   32.30
  -4   3  -3   37.22    8.41
   4   3   3   52.53    8.26
   4   3   3   50.61    8.93
   4   3   4  149.35   14.59
   4   3   4  150.51   16.21
  -4   3  -5  392.21   13.24
  -4   3  -5  420.11   16.72
  -4   3  -5  372.82   16.31
  -4   3  -6  121.18    6.73
  -4   3  -6  106.22    6.20
  -4   3  -6  109.89    8.35
  -4   3  -7  579.82   16.83
  -4   3  -7  520.00   15.95
  -4   3  -7  575.17   20.03
  -4   3  -8   58.27    4.47
  -4   3  -8   60.75    5.61
  -4   3  -8   59.80    4.45
  -4   3  -9   14.86    2.21
  -4   3  -9   14.15    2.12
  -4   3 -10  145.52    6.93
  -4   3 -10  133.15    6.54
  -4   3 -11   32.83    2.96
  -4   3 -12  106.27    5.18
  -4   3 -13   16.31    1.69
  -4   4  14    4.73    0.91
  -4   4  13   35.71    2.73
  -4   4  12    2.86    0.84
   4   4 -11   77.92    5.52
  -4   4  11   77.16    4.66
   4   4 -10   16.48    2.80
  -4   4  10   20.10    2.45
   4   4  -9    7.46    1.93
  -4   4   9    9.14    1.62
  -4   4   8   15.89    2.13
  -4   4   7   32.32    3.14
  -4   4   6   73.95    4.84
  -4   4   6   70.25    4.88
  -4   4   5  188.05    8.49
   4   4  -5  191.78    8.59
  -4   4   4   51.38    4.18
   4   4  -4   45.97    4.00
   4   4  -4   56.70    4.48
   4   4  -3   82.42    5.35
  -4   4   3   76.05    5.20
   4   4  -3   76.43    5.24
  -4   4   2  269.33   11.01
   4   4  -2  253.84   10.61
  -4   4   2  287.44   10.93
   4   4  -2  287.95   10.82
  -4   4   1  405.77   13.93
   4   4  -1  449.59   14.25
  -4   4   1  435.02   14.45
   4   4   0   22.68    2.71
  -4   4   0   19.62    2.57
  -4   4   0   25.73    3.10
   4   4   1  103.21    6.15
  -4   4  -1  102.61    6.20
  -4   4  -1  106.81    6.82
  -4   4  -2  314.09   12.12
   4   4   2  331.94   12.16
  -4   4  -2  335.09   13.72
  -4   4  -3  115.08    8.02
   4   4   3  118.24    6.76
  -4   4  -3  113.20    6.75
  -4   4  -3  126.41    8.36
  -4   4  -4   55.16    4.63
   4   4   4   49.69    4.31
  -4   4  -4   54.59    5.61
   4   4   5   83.26    5.63
  -4   4  -5   88.66    5.88
  -4   4  -5   83.82    7.10
   4   4   6   30.21    3.33
  -4   4  -6   31.10    3.45
   4   4   7    0.45    0.58
  -4   4  -7    0.81    0.48
  -4   4  -7    0.14    0.75
  -4   4  -8   57.86    4.35
   4   4   8   55.96    4.30
   4   4   9   35.52    3.17
  -4   4  -9   30.14    2.96
  -4   4 -10   46.13    3.38
   4   4  10   44.84    3.20
  -4   4 -11    1.34    0.55
  -4   5  12    2.11    0.56
  -4   5  11   11.63    1.43
  -4   5  10    1.01    0.56
  -4   5   9   37.42    3.00
  -4   5   8   61.71    4.13
  -4   5   7   11.91    1.70
  -4   5   7   15.80    2.15
  -4   5   6   11.88    1.81
  -4   5   6   16.02    2.24
  -4   5   5   62.61    4.49
  -4   5   5   60.79    4.64
  -4   5   4  137.20    7.07
  -4   5   4  102.27    6.48
   4   5  -3   36.01    3.69
  -4   5   3   34.58    3.63
  -4   5   2   78.99    5.78
   4   5  -2   80.97    5.46
  -4   5   1  138.88    8.17
   4   5  -1  115.28    6.63
   4   5   0  244.92   10.15
  -4   5   0  288.98   12.61
   4   5   1    1.95    0.83
  -4   5  -1    3.23    1.35
   4   5   2  149.07    7.51
  -4   5  -2  160.89    8.83
  -4   5  -3   51.42    4.62
   4   5   3   74.07    5.02
  -4   5  -4   71.32    5.03
   4   5   4   74.39    5.05
   4   5   5  107.64    6.03
   4   5   6   65.66    4.53
  -4   5  -6   63.50    4.94
   4   5   7   82.23    4.86
  -4   5  -7   76.19    5.05
   4   5   8   19.23    2.11
   4   5   9   14.42    1.58
  -4   6   8    1.40    0.55
  -4   6   7   19.37    1.75
  -4   6   7   19.39    2.08
  -4   6   6    0.93    0.50
  -4   6   5   24.59    2.39
  -4   6   4   16.28    2.16
  -4   6   3    5.20    1.32
  -4   6   2   -0.50    1.10
  -4   6   1   65.43    5.13
  -4   6   0    6.05    1.53
   4   6   0    7.28    1.54
   4   6   1    2.17    0.84
  -4   6  -1    2.37    0.61
   4   6   2    4.73    1.16
  -4   6  -2    4.16    1.13
   4   6   3   15.63    2.03
  -4   6  -3    9.56    1.48
   4   6   4   -0.13    0.50
   4   6   5   35.81    2.82
   4   6   6    1.37    0.63
   5  -5 -11    2.92    0.74
   5  -5 -11    3.22    0.96
   5  -5 -10    6.78    1.48
   5  -5 -10    5.84    1.13
   5  -5  -9   16.78    1.98
   5  -5  -7    8.87    1.49
  -5  -5  -5   46.84    3.76
  -5  -5  -6   16.39    2.08
  -5  -5  -7   19.18    2.05
  -5  -5  -8   17.47    1.70
   5  -4 -13    2.72    0.77
   5  -4 -13    2.56    0.73
   5  -4 -13    3.01    0.79
   5  -4 -12   40.03    3.46
   5  -4 -12   42.81    3.26
   5  -4 -12   38.59    3.03
   5  -4 -11   22.49    2.45
   5  -4 -11   25.47    2.94
   5  -4 -11   29.32    2.89
   5  -4 -10   15.03    2.02
   5  -4 -10   13.89    2.00
   5  -4 -10   15.96    2.20
   5  -4  -9   40.70    3.62
   5  -4  -9   46.39    3.81
   5  -4  -8  164.98    7.74
  -5  -4  -7   62.46    4.75
  -5  -4  -8    8.19    1.60
  -5  -4  -8    6.07    1.26
  -5  -4  -9   25.16    2.49
  -5  -4  -9   22.88    2.19
  -5  -4 -10   53.88    3.27
  -5  -4 -10   45.73    2.82
  -5  -4 -11    2.14    0.56
   5  -4  11    3.05    0.65
   5  -3 -15    0.34    0.32
   5  -3 -15    0.13    0.20
   5  -3 -15    0.89    0.54
   5  -3 -15    1.11    0.54
   5  -3 -15    0.95    0.47
   5  -3 -14   50.84    3.49
   5  -3 -14   56.06    3.63
   5  -3 -14   48.98    3.49
   5  -3 -14   46.81    3.30
   5  -3 -14   49.25    3.41
   5  -3 -13   32.23    2.93
   5  -3 -13   30.29    3.09
   5  -3 -13   32.93    3.01
   5  -3 -13   31.52    3.02
   5  -3 -13   30.21    2.89
   5  -3 -12   12.35    1.93
   5  -3 -12   11.82    2.04
   5  -3 -12    9.39    1.75
   5  -3 -12   11.48    1.93
   5  -3 -11    4.26    1.11
   5  -3 -11    4.83    1.31
   5  -3 -11    5.24    1.66
   5  -3 -11    6.07    1.55
   5  -3 -11    6.29    1.47
   5  -3 -10    4.20    1.29
   5  -3 -10    3.65    1.18
   5  -3  -9   32.90    3.36
   5  -3  -9   31.18    3.14
   5  -3  -9   30.70    3.33
   5  -3  -8  102.79    5.94
   5  -3  -8   96.24    5.68
   5  -3  -8   96.61    6.02
   5  -3  -7   23.89    2.70
   5  -3  -7   21.81    2.74
   5  -3  -6  181.46    8.47
   5  -3  -5  238.41   18.03
  -5  -3   5  236.74   18.27
   5  -3  -5  232.46   17.92
   5  -3  -4  229.15   17.82
  -5  -3   4  243.26   18.31
   5  -3  -4  232.07   17.61
   5  -3  -3   63.19    9.12
  -5  -3   3   68.24    9.34
   5  -3  -3   69.60    9.34
  -5  -3   2  289.35   19.67
   5  -3  -2  288.52   19.21
  -5  -3   1  208.51   16.72
   5  -3  -1  217.72   16.56
  -5  -3   0   72.27    9.64
   5  -3   0   53.46    8.10
  -5  -3  -1  113.69   12.35
   5  -3   1   80.39   10.15
  -5  -3  -2   60.47    9.48
  -5  -3  -2   56.82    8.76
   5  -3   2   57.16    8.71
   5  -3   3   21.02    5.52
  -5  -3  -6   18.33    2.53
  -5  -3  -6   19.65    2.62
  -5  -3  -7   34.82    3.44
  -5  -3  -7   43.08    4.19
  -5  -3  -7   37.90    3.60
  -5  -3  -8   26.91    2.98
  -5  -3  -8   25.00    3.07
  -5  -3  -8   23.39    2.73
  -5  -3  -9   17.15    2.35
  -5  -3  -9   16.10    2.17
  -5  -3  -9   15.78    2.14
  -5  -3 -10   48.59    3.57
  -5  -3 -10   49.93    3.66
  -5  -3 -10   51.67    3.60
  -5  -3 -11    5.60    1.10
  -5  -3 -11    5.56    1.15
   5  -3  11    7.26    1.31
  -5  -3 -11    5.98    1.11
   5  -3  12    5.61    0.99
  -5  -3 -12    4.64    0.83
  -5  -3 -12    5.76    0.98
   5  -3  12    4.70    0.81
  -5  -3 -12    6.62    0.99
   5  -2 -16    3.57    0.75
   5  -2 -16    3.60    0.70
   5  -2 -16    5.80    0.97
   5  -2 -16    4.78    0.94
   5  -2 -15    8.29    1.35
   5  -2 -15   10.43    1.50
   5  -2 -15   10.44    1.51
   5  -2 -15   10.22    1.53
   5  -2 -15   11.54    1.66
   5  -2 -14    1.11    0.59
   5  -2 -14    0.42    0.45
   5  -2 -14    0.83    0.70
   5  -2 -14   -0.81    0.67
   5  -2 -14    1.30    0.77
   5  -2 -14    0.25    0.43
   5  -2 -13   46.72    3.75
   5  -2 -13   48.86    3.79
   5  -2 -13   42.85    3.60
   5  -2 -13   43.54    3.99
   5  -2 -13   46.31    3.76
   5  -2 -13   43.98    3.72
   5  -2 -12   24.97    2.79
   5  -2 -12   22.35    3.05
   5  -2 -12   22.44    2.76
   5  -2 -12   24.99    2.89
   5  -2 -11  110.15    6.16
   5  -2 -11  107.81    6.27
   5  -2 -11  109.44    7.07
   5  -2 -11  106.49    6.24
   5  -2 -11  110.17    6.36
   5  -2 -10   11.78    2.05
   5  -2 -10   10.07    1.75
   5  -2 -10    9.08    1.78
   5  -2  -9  115.00    6.35
   5  -2  -9  103.32    5.88
   5  -2  -9  110.45    6.38
   5  -2  -8  386.36   12.93
   5  -2  -8  388.08   12.69
   5  -2  -8  379.78   24.02
   5  -2  -8  408.17   13.52
   5  -2  -7    8.48    3.31
  -5  -2   7    5.76    2.86
  -5  -2   7    9.74    3.32
  -5  -2   6   89.92   10.73
   5  -2  -6   81.43    9.94
  -5  -2   6   79.88    9.98
  -5  -2   5  114.78   11.61
   5  -2  -5   87.76    9.32
  -5  -2   5  128.69   12.56
   5  -2  -5  115.07   11.37
  -5  -2   4  100.53   10.59
   5  -2  -4   93.68    9.50
  -5  -2   4  102.95   10.88
   5  -2  -4  102.77   10.48
  -5  -2   3   94.16   10.12
   5  -2  -3   87.23    9.36
   5  -2  -2   76.87    8.85
  -5  -2   2   73.50    8.79
   5  -2  -2   72.57    8.50
  -5  -2   1  235.83   15.07
   5  -2  -1  242.00   16.27
  -5  -2   1  245.46   16.39
   5  -2  -1  247.67   15.84
   5  -2   0  214.24   14.25
   5  -2   0  242.80   16.45
  -5  -2   0  232.74   15.81
  -5  -2   0  236.54   16.18
   5  -2   0  234.34   15.47
   5  -2   1  111.85   11.12
   5  -2   1  108.74   10.29
  -5  -2  -1  106.71   10.86
  -5  -2  -1  123.98   11.93
   5  -2   1  111.75   10.59
   5  -2   2  432.57   23.39
   5  -2   2  434.09   22.26
  -5  -2  -2  501.45   26.05
  -5  -2  -2  405.97   22.73
   5  -2   2  450.41   22.93
   5  -2   3  116.14   11.31
   5  -2   3  143.41   13.17
  -5  -2  -3  154.99   14.59
  -5  -2  -3   96.90   10.88
   5  -2   3  137.86   12.30
   5  -2   4  231.12   16.85
  -5  -2  -4  282.07   20.72
  -5  -2  -4  269.95   18.81
   5  -2   4  231.71   17.52
   5  -2   4  243.36   17.16
   5  -2   5  172.72   15.41
  -5  -2  -5  178.83   16.99
  -5  -2  -5  165.46    7.77
   5  -2   5  146.72   13.76
  -5  -2  -5  160.97   14.91
  -5  -2  -5  170.60    8.02
  -5  -2  -6   24.56    2.84
  -5  -2  -6   25.48    3.37
  -5  -2  -6   23.88    2.90
  -5  -2  -7   91.07    5.67
  -5  -2  -7   95.12    6.29
  -5  -2  -7   88.14    5.68
  -5  -2  -8   63.54    4.95
  -5  -2  -8   55.56    4.33
  -5  -2  -8   53.45    4.34
  -5  -2  -9   90.66    5.71
  -5  -2  -9   84.56    5.29
  -5  -2  -9   84.77    5.34
  -5  -2  -9   78.95    5.32
  -5  -2 -10   69.07    4.66
  -5  -2 -10   64.71    4.39
  -5  -2 -10   64.71    4.40
  -5  -2 -11   50.68    3.69
  -5  -2 -11   44.81    3.33
  -5  -2 -11   52.25    3.66
  -5  -2 -11   49.99    3.54
  -5  -2 -12   34.45    2.59
  -5  -2 -12   35.92    2.77
  -5  -2 -12   38.72    2.83
   5  -2  12   27.22    2.26
  -5  -2 -12   35.26    2.67
   5  -2  13    7.04    1.17
  -5  -2 -13    4.59    0.82
  -5  -2 -13    4.43    0.78
  -5  -2 -13    6.59    1.05
  -5  -2 -13    6.41    0.97
   5  -1 -16    3.19    0.72
   5  -1 -16    3.82    0.88
   5  -1 -16    3.55    0.85
   5  -1 -16    3.19    0.86
   5  -1 -15   32.67    2.83
   5  -1 -15   34.32    2.90
   5  -1 -15   37.79    3.17
   5  -1 -15   29.26    2.65
   5  -1 -15   36.73    3.04
   5  -1 -14   88.63    5.31
   5  -1 -14   85.33    5.10
   5  -1 -14   95.97    5.73
   5  -1 -14   87.43    5.19
   5  -1 -14   89.44    5.22
   5  -1 -13    0.90    0.61
   5  -1 -13    1.97    0.92
   5  -1 -13    2.19    1.10
   5  -1 -13    2.44    0.97
   5  -1 -13    2.32    1.04
   5  -1 -13    3.01    1.04
   5  -1 -12   24.57    2.92
   5  -1 -12   23.56    3.21
   5  -1 -12   25.51    3.09
   5  -1 -12   23.33    2.72
   5  -1 -11  149.21    7.42
   5  -1 -11  163.77    9.07
   5  -1 -11  162.87    8.12
   5  -1 -11  153.97    7.53
   5  -1 -10    6.10    1.56
   5  -1 -10    4.46    1.58
   5  -1 -10    9.50    1.78
   5  -1 -10    4.44    1.14
   5  -1  -9  185.90    8.36
   5  -1  -9  177.70    9.24
   5  -1  -9  170.82    7.74
  -5  -1   9  165.33   15.55
   5  -1  -9  190.09   17.18
   5  -1  -9  167.25    7.68
  -5  -1   9  168.41   15.89
  -5  -1   8   87.90   10.69
   5  -1  -8   81.37   10.82
  -5  -1   8   91.50   11.33
   5  -1  -7    4.43    2.22
  -5  -1   7    9.34    3.26
  -5  -1   7   11.44    3.99
  -5  -1   6   48.66    7.44
  -5  -1   6   41.03    6.64
   5  -1  -6   46.84    7.32
  -5  -1   5  594.47   27.65
  -5  -1   5  603.59   27.08
   5  -1  -5  627.65   27.51
  -5  -1   4  681.22   28.30
   5  -1  -4  657.08   27.61
  -5  -1   3   36.25    5.81
   5  -1  -3   35.03    5.50
  -5  -1   2  278.92   15.23
   5  -1  -2  296.88   16.79
  -5  -1   2  301.65   17.16
   5  -1  -2  295.51   16.22
  -5  -1   1  601.29   24.45
   5  -1  -1  599.62   25.34
  -5  -1   1  626.42   25.95
   5  -1  -1  624.19   24.67
  -5  -1   0  297.96   16.90
   5  -1   0  284.76   16.03
   5  -1   0  292.56   16.93
  -5  -1   0  291.90   16.83
   5  -1   0  305.77   16.24
  -5  -1  -1  456.15   22.13
   5  -1   1  427.16   20.77
  -5  -1  -1  439.36   21.44
   5  -1   1  421.83   21.19
   5  -1   1  435.47   20.11
  -5  -1  -2   37.58    6.22
   5  -1   2   31.28    5.41
  -5  -1  -2   31.90    5.62
   5  -1   2   34.73    5.80
   5  -1   2   38.47    5.60
  -5  -1  -3  113.07   11.33
   5  -1   3   95.02    9.79
   5  -1   3   99.34   10.16
  -5  -1  -3   95.27    9.93
   5  -1   4   18.54    4.42
  -5  -1  -4   21.45    5.16
   5  -1   4   15.24    3.93
  -5  -1  -4   15.99    4.03
   5  -1   5  475.27   25.19
   5  -1   5  505.04   26.05
  -5  -1  -5  560.08   28.73
  -5  -1  -5  468.52   24.75
  -5  -1  -6   14.14    2.24
  -5  -1  -6   12.46    4.27
   5  -1   6   11.71    3.45
  -5  -1  -6   13.42    2.08
   5  -1   6   11.15    3.71
  -5  -1  -6   13.07    2.07
  -5  -1  -7  254.53   10.24
  -5  -1  -7  218.87    9.43
  -5  -1  -7  243.38    9.70
  -5  -1  -7  244.53    9.85
  -5  -1  -7  227.68    9.80
  -5  -1  -8  109.46    6.37
  -5  -1  -8   97.56    5.95
  -5  -1  -8   99.18    5.91
  -5  -1  -8   98.57    5.96
  -5  -1  -8   97.42    6.07
  -5  -1  -9  229.69    9.57
  -5  -1  -9  207.82    9.13
  -5  -1  -9  211.47    9.30
  -5  -1  -9  220.57    9.26
  -5  -1  -9  210.91    9.04
  -5  -1  -9  222.78    9.59
  -5  -1 -10    5.60    1.23
  -5  -1 -10    5.12    1.24
  -5  -1 -10    7.51    1.66
  -5  -1 -10    6.07    1.48
   5  -1  10    6.60    1.49
  -5  -1 -10    6.44    1.44
  -5  -1 -10    7.43    1.55
  -5  -1 -11   98.59    5.51
  -5  -1 -11   87.43    5.16
  -5  -1 -11   91.43    5.31
  -5  -1 -11   91.57    5.30
  -5  -1 -11  102.62    5.51
  -5  -1 -11   94.18    5.49
  -5  -1 -12   11.97    1.66
  -5  -1 -12   14.62    1.87
  -5  -1 -12   13.86    1.82
  -5  -1 -12   12.70    1.76
  -5  -1 -12   14.81    1.86
  -5  -1 -13   97.34    4.56
  -5  -1 -13   99.20    4.55
  -5  -1 -13  102.10    4.65
  -5  -1 -13  107.57    4.79
  -5  -1 -13  108.58    4.79
   5  -1  14   -0.16    0.33
   5   0 -16    4.01    0.91
   5   0 -16    4.56    0.96
   5   0 -16    3.47    0.86
   5   0 -15    6.29    1.30
   5   0 -15    7.54    1.41
   5   0 -15    5.81    1.26
   5   0 -15    6.76    1.34
   5   0 -14    1.04    0.73
   5   0 -14    0.01    0.65
   5   0 -14    0.24    0.37
   5   0 -14    1.82    0.88
   5   0 -13   31.00    3.26
   5   0 -13   30.60    3.44
   5   0 -13   42.73    3.85
   5   0 -13   41.35    3.69
   5   0 -12   16.98    2.46
   5   0 -12   20.35    2.92
   5   0 -12   28.05    3.23
   5   0 -12   26.62    3.18
   5   0 -12   22.99    2.65
   5   0 -12   25.63    2.92
   5   0 -11   85.38    5.64
   5   0 -11   92.61    6.46
   5   0 -11   95.84    6.21
   5   0 -11   76.78    5.06
   5   0 -11   81.99    5.37
   5   0 -10    1.09    0.35
   5   0 -10    0.64    0.56
   5   0 -10    1.01    0.43
  -5   0   9   36.39    7.22
  -5   0   8  776.65   33.25
  -5   0   8  857.86   35.99
   5   0  -7    0.46    1.24
  -5   0   7    1.73    2.01
  -5   0   6  823.50   33.27
  -5   0   6  717.57   29.86
   5   0  -6  814.39   33.06
  -5   0   5  287.98   18.17
  -5   0   5  267.80   16.21
   5   0  -5  284.58   17.54
  -5   0   5  284.48   15.26
  -5   0   4   70.53    7.77
   5   0  -4   71.94    8.14
  -5   0   4   70.13    7.32
   5   0  -3   28.49    4.80
  -5   0   3   33.12    5.01
  -5   0   3   30.58    5.12
  -5   0   2  774.33   27.94
  -5   0   2  728.34   27.88
   5   0  -2  721.13   26.69
   5   0  -1  151.55   11.59
  -5   0   1  156.90   11.44
  -5   0   1  153.47   11.42
   5   0  -1  136.40    9.84
  -5   0   0  459.46   21.11
   5   0   0  498.01   22.57
  -5   0   0  502.87   21.96
   5   0   0  493.02   19.61
  -5   0  -1  102.77    9.50
   5   0   1  109.93    9.89
   5   0   1  107.27   10.00
  -5   0  -1   96.83    9.03
  -5   0  -2 1742.71   51.18
   5   0   2 1786.62   51.70
   5   0   2 1764.20   51.97
  -5   0  -2 1713.94   49.33
   5   0   3  157.44   12.89
  -5   0  -3  136.02   11.98
   5   0   3  160.81   13.07
  -5   0  -3  148.10   11.52
  -5   0  -4  585.19   27.45
   5   0   4  619.42   28.16
   5   0   4  561.42   27.00
  -5   0  -5  552.71   27.81
   5   0   5  580.50   28.92
   5   0   6    4.79    2.52
  -5   0  -6    3.73    2.15
   5   0   6   10.04    3.56
  -5   0  -7   92.83   11.19
  -5   0  -7  121.53    6.41
  -5   0  -7  109.44    6.27
  -5   0  -7  106.46    6.17
  -5   0  -7  115.27    6.31
   5   0   7  108.02    6.25
   5   0   7   93.79   11.58
  -5   0  -7   97.61    5.69
  -5   0  -7  111.88    6.36
  -5   0  -8   -0.18    0.82
  -5   0  -8    1.33    0.86
  -5   0  -8    1.01    0.81
  -5   0  -8    0.67    0.48
  -5   0  -8    0.55    0.57
  -5   0  -9    4.56    1.23
  -5   0  -9    8.96    1.80
  -5   0  -9    9.62    1.86
  -5   0  -9    6.75    1.55
  -5   0  -9    8.69    1.71
  -5   0  -9    8.10    1.65
  -5   0 -10   38.71    3.54
  -5   0 -10   40.55    3.69
  -5   0 -10   42.06    3.79
  -5   0 -10   40.49    3.62
  -5   0 -10   40.10    3.55
  -5   0 -10   39.88    3.66
  -5   0 -11   16.49    2.26
  -5   0 -11   13.83    2.07
  -5   0 -11   13.94    2.13
  -5   0 -11   12.72    1.90
  -5   0 -11   14.27    1.98
  -5   0 -11   15.01    2.16
  -5   0 -12   40.22    3.26
  -5   0 -12   41.49    3.29
  -5   0 -12   39.85    3.30
  -5   0 -12   40.75    3.22
  -5   0 -12   42.92    3.30
  -5   0 -13    2.56    0.71
  -5   0 -13    2.67    0.77
  -5   0 -13    2.11    0.75
   5   1 -16    3.22    0.84
   5   1 -15   38.80    3.19
   5   1 -14   93.77    5.53
   5   1 -13    2.50    1.22
   5   1 -12   29.90    3.35
   5   1 -12   20.69    2.65
   5   1 -11  176.40    8.56
   5   1 -11  149.61    7.51
   5   1 -10    2.69    1.09
   5   1 -10    4.28    1.26
   5   1  -9  180.69    8.78
   5   1  -9  176.83    8.09
  -5   1   9  165.35   16.01
  -5   1   8   59.75    9.17
  -5   1   7    2.65    1.81
  -5   1   7    4.55    1.85
  -5   1   6   55.09    8.16
  -5   1   6   51.51    7.38
  -5   1   6   43.94    6.58
  -5   1   5  622.44   28.28
  -5   1   5  544.80   25.58
  -5   1   5  559.24   25.00
  -5   1   4  630.71   27.32
  -5   1   4  650.61   26.88
   5   1  -3   39.23    6.93
  -5   1   3   41.99    6.43
  -5   1   3   39.21    5.88
  -5   1   2  283.88   16.31
  -5   1   2  300.88   18.05
  -5   1   1  615.55   25.89
  -5   1   1  720.05   29.80
  -5   1   0  289.88   17.04
   5   1   0  296.63   17.33
   5   1   0  280.63   15.18
  -5   1  -1  453.50   22.59
   5   1   1  424.45   21.45
   5   1   2   37.79    6.08
  -5   1  -2   31.65    5.98
  -5   1  -3  122.64   12.31
   5   1   3  111.62   11.05
   5   1   3  119.48   10.73
   5   1   4   23.40    5.29
   5   1   4   19.51    4.76
  -5   1  -4   18.08    5.21
   5   1   4   20.18    4.50
   5   1   5  508.74   26.84
   5   1   5  492.84   26.17
   5   1   5  450.34   23.40
  -5   1  -6   14.67    2.25
  -5   1  -6   13.42    2.06
  -5   1  -6   11.66    1.93
   5   1   6    9.03    3.83
  -5   1  -7  249.72   10.26
  -5   1  -7  231.80    9.60
  -5   1  -7  222.39    9.57
  -5   1  -7  231.94    9.56
  -5   1  -7  234.41    9.56
  -5   1  -8   96.67    5.96
  -5   1  -8   86.97    5.56
  -5   1  -8   84.92    5.55
  -5   1  -8   85.56    5.48
  -5   1  -8   87.12    5.47
  -5   1  -9  228.01    9.49
  -5   1  -9  219.79    9.17
  -5   1  -9  221.71    9.26
  -5   1  -9  227.17    9.09
  -5   1 -10   15.06    2.18
  -5   1 -10   12.78    2.02
  -5   1 -10   12.44    2.06
  -5   1 -10   11.41    1.86
  -5   1 -11   90.51    5.33
  -5   1 -11   95.94    5.49
  -5   1 -11   91.72    5.33
  -5   1 -11   90.09    5.29
  -5   1 -12   11.54    1.65
  -5   1 -12   11.72    1.68
  -5   1 -12   10.96    1.65
  -5   1 -12   12.85    1.85
  -5   1 -13   92.41    4.36
  -5   1 -13   99.10    4.62
   5   2 -16    5.38    0.94
   5   2 -15   10.85    1.58
   5   2 -14    0.26    0.42
   5   2 -13   52.18    4.15
   5   2 -12   23.76    2.92
   5   2 -11  134.61    7.49
  -5   2  11  123.85    6.60
   5   2 -11  125.42    6.80
   5   2 -10   11.55    2.20
  -5   2  10   10.01    1.76
   5   2 -10    8.58    1.78
   5   2  -9   98.90    6.85
   5   2  -9   93.06    5.72
  -5   2   9  103.12    6.00
   5   2  -9  101.15    5.95
   5   2  -8  438.63   16.23
   5   2  -8  407.02   13.49
  -5   2   8  413.73   24.87
   5   2  -8  423.08   13.72
  -5   2   8  398.24   27.77
  -5   2   8  350.62   23.03
  -5   2   7   19.82    5.34
  -5   2   7   11.22    3.67
  -5   2   6   76.08    9.70
  -5   2   6   75.72    9.61
  -5   2   5  103.91   10.90
  -5   2   5  100.14   10.82
  -5   2   4  105.51   10.83
  -5   2   4  102.05   10.53
  -5   2   3   63.61    8.10
  -5   2   2   46.81    6.88
   5   2  -1  250.24   15.43
  -5   2   1  233.49   16.24
   5   2   0  208.81   14.58
  -5   2   0  225.01   16.38
  -5   2  -1  112.26   12.14
   5   2   1  101.80   10.45
  -5   2  -2  383.15   25.02
   5   2   2  442.26   23.94
  -5   2  -3  170.61   17.37
   5   2   3  141.64   12.86
   5   2   3  157.89   14.70
  -5   2  -4  310.11   24.80
   5   2   4  262.24   18.32
   5   2   4  271.53   20.88
  -5   2  -5  205.83   10.24
  -5   2  -5  203.46   20.48
  -5   2  -5  174.47    8.21
  -5   2  -5  206.39    9.76
   5   2   5  147.45   14.04
   5   2   5  174.86   17.55
  -5   2  -6   28.76    3.56
  -5   2  -6   24.57    2.85
  -5   2  -6   23.16    2.78
  -5   2  -6   29.69    3.57
  -5   2  -6   20.48    2.55
  -5   2  -7  119.54    7.40
  -5   2  -7  108.58    6.24
  -5   2  -7  119.08    6.61
  -5   2  -7  115.18    7.18
  -5   2  -8   49.34    4.50
  -5   2  -8   43.43    3.84
  -5   2  -8   34.74    3.36
  -5   2  -8   41.95    3.87
  -5   2  -8   49.71    4.48
  -5   2  -9   90.75    5.88
  -5   2  -9   85.07    5.33
  -5   2  -9   75.86    4.96
  -5   2  -9   91.94    5.68
  -5   2  -9   85.61    5.73
  -5   2 -10   60.04    4.37
  -5   2 -10   63.23    4.52
  -5   2 -11   47.96    3.64
  -5   2 -11   45.97    3.49
  -5   2 -12   29.51    2.60
  -5   2 -13    6.78    1.08
   5   3 -14   42.37    3.12
  -5   3  14   34.49    2.48
   5   3 -13   33.42    3.08
  -5   3  13   32.49    2.79
   5   3 -12   13.41    2.10
  -5   3  12   14.51    2.02
   5   3 -11    6.09    1.57
  -5   3  11    3.67    1.16
   5   3 -10    5.01    1.53
  -5   3  10    7.24    1.58
   5   3  -9   19.08    3.27
  -5   3   9   29.48    3.14
   5   3  -8  109.80    6.38
   5   3  -8   99.61    6.08
   5   3  -7   16.41    2.38
   5   3  -7   19.30    2.56
   5   3  -6  232.96    9.36
   5   3  -6  207.79    9.34
   5   3  -5  215.02    8.95
  -5   3   5  214.22   17.29
  -5   3   4  213.20   16.88
  -5   3   3   65.91    9.17
  -5   3   2  242.51   18.03
   5   3  -1  207.78   16.52
  -5   3   1  127.29   13.43
  -5   3   0   41.03    7.81
   5   3   0   70.35    9.70
   5   3   1  107.22   12.21
  -5   3  -1  106.12   13.72
  -5   3  -2   66.54   11.53
  -5   3  -2   62.19    4.60
  -5   3  -2   59.89    4.82
   5   3   2   53.93    9.00
  -5   3  -2   61.54    5.13
  -5   3  -3   33.94    9.48
  -5   3  -3   35.61    3.49
  -5   3  -3   37.90    4.01
  -5   3  -3   39.53    4.40
  -5   3  -4    3.77    1.47
  -5   3  -4    3.29    1.13
  -5   3  -4    2.65    1.10
  -5   3  -5  197.14    8.97
  -5   3  -5  221.59   11.22
  -5   3  -5  221.75   11.62
  -5   3  -6   20.00    3.30
  -5   3  -6   18.58    2.54
  -5   3  -6   21.71    3.38
  -5   3  -7   37.01    3.57
  -5   3  -7   40.58    4.41
  -5   3  -7   41.30    4.42
  -5   3  -8   21.23    2.63
  -5   3  -8   13.53    2.36
  -5   3  -8   15.88    2.52
  -5   3  -9   18.31    2.30
  -5   3  -9   20.71    2.58
  -5   3  -9   17.11    2.34
  -5   3 -10   50.55    3.70
  -5   3 -11    6.84    1.23
  -5   3 -12    8.51    1.23
  -5   4  13    1.81    0.59
  -5   4  12   39.63    2.94
  -5   4  11   28.19    2.65
  -5   4  10   15.41    1.98
  -5   4   9   35.14    3.15
  -5   4   8  136.80    6.68
  -5   4   7   18.55    2.34
  -5   4   6    2.58    0.88
   5   4  -6    3.98    1.29
  -5   4   5   82.44    5.37
   5   4  -5   89.12    5.75
  -5   4   4   50.42    4.23
   5   4  -4   49.91    4.35
  -5   4   3  132.70    7.38
   5   4  -3  119.01    7.15
  -5   4   2   24.54    2.96
   5   4  -2   24.20    2.89
   5   4  -2   22.06    3.04
  -5   4   2   23.92    3.01
   5   4  -1   49.72    4.18
  -5   4   1   54.06    4.37
  -5   4   1   48.24    4.28
   5   4   0   47.15    4.07
  -5   4   0   49.84    4.22
  -5   4   0   49.46    4.43
   5   4   1   36.60    3.53
  -5   4  -1   35.21    3.57
  -5   4  -1   38.53    4.13
   5   4   2  164.41    7.96
  -5   4  -2  161.34    8.07
  -5   4  -2  168.97    9.55
   5   4   3   50.03    4.22
  -5   4  -3   56.54    4.55
  -5   4  -3   60.72    5.67
  -5   4  -3   55.47    5.58
   5   4   4   75.19    5.18
  -5   4  -4   81.97    5.51
  -5   4  -4   77.99    6.74
  -5   4  -4   83.47    6.96
   5   4   5   26.31    2.96
  -5   4  -5   22.13    3.45
  -5   4  -5   24.14    2.89
  -5   4  -5   20.41    3.41
   5   4   6   16.54    2.25
  -5   4  -6   16.80    2.34
  -5   4  -6   15.52    2.77
  -5   4  -6   16.80    2.87
   5   4   7   53.40    3.92
  -5   4  -7   66.38    4.53
  -5   4  -7   57.59    4.79
  -5   4  -7   50.43    4.52
  -5   4  -8    5.12    1.18
  -5   4  -8    3.01    0.97
  -5   4  -9   20.50    2.20
  -5   4 -10   33.09    2.50
  -5   4 -11    3.45    0.70
  -5   5  11    1.79    0.51
  -5   5  10    3.24    0.80
  -5   5   9   15.79    1.82
  -5   5   8   31.01    2.76
  -5   5   7    6.83    1.25
  -5   5   7    5.61    1.22
  -5   5   6   22.65    2.42
  -5   5   6   20.73    2.51
  -5   5   5   90.78    5.37
  -5   5   5   86.37    5.59
  -5   5   4   40.83    3.71
  -5   5   4   30.63    3.49
  -5   5   3   30.79    3.48
  -5   5   3   26.38    3.41
  -5   5   2   23.58    3.25
   5   5  -2   20.80    2.73
   5   5  -1  148.80    7.57
  -5   5   1  157.12    9.25
  -5   5   0   13.54    2.65
  -5   5   0   13.16    2.11
   5   5   0   14.26    2.20
   5   5   1   20.02    2.54
  -5   5  -1   18.58    3.20
  -5   5  -1   18.40    2.55
   5   5   2   41.23    3.59
  -5   5  -2   41.00    3.81
  -5   5  -2   38.50    4.27
   5   5   3   23.56    2.66
  -5   5  -3   21.24    2.83
  -5   5  -3   28.64    3.14
   5   5   4    1.61    0.76
  -5   5  -4    1.43    0.58
  -5   5  -4    1.47    0.82
   5   5   5   47.65    3.57
  -5   5  -5   41.10    3.62
   5   5   6   17.08    1.99
  -5   5  -6   16.08    2.08
   5   5   7   18.87    1.88
  -5   5  -7   17.09    1.92
  -5   5  -8   16.41    1.63
  -5   6   6    2.95    0.71
  -5   6   5   34.45    2.64
  -5   6   4   17.01    2.06
  -5   6   3  107.73    5.93
  -5   6   2    4.17    1.16
  -5   6   1   11.11    2.07
  -5   6   0    3.24    0.87
  -5   6  -1   45.39    3.89
  -5   6  -2   64.52    4.16
   5   6   2   85.02    4.56
  -5   6  -3   13.46    1.51
   5   6   3   21.11    2.10
   5   6   4   21.97    2.01
   6  -5 -10    7.46    1.35
   6  -5 -10    7.25    1.16
   6  -5  -9    2.32    0.72
   6  -5  -8   15.63    1.80
   6  -5  -7   10.53    1.64
   6  -5   5    4.11    0.88
   6  -5   6   11.13    1.32
   6  -4 -13    9.79    1.26
   6  -4 -13    7.36    1.12
   6  -4 -13    8.16    1.12
   6  -4 -12    2.99    0.80
   6  -4 -12    3.59    0.96
   6  -4 -12    3.45    0.91
   6  -4 -11    2.40    0.87
   6  -4 -11    1.44    0.84
   6  -4 -11    2.70    0.87
   6  -4 -10   13.65    1.85
   6  -4 -10   12.42    1.80
   6  -4 -10   16.88    2.15
   6  -4  -9   61.01    4.25
   6  -4  -8  101.05    5.74
   6  -4  -7   18.14    2.35
   6  -4  -6   19.57    2.48
  -6  -4  -5  119.92    6.39
  -6  -4  -6    5.30    1.31
  -6  -4  -7   46.01    3.40
  -6  -4  -8   13.46    1.64
  -6  -4  -9   -0.24    0.34
   6  -4   9    0.26    0.34
   6  -3 -14    4.18    0.90
   6  -3 -14    4.81    0.96
   6  -3 -14    4.69    0.98
   6  -3 -14    4.94    0.96
   6  -3 -13   14.85    1.86
   6  -3 -13   12.02    1.61
   6  -3 -13   12.01    1.78
   6  -3 -13   11.32    1.64
   6  -3 -13   12.97    1.76
   6  -3 -13   11.67    1.70
   6  -3 -12   50.21    3.73
   6  -3 -12   48.08    3.92
   6  -3 -12   49.40    3.68
   6  -3 -12   46.51    3.66
   6  -3 -11   51.10    3.96
   6  -3 -11   45.81    3.68
   6  -3 -11   44.05    4.02
   6  -3 -11   52.15    3.94
   6  -3 -11   51.61    4.02
   6  -3 -10   47.76    3.85
   6  -3 -10   43.77    3.62
   6  -3 -10   48.47    4.07
   6  -3  -9    4.89    1.23
   6  -3  -9    5.58    1.36
   6  -3  -9    4.81    1.33
   6  -3  -8   62.31    4.46
   6  -3  -8   57.18    4.30
   6  -3  -8   53.78    4.43
   6  -3  -7    6.85    1.50
   6  -3  -7    6.42    1.57
   6  -3  -6  262.50   10.74
   6  -3  -5   27.37    2.84
   6  -3  -4   65.05    4.97
   6  -3  -3  130.97    7.31
   6  -3  -2   76.50    5.49
   6  -3  -1  198.94    9.40
   6  -3   0   66.46    4.98
  -6  -3  -4  151.04    8.04
   6  -3   4  150.78    8.24
   6  -3   5   24.61    3.14
  -6  -3  -5   28.94    3.30
  -6  -3  -6   75.91    5.26
   6  -3   6   72.87    5.35
  -6  -3  -6   64.35    4.67
  -6  -3  -7   61.13    4.47
   6  -3   7   61.21    4.70
  -6  -3  -7   53.27    4.12
  -6  -3  -7   55.15    4.00
  -6  -3  -8   54.25    3.95
  -6  -3  -8   49.49    3.76
  -6  -3  -8   49.37    3.62
   6  -3   8   51.76    4.11
  -6  -3  -9   92.93    4.90
  -6  -3  -9   91.02    4.91
   6  -3   9   99.65    5.42
  -6  -3  -9   86.33    4.62
  -6  -3 -10   17.02    1.80
  -6  -3 -10   17.18    1.88
   6  -3  10   17.22    1.97
   6  -3  10   19.41    1.91
  -6  -3 -10   15.77    1.70
  -6  -3 -11   11.29    1.29
  -6  -3 -11   11.91    1.32
   6  -3  11   11.08    1.32
   6  -3  11    8.96    1.09
  -6  -3 -11   10.94    1.22
   6  -2 -15    5.33    0.94
   6  -2 -15    9.22    1.33
   6  -2 -15    6.64    1.05
   6  -2 -15    7.60    1.10
   6  -2 -15    7.96    1.21
   6  -2 -15    8.18    1.33
   6  -2 -14   35.97    2.91
   6  -2 -14   39.86    3.10
   6  -2 -14   38.98    3.12
   6  -2 -14   39.44    3.01
   6  -2 -14   43.18    3.29
   6  -2 -13   10.35    1.72
   6  -2 -13   11.00    1.73
   6  -2 -13   11.06    1.89
   6  -2 -13   10.61    1.73
   6  -2 -13   12.90    1.90
   6  -2 -12    4.49    1.17
   6  -2 -12    4.53    1.33
   6  -2 -12    6.38    1.47
   6  -2 -12    4.64    1.24
   6  -2 -11   11.78    2.02
   6  -2 -11   12.81    2.03
   6  -2 -11   13.48    2.47
   6  -2 -11   13.30    2.13
   6  -2 -11   12.78    2.08
   6  -2 -10  120.41    6.59
   6  -2 -10  138.47    7.84
   6  -2 -10  118.10    6.35
   6  -2 -10  125.19    6.87
   6  -2  -9   77.58    5.11
   6  -2  -9   74.08    4.88
   6  -2  -9   78.44    5.35
   6  -2  -8   88.62    5.46
   6  -2  -8   83.35    5.20
   6  -2  -8   87.85    5.68
   6  -2  -7   40.10    3.46
   6  -2  -7   35.49    3.25
   6  -2  -7   41.76    3.83
   6  -2  -6  195.85    8.86
  -6  -2   6  202.66   17.04
   6  -2  -6  179.24    7.81
   6  -2  -6  181.94   15.92
  -6  -2   5  166.09   15.25
  -6  -2   5  178.87   16.06
   6  -2  -5  171.88   15.14
  -6  -2   4  232.77   17.94
  -6  -2   4  276.17   19.42
   6  -2  -3   34.42    6.57
  -6  -2   3   64.00    9.19
   6  -2  -2   19.81    4.70
  -6  -2   2   35.47    6.68
   6  -2  -1   -0.96    1.15
   6  -2  -1    0.62    1.62
  -6  -2   1   -3.02    1.90
  -6  -2   0  529.58   26.57
   6  -2   0  548.52   28.41
  -6  -2   0  567.73   28.43
   6  -2   0  528.48   26.24
  -6  -2  -1   74.37    9.68
   6  -2   1   67.85    8.84
   6  -2   1   79.21   10.37
  -6  -2  -1   46.23    7.74
   6  -2   1   68.03    8.88
  -6  -2  -2  279.16   20.05
   6  -2   2  244.79   17.84
   6  -2   2  281.35   20.17
  -6  -2  -2  280.97   19.88
   6  -2   2  245.29   17.47
  -6  -2  -3   42.34    3.91
   6  -2   3   34.79    6.76
   6  -2   3   42.88    3.98
  -6  -2  -3   34.28    3.33
  -6  -2  -3   31.37    6.71
  -6  -2  -4   21.08    2.87
   6  -2   4   19.49    2.75
  -6  -2  -4   17.99    2.41
  -6  -2  -5  284.75   10.96
  -6  -2  -5  260.53   10.46
  -6  -2  -6  112.85    6.68
  -6  -2  -6  105.17    6.21
  -6  -2  -6  106.24    6.16
  -6  -2  -7   10.84    2.01
  -6  -2  -7   12.85    2.06
  -6  -2  -7   11.95    1.91
  -6  -2  -8    6.66    1.39
  -6  -2  -8    7.76    1.56
  -6  -2  -8    7.64    1.50
  -6  -2  -9   13.33    1.98
  -6  -2  -9   16.17    2.08
   6  -2   9   16.60    2.05
  -6  -2  -9   19.82    2.23
  -6  -2 -10  144.23    6.31
   6  -2  10  147.83    6.84
  -6  -2 -10  136.56    6.23
   6  -2  10  132.25    5.90
  -6  -2 -10  134.27    6.08
  -6  -2 -11    2.61    0.69
  -6  -2 -11    1.92    0.64
   6  -2  11    1.90    0.72
   6  -2  11    1.00    0.40
  -6  -2 -11    1.84    0.64
   6  -2  12   29.21    2.30
  -6  -2 -12   26.09    2.00
  -6  -2 -12   27.21    1.98
   6  -1 -16    2.90    0.64
   6  -1 -16    3.54    0.70
   6  -1 -16    2.25    0.58
   6  -1 -15    0.34    0.32
   6  -1 -15    0.68    0.32
   6  -1 -15    1.07    0.53
   6  -1 -15    1.46    0.72
   6  -1 -14   13.41    1.81
   6  -1 -14   11.39    1.74
   6  -1 -14   11.31    1.82
   6  -1 -14   10.20    1.68
   6  -1 -13   26.29    2.82
   6  -1 -13   28.71    2.86
   6  -1 -13   21.87    2.75
   6  -1 -13   28.91    3.03
   6  -1 -13   26.43    2.82
   6  -1 -13   27.81    2.90
   6  -1 -12   26.18    2.87
   6  -1 -12   25.41    3.02
   6  -1 -12   28.10    2.99
   6  -1 -11  107.46    6.07
   6  -1 -11  117.94    6.71
   6  -1 -11  105.92    6.07
   6  -1 -10    2.85    0.85
   6  -1 -10    1.93    1.33
   6  -1 -10    3.36    1.25
   6  -1 -10    3.12    1.04
   6  -1  -9   30.59    3.19
   6  -1  -9   24.85    2.84
   6  -1  -9   23.39    2.75
   6  -1  -8   40.18    3.67
   6  -1  -8   31.50    3.10
   6  -1  -8   31.59    3.16
  -6  -1   7   35.98    7.27
   6  -1  -7   37.71    3.30
  -6  -1   7   38.38    7.30
   6  -1  -7   47.24    8.26
   6  -1  -7   33.96    3.23
  -6  -1   6   92.04   11.39
  -6  -1   6   84.64   10.37
   6  -1  -6   62.22    9.04
   6  -1  -5    0.61    1.22
  -6  -1   5   -3.08    2.06
  -6  -1   5    1.26    1.72
  -6  -1   4  224.80   16.73
   6  -1  -4  207.35   15.76
  -6  -1   3  729.72   31.54
   6  -1  -3  687.22   29.74
  -6  -1   2   80.76    8.81
  -6  -1   2   95.99   10.57
   6  -1  -2   88.40    9.48
  -6  -1   1  764.75   30.79
  -6  -1   1  786.92   31.17
   6  -1  -1  761.94   31.92
   6  -1  -1  789.17   30.81
  -6  -1   0  160.74   13.21
   6  -1   0  164.05   13.80
  -6  -1   0  118.34   11.80
   6  -1   0  157.00   12.47
  -6  -1  -1  190.15   14.96
   6  -1   1  169.69   14.45
  -6  -1  -1  191.73   15.10
   6  -1   1  186.52   14.69
  -6  -1  -2   90.69   10.56
   6  -1   2   98.15   10.85
   6  -1   2   85.19   10.36
  -6  -1  -2   90.13   10.43
  -6  -1  -3  193.18   16.11
   6  -1   3  169.32   14.78
   6  -1   3  173.36   15.06
  -6  -1  -3  179.97   15.12
  -6  -1  -4  172.42    8.14
  -6  -1  -4  179.38   16.02
   6  -1   4  153.87   14.56
   6  -1   4  164.54   14.87
  -6  -1  -4  166.97    7.78
  -6  -1  -5   55.65    4.43
  -6  -1  -5   56.26    4.33
  -6  -1  -5   52.14    4.19
  -6  -1  -6  376.13   13.01
  -6  -1  -6  345.59   12.39
  -6  -1  -6  357.23   12.58
  -6  -1  -7  338.38   12.09
  -6  -1  -7  287.54   11.26
  -6  -1  -7  308.73   11.47
   6  -1   7  352.12   11.96
  -6  -1  -7  301.82   11.45
  -6  -1  -8  102.37    5.96
  -6  -1  -8   92.65    5.71
  -6  -1  -8  100.05    5.82
   6  -1   8  107.20    6.00
  -6  -1  -8   99.18    5.83
  -6  -1  -9  174.12    7.63
  -6  -1  -9  146.02    7.06
  -6  -1  -9  156.13    7.26
  -6  -1  -9  165.97    7.42
  -6  -1 -10    4.16    1.12
  -6  -1 -10    4.07    1.11
  -6  -1 -10    4.86    1.11
  -6  -1 -10    4.34    1.12
   6  -1  10    4.18    1.06
  -6  -1 -10    3.28    1.01
   6  -1  11    5.45    1.21
  -6  -1 -11    5.60    1.14
  -6  -1 -11    5.21    1.04
  -6  -1 -11    5.89    1.21
  -6  -1 -11    5.15    1.05
  -6  -1 -12   57.99    3.38
  -6  -1 -12   51.39    2.95
   6  -1  13   32.88    2.18
  -6  -1 -13   28.30    2.00
   6   0 -16    2.75    0.68
   6   0 -16    2.59    0.67
   6   0 -15    1.07    0.61
   6   0 -15    0.21    0.46
   6   0 -14   73.35    4.68
   6   0 -14   68.23    4.46
   6   0 -13    6.32    1.43
   6   0 -13    6.21    1.50
   6   0 -13    3.89    1.01
   6   0 -12    6.14    1.41
   6   0 -12    4.14    1.21
   6   0 -12    3.06    0.92
   6   0 -12    4.50    1.19
   6   0 -11    2.00    1.01
   6   0 -11    1.00    0.51
   6   0 -11    2.64    0.95
   6   0 -11    2.96    1.14
   6   0 -10  183.23    8.65
   6   0 -10  165.80    8.05
   6   0 -10  182.38    8.39
   6   0  -9    0.72    0.38
   6   0  -8  105.96    6.18
   6   0  -8   99.74    5.81
  -6   0   8   94.75   11.39
   6   0  -8   96.61   12.16
   6   0  -8   92.11    5.56
  -6   0   8   90.10   11.74
  -6   0   7   49.47    8.40
  -6   0   7   45.59    7.55
   6   0  -7   56.88    9.00
  -6   0   6  619.10   30.81
  -6   0   6  585.86   28.31
   6   0  -6  646.29   31.04
   6   0  -5   13.49    3.97
  -6   0   5    8.58    3.41
  -6   0   5    7.55    2.95
  -6   0   4  705.95   30.07
   6   0  -4  685.92   29.92
  -6   0   4  687.06   28.54
  -6   0   3   47.53    6.88
  -6   0   3   42.43    6.81
   6   0  -3   42.08    6.51
   6   0  -2   11.39    3.58
  -6   0   2   12.94    3.63
  -6   0   2   11.88    3.47
  -6   0   1   15.21    3.93
  -6   0   1   15.71    4.28
   6   0   0 1355.68   46.16
  -6   0   0 1371.17   45.84
  -6   0   0 1364.80   45.19
  -6   0  -1   10.96    3.35
   6   0   1    8.85    3.37
  -6   0  -1    6.90    2.72
  -6   0  -2  806.30   32.72
   6   0   2  606.79   30.11
  -6   0  -3  237.86   17.21
   6   0   3  253.78   18.26
   6   0   4   11.05    3.82
  -6   0  -4   16.58    4.51
   6   0   4   16.30    4.94
  -6   0  -5  183.75    8.31
  -6   0  -5  183.14    8.38
   6   0   5  165.44   15.84
  -6   0  -5  192.86    8.44
   6   0   5  206.28    8.82
  -6   0  -5  187.94    8.34
  -6   0  -6  608.97   17.77
  -6   0  -6  567.26   17.61
  -6   0  -6  632.17   17.98
   6   0   6  646.51   18.51
  -6   0  -6  577.70   17.41
  -6   0  -7  104.39    5.97
  -6   0  -7  101.05    6.04
  -6   0  -7   98.44    5.92
  -6   0  -7  111.28    6.24
  -6   0  -7  104.94    5.96
  -6   0  -8    9.24    1.73
  -6   0  -8    8.76    1.72
  -6   0  -8    7.08    1.49
  -6   0  -8   12.43    2.07
  -6   0  -8    7.79    1.61
  -6   0  -9   15.91    2.26
  -6   0  -9   13.60    2.05
  -6   0  -9   16.74    2.32
  -6   0  -9   15.89    2.23
  -6   0  -9   15.84    2.20
  -6   0 -10  318.96   10.89
  -6   0 -10  288.50   10.46
  -6   0 -10  279.91   10.38
  -6   0 -10  314.59   10.82
  -6   0 -10  305.34   10.53
   6   0  11    1.65    0.67
  -6   0 -11    1.24    0.62
  -6   0 -11    1.22    0.62
  -6   0 -12   27.16    2.36
   6   0  12   27.27    2.40
  -6   0 -12   28.71    2.52
  -6   0 -13    9.22    1.15
   6   1 -16    3.77    0.83
   6   1 -15    1.04    0.52
   6   1 -14   12.94    1.89
   6   1 -13   27.08    2.98
   6   1 -12   31.29    3.37
   6   1 -12   26.09    2.87
   6   1 -11  116.73    6.83
   6   1 -11  105.88    6.21
   6   1 -10    3.92    1.31
   6   1 -10    2.37    0.89
   6   1  -9   25.62    3.22
   6   1  -9   25.83    3.00
   6   1  -8   28.97    2.97
  -6   1   7   33.04    6.91
  -6   1   6   64.63    9.61
  -6   1   6   55.36    8.36
  -6   1   6   72.74    9.20
  -6   1   5    0.44    1.22
  -6   1   5    1.31    1.34
  -6   1   5    1.71    1.16
  -6   1   4  201.94   16.06
  -6   1   4  192.86   14.97
  -6   1   3  651.90   30.51
  -6   1   3  609.13   28.08
  -6   1   2   75.26    9.67
  -6   1   2   77.53    9.19
  -6   1   1  822.20   33.98
  -6   1   1  931.50   37.43
  -6   1   0  171.32   14.38
  -6   1  -1  191.86   15.65
   6   1   1  164.73   14.51
  -6   1  -2   89.68   10.93
   6   1   2   88.80   10.63
  -6   1  -3  188.58   16.56
   6   1   3  184.42   15.90
  -6   1  -4  199.84    8.99
  -6   1  -4  194.81   17.26
   6   1   4  183.17   16.39
  -6   1  -5   56.72    4.50
   6   1   5   53.04    4.50
  -6   1  -5   48.52    4.07
   6   1   5   56.18    4.66
  -6   1  -6  371.48   12.90
   6   1   6  376.74   13.61
  -6   1  -6  350.90   12.44
  -6   1  -6  339.33   12.42
  -6   1  -6  329.65   12.20
  -6   1  -7  311.50   11.36
  -6   1  -7  303.18   11.11
  -6   1  -7  296.42   11.12
  -6   1  -7  276.85   10.81
  -6   1  -8   96.37    5.77
  -6   1  -8   96.38    5.76
  -6   1  -8   92.54    5.68
  -6   1  -8   93.03    5.73
  -6   1  -9  159.85    7.48
  -6   1  -9  155.65    7.43
  -6   1  -9  152.87    7.33
   6   1   9  166.07    8.11
  -6   1 -10    1.99    0.71
  -6   1 -10    2.63    0.94
  -6   1 -10    0.29    0.40
  -6   1 -11    7.63    1.35
  -6   1 -11    5.66    1.12
  -6   1 -11    7.24    1.33
  -6   1 -12   60.50    3.36
  -6   1 -12   52.43    3.01
   6   2 -15    7.63    1.23
   6   2 -14   34.06    2.93
   6   2 -13    6.93    1.39
   6   2 -12    3.76    1.14
   6   2 -11   15.66    2.36
  -6   2  11   10.41    1.77
   6   2 -11   10.72    1.97
   6   2 -10  136.39    7.73
   6   2 -10  112.29    6.46
  -6   2  10  125.36    6.64
   6   2 -10  124.90    6.77
   6   2  -9   76.40    5.19
   6   2  -9   87.46    5.57
   6   2  -8   70.49    4.99
   6   2  -8   73.98    5.14
   6   2  -7   44.37    3.88
   6   2  -7   46.04    4.00
   6   2  -6  181.59    8.23
  -6   2   6  176.80   15.98
  -6   2   6  152.16   14.86
  -6   2   5  159.89   14.98
   6   2  -5  159.30    7.59
  -6   2   5  158.21   14.57
  -6   2   4  239.77   18.26
  -6   2   4  225.68   17.22
  -6   2   3   49.45    7.81
  -6   2   2   31.69    6.28
  -6   2   1    1.62    2.62
  -6   2   0  537.77   28.82
  -6   2  -1   65.27    9.78
  -6   2  -2  281.85   11.34
  -6   2  -2  299.46   22.68
  -6   2  -2  278.27   10.66
  -6   2  -2  279.08   10.98
  -6   2  -3   47.89    4.36
  -6   2  -3   43.23    3.86
  -6   2  -3   44.24    4.04
  -6   2  -4   16.84    2.55
  -6   2  -4   17.82    2.44
  -6   2  -4   16.30    2.48
  -6   2  -5  328.94   12.75
  -6   2  -5  306.05   11.66
  -6   2  -5  310.28   12.20
  -6   2  -6  127.25    7.34
  -6   2  -6  119.14    6.77
  -6   2  -6  135.88    7.43
  -6   2  -7   21.82    2.84
  -6   2  -7   21.02    2.73
  -6   2  -7   22.68    2.94
  -6   2  -8    7.59    1.52
  -6   2  -8    5.52    1.40
  -6   2  -8    6.66    1.47
  -6   2  -9   15.52    2.12
  -6   2  -9   15.24    2.15
  -6   2  -9   18.42    2.37
  -6   2 -10  157.83    6.86
  -6   2 -10  146.16    6.56
  -6   2 -10  139.28    6.35
  -6   2 -11    2.58    0.77
  -6   2 -11    3.05    0.80
  -6   2 -11    2.44    0.70
  -6   2 -12   28.81    2.10
   6   3 -14    5.42    0.95
   6   3 -13   12.49    1.69
  -6   3  13    9.00    1.29
   6   3 -12   46.75    3.67
  -6   3  12   50.02    3.55
   6   3 -11   42.11    3.80
  -6   3  11   44.41    3.55
   6   3 -10   42.05    4.13
  -6   3  10   42.53    3.62
  -6   3   9    8.10    1.58
   6   3  -9    7.75    1.68
   6   3  -9    7.84    1.62
   6   3  -8   62.43    4.72
   6   3  -8   52.36    4.41
   6   3  -7    3.62    1.08
   6   3  -7    3.95    1.32
   6   3  -6  239.11    9.86
   6   3  -6  237.11   10.47
   6   3  -5   35.83    3.52
   6   3  -4   65.20    4.82
  -6   3   4   67.47    5.02
   6   3  -3  126.48    7.06
  -6   3   3  134.34    7.29
   6   3  -2   69.29    4.90
  -6   3   2   81.60    5.28
   6   3  -2   70.45    5.26
  -6   3   2   72.07    5.08
   6   3  -1  211.48    8.98
   6   3  -1  216.31   10.21
  -6   3   1  222.99    9.49
  -6   3   1  213.96    9.44
  -6   3   0   67.97    4.80
   6   3   0   59.83    5.35
  -6   3   0   64.45    4.77
  -6   3   0   62.88    4.82
  -6   3  -1   42.47    3.79
  -6   3  -1   41.86    3.89
  -6   3  -1   41.90    4.07
  -6   3  -2   49.64    4.15
  -6   3  -2   41.82    4.05
  -6   3  -2   49.22    4.53
  -6   3  -3   28.91    3.18
  -6   3  -3   21.27    2.90
  -6   3  -3   22.46    3.14
  -6   3  -4  163.22    8.02
  -6   3  -4  183.06    9.25
  -6   3  -4  191.44    9.77
  -6   3  -5   23.24    2.86
  -6   3  -5   29.03    3.46
  -6   3  -5   27.89    3.52
  -6   3  -6   67.79    4.85
  -6   3  -6   80.17    5.74
  -6   3  -6   76.66    5.70
  -6   3  -7   49.23    3.96
  -6   3  -7   49.24    4.22
  -6   3  -7   52.23    4.35
  -6   3  -8   48.56    3.75
  -6   3  -8   49.53    3.89
  -6   3  -8   45.11    3.73
  -6   3  -9   89.73    4.93
  -6   3  -9   83.50    4.69
  -6   3  -9   80.30    4.61
  -6   3 -10   14.76    1.64
  -6   3 -10   12.26    1.50
  -6   3 -11   15.44    1.58
  -6   4  12    2.19    0.63
  -6   4  11    0.82    0.37
  -6   4  10   13.54    1.75
  -6   4   9   59.79    3.97
  -6   4   8   90.28    5.09
   6   4  -7   13.09    2.15
  -6   4   7    9.10    1.61
  -6   4   6   19.16    2.42
   6   4  -6   22.50    2.82
  -6   4   5   88.01    5.50
   6   4  -5   92.49    5.95
  -6   4   4  158.05    7.92
   6   4  -4  162.24    8.33
   6   4  -3   17.68    2.68
  -6   4   2   46.28    4.05
  -6   4   2   39.63    3.87
   6   4  -1    1.88    0.95
  -6   4   1    3.29    1.17
  -6   4   1    2.31    0.98
   6   4  -1    1.13    1.00
   6   4   0  134.26    7.08
  -6   4   0  152.04    7.53
  -6   4   0  136.23    7.71
   6   4   1   65.54    4.68
  -6   4  -1   71.51    4.99
  -6   4  -1   70.31    5.51
   6   4   2   52.09    4.14
  -6   4  -2   59.54    4.54
  -6   4  -2   63.76    5.44
   6   4   3    2.55    0.97
  -6   4  -3    2.10    1.30
  -6   4  -3    2.24    0.97
  -6   4  -4    6.07    1.33
  -6   4  -4    6.16    1.86
  -6   4  -4    6.71    1.82
  -6   4  -5  111.14    6.08
  -6   4  -5  120.42    7.26
  -6   4  -5  124.46    7.42
  -6   4  -6    7.89    1.74
  -6   4  -6    3.83    0.99
  -6   4  -6    7.23    1.62
  -6   4  -7   44.47    3.32
  -6   4  -7   39.00    3.35
  -6   4  -8   14.70    1.78
  -6   4  -8   13.01    1.68
  -6   4  -9    0.56    0.38
  -6   5  10    5.43    0.88
  -6   5   9    2.34    0.69
  -6   5   8   15.16    1.81
  -6   5   7    9.94    1.58
  -6   5   6   41.60    3.12
  -6   5   6   43.06    3.47
  -6   5   5    2.36    0.90
  -6   5   5    1.61    0.81
  -6   5   4   47.63    3.95
  -6   5   4   48.49    4.22
  -6   5   3   19.47    2.74
  -6   5   3   18.19    2.73
  -6   5   2   60.84    5.15
  -6   5   2   64.62    5.40
  -6   5   1   68.36    5.79
   6   5   0   47.87    3.87
  -6   5   0   45.75    4.81
   6   5   1   18.28    2.35
  -6   5  -1   21.35    3.11
  -6   5  -1   17.67    2.30
   6   5   2   15.66    2.08
  -6   5  -2   13.50    2.34
  -6   5  -2   14.27    2.04
   6   5   3    7.57    1.41
  -6   5  -3    5.98    1.34
  -6   5  -3    6.94    1.41
   6   5   4   55.55    3.60
  -6   5  -4   63.25    4.05
  -6   5  -5    4.96    1.06
  -6   5  -6   13.99    1.57
  -6   6   4   43.31    2.86
  -6   6   3   11.49    1.62
  -6   6   2    3.91    0.94
  -6   6   1    0.43    0.64
  -6   6   0   14.53    1.87
  -6   6  -1   26.75    2.31
   7  -5  -9    7.54    1.23
   7  -5  -9    8.34    1.15
   7  -5  -8   10.46    1.33
   7  -5  -8   13.75    1.59
   7  -5  -7    2.60    0.77
   7  -5  -6    2.80    0.80
   7  -5  -5   11.00    1.45
   7  -5  -4   12.88    1.66
   7  -5  -2   16.34    1.87
   7  -5  -1    3.41    0.85
   7  -5   3   11.44    1.42
   7  -5   4   21.13    1.79
   7  -4 -12    3.13    0.70
   7  -4 -12    2.51    0.63
   7  -4 -11   17.36    1.81
   7  -4 -11   20.49    2.02
   7  -4 -10    8.11    1.33
   7  -4 -10    6.92    1.23
   7  -4 -10    6.98    1.47
   7  -4 -10    8.63    1.43
   7  -4  -9   83.15    4.61
   7  -4  -9   69.96    4.05
   7  -4  -8   13.58    1.91
   7  -4  -8   11.41    1.67
   7  -4  -7    7.53    1.53
   7  -4  -7    8.90    1.54
   7  -4  -6  142.58    6.72
   7  -4  -4   59.71    4.15
   7  -4  -3   16.30    2.12
   7  -4  -1  140.70    7.04
   7  -4   2   27.71    2.70
   7  -4   3   23.02    2.43
   7  -4   4  120.81    6.17
   7  -4   4  125.94    5.85
   7  -4   5   70.89    4.37
   7  -4   5   74.36    4.20
   7  -4   6   32.74    2.69
   7  -4   6   38.30    2.79
  -7  -4  -7   25.00    1.97
   7  -4   7   30.20    2.33
   7  -4   7   32.19    2.37
   7  -4   8   44.50    2.56
   7  -3 -13    6.29    1.04
   7  -3 -13   12.41    1.54
   7  -3 -13   11.83    1.44
   7  -3 -13    7.26    1.12
   7  -3 -13   11.53    1.51
   7  -3 -13   11.74    1.53
   7  -3 -12   25.86    2.44
   7  -3 -12   19.52    2.16
   7  -3 -12   25.31    2.38
   7  -3 -12   24.83    2.45
   7  -3 -11   16.44    2.12
   7  -3 -11   15.35    1.87
   7  -3 -11   15.73    2.24
   7  -3 -11   17.67    2.11
   7  -3 -11   17.48    2.21
   7  -3 -10   17.50    2.17
   7  -3 -10   17.19    2.47
   7  -3 -10   15.79    2.04
   7  -3 -10   19.48    2.34
   7  -3 -10   18.80    2.37
   7  -3  -9   11.00    1.81
   7  -3  -9   12.18    1.88
   7  -3  -9   11.98    2.01
   7  -3  -8   30.99    3.04
   7  -3  -8   30.60    3.03
   7  -3  -8   33.02    3.35
   7  -3  -7   21.25    2.51
   7  -3  -7   24.60    2.69
   7  -3  -7   24.73    2.96
   7  -3  -6    2.71    1.04
   7  -3  -6    1.77    0.90
   7  -3  -5   10.77    1.84
   7  -3  -4   11.51    2.15
   7  -3  -4   10.94    1.93
   7  -3  -4   11.26    1.79
   7  -3  -3  151.84    8.19
   7  -3  -3  160.09    7.70
   7  -3  -3  155.85    7.27
   7  -3  -2   28.13    3.37
   7  -3  -2   27.77    3.03
   7  -3  -1   31.66    3.40
   7  -3  -1   25.55    3.19
   7  -3   0   26.08    3.08
   7  -3   0   26.08    3.34
   7  -3   0   25.40    2.78
   7  -3   1   82.79    5.60
   7  -3   1   72.20    4.77
   7  -3   2  167.26    8.15
   7  -3   2  151.99    7.20
   7  -3   2  162.02    8.47
   7  -3   3   18.11    2.64
   7  -3   3   19.09    2.33
   7  -3   4    4.31    1.32
   7  -3   4    0.78    0.60
  -7  -3  -5   73.88    4.75
   7  -3   5   75.83    5.25
   7  -3   5   68.45    4.33
  -7  -3  -6   13.32    1.93
   7  -3   6   14.82    1.88
  -7  -3  -7  159.19    6.72
   7  -3   7  164.01    7.28
   7  -3   7  144.89    6.19
   7  -3   8    5.88    1.21
  -7  -3  -8    6.49    1.16
   7  -3   8    6.63    1.17
  -7  -3  -9   25.32    2.09
   7  -3   9   27.96    2.30
   7  -3   9   25.06    2.04
  -7  -3  -9   20.82    1.73
   7  -3  10   25.10    1.89
   7  -2 -15   11.85    1.34
   7  -2 -14    9.69    1.25
   7  -2 -14    8.33    1.25
   7  -2 -14    9.97    1.26
   7  -2 -14   12.12    1.49
   7  -2 -14   13.15    1.63
   7  -2 -13   18.55    2.01
   7  -2 -13   21.42    2.22
   7  -2 -13   18.07    2.04
   7  -2 -13   20.83    2.21
   7  -2 -13   20.00    2.13
   7  -2 -13   20.99    2.29
   7  -2 -12   25.93    2.58
   7  -2 -12   23.86    2.65
   7  -2 -12   26.60    2.74
   7  -2 -12   28.19    2.77
   7  -2 -11   66.04    4.50
   7  -2 -11   70.93    4.58
   7  -2 -11   69.90    5.04
   7  -2 -11   75.77    4.82
   7  -2 -11   69.55    4.74
   7  -2 -10   13.11    2.14
   7  -2 -10   13.53    2.00
   7  -2 -10   11.46    2.21
   7  -2 -10   13.07    2.11
   7  -2 -10   11.34    1.93
   7  -2  -9  241.67    9.48
   7  -2  -9  231.13   10.31
   7  -2  -9  228.89    9.11
   7  -2  -9  227.58    9.64
   7  -2  -8   75.42    4.94
   7  -2  -8   64.17    4.46
   7  -2  -8   70.94    5.03
   7  -2  -7   23.60    2.76
   7  -2  -7   21.52    2.53
   7  -2  -7   21.49    2.59
   7  -2  -7   25.33    3.02
   7  -2  -6  415.99   13.96
   7  -2  -6  445.16   14.11
   7  -2  -5  105.11    6.43
   7  -2  -5   94.88    5.72
   7  -2  -5  101.04    5.71
   7  -2  -4  203.76    9.26
   7  -2  -4  186.46    8.36
   7  -2  -4  188.35    8.11
   7  -2  -3   69.37    4.92
   7  -2  -3   65.73    5.01
   7  -2  -3   64.83    4.62
   7  -2  -3   68.55    4.58
   7  -2  -2   45.14    3.95
   7  -2  -2   40.59    3.91
   7  -2  -2   40.40    3.57
   7  -2  -1  101.33    6.09
   7  -2  -1   93.19    5.52
   7  -2   0  107.92    6.28
   7  -2   0  106.44    5.95
   7  -2   0  100.37    6.37
   7  -2   1   93.63    6.10
   7  -2   1   91.29    5.70
   7  -2   1   89.47    5.41
   7  -2   2  115.55    6.88
   7  -2   2  110.68    6.08
   7  -2   3   82.43    5.70
   7  -2   3   68.11    4.68
  -7  -2  -4  417.87   14.00
  -7  -2  -4  397.60   13.60
   7  -2   4  405.37   13.15
   7  -2   4  441.77   14.76
  -7  -2  -5   35.14    3.37
  -7  -2  -5   28.89    3.10
   7  -2   5   31.21    3.40
   7  -2   5   29.59    2.91
  -7  -2  -6  111.90    6.16
  -7  -2  -6  102.39    5.90
   7  -2   6  108.04    6.37
   7  -2   6  107.68    5.67
  -7  -2  -6   96.81    5.59
  -7  -2  -7   65.25    4.43
   7  -2   7   60.11    4.48
  -7  -2  -7   61.72    4.32
   7  -2   7   53.52    3.85
  -7  -2  -7   58.52    4.08
  -7  -2  -8   56.38    3.90
   7  -2   8   57.39    4.15
  -7  -2  -8   53.94    3.83
   7  -2   8   51.77    3.55
  -7  -2  -8   49.50    3.57
  -7  -2  -9   85.43    4.59
   7  -2   9   95.03    5.11
  -7  -2  -9   87.02    4.64
   7  -2   9   81.38    4.34
  -7  -2  -9   89.93    4.58
  -7  -2 -10   30.23    2.35
   7  -2  10   33.27    2.66
   7  -2  10   25.70    2.07
  -7  -2 -10   28.84    2.24
  -7  -2 -11    6.59    0.96
   7  -2  11    6.33    0.91
   7  -2  11    6.30    0.99
   7  -1 -15    0.14    0.24
   7  -1 -15    0.47    0.38
   7  -1 -15    0.23    0.28
   7  -1 -14    0.15    0.41
   7  -1 -14    0.46    0.46
   7  -1 -14   -0.22    0.47
   7  -1 -13   66.45    4.20
   7  -1 -13   69.95    4.42
   7  -1 -13   64.65    4.20
   7  -1 -12    5.75    1.33
   7  -1 -12    4.82    1.21
   7  -1 -12    4.86    1.23
   7  -1 -11    0.77    0.75
   7  -1 -11    0.97    0.70
   7  -1 -11    0.02    0.71
   7  -1 -10   42.80    3.76
   7  -1 -10   29.13    3.23
   7  -1 -10   35.46    3.39
   7  -1 -10   37.44    3.50
   7  -1  -9  126.36    6.75
   7  -1  -9  117.87    6.25
   7  -1  -9  122.61    6.53
   7  -1  -8    4.29    1.32
   7  -1  -8    4.06    1.18
   7  -1  -8    5.03    1.38
   7  -1  -7   14.68    2.21
   7  -1  -7   12.88    1.96
   7  -1  -7   15.00    2.17
   7  -1  -6   49.02    4.01
   7  -1  -6   43.79    3.66
   7  -1  -6   45.31    3.88
   7  -1  -6   47.74    3.88
   7  -1  -5    4.58    2.63
  -7  -1   5   12.66    4.30
   7  -1  -5    9.67    1.73
   7  -1  -5   10.65    1.85
   7  -1  -5   11.00    1.86
   7  -1  -5   11.87    1.93
  -7  -1   4  187.78   16.92
   7  -1  -4  174.43    8.10
  -7  -1   4  196.14   16.60
   7  -1  -4  178.71    8.02
   7  -1  -4  179.94    7.86
   7  -1  -4  182.20   15.78
   7  -1  -3  445.40   14.53
  -7  -1   3  492.85   27.54
   7  -1  -3  464.86   14.43
   7  -1  -3  477.22   14.29
   7  -1  -3  455.49   14.54
   7  -1  -3  449.67   25.13
   7  -1  -2    0.47    0.64
  -7  -1   2    5.01    2.56
   7  -1  -1  132.46    6.98
   7  -1  -1  123.95    6.60
   7  -1  -1  136.22    6.75
  -7  -1   1  134.54   13.67
   7  -1  -1  136.41    6.59
   7  -1   0   20.22    2.50
  -7  -1   0   20.35    5.55
   7  -1   0   22.74    5.59
   7  -1   0   23.11    2.78
   7  -1   0   21.30    2.56
  -7  -1   0   19.50    5.11
  -7  -1  -1  214.86   17.44
   7  -1   1  234.93    9.76
   7  -1   1  241.71    9.58
  -7  -1  -1  213.86   17.60
   7  -1   1  232.21    9.44
   7  -1   2   92.05    5.78
   7  -1   2   97.06    5.72
  -7  -1  -3   28.78    3.13
   7  -1   3   32.59    3.37
   7  -1   3   32.11    3.19
  -7  -1  -4   41.26    3.78
   7  -1   4   37.58    3.67
  -7  -1  -4   39.97    3.69
   7  -1   4   42.40    3.75
  -7  -1  -4   36.11    3.45
  -7  -1  -5  177.19    8.30
   7  -1   5  165.56    8.02
  -7  -1  -5  162.90    7.83
   7  -1   5  174.50    7.97
  -7  -1  -5  160.10    7.77
  -7  -1  -6   73.52    5.05
   7  -1   6   72.02    5.02
  -7  -1  -6   66.61    4.75
   7  -1   6   70.28    4.83
  -7  -1  -6   65.72    4.71
  -7  -1  -7   86.58    5.40
   7  -1   7   84.56    5.38
  -7  -1  -7   79.77    5.08
   7  -1   7   89.43    5.35
  -7  -1  -7   83.65    5.21
  -7  -1  -8   49.76    3.86
   7  -1   8   46.37    3.79
  -7  -1  -8   43.91    3.59
   7  -1   8   48.65    3.72
  -7  -1  -8   45.80    3.66
  -7  -1  -9   46.93    3.52
   7  -1   9   46.11    3.56
   7  -1   9   45.05    3.33
  -7  -1  -9   42.99    3.31
  -7  -1 -10   15.76    1.86
   7  -1  10   16.41    1.95
   7  -1  10   11.86    1.47
  -7  -1 -11   14.12    1.56
   7  -1  11   14.49    1.63
   7  -1  11   12.64    1.35
   7   0 -15    2.30    0.59
   7   0 -15    2.18    0.57
   7   0 -14   25.90    2.52
   7   0 -14   22.51    2.27
   7   0 -13    4.13    1.11
   7   0 -13    3.50    0.99
   7   0 -13    3.91    0.98
   7   0 -12    1.62    0.85
   7   0 -12   -0.69    0.68
   7   0 -12    0.92    0.57
   7   0 -11   39.17    3.53
   7   0 -11   45.20    3.85
   7   0 -10   14.90    2.23
   7   0 -10   17.91    2.46
   7   0  -9  216.53    9.27
   7   0  -8   63.36    4.80
   7   0  -8   69.02    4.84
   7   0  -8   58.79    4.49
   7   0  -7   48.23    4.07
   7   0  -7   45.52    3.85
   7   0  -7   43.92    3.76
   7   0  -6  347.43   12.24
   7   0  -6  363.61   12.14
   7   0  -6  355.63   12.22
   7   0  -6  305.78   11.45
   7   0  -6  331.24   22.67
   7   0  -5   15.58    4.71
  -7   0   5   26.29    6.22
   7   0  -5   19.51    2.45
  -7   0   5   19.95    5.10
   7   0  -5   21.52    2.53
  -7   0   4  108.55   11.81
  -7   0   3  146.73   13.85
  -7   0   3  130.00   12.54
  -7   0   2   13.35    4.10
  -7   0   2   10.92    3.75
  -7   0   1   39.48    7.12
  -7   0   1   41.72    7.33
  -7   0   0  102.14   11.87
  -7   0   0  114.34   12.27
   7   0   1   65.98    4.79
  -7   0  -1   61.43    9.32
   7   0   1   64.62    4.71
   7   0   1   65.09    9.74
   7   0   1   70.97    4.81
  -7   0  -2  290.08   11.22
   7   0   2  313.03   11.67
   7   0   2  315.06   11.65
   7   0   2  320.30   11.47
  -7   0  -3  972.14   26.21
   7   0   3 1027.83   26.71
   7   0   3 1078.19   26.88
   7   0   3 1055.92   26.42
  -7   0  -4  461.00   15.21
   7   0   4  471.04   15.49
   7   0   4  499.33   15.48
  -7   0  -5   69.27    4.98
   7   0   5   69.14    5.10
   7   0   5   82.47    5.41
  -7   0  -6   47.18    3.98
   7   0   6   46.91    4.14
   7   0   6   52.45    4.25
   7   0   7    2.67    0.89
  -7   0  -7    3.04    0.93
   7   0   7    2.93    1.03
   7   0   8   16.74    2.34
  -7   0  -8   13.10    1.96
   7   0   8   16.06    2.17
  -7   0  -9   93.86    5.24
   7   0   9   91.67    5.33
  -7   0 -10   77.85    4.42
   7   0  10   70.91    4.30
  -7   0 -10   76.61    4.51
  -7   0 -11   21.23    1.97
   7   0  11   21.77    2.00
  -7   0 -11   23.22    2.17
  -7   0 -12   12.24    1.26
   7   1 -15    0.64    0.42
   7   1 -14   -0.53    0.50
   7   1 -13   66.35    4.41
   7   1 -12   10.16    1.80
   7   1 -12   11.05    1.82
   7   1 -11    1.15    0.76
   7   1 -11    0.88    0.63
   7   1 -10   45.10    4.09
   7   1 -10   36.19    3.50
   7   1  -9  128.10    7.32
   7   1  -9  113.22    6.58
   7   1  -8   10.65    2.13
   7   1  -8    6.21    1.42
   7   1  -7   13.56    2.14
   7   1  -6   33.52    3.35
  -7   1   5   11.85    4.53
  -7   1   5    6.31    2.90
   7   1  -5   13.36    2.14
  -7   1   5    7.43    3.29
  -7   1   4  222.30   18.78
  -7   1   4  187.54   16.75
   7   1  -4  206.35    8.95
  -7   1   4  166.13   15.07
  -7   1   3  426.62   25.76
   7   1  -3  414.93   13.78
  -7   1   3  415.06   24.52
  -7   1   2   -0.61    1.86
   7   1  -2    0.24    0.47
  -7   1   1  133.38   13.58
   7   1  -1  137.81    6.98
  -7   1   0   23.23    5.75
   7   1   0   24.22    2.81
  -7   1  -1  189.23    8.65
   7   1   1  195.85    8.94
   7   1   1  190.09    8.64
  -7   1  -1  178.59    8.19
   7   1   1  197.42    8.73
  -7   1  -1  196.34    8.86
  -7   1  -2   88.50    5.72
   7   1   2   82.19    5.50
  -7   1  -2   82.30    5.34
   7   1   2   91.86    5.91
   7   1   2   88.06    5.63
  -7   1  -2   91.71    5.82
  -7   1  -3   33.23    3.41
   7   1   3   35.34    3.63
  -7   1  -3   32.14    3.28
   7   1   3   36.83    3.64
  -7   1  -3   35.21    3.56
  -7   1  -4   41.59    3.82
   7   1   4   43.38    4.11
  -7   1  -4   37.98    3.60
   7   1   4   39.77    3.88
  -7   1  -4   41.38    3.87
  -7   1  -5  134.26    6.99
   7   1   5   92.98    6.33
  -7   1  -5  127.69    6.82
   7   1   5   95.70    6.30
  -7   1  -5  150.34    7.52
  -7   1  -6   70.78    4.89
  -7   1  -6   67.49    4.79
  -7   1  -6   74.99    5.18
  -7   1  -7   83.83    5.24
   7   1   7  101.21    6.20
  -7   1  -7   83.57    5.25
  -7   1  -7   91.87    5.64
  -7   1  -8   46.87    3.70
   7   1   8   52.29    4.16
  -7   1  -8   43.04    3.51
  -7   1  -8   53.89    4.05
  -7   1  -9   45.09    3.48
  -7   1  -9   44.09    3.29
  -7   1  -9   50.88    3.73
  -7   1 -10   12.01    1.61
  -7   1 -10   11.56    1.64
  -7   1 -11   13.27    1.47
  -7   1 -11    9.54    1.29
   7   2 -14   11.77    1.46
   7   2 -13   21.33    2.24
   7   2 -12   24.13    2.58
   7   2 -11   50.51    4.14
   7   2 -11   70.90    4.71
   7   2 -10   10.72    1.95
  -7   2  10    8.72    1.58
   7   2 -10   11.03    1.87
   7   2 -10    8.41    1.68
   7   2  -9  207.94    9.11
   7   2  -9  238.16    9.78
   7   2  -8   52.73    4.35
   7   2  -8   60.45    4.66
   7   2  -7   20.34    2.62
   7   2  -7   21.47    2.76
   7   2  -6  438.12   14.49
   7   2  -5   83.83    5.45
   7   2  -4  198.51    8.83
  -7   2   3   65.06    4.66
   7   2  -3   68.79    4.90
  -7   2   2   45.29    3.83
   7   2  -2   43.68    3.91
  -7   2   2   41.33    3.79
  -7   2   2   37.87    3.60
  -7   2   1  101.91    5.95
   7   2  -1  101.19    6.21
  -7   2   1  101.63    6.09
  -7   2   1   94.55    5.88
  -7   2   0  104.78    6.09
   7   2   0  107.66    6.53
  -7   2   0   99.52    6.01
  -7   2   0   92.51    5.90
  -7   2  -1   98.32    5.93
   7   2   1  103.04    6.60
  -7   2  -1   96.80    6.00
  -7   2  -1   96.16    6.08
  -7   2  -2  111.97    6.73
  -7   2  -2  117.64    6.59
   7   2   2  127.88    7.59
  -7   2  -2  113.49    6.61
  -7   2  -3   82.30    5.58
  -7   2  -3   81.18    5.40
  -7   2  -3   86.01    5.62
  -7   2  -4  433.47   14.57
  -7   2  -4  427.59   14.28
  -7   2  -4  420.84   14.32
  -7   2  -5   20.60    2.69
  -7   2  -5   20.29    2.64
  -7   2  -5   21.70    2.74
  -7   2  -6  102.14    5.96
  -7   2  -6  106.76    6.10
  -7   2  -6  101.19    5.98
  -7   2  -7   59.95    4.28
  -7   2  -7   61.44    4.41
  -7   2  -7   59.95    4.34
  -7   2  -8   52.16    3.83
  -7   2  -8   48.18    3.65
  -7   2  -8   47.44    3.60
  -7   2  -9   76.87    4.39
  -7   2  -9   75.64    4.34
  -7   2  -9   74.55    4.26
  -7   2 -10   24.32    2.11
  -7   2 -10   26.26    2.20
  -7   2 -10   25.43    2.14
  -7   3  12   24.44    2.15
  -7   3  11   14.23    1.81
  -7   3  10   11.60    1.72
   7   3  -9   15.06    2.23
  -7   3   9   15.69    2.14
   7   3  -9   14.19    2.16
   7   3  -8   30.88    3.20
   7   3  -8   29.40    3.19
   7   3  -7   26.11    2.96
   7   3  -7   24.37    3.01
   7   3  -6    6.51    1.50
   7   3  -6    3.73    1.19
   7   3  -5   19.01    2.58
   7   3  -4   18.22    2.50
   7   3  -3  137.51    7.42
  -7   3   3  132.54    7.18
  -7   3   2   28.39    3.08
   7   3  -2   28.09    3.27
  -7   3   2   26.67    3.04
  -7   3   1   23.62    2.82
   7   3  -1   25.74    3.21
  -7   3   1   28.80    3.20
  -7   3   0   25.61    2.90
  -7   3   0   25.24    3.03
   7   3   0   16.94    2.82
  -7   3   0   27.78    3.16
  -7   3  -1   69.27    4.86
  -7   3  -1   60.70    4.69
  -7   3  -1   62.52    4.86
  -7   3  -2  159.12    7.65
  -7   3  -2  141.97    7.49
  -7   3  -2  153.41    7.99
  -7   3  -3   20.33    2.63
  -7   3  -3   21.82    2.80
  -7   3  -3   22.45    2.91
  -7   3  -4    3.05    1.19
  -7   3  -4    3.30    0.94
  -7   3  -4    5.23    1.36
  -7   3  -5   56.72    4.22
  -7   3  -5   54.31    4.30
  -7   3  -5   59.41    4.52
  -7   3  -6   20.30    2.40
  -7   3  -6   19.23    2.38
  -7   3  -6   16.55    2.23
  -7   3  -7  171.84    7.19
  -7   3  -7  149.13    6.77
  -7   3  -7  156.07    6.91
  -7   3  -8    7.21    1.29
  -7   3  -8    8.87    1.45
  -7   3  -8    8.51    1.40
  -7   3  -9   30.58    2.38
  -7   3  -9   25.23    2.06
  -7   3  -9   26.15    2.10
  -7   4  11   16.03    1.63
  -7   4  10    8.66    1.30
  -7   4   9   73.11    4.16
  -7   4   8   10.51    1.58
   7   4  -7   11.99    1.91
  -7   4   7   10.09    1.60
  -7   4   6  124.67    6.17
   7   4  -6  149.60    7.23
  -7   4   5   91.90    5.44
   7   4  -5  105.27    6.15
  -7   4   4   56.18    4.39
   7   4  -4   58.47    4.67
   7   4  -3   16.99    2.61
   7   4  -2   18.74    2.84
  -7   4   1  154.19    7.34
   7   4  -1  135.84    8.18
  -7   4   1  147.02    7.58
  -7   4   0   24.73    2.79
  -7   4   0   21.66    2.77
  -7   4  -1   73.72    4.89
  -7   4  -1   73.66    5.29
  -7   4  -2   35.44    3.30
  -7   4  -2   34.22    3.57
  -7   4  -3   19.11    2.37
  -7   4  -3   25.52    2.98
  -7   4  -4  142.66    6.63
  -7   4  -4  159.06    7.60
  -7   4  -5   71.05    4.24
  -7   4  -5   81.08    4.87
  -7   4  -6   39.54    2.95
  -7   4  -6   34.83    2.93
  -7   4  -7   37.30    2.62
  -7   4  -7   32.55    2.48
  -7   4  -8   48.87    2.71
  -7   5   9    6.99    0.96
  -7   5   8    7.80    1.13
  -7   5   7    1.95    0.64
  -7   5   6    2.70    0.69
  -7   5   6    4.50    0.99
  -7   5   5   12.39    1.63
  -7   5   5   13.86    1.86
  -7   5   4   13.94    1.92
  -7   5   4   16.61    2.17
  -7   5   3    9.37    1.67
  -7   5   3    7.00    1.53
  -7   5   2   23.49    2.82
  -7   5   2   21.16    2.63
  -7   5   1    3.36    1.24
  -7   5   0   11.31    2.05
  -7   5  -1    8.92    1.64
  -7   5  -2   47.07    3.53
  -7   5  -3   11.01    1.45
   8  -5  -6   11.66    1.34
   8  -5  -5    8.83    1.22
   8  -5  -4   28.63    2.25
   8  -5  -4   22.08    1.89
   8  -5  -3   11.97    1.43
   8  -5  -2    8.71    1.13
   8  -5  -1   34.92    2.36
   8  -5   0   39.88    2.52
   8  -5   1   16.02    1.51
   8  -5   2   19.73    1.59
   8  -4 -10    0.09    0.37
   8  -4 -10    0.92    0.48
   8  -4  -9    0.09    0.36
   8  -4  -9    0.62    0.47
   8  -4  -9    0.77    0.49
   8  -4  -9    0.91    0.63
   8  -4  -8   17.10    1.90
   8  -4  -8   14.96    1.70
   8  -4  -7   14.30    1.87
   8  -4  -7   14.59    1.80
   8  -4  -6   20.77    2.23
   8  -4  -6   19.32    2.18
   8  -4  -5    4.01    1.04
   8  -4  -5    4.31    0.96
   8  -4  -4    5.46    1.16
   8  -4  -3   44.00    3.32
   8  -4  -2   20.59    2.25
   8  -4  -1   69.95    4.36
   8  -4  -1   71.62    4.23
   8  -4   0    5.02    1.10
   8  -4   0    5.94    1.12
   8  -4   1   16.85    2.04
   8  -4   2  108.01    5.35
   8  -4   3   41.43    3.02
   8  -4   3   35.46    2.63
   8  -4   4   56.84    3.39
   8  -4   4   60.56    3.37
   8  -4   5    6.05    0.96
   8  -4   5    9.55    1.27
   8  -4   5    6.49    1.01
   8  -4   5    6.58    0.99
   8  -4   6    2.98    0.65
   8  -3 -12    5.64    0.92
   8  -3 -12    7.27    1.15
   8  -3 -12    3.70    0.79
   8  -3 -12    5.47    1.01
   8  -3 -11    9.08    1.44
   8  -3 -11    8.55    1.33
   8  -3 -11   10.69    1.57
   8  -3 -10   22.52    2.25
   8  -3 -10   17.84    2.07
   8  -3 -10   23.10    2.31
   8  -3 -10   25.68    2.57
   8  -3  -9   65.35    4.11
   8  -3  -9   56.10    4.00
   8  -3  -9   67.14    4.11
   8  -3  -9   68.31    4.47
   8  -3  -8   12.78    1.83
   8  -3  -8   11.04    1.71
   8  -3  -8   12.05    2.00
   8  -3  -7    1.97    0.89
   8  -3  -7    0.98    0.60
   8  -3  -7    1.11    0.74
   8  -3  -6   34.05    3.06
   8  -3  -6   28.98    2.81
   8  -3  -6   33.12    3.01
   8  -3  -6   32.35    3.29
   8  -3  -5   10.94    1.79
   8  -3  -5   11.06    1.75
   8  -3  -5   11.88    2.05
   8  -3  -4   32.41    3.45
   8  -3  -4   34.37    3.24
   8  -3  -4   32.24    3.03
   8  -3  -3    3.54    0.97
   8  -3  -3    3.49    1.09
   8  -3  -3    4.22    1.14
   8  -3  -2   19.61    2.67
   8  -3  -2   23.94    2.88
   8  -3  -2   17.32    2.17
   8  -3  -1   96.84    5.92
   8  -3  -1   93.91    6.15
   8  -3  -1   97.84    5.66
   8  -3  -1   90.74    5.13
   8  -3   0   85.36    5.50
   8  -3   0   90.11    5.96
   8  -3   0   84.01    5.14
   8  -3   0   74.23    4.73
   8  -3   1   99.80    5.93
   8  -3   1  104.55    6.42
   8  -3   1   92.99    5.27
   8  -3   2   15.12    2.18
   8  -3   2   10.33    1.99
   8  -3   2   12.08    1.78
   8  -3   3   43.66    3.61
   8  -3   3   38.36    3.15
   8  -3   4   10.61    1.72
   8  -3   4   10.16    1.54
   8  -3   5   47.59    3.62
   8  -3   5   54.38    3.78
   8  -3   5   51.05    3.43
   8  -3   6    2.94    0.79
  -8  -3  -6    3.43    0.77
   8  -3   6    3.28    0.92
   8  -3   6    4.38    0.93
  -8  -3  -7    2.25    0.66
   8  -3   7    1.71    0.53
   8  -3   7    2.11    0.62
   8  -3   8    8.46    1.12
   8  -3   8    6.84    0.94
   8  -3   8    7.30    0.98
   8  -2 -14    4.15    0.78
   8  -2 -13   19.76    1.88
   8  -2 -13   20.30    1.96
   8  -2 -12   38.07    2.85
   8  -2 -12   34.74    2.76
   8  -2 -12   37.41    2.94
   8  -2 -11    3.34    0.89
   8  -2 -11    2.69    0.91
   8  -2 -11    3.80    0.94
   8  -2 -10   12.63    1.82
   8  -2 -10   11.68    1.82
   8  -2 -10   10.86    1.71
   8  -2  -9   23.87    2.64
   8  -2  -9   21.93    2.45
   8  -2  -9   27.72    2.94
   8  -2  -8   79.34    4.92
   8  -2  -8   67.92    4.43
   8  -2  -8   65.55    4.73
   8  -2  -7   50.28    4.00
   8  -2  -7   53.10    3.88
   8  -2  -7   48.71    4.06
   8  -2  -6  125.46    6.46
   8  -2  -6  115.67    5.99
   8  -2  -6  114.55    6.16
   8  -2  -5   20.71    2.75
   8  -2  -5   20.86    2.58
   8  -2  -5   21.30    2.49
   8  -2  -4   -0.29    0.98
   8  -2  -4   -0.25    0.43
   8  -2  -4    0.75    0.78
   8  -2  -3  178.94    8.66
   8  -2  -3  168.43    7.83
   8  -2  -3  167.12    7.52
   8  -2  -2   97.05    5.96
   8  -2  -2   95.29    6.15
   8  -2  -2   97.90    5.71
   8  -2  -2   87.50    5.36
   8  -2  -2   88.82    5.25
   8  -2  -1  160.57    7.85
   8  -2  -1  163.67    8.28
   8  -2  -1  157.50    7.46
   8  -2  -1  144.49    7.18
   8  -2  -1  160.87    7.28
   8  -2   0    2.72    1.06
   8  -2   0    0.62    0.52
   8  -2   0    1.70    0.81
   8  -2   1   20.87    2.68
   8  -2   1   18.89    2.40
   8  -2   2  299.82   11.54
   8  -2   2  279.25   10.70
   8  -2   2  272.25   10.26
   8  -2   3   44.94    4.01
   8  -2   3   40.44    3.58
   8  -2   3   43.07    3.57
  -8  -2  -4  161.10    7.33
   8  -2   4  178.36    8.24
   8  -2   4  167.84    7.27
   8  -2   4  158.15    7.37
  -8  -2  -5   45.57    3.57
   8  -2   5   45.69    3.83
   8  -2   5   44.94    3.54
   8  -2   5   44.54    3.42
  -8  -2  -6   13.41    1.82
   8  -2   6   14.79    2.07
   8  -2   6   15.24    1.94
   8  -2   6   15.35    1.88
  -8  -2  -7   73.97    4.25
   8  -2   7   74.06    4.48
   8  -2   7   73.85    4.26
   8  -2   7   67.96    3.94
  -8  -2  -8   27.20    2.28
   8  -2   8   27.85    2.47
   8  -2   8   27.71    2.35
   8  -2   8   21.27    1.90
   8  -2   8   25.96    2.18
  -8  -2  -9   74.14    3.47
   8  -2   9   67.46    3.19
   8  -1 -14   32.00    2.31
   8  -1 -14   19.67    1.83
   8  -1 -13    6.54    1.14
   8  -1 -13    7.49    1.30
   8  -1 -13    6.45    1.17
   8  -1 -12   51.73    3.55
   8  -1 -12   59.64    4.02
   8  -1 -12   51.02    3.54
   8  -1 -12   58.47    3.85
   8  -1 -11   90.82    5.10
   8  -1 -11   88.10    5.10
   8  -1 -11   84.21    4.81
   8  -1 -11   93.30    5.21
   8  -1 -10    9.86    1.72
   8  -1 -10   11.41    1.81
   8  -1  -9  128.56    6.71
   8  -1  -9  117.30    6.18
   8  -1  -9  122.85    6.44
   8  -1  -8   31.75    3.31
   8  -1  -8   28.74    2.94
   8  -1  -8   31.10    3.14
   8  -1  -7   35.13    3.47
   8  -1  -7   35.34    3.31
   8  -1  -7   31.98    3.25
   8  -1  -6  211.24    9.01
   8  -1  -6  207.44    8.63
   8  -1  -6  183.49    8.57
   8  -1  -5  167.53    7.55
   8  -1  -5  166.71    7.90
   8  -1  -5  167.46    7.74
   8  -1  -5  170.53    7.66
   8  -1  -4   38.02    3.52
   8  -1  -4   35.83    3.52
   8  -1  -4   39.59    3.54
   8  -1  -4   30.02    3.11
   8  -1  -4   37.35    3.37
   8  -1  -3   47.78    4.06
   8  -1  -3   45.62    3.83
   8  -1  -3   43.40    3.78
   8  -1  -3   49.93    3.96
   8  -1  -2   40.27    3.70
   8  -1  -2   37.54    3.62
   8  -1  -2   42.39    3.68
   8  -1  -2   41.53    3.69
   8  -1  -2   43.16    3.74
   8  -1  -1  616.54   18.30
   8  -1  -1  649.70   18.42
   8  -1  -1  627.73   18.36
   8  -1  -1  655.47   18.25
   8  -1   0  237.70    9.82
   8  -1   0  257.53   10.09
   8  -1   0  243.29    9.89
   8  -1   0  252.46    9.80
   8  -1   1  299.02   11.66
   8  -1   1  312.52   11.60
   8  -1   1  342.01   11.93
   8  -1   1  320.61   11.63
   8  -1   1  326.93   11.56
   8  -1   2   19.10    2.56
   8  -1   2   24.08    2.82
   8  -1   2   20.52    2.54
   8  -1   2   15.39    2.19
  -8  -1  -3   37.28    3.52
   8  -1   3   38.06    3.58
   8  -1   3   43.87    3.83
   8  -1   3   39.91    3.55
   8  -1   3   34.35    3.29
  -8  -1  -4   70.73    4.92
   8  -1   4   66.77    4.81
   8  -1   4   68.95    4.78
   8  -1   4   74.18    4.85
  -8  -1  -5  182.58    8.13
   8  -1   5  175.29    7.96
   8  -1   5  173.47    7.84
   8  -1   5  174.76    7.77
  -8  -1  -6   36.56    3.30
   8  -1   6   38.42    3.40
   8  -1   6   36.62    3.21
   8  -1   6   35.70    3.17
  -8  -1  -7   50.54    3.73
   8  -1   7   41.85    3.43
   8  -1   7   43.88    3.38
   8  -1   7   45.51    3.40
  -8  -1  -8   39.60    3.08
   8  -1   8   36.95    3.01
   8  -1   8   38.99    2.98
   8  -1   8   37.37    2.86
  -8  -1  -8   42.41    3.21
  -8  -1  -9   68.29    3.73
   8  -1   9   64.28    3.70
   8  -1   9   60.06    3.37
  -8  -1  -9   67.60    3.71
  -8  -1 -10   11.78    1.29
   8  -1  10   10.82    1.27
  -8  -1 -10   12.31    1.30
   8   0 -15    3.60    0.68
   8   0 -14   15.10    1.68
   8   0 -14   10.63    1.29
   8   0 -13    2.55    0.82
   8   0 -13    2.51    0.81
   8   0 -12   40.56    3.35
   8   0 -12   33.01    2.86
   8   0 -12   33.39    2.93
   8   0 -11   19.83    2.49
   8   0 -11   14.10    1.95
   8   0 -11   18.19    2.27
   8   0 -10    1.21    0.77
   8   0 -10    0.69    0.61
   8   0  -9    0.90    0.58
   8   0  -8   80.66    5.19
   8   0  -8   71.12    4.92
   8   0  -7   14.43    2.16
   8   0  -7   15.09    2.20
   8   0  -6  418.62   13.56
   8   0  -6  398.70   13.51
   8   0  -6  375.13   12.98
   8   0  -5  109.93    6.14
   8   0  -5  116.24    6.44
   8   0  -5  102.43    6.05
   8   0  -4   25.87    2.84
   8   0  -4   24.57    2.80
   8   0  -4   30.26    3.17
   8   0  -4   29.73    3.21
   8   0  -4   31.73    3.13
   8   0  -3  168.16    8.01
   8   0  -3  183.03    8.28
   8   0  -3  165.73    8.01
   8   0  -3  176.22    7.99
   8   0  -2  266.00   10.51
   8   0  -2  242.36   10.06
   8   0  -2  270.66   10.44
   8   0  -2  264.95   10.42
   8   0  -2  250.16    9.94
   8   0  -1  844.26   22.82
   8   0  -1  869.80   22.70
   8   0  -1  838.35   22.58
   8   0  -1  802.97   21.98
   8   0   0   47.89    4.16
   8   0   0   46.79    4.02
   8   0   0   44.77    3.88
   8   0   0   43.47    3.74
   8   0   1  115.91    6.71
   8   0   1  120.59    6.83
   8   0   1  126.22    6.80
   8   0   1  129.15    6.82
  -8   0  -2  569.02   17.47
   8   0   2  626.21   18.25
   8   0   2  649.39   18.39
   8   0   2  636.63   18.04
  -8   0  -2  587.28   17.73
  -8   0  -3   46.15    4.03
   8   0   3   47.63    4.13
   8   0   3   48.05    4.14
   8   0   3   47.56    4.03
  -8   0  -3   42.14    3.90
  -8   0  -4  186.80    8.52
   8   0   4  176.85    8.47
   8   0   4  192.73    8.74
   8   0   4  195.27    8.66
  -8   0  -4  180.37    8.58
  -8   0  -5  115.62    6.37
   8   0   5  112.50    6.39
   8   0   5  109.66    6.32
   8   0   5  112.69    6.27
  -8   0  -5  111.76    6.43
   8   0   6    2.18    0.85
  -8   0  -6    3.63    1.15
   8   0   6    3.79    1.18
  -8   0  -6    2.40    0.99
   8   0   6    2.66    0.93
  -8   0  -7  129.54    6.32
   8   0   7  122.61    6.28
   8   0   7  118.98    6.05
   8   0   7  125.63    6.13
  -8   0  -7  131.91    6.52
  -8   0  -8   35.07    2.95
   8   0   8   31.49    2.85
   8   0   8   28.95    2.53
  -8   0  -8   36.38    3.04
  -8   0  -9   66.14    3.82
   8   0   9   62.85    3.73
  -8   0  -9   74.28    4.09
  -8   0 -10    8.64    1.17
   8   0  10    7.91    1.07
  -8   0 -10    8.76    1.17
   8   1 -14   28.35    2.20
   8   1 -13    6.33    1.24
   8   1 -12   56.37    3.89
   8   1 -12   54.66    3.75
   8   1 -11   93.91    5.41
   8   1 -11   93.52    5.30
   8   1 -10    7.34    1.54
   8   1 -10    9.15    1.74
   8   1  -9  123.42    6.71
   8   1  -9  121.29    6.52
   8   1  -8   23.96    2.70
   8   1  -7   31.16    3.18
   8   1  -6  190.81    8.61
   8   1  -5  184.50    8.52
   8   1  -4   53.08    4.31
   8   1  -3   43.83    3.86
   8   1  -2   29.28    3.13
  -8   1   1  599.81   17.96
   8   1  -1  611.12   18.62
   8   1  -1  641.01   18.67
  -8   1   0  233.04    9.67
   8   1   0  260.65   10.42
   8   1   0  269.02   10.41
  -8   1   0  246.23   10.03
  -8   1   0  222.63    9.66
  -8   1  -1  348.31   12.44
  -8   1  -1  346.98   12.09
   8   1   1  391.68   12.93
  -8   1  -1  363.44   12.63
  -8   1  -2   18.96    2.56
   8   1   2   13.71    2.22
  -8   1  -2   15.87    2.26
   8   1   2   19.45    2.63
  -8   1  -2   17.25    2.50
  -8   1  -3   37.94    3.61
   8   1   3   36.80    3.63
  -8   1  -3   42.54    3.88
  -8   1  -4   74.52    5.04
   8   1   4   85.38    5.48
  -8   1  -4   69.98    4.98
  -8   1  -5  181.45    7.94
   8   1   5  134.19    7.34
   8   1   5  140.93    7.28
  -8   1  -5  189.36    8.20
  -8   1  -6   34.13    3.16
   8   1   6   35.29    3.38
   8   1   6   35.82    3.23
  -8   1  -6   35.20    3.26
  -8   1  -7   46.64    3.51
   8   1   7   43.66    3.56
  -8   1  -7   47.97    3.65
  -8   1  -8   39.12    3.05
  -8   1  -8   44.25    3.30
  -8   1  -9   63.87    3.64
  -8   1  -9   68.20    3.81
  -8   1 -10   11.74    1.30
  -8   1 -10   10.09    1.17
   8   2 -13   13.70    1.44
   8   2 -12   37.81    2.74
   8   2 -11    3.34    1.01
  -8   2  10   11.66    1.68
   8   2 -10   11.21    1.71
   8   2 -10   12.48    1.93
   8   2  -9   18.90    2.37
   8   2  -9   19.07    2.45
   8   2  -8   84.83    5.34
   8   2  -8   93.26    5.68
   8   2  -7   63.36    4.58
   8   2  -7   61.84    4.67
   8   2  -6  109.12    6.26
   8   2  -6  119.91    6.76
   8   2  -5   17.12    2.44
   8   2  -4    0.90    0.68
   8   2  -3  181.05    8.39
  -8   2   2   91.27    5.63
   8   2  -2   82.72    5.52
  -8   2   1  165.16    7.79
   8   2  -1  163.94    8.03
  -8   2   1  154.63    7.76
  -8   2   1  141.21    7.34
  -8   2   0    0.18    0.47
  -8   2   0    0.62    0.45
   8   2   0   -0.20    0.53
  -8   2  -1   12.03    2.01
  -8   2  -1   15.43    2.31
  -8   2  -1   18.27    2.51
   8   2   1   15.57    2.34
  -8   2  -2  290.32   11.08
   8   2   2  312.10   11.96
  -8   2  -2  304.75   11.34
  -8   2  -2  300.11   11.34
  -8   2  -3   48.24    3.94
  -8   2  -3   47.73    3.96
  -8   2  -3   45.21    3.87
  -8   2  -4  192.32    8.36
  -8   2  -4  199.09    8.49
  -8   2  -4  191.31    8.37
  -8   2  -5   39.65    3.40
  -8   2  -5   40.23    3.41
  -8   2  -5   37.23    3.28
  -8   2  -6   12.92    1.83
  -8   2  -6   15.73    2.05
  -8   2  -6   13.17    1.84
  -8   2  -7   78.56    4.37
  -8   2  -7   77.17    4.41
  -8   2  -7   74.82    4.29
  -8   2  -8   27.80    2.28
  -8   2  -8   29.48    2.45
  -8   2  -8   32.16    2.53
  -8   2  -9   58.14    3.12
  -8   2  -9   55.98    3.04
  -8   3  11    9.92    1.30
  -8   3  10   27.70    2.43
   8   3  -9   66.23    4.33
  -8   3   9   58.87    3.87
   8   3  -8   11.62    1.86
   8   3  -8   11.35    1.83
   8   3  -7    0.70    0.62
   8   3  -7    0.30    0.35
   8   3  -6   29.30    2.99
   8   3  -6   31.77    3.26
   8   3  -5   10.95    1.88
   8   3  -4   40.41    3.63
  -8   3   3    3.72    1.13
   8   3  -3    5.50    1.40
   8   3  -2   14.32    2.24
  -8   3   2   15.31    2.27
  -8   3   1  117.68    6.26
   8   3  -1  109.00    6.50
  -8   3   1  102.19    6.07
  -8   3   0   97.84    5.69
  -8   3   0   97.35    5.81
  -8   3  -1  116.99    6.23
   8   3   1  116.38    6.83
  -8   3  -1  112.52    6.25
  -8   3  -1  111.29    6.27
  -8   3  -2   14.89    2.10
  -8   3  -2   10.60    1.78
  -8   3  -2   13.21    2.06
  -8   3  -3   48.39    3.74
  -8   3  -3   42.44    3.55
  -8   3  -3   40.78    3.51
  -8   3  -4   10.12    1.64
  -8   3  -4   11.83    1.80
  -8   3  -4    8.33    1.47
  -8   3  -5   59.07    3.90
  -8   3  -5   55.57    3.77
  -8   3  -5   56.06    3.77
  -8   3  -6    3.32    0.85
  -8   3  -6    4.59    1.03
  -8   3  -6    5.01    1.03
  -8   3  -7    1.78    0.54
  -8   3  -7    1.77    0.64
  -8   3  -7    0.85    0.47
  -8   3  -8    6.19    0.91
  -8   3  -8    5.86    0.89
  -8   3  -8    6.15    0.92
  -8   4  10    0.11    0.31
  -8   4   9    0.76    0.44
  -8   4   8   13.19    1.59
  -8   4   7   14.76    1.79
  -8   4   6   11.18    1.52
   8   4  -6   14.96    1.98
  -8   4   5    4.34    1.11
   8   4  -5    4.91    1.27
  -8   4   4    4.38    1.07
   8   4  -4    2.93    0.86
  -8   4   3   45.67    3.66
   8   4  -3   46.31    3.82
   8   4  -2   19.22    2.53
   8   4  -1   76.70    5.13
  -8   4   0    7.97    1.56
  -8   4  -1   18.20    2.14
  -8   4  -1   22.71    2.54
  -8   4  -2  101.96    5.17
  -8   4  -2   97.58    5.31
  -8   4  -3   48.00    3.29
  -8   4  -3   46.75    3.40
  -8   4  -4   76.68    4.01
  -8   4  -4   75.08    4.12
  -8   4  -5    7.71    1.20
  -8   4  -5    8.11    1.18
  -8   4  -6    3.71    0.72
  -8   4  -6    3.60    0.71
  -8   5   6    9.39    1.12
  -8   5   5    7.75    1.13
  -8   5   4   26.62    2.10
  -8   5   4   24.50    2.08
  -8   5   3   14.91    1.70
  -8   5   3   10.65    1.36
  -8   5   2   15.14    1.78
  -8   5   1   38.92    2.87
  -8   5   0   40.01    2.82
  -8   5  -1    8.02    1.14
   9  -4  -8    8.67    1.19
   9  -4  -8    9.76    1.18
   9  -4  -8   10.33    1.20
   9  -4  -7   28.31    2.15
   9  -4  -7   26.96    2.07
   9  -4  -6    7.78    1.22
   9  -4  -6    6.38    1.06
   9  -4  -5   23.47    2.08
   9  -4  -5   21.34    1.96
   9  -4  -4   81.55    4.04
   9  -4  -4   76.35    3.96
   9  -4  -4   73.39    3.82
   9  -4  -3   47.38    2.99
   9  -4  -3   46.41    3.02
   9  -4  -3   45.63    2.96
   9  -4  -2   15.29    1.69
   9  -4  -1    9.76    1.33
   9  -4  -1   10.31    1.37
   9  -4   0   29.55    2.32
   9  -4   0   31.79    2.37
   9  -4   1   19.12    1.80
   9  -4   1   20.98    1.82
   9  -4   2   27.46    2.07
   9  -4   2   29.33    2.08
   9  -4   3   12.20    1.29
   9  -4   3   12.80    1.25
   9  -3 -11   43.49    2.52
   9  -3 -10   11.74    1.43
   9  -3 -10    8.92    1.15
   9  -3 -10   10.68    1.42
   9  -3  -9    2.91    0.77
   9  -3  -9    3.42    0.81
   9  -3  -9    4.36    1.00
   9  -3  -8    9.52    1.41
   9  -3  -8    8.34    1.32
   9  -3  -8    9.92    1.53
   9  -3  -7   39.70    2.99
   9  -3  -7   35.89    2.81
   9  -3  -7   37.57    3.17
   9  -3  -6   98.44    4.94
   9  -3  -6   86.96    4.66
   9  -3  -6   97.38    5.40
   9  -3  -5   16.03    1.95
   9  -3  -5   13.38    1.73
   9  -3  -5   15.36    1.92
   9  -3  -5   14.64    2.03
   9  -3  -4   13.29    1.79
   9  -3  -4   12.30    1.70
   9  -3  -4   14.22    1.83
   9  -3  -3   89.42    5.45
   9  -3  -3   90.79    5.04
   9  -3  -3   94.18    4.90
   9  -3  -2   13.31    1.99
   9  -3  -2   11.58    1.79
   9  -3  -2   11.94    1.68
   9  -3  -1  195.05    8.37
   9  -3  -1  188.07    7.59
   9  -3  -1  171.67    6.96
   9  -3   0   16.04    2.09
   9  -3   0   12.97    1.92
   9  -3   0   13.28    1.83
   9  -3   0   13.92    1.74
   9  -3   0   14.99    1.81
   9  -3   1    7.10    1.38
   9  -3   1    5.04    1.16
   9  -3   1    6.55    1.25
   9  -3   1    6.23    1.15
   9  -3   1    7.48    1.28
   9  -3   2   35.53    2.98
   9  -3   2   38.43    3.18
   9  -3   2   34.39    2.78
   9  -3   2   35.14    2.72
   9  -3   2   32.89    2.57
   9  -3   3    5.98    1.19
   9  -3   3    6.17    1.17
   9  -3   3    6.24    1.14
   9  -3   3    6.66    1.14
   9  -3   3    7.54    1.17
   9  -3   4   47.86    3.15
   9  -3   4   41.44    2.93
   9  -3   4   48.00    3.01
   9  -3   4   44.05    2.83
   9  -3   4   40.40    2.56
   9  -3   5    4.75    0.90
   9  -3   5    2.84    0.68
   9  -3   5    2.65    0.67
   9  -3   5    4.14    0.80
   9  -3   5    4.09    0.68
   9  -3   6   14.08    1.38
   9  -3   6   13.79    1.29
   9  -3   6   14.21    1.32
   9  -2 -12   19.59    1.68
   9  -2 -12   24.60    1.96
   9  -2 -12   24.93    2.05
   9  -2 -11   20.07    1.88
   9  -2 -11   16.79    1.65
   9  -2 -11   21.96    2.11
   9  -2 -10   12.28    1.55
   9  -2 -10   13.83    1.80
   9  -2  -9   32.83    2.80
   9  -2  -9   30.66    2.63
   9  -2  -9   29.18    2.55
   9  -2  -9   33.76    2.92
   9  -2  -8   35.80    3.02
   9  -2  -8   36.81    2.95
   9  -2  -8   34.11    2.86
   9  -2  -8   36.71    3.15
   9  -2  -7   18.09    2.20
   9  -2  -7   15.86    1.96
   9  -2  -7   14.11    1.94
   9  -2  -6   77.99    4.73
   9  -2  -6   74.54    4.53
   9  -2  -6   77.57    4.95
   9  -2  -5   31.44    2.97
   9  -2  -5   30.84    2.84
   9  -2  -5   25.53    2.87
   9  -2  -5   30.84    2.90
   9  -2  -4  227.90    8.58
   9  -2  -4  228.24    9.49
   9  -2  -4  235.30    8.98
   9  -2  -4  215.97    8.47
   9  -2  -3    9.13    1.63
   9  -2  -3    8.08    1.62
   9  -2  -3    9.08    1.71
   9  -2  -3   10.84    1.70
   9  -2  -2   81.15    5.38
   9  -2  -2   85.68    5.09
   9  -2  -2   78.88    4.84
   9  -2  -2   89.55    5.01
   9  -2  -1   26.43    2.87
   9  -2  -1   24.09    2.81
   9  -2  -1   25.55    2.67
   9  -2  -1   25.26    2.66
   9  -2  -1   28.63    2.77
   9  -2   0   30.90    3.03
   9  -2   0   25.95    2.93
   9  -2   0   27.03    2.74
   9  -2   0   30.35    2.88
   9  -2   0   31.24    2.86
   9  -2   1   14.06    2.04
   9  -2   1   10.82    1.83
   9  -2   1   10.78    1.70
   9  -2   1    9.19    1.58
   9  -2   1   12.91    1.80
   9  -2   2   96.99    5.38
   9  -2   2   99.13    5.21
   9  -2   2  100.18    5.22
   9  -2   2  100.27    5.10
   9  -2   3    6.33    1.30
   9  -2   3    4.64    1.07
   9  -2   3    5.76    1.21
   9  -2   3    5.70    1.09
   9  -2   4    0.26    0.48
   9  -2   4   -0.05    0.34
   9  -2   4    0.33    0.45
   9  -2   4    0.54    0.36
   9  -2   5   13.96    1.75
   9  -2   5   13.70    1.62
   9  -2   5   13.37    1.61
   9  -2   6   78.61    3.99
   9  -2   6   71.65    3.57
   9  -2   6   75.72    3.76
   9  -2   7    1.18    0.42
   9  -2   7    1.03    0.40
   9  -1 -13    1.64    0.49
   9  -1 -13    3.19    0.64
   9  -1 -12    8.09    1.28
   9  -1 -12    5.45    1.01
   9  -1 -11   18.80    1.92
   9  -1 -11   24.71    2.40
   9  -1 -11   20.40    1.98
   9  -1 -11   23.68    2.27
   9  -1 -10   12.64    1.70
   9  -1 -10    9.20    1.46
   9  -1 -10    8.80    1.48
   9  -1  -9   13.01    1.85
   9  -1  -8   33.95    3.15
   9  -1  -8   36.75    3.14
   9  -1  -8   30.78    2.97
   9  -1  -7   38.42    3.28
   9  -1  -7   39.52    3.40
   9  -1  -6   74.28    4.88
   9  -1  -6   72.66    4.65
   9  -1  -5    9.32    1.62
   9  -1  -5    8.91    1.66
   9  -1  -4  249.44    9.41
   9  -1  -4  223.47    9.38
   9  -1  -4  231.88    9.32
   9  -1  -4  221.29    9.04
   9  -1  -4  250.39    9.50
   9  -1  -3  104.41    6.00
   9  -1  -3  111.50    6.01
   9  -1  -3  106.93    5.89
   9  -1  -3  115.14    6.07
   9  -1  -2   12.62    2.04
   9  -1  -2   13.61    1.99
   9  -1  -2   13.78    2.05
   9  -1  -2   15.69    2.16
   9  -1  -1  212.05    8.97
   9  -1  -1  204.73    9.01
   9  -1  -1  230.59    9.20
   9  -1  -1  214.07    8.93
   9  -1  -1  229.77    9.11
   9  -1   0   13.59    2.02
   9  -1   0   11.16    1.88
   9  -1   0   15.87    2.19
   9  -1   0   14.35    2.09
   9  -1   0   13.91    2.00
   9  -1   1   25.59    2.79
   9  -1   1   30.10    3.00
   9  -1   1   23.85    2.65
   9  -1   1   20.07    2.41
   9  -1   2   91.64    5.39
   9  -1   2   92.70    5.34
   9  -1   2   91.18    5.29
   9  -1   2   92.05    5.19
   9  -1   3   19.89    2.36
   9  -1   3   19.15    2.29
   9  -1   3   17.96    2.19
  -9  -1  -4   21.46    2.33
   9  -1   4   18.62    2.27
   9  -1   4   24.04    2.55
   9  -1   4   21.46    2.32
   9  -1   4   17.74    2.15
   9  -1   5    0.94    0.40
  -9  -1  -5    0.45    0.31
   9  -1   5    1.11    0.63
   9  -1   5    0.95    0.52
   9  -1   5    0.35    0.48
   9  -1   6    4.69    1.09
  -9  -1  -6    5.52    1.12
   9  -1   6    4.40    0.97
  -9  -1  -6    3.15    0.78
   9  -1   6    4.28    0.98
  -9  -1  -7   86.51    4.12
   9  -1   7   78.24    3.92
   9  -1   7   81.28    3.92
  -9  -1  -7   74.29    3.70
  -9  -1  -8    8.32    1.06
   9   0 -13    4.15    0.80
   9   0 -12   19.34    1.96
   9   0 -12   16.54    1.73
   9   0 -12   15.10    1.63
   9   0 -11   30.23    2.71
   9   0 -11   29.46    2.57
   9   0 -11   27.82    2.49
   9   0 -10   10.43    1.70
   9   0 -10   10.64    1.65
   9   0 -10    9.15    1.49
   9   0  -9   35.20    3.23
   9   0  -9   34.36    3.06
   9   0  -8   17.76    2.25
   9   0  -7    3.11    1.01
   9   0  -6    7.59    1.49
   9   0  -6    7.03    1.40
   9   0  -6    9.64    1.73
   9   0  -5   37.45    3.48
   9   0  -5   34.76    3.31
   9   0  -4  137.81    7.08
   9   0  -4  139.82    7.08
   9   0  -3   85.07    5.42
   9   0  -3   89.12    5.52
   9   0  -2   69.48    4.89
   9   0  -2   82.59    5.30
   9   0  -2   78.73    5.17
   9   0  -1    2.50    0.83
   9   0  -1    5.83    1.40
   9   0  -1    4.17    1.20
   9   0  -1    3.86    1.13
   9   0   0   11.22    1.97
   9   0   0    9.09    1.76
   9   0   0   12.06    1.98
   9   0   0   11.25    1.89
   9   0   0   12.68    1.97
   9   0   1    0.23    0.43
   9   0   1    0.11    0.43
   9   0   1    0.96    0.63
   9   0   2  110.42    6.14
   9   0   2  111.38    6.06
  -9   0  -3    1.94    0.76
   9   0   3    0.78    0.55
   9   0   3    0.14    0.48
  -9   0  -3    0.74    0.53
   9   0   3    1.61    0.91
  -9   0  -4   11.70    1.76
   9   0   4   10.33    1.71
   9   0   4   12.07    1.88
  -9   0  -4   12.91    1.89
  -9   0  -5    0.23    0.35
   9   0   5   -0.26    0.42
   9   0   5    0.50    0.49
  -9   0  -6   61.05    3.89
   9   0   6   55.10    3.57
   9   0   6   57.58    3.67
  -9   0  -6   55.39    3.65
  -9   0  -7   17.25    1.86
   9   0   7   14.82    1.60
  -9   0  -7   16.99    1.85
  -9   0  -8    1.91    0.49
  -9   0  -8    2.71    0.67
   9   1 -12    6.78    1.04
   9   1 -12    6.70    1.14
   9   1 -11   23.45    2.32
   9   1 -10   11.05    1.64
   9   1  -9   10.74    1.58
   9   1  -9   13.74    1.94
   9   1  -8   28.08    2.73
   9   1  -8   38.28    3.39
   9   1  -7   33.52    3.15
   9   1  -6   66.26    4.59
   9   1  -5    5.41    1.28
   9   1  -4  228.79    9.43
   9   1  -3  118.22    6.46
   9   1  -2   19.28    2.52
   9   1  -1  213.22    9.01
   9   1   0   13.60    2.09
   9   1   0   15.83    2.29
   9   1   1   22.99    2.72
   9   1   1   27.12    2.91
  -9   1  -1   17.74    2.31
  -9   1  -1   20.64    2.52
   9   1   2   85.37    5.27
  -9   1  -2   77.23    4.94
  -9   1  -2   76.27    4.92
   9   1   3   17.30    2.29
  -9   1  -3   16.18    2.17
  -9   1  -3   14.36    2.04
  -9   1  -4   16.15    2.09
   9   1   4   20.61    2.39
  -9   1  -4   17.69    2.21
  -9   1  -5    0.50    0.46
  -9   1  -5    0.92    0.46
   9   1   5    0.98    0.60
  -9   1  -6    4.81    1.04
  -9   1  -6    3.93    1.00
  -9   1  -7   83.93    4.23
  -9   1  -7   86.36    4.26
  -9   1  -8   10.11    1.22
  -9   1  -8    9.12    1.16
   9   2 -10   11.38    1.61
   9   2  -9   22.75    2.32
  -9   2   9   23.56    2.20
   9   2  -9   26.80    2.61
   9   2  -8   32.69    2.95
   9   2  -8   33.32    3.02
   9   2  -7   12.43    1.89
   9   2  -7   14.55    2.06
   9   2  -6   57.78    4.15
   9   2  -6   62.06    4.39
   9   2  -5   33.93    3.18
   9   2  -5   32.35    3.20
   9   2  -4  219.94    8.91
   9   2  -3   17.58    2.33
   9   2  -2   98.86    5.69
   9   2  -1   23.37    2.68
  -9   2   0   34.27    3.17
   9   2   0   34.58    3.31
  -9   2   0   34.62    3.25
  -9   2   0   32.38    3.09
  -9   2  -1    9.82    1.71
  -9   2  -1    8.98    1.58
  -9   2  -1    9.24    1.64
   9   2   1   10.04    1.71
  -9   2  -2   95.59    5.27
   9   2   2  101.59    5.63
  -9   2  -2   91.87    5.27
  -9   2  -2   89.74    5.20
  -9   2  -3    5.78    1.30
  -9   2  -3    5.26    1.17
  -9   2  -3    6.74    1.42
   9   2   3    5.58    1.16
  -9   2  -4    0.62    0.43
  -9   2  -4    0.75    0.43
  -9   2  -4    0.39    0.48
  -9   2  -5   13.13    1.64
  -9   2  -5   14.93    1.86
  -9   2  -5   13.30    1.69
  -9   2  -6   73.83    3.89
  -9   2  -6   70.42    3.76
  -9   2  -7    0.87    0.43
  -9   2  -7    0.99    0.41
  -9   3  10    8.05    1.05
  -9   3   9    3.10    0.71
  -9   3   8    9.25    1.33
   9   3  -8    8.75    1.39
   9   3  -7   38.06    3.04
   9   3  -7   34.23    2.84
   9   3  -6   85.72    4.79
   9   3  -5   15.66    2.03
   9   3  -4   15.64    2.06
   9   3  -3   88.31    5.08
   9   3  -2   11.83    1.77
  -9   3   2   10.30    1.67
   9   3  -1  171.90    7.48
  -9   3   1  168.22    7.27
   9   3   0   18.50    2.29
  -9   3   0   16.71    2.08
  -9   3  -1    4.91    1.12
  -9   3  -1    6.40    1.27
   9   3   1    5.81    1.22
  -9   3  -2   33.01    2.79
  -9   3  -2   28.71    2.63
  -9   3  -3    7.86    1.31
  -9   3  -3    6.97    1.22
  -9   3  -4   46.53    3.06
  -9   3  -4   45.51    3.02
  -9   3  -5    4.40    0.89
  -9   3  -5    4.26    0.86
  -9   3  -6   17.98    1.53
  -9   4   8    8.27    1.02
  -9   4   7   27.99    2.08
  -9   4   6    6.68    1.10
  -9   4   5   19.35    1.72
   9   4  -5   16.29    1.81
  -9   4   4   66.55    3.66
   9   4  -4   77.54    4.15
  -9   4   3   41.29    2.94
   9   4  -3   42.61    3.07
  -9   4   2   15.04    1.77
   9   4  -2   16.14    1.83
  -9   4   1   10.24    1.45
  -9   4   0   30.56    2.48
  -9   4  -1   19.67    1.89
  -9   4  -2   14.58    1.47
  10  -3  -8   22.58    1.86
  10  -3  -7   44.26    2.59
  10  -3  -7   51.27    2.83
  10  -3  -7   53.30    3.13
  10  -3  -6    5.85    0.95
  10  -3  -6    7.44    1.08
  10  -3  -6    8.32    1.22
  10  -3  -5    9.81    1.22
  10  -3  -5   10.50    1.30
  10  -3  -5   12.48    1.59
  10  -3  -4    8.10    1.10
  10  -3  -4   10.17    1.29
  10  -3  -4   10.93    1.49
  10  -3  -3   73.39    3.68
  10  -3  -3   67.50    3.64
  10  -3  -3   77.66    4.20
  10  -3  -2   41.68    2.68
  10  -3  -2   46.22    2.90
  10  -3  -1    3.13    0.76
  10  -3  -1    5.33    1.06
  10  -3  -1    3.57    0.85
  10  -3  -1    3.06    0.79
  10  -3   0    4.68    0.81
  10  -3   0    4.00    0.85
  10  -3   0    3.93    0.87
  10  -3   0    3.50    0.77
  10  -3   1   39.93    2.63
  10  -3   1   46.83    2.76
  10  -3   2   65.70    3.20
  10  -3   2   60.71    2.90
  10  -2 -10    8.75    1.12
  10  -2 -10   11.61    1.33
  10  -2  -9   33.67    2.51
  10  -2  -8   23.05    2.18
  10  -2  -7   27.32    2.29
  10  -2  -7   28.24    2.35
  10  -2  -7   32.40    2.70
  10  -2  -6   81.15    4.20
  10  -2  -6   90.07    4.47
  10  -2  -6   91.64    4.81
  10  -2  -5    3.17    0.86
  10  -2  -5    5.10    1.17
  10  -2  -4   43.84    3.06
  10  -2  -3    3.77    0.91
  10  -2  -3    4.23    1.05
  10  -2  -3    4.64    1.01
  10  -2  -2    1.63    0.62
  10  -2  -2    2.26    0.77
  10  -2  -2    3.34    0.93
  10  -2  -2    2.83    0.77
  10  -2  -2    4.13    1.00
  10  -2  -1   24.78    2.18
  10  -2  -1   28.79    2.72
  10  -2  -1   25.21    2.38
  10  -2  -1   27.19    2.40
  10  -2  -1   26.97    2.39
  10  -2   0   26.36    2.16
  10  -2   0   28.77    2.68
  10  -2   0   26.88    2.41
  10  -2   0   26.06    2.35
  10  -2   0   29.93    2.49
  10  -2   1   54.53    3.67
  10  -2   1   51.97    3.32
  10  -2   1   48.45    3.19
  10  -2   1   49.91    3.13
  10  -2   2    8.43    1.38
  10  -2   2    7.94    1.23
  10  -2   2    8.17    1.22
  10  -2   2    6.92    1.06
  10  -2   3   15.86    1.71
  10  -2   3   14.31    1.69
  10  -2   3   11.52    1.40
  10  -2   3   13.59    1.52
  10  -2   3   10.86    1.19
  10  -2   4  207.26    6.63
  10  -2   4  205.57    6.80
  10  -2   4  203.88    6.39
  10  -2   5   30.85    1.93
  10  -1 -11    0.46    0.27
  10  -1 -11    1.01    0.39
  10  -1 -10    2.88    0.70
  10  -1 -10    3.50    0.76
  10  -1 -10    2.24    0.64
  10  -1  -9   18.82    1.95
  10  -1  -9   22.12    2.06
  10  -1  -9   23.26    2.16
  10  -1  -8   13.84    1.76
  10  -1  -7   97.26    4.87
  10  -1  -7   97.06    5.00
  10  -1  -6    1.00    0.48
  10  -1  -6    0.74    0.48
  10  -1  -5    0.76    0.54
  10  -1  -4   34.90    2.86
  10  -1  -4   34.65    3.07
  10  -1  -4   30.87    2.72
  10  -1  -3  102.84    5.52
  10  -1  -3  100.67    5.24
  10  -1  -2   30.27    2.87
  10  -1  -2   28.97    2.76
  10  -1  -2   28.90    2.72
  10  -1  -1   27.04    2.68
  10  -1  -1   30.45    2.79
  10  -1  -1   28.99    2.70
  10  -1  -1   26.25    2.57
  10  -1   0   10.77    1.66
  10  -1   0    9.88    1.60
  10  -1   0   10.42    1.63
  10  -1   0    9.35    1.49
  10  -1   1   81.15    4.74
  10  -1   1   92.56    4.86
  10  -1   1   91.81    4.82
  10  -1   1   86.85    4.55
  10  -1   2   12.74    1.72
  10  -1   2   13.40    1.81
  10  -1   2   13.16    1.69
  10  -1   2   12.27    1.61
  10  -1   3   60.98    3.70
  10  -1   3   61.21    3.77
  10  -1   3   63.56    3.63
  10  -1   3   65.32    3.72
  10  -1   4   10.83    1.42
  10  -1   4    9.41    1.35
  10  -1   4    8.61    1.16
  10  -1   4    9.84    1.32
  10  -1   5    8.81    1.19
  10  -1   5    5.83    0.94
  10  -1   6   21.76    1.69
  10   0 -11    1.23    0.48
  10   0 -10   13.25    1.55
  10   0 -10   11.15    1.34
  10   0  -9   46.60    3.20
  10   0  -9   38.63    2.81
  10   0  -8   47.68    3.29
  10   0  -7   29.87    2.67
  10   0  -6   84.58    4.60
  10   0  -6   82.76    4.73
  10   0  -5    1.50    0.68
  10   0  -5    1.57    0.69
  10   0  -4   89.16    5.14
  10   0  -4   92.08    5.14
  10   0  -3   15.80    2.10
  10   0  -3   15.49    2.05
  10   0  -2   -0.19    0.53
  10   0  -2    0.15    0.38
  10   0  -1    6.86    1.32
  10   0  -1    8.67    1.53
  10   0   0   57.14    3.97
  10   0   0   53.85    3.86
  10   0   1   41.56    3.32
  10   0   1   45.41    3.41
  10   0   2    2.22    0.78
  10   0   2    2.25    0.79
  10   0   3    8.05    1.30
  10   0   3    8.82    1.44
  10   0   4  117.50    5.15
  10   0   4  131.56    5.46
 -10   0  -5    2.69    0.63
  10   0   5    2.52    0.63
  10   0   5    3.89    0.81
  10   1 -11    0.82    0.47
  10   1 -10    1.16    0.55
  10   1  -9   22.21    2.18
  10   1  -8   11.58    1.49
  10   1  -8   15.26    1.93
  10   1  -7   91.71    4.76
  10   1  -7  104.54    5.34
  10   1  -6    2.14    0.80
  10   1  -5    1.47    0.75
  10   1  -4   33.44    2.99
  10   1  -3  109.58    5.68
  10   1  -2   31.48    2.92
  10   1  -1   25.05    2.59
  10   1   0   10.84    1.76
  10   1   1   92.06    5.06
  10   1   2   13.74    1.81
 -10   1  -2   10.96    1.50
  10   1   3   68.74    3.96
 -10   1  -3   61.54    3.56
 -10   1  -3   57.23    3.45
 -10   1  -4    7.91    1.17
  10   1   4    9.40    1.33
 -10   1  -4    9.78    1.29
 -10   1  -5   11.21    1.29
  10   1   5    7.40    0.99
 -10   1  -5    9.03    1.16
  10   2  -9   25.81    2.02
  10   2  -9   18.86    1.85
  10   2  -8   22.96    2.09
 -10   2   8   19.34    1.74
  10   2  -8   25.20    2.24
  10   2  -7   30.18    2.54
  10   2  -7   31.71    2.60
  10   2  -6  104.11    5.10
  10   2  -6  101.63    5.01
  10   2  -5    3.58    0.94
  10   2  -5    2.33    0.73
  10   2  -4   35.08    2.92
  10   2  -3    2.94    0.88
  10   2  -2    3.67    0.98
  10   2  -1   25.67    2.48
  10   2   0   34.69    2.88
  10   2   1   54.66    3.51
 -10   2  -1   39.23    2.84
 -10   2  -2    7.00    1.14
  10   2   2    7.70    1.23
  10   2   3   12.16    1.38
 -10   2  -3   14.15    1.57
 -10   2  -4  191.28    6.29
  10   3  -7   56.33    3.15
 -10   3   7   48.95    2.76
  10   3  -6    6.83    1.10
  10   3  -5    9.39    1.33
 -10   3   4    8.23    1.14
  10   3  -4   10.20    1.40
  10   3  -3   78.93    4.14
  10   3  -2   47.09    3.08
  10   3  -1    2.83    0.78
  10   3   0    2.40    0.60
 -10   3  -1   36.29    2.36
  11  -2  -7   14.39    1.37
  11  -2  -6   13.95    1.40
  11  -2  -5    2.34    0.52
  11  -2  -5    2.64    0.64
  11  -2  -4    6.44    0.85
  11  -2  -4    6.88    1.03
  11  -2  -3   12.13    1.39
  11  -2   0    7.21    1.01
  11  -1  -8    5.04    0.80
  11  -1  -8    4.33    0.73
  11  -1  -7    9.36    1.17
  11  -1  -6    1.02    0.45
  11  -1  -5   11.28    1.40
  11  -1  -4   21.41    1.97
  11  -1  -3   18.44    1.70
  11  -1  -2   38.08    2.74
  11  -1  -2   34.37    2.40
  11  -1  -1   51.99    3.17
  11  -1  -1   47.08    2.86
  11  -1   0   17.98    1.78
  11  -1   0   16.63    1.61
  11  -1   1  116.19    4.92
  11  -1   1  171.12    5.51
  11  -1   2   19.40    1.65
  11  -1   2   24.49    1.78
  11   0  -9    1.33    0.41
  11   0  -8    3.41    0.73
  11   0  -7   12.11    1.47
  11   0  -6   47.64    2.79
  11   0  -5    7.02    1.04
  11   0  -5    6.32    1.02
  11   0  -4    5.54    0.98
  11   0  -4    4.27    0.92
  11   0  -3    8.79    1.28
  11   0  -3    8.50    1.21
  11   0  -2   98.99    4.63
  11   0  -1    0.97    0.51
  11   0  -1    0.76    0.43
  11   0   0    3.47    0.83
  11   0   0    2.71    0.71
  11   0   1    1.48    0.52
  11   0   1    0.71    0.42
  11   0   2   40.92    2.42
  11   0   2   49.57    2.76
  11   0   3    0.02    0.25
  11   1  -8    3.46    0.71
  11   1  -7    8.00    1.02
  11   1  -7    7.71    1.12
  11   1  -6    1.98    0.57
  11   1  -6    1.35    0.55
  11   1  -5   16.29    1.68
  11   1  -5   18.49    1.83
  11   1  -4   26.18    2.20
  11   1  -4   26.53    2.23
  11   1  -3   25.56    2.20
  11   1  -2   41.87    2.85
  11   1  -1   61.26    3.51
  11   1   0   14.44    1.59
  11   1   1  127.83    4.98
  11   1   2   23.51    1.78
  11   2  -6    9.93    1.17
  11   2  -5    4.46    0.84
  11   2  -4   11.33    1.35
  11   2  -3   13.07    1.42
  11   2  -2   18.05    1.67
  11   2  -1    4.45    0.79
  11   2   0    3.38    0.65

TITL YXQ-LJ-3 in P2(1)
REM P2(1) (#4 in standard setting)
CELL 1.54184   9.524868   5.886358  14.309427  90.0000 100.7190  90.0000
ZERR    3.00   0.000262   0.000219   0.000422   0.0000   0.0027   0.0000
LATT -1
SYMM -x, y+1/2,-z
SFAC C H N O
UNIT 33.00 30.00 3.00 3.00
TREF
HKLF 4
END
_computing_structure_solution     'SHELXT 2014/4 (Sheldrick, 2014)'
;
_shelx_hkl_checksum              67963
_shelx_shelxl_version_number     2014/7
_olex2_date_sample_data_collection 2016-05-05
_olex2_submission_special_instructions 'No special instructions were received'
loop_
_space_group_symop_operation_xyz
'x, y, z'
'-x, y+1/2, -z'
loop_
_atom_site_label
_atom_site_type_symbol
_atom_site_fract_x
_atom_site_fract_y
_atom_site_fract_z
_atom_site_U_iso_or_equiv
_atom_site_adp_type
_atom_site_occupancy
_atom_site_site_symmetry_order
_atom_site_calc_flag
_atom_site_refinement_flags_posn
Cl3 Cl 0.34797(7) 0.50980(18) 0.39627(5) 0.0438(3) Uani 1 1 d .
Cl0A Cl 1.29911(10) 0.4856(3) 1.00878(7) 0.0648(3) Uani 1 1 d .
Cl1A Cl 1.34550(11) 0.9478(3) 0.90862(9) 0.0723(4) Uani 1 1 d .
N1 N 0.5101(3) 0.5067(7) 0.61036(18) 0.0410(6) Uani 1 1 d .
H1A H 0.5629 0.6178 0.6145 0.061 Uiso 1 1 calc GR
C6 C 0.9116(4) 0.6100(7) 0.8548(2) 0.0416(8) Uani 1 1 d .
C1 C 1.0272(4) 0.5089(9) 0.9149(2) 0.0431(7) Uani 1 1 d .
H1 H 1.0154 0.3688 0.9425 0.052 Uiso 1 1 calc R
C4 C 1.0641(4) 0.9255(8) 0.8334(2) 0.0475(8) Uani 1 1 d .
H4 H 1.0763 1.0661 0.8064 0.057 Uiso 1 1 calc R
C5 C 0.9319(4) 0.8195(8) 0.8151(2) 0.0463(9) Uani 1 1 d .
H5 H 0.8557 0.8899 0.7756 0.056 Uiso 1 1 calc R
C3 C 1.1782(4) 0.8214(7) 0.8921(2) 0.0444(8) Uani 1 1 d .
C7 C 0.7754(4) 0.4842(9) 0.8335(2) 0.0469(8) Uani 1 1 d .
H7 H 0.7798 0.3271 0.8402 0.056 Uiso 1 1 calc R
C11 C 0.2848(3) 0.3807(7) 0.6562(2) 0.0404(8) Uani 1 1 d .
C10 C 0.4199(3) 0.5190(8) 0.6861(2) 0.0412(7) Uani 1 1 d .
H10 H 0.3924 0.6779 0.6925 0.049 Uiso 1 1 calc R
C12 C 0.2866(4) 0.1709(8) 0.6141(3) 0.0505(9) Uani 1 1 d .
H12 H 0.3731 0.1085 0.6057 0.061 Uiso 1 1 calc R
C16 C 0.1544(4) 0.4669(9) 0.6708(2) 0.0498(10) Uani 1 1 d .
H16 H 0.1508 0.6073 0.7000 0.060 Uiso 1 1 calc R
C9 C 0.5111(4) 0.4432(9) 0.7813(2) 0.0481(10) Uani 1 1 d .
H9A H 0.4563 0.4625 0.8315 0.058 Uiso 1 1 calc R
H9B H 0.5336 0.2830 0.7778 0.058 Uiso 1 1 calc R
C2 C 1.1590(4) 0.6150(8) 0.9338(2) 0.0417(8) Uani 1 1 d .
C8 C 0.6471(4) 0.5758(8) 0.8055(2) 0.0462(9) Uani 1 1 d .
H8 H 0.6414 0.7332 0.8007 0.055 Uiso 1 1 calc R
C13 C 0.1608(4) 0.0512(9) 0.5841(3) 0.0562(11) Uani 1 1 d .
H13 H 0.1633 -0.0888 0.5543 0.067 Uiso 1 1 calc R
C14 C 0.0333(4) 0.1377(11) 0.5981(3) 0.0599(13) Uani 1 1 d .
H14 H -0.0507 0.0568 0.5780 0.072 Uiso 1 1 calc R
C15 C 0.0294(4) 0.3429(11) 0.6416(3) 0.0615(13) Uani 1 1 d .
H15 H -0.0573 0.4006 0.6520 0.074 Uiso 1 1 calc R
H1B H 0.451(4) 0.501(10) 0.546(3) 0.045(10) Uiso 1 1 d .
H1C H 0.556(6) 0.386(11) 0.615(3) 0.052(14) Uiso 1 1 d .
loop_
_atom_site_aniso_label
_atom_site_aniso_U_11
_atom_site_aniso_U_22
_atom_site_aniso_U_33
_atom_site_aniso_U_23
_atom_site_aniso_U_13
_atom_site_aniso_U_12
Cl3 0.0349(4) 0.0454(6) 0.0482(4) -0.0012(4) 0.0003(3) -0.0007(3)
Cl0A 0.0480(5) 0.0743(9) 0.0663(5) 0.0107(5) -0.0047(4) 0.0165(5)
Cl1A 0.0477(5) 0.0726(11) 0.0949(7) -0.0068(6) 0.0092(4) -0.0184(5)
N1 0.0378(12) 0.0392(18) 0.0435(12) -0.0007(14) 0.0009(9) -0.0071(15)
C6 0.0402(16) 0.043(2) 0.0398(13) -0.0012(14) 0.0032(11) -0.0021(16)
C1 0.0460(16) 0.040(2) 0.0428(12) 0.0073(16) 0.0065(11) 0.0026(17)
C4 0.0560(19) 0.037(2) 0.0483(15) 0.0053(15) 0.0068(13) -0.0026(17)
C5 0.0432(17) 0.046(3) 0.0449(15) 0.0038(15) -0.0038(12) 0.0038(16)
C3 0.0418(16) 0.047(2) 0.0444(15) -0.0085(15) 0.0068(12) -0.0040(16)
C7 0.0489(17) 0.043(2) 0.0466(14) -0.0001(17) 0.0038(12) -0.0060(19)
C11 0.0329(14) 0.045(2) 0.0418(13) -0.0001(14) 0.0036(11) -0.0018(15)
C10 0.0369(13) 0.040(2) 0.0454(13) -0.0087(16) 0.0034(11) -0.0028(16)
C12 0.0351(16) 0.050(3) 0.0648(19) -0.0046(19) 0.0054(14) -0.0064(16)
C16 0.0389(15) 0.064(3) 0.0464(14) 0.0007(18) 0.0073(11) 0.0098(19)
C9 0.0425(16) 0.060(3) 0.0396(13) -0.0073(16) 0.0027(11) -0.0118(17)
C2 0.0398(15) 0.045(2) 0.0389(13) -0.0016(14) 0.0026(11) 0.0060(16)
C8 0.0429(16) 0.052(3) 0.0410(13) -0.0103(14) -0.0004(11) -0.0079(16)
C13 0.0473(18) 0.054(3) 0.0631(18) -0.002(2) -0.0011(14) -0.0163(18)
C14 0.0337(16) 0.086(4) 0.0564(18) 0.015(2) -0.0024(13) -0.017(2)
C15 0.0339(17) 0.098(4) 0.0529(18) 0.010(2) 0.0079(14) 0.004(2)
loop_
_atom_type_symbol
_atom_type_description
_atom_type_scat_dispersion_real
_atom_type_scat_dispersion_imag
_atom_type_scat_source
C C 0.0181 0.0091 'International Tables Vol C Tables 4.2.6.8 and 6.1.1.4'
H H 0.0000 0.0000 'International Tables Vol C Tables 4.2.6.8 and 6.1.1.4'
Cl Cl 0.3639 0.7018 'International Tables Vol C Tables 4.2.6.8 and 6.1.1.4'
N N 0.0311 0.0180 'International Tables Vol C Tables 4.2.6.8 and 6.1.1.4'
loop_
_geom_angle_atom_site_label_1
_geom_angle_atom_site_label_2
_geom_angle_atom_site_label_3
_geom_angle
H1A N1 H1B 109.1
H1A N1 H1C 111.8
C10 N1 H1A 109.5
C10 N1 H1B 112(2)
C10 N1 H1C 110(4)
H1B N1 H1C 104(5)
C1 C6 C7 118.4(4)
C5 C6 C1 118.5(3)
C5 C6 C7 123.0(3)
C6 C1 H1 119.7
C2 C1 C6 120.7(4)
C2 C1 H1 119.7
C5 C4 H4 120.1
C5 C4 C3 119.9(4)
C3 C4 H4 120.1
C6 C5 C4 120.9(3)
C6 C5 H5 119.6
C4 C5 H5 119.6
C4 C3 Cl1A 119.3(3)
C2 C3 Cl1A 120.7(3)
C2 C3 C4 119.9(3)
C6 C7 H7 117.2
C8 C7 C6 125.7(5)
C8 C7 H7 117.2
C12 C11 C10 121.8(3)
C12 C11 C16 118.5(4)
C16 C11 C10 119.7(4)
N1 C10 C11 109.8(3)
N1 C10 H10 108.1
N1 C10 C9 108.6(3)
C11 C10 H10 108.1
C11 C10 C9 113.8(3)
C9 C10 H10 108.1
C11 C12 H12 119.6
C11 C12 C13 120.7(4)
C13 C12 H12 119.6
C11 C16 H16 120.0
C15 C16 C11 120.0(4)
C15 C16 H16 120.0
C10 C9 H9A 109.2
C10 C9 H9B 109.2
H9A C9 H9B 107.9
C8 C9 C10 112.0(3)
C8 C9 H9A 109.2
C8 C9 H9B 109.2
C1 C2 Cl0A 119.3(3)
C3 C2 Cl0A 120.5(3)
C3 C2 C1 120.1(3)
C7 C8 C9 124.5(4)
C7 C8 H8 117.7
C9 C8 H8 117.7
C12 C13 H13 119.8
C14 C13 C12 120.4(5)
C14 C13 H13 119.8
C13 C14 H14 120.1
C15 C14 C13 119.9(4)
C15 C14 H14 120.1
C16 C15 H15 119.8
C14 C15 C16 120.5(4)
C14 C15 H15 119.8
loop_
_geom_bond_atom_site_label_1
_geom_bond_atom_site_label_2
_geom_bond_distance
Cl0A C2 1.726(3)
Cl1A C3 1.734(4)
N1 H1A 0.8200
N1 C10 1.505(4)
N1 H1B 0.99(4)
N1 H1C 0.83(6)
C6 C1 1.398(5)
C6 C5 1.386(6)
C6 C7 1.476(5)
C1 H1 0.9300
C1 C2 1.383(5)
C4 H4 0.9300
C4 C5 1.387(6)
C4 C3 1.387(6)
C5 H5 0.9300
C3 C2 1.380(6)
C7 H7 0.9300
C7 C8 1.327(5)
C11 C10 1.516(5)
C11 C12 1.375(6)
C11 C16 1.394(5)
C10 H10 0.9800
C10 C9 1.539(4)
C12 H12 0.9300
C12 C13 1.388(5)
C16 H16 0.9300
C16 C15 1.392(7)
C9 H9A 0.9700
C9 H9B 0.9700
C9 C8 1.497(5)
C8 H8 0.9300
C13 H13 0.9300
C13 C14 1.366(7)
C14 H14 0.9300
C14 C15 1.362(8)
C15 H15 0.9300
