#------------------------------------------------------------------------------
#$Date: 2019-11-25 11:41:18 +0200 (Mon, 25 Nov 2019) $
#$Revision: 240786 $
#$URL: file:///home/coder/svn-repositories/cod/cif/4/13/03/4130305.cif $
#------------------------------------------------------------------------------
#
# This file is available in the Crystallography Open Database (COD),
# http://www.crystallography.net/
#
# All data on this site have been placed in the public domain by the
# contributors.
#
data_4130305
loop_
_publ_author_name
'Hayashi, Masaki'
'Bachman, Shoshana'
'Hashimoto, Satoshi'
'Eichman, Chad C.'
'Stoltz, Brian M.'
_publ_section_title
;
 Ni-Catalyzed Enantioselective C-Acylation of \a-Substituted Lactams.
;
_journal_issue                   29
_journal_name_full               'Journal of the American Chemical Society'
_journal_page_first              8997
_journal_page_last               9000
_journal_paper_doi               10.1021/jacs.6b02120
_journal_volume                  138
_journal_year                    2016
_chemical_absolute_configuration ad
_chemical_formula_moiety         'C19 H21 N O3'
_chemical_formula_sum            'C19 H21 N O3'
_chemical_formula_weight         311.37
_space_group_crystal_system      triclinic
_space_group_IT_number           1
_space_group_name_Hall           'P 1'
_space_group_name_H-M_alt        'P 1'
_atom_sites_solution_hydrogens   geom
_audit_creation_date             2016-01-06
_audit_creation_method
;
Olex2 1.2
(compiled 2015.09.30 svn.r3233 for OlexSys, GUI svn.r5103)
,
 SHELXL-2014,
 and manual edit
;
_cell_angle_alpha                112.386(6)
_cell_angle_beta                 91.911(6)
_cell_angle_gamma                96.499(9)
_cell_formula_units_Z            1
_cell_length_a                   6.7858(9)
_cell_length_b                   7.7709(10)
_cell_length_c                   8.1797(10)
_cell_measurement_reflns_used    9908
_cell_measurement_temperature    100
_cell_measurement_theta_max      73.0
_cell_measurement_theta_min      5.8
_cell_volume                     394.89(9)
_computing_cell_refinement       'SAINT V8.34A (Bruker-AXS, 2007)'
_computing_data_collection       'APEX2 2015.9-0 (Bruker-AXS, 2007)'
_computing_data_reduction        'SAINT V8.34A (Bruker-AXS, 2007)'
_computing_molecular_graphics    'DIAMOND 3 (Crystal Impact, 1999)'
_computing_publication_material  'Olex2 (Dolomanov et al., 2009)'
_computing_structure_refinement  'SHELXL-2014/7 (Sheldrick, 2014)'
_computing_structure_solution    'XT-2014/4 (Sheldrick, 2012)'
_diffrn_ambient_temperature      100
_diffrn_detector                 'CMOS Area Detector'
_diffrn_detector_area_resol_mean 10.24
_diffrn_detector_type            'Bruker PHOTON 100 CMOS'
_diffrn_measured_fraction_theta_full 0.999
_diffrn_measured_fraction_theta_max 0.987
_diffrn_measurement_device       '\k-geometry diffractometer'
_diffrn_measurement_device_type  'Bruker D8 VENTURE Kappa Duo PHOTON 100 CMOS'
_diffrn_radiation_monochromator  'multilayer mirrors'
_diffrn_radiation_type           CuK\a
_diffrn_radiation_wavelength     1.54178
_diffrn_reflns_av_R_equivalents  0.0325
_diffrn_reflns_av_unetI/netI     0.0254
_diffrn_reflns_Laue_measured_fraction_full 0.999
_diffrn_reflns_Laue_measured_fraction_max 0.987
_diffrn_reflns_limit_h_max       8
_diffrn_reflns_limit_h_min       -8
_diffrn_reflns_limit_k_max       9
_diffrn_reflns_limit_k_min       -9
_diffrn_reflns_limit_l_max       10
_diffrn_reflns_limit_l_min       -10
_diffrn_reflns_number            12444
_diffrn_reflns_point_group_measured_fraction_full 0.966
_diffrn_reflns_point_group_measured_fraction_max 0.936
_diffrn_reflns_theta_full        67.000
_diffrn_reflns_theta_max         72.981
_diffrn_reflns_theta_min         5.871
_diffrn_source                   'I\mS HB micro-focus sealed tube'
_diffrn_source_current           1
_diffrn_source_power             0.05
_diffrn_source_type              'Incoatech I\mS HB'
_diffrn_source_voltage           50
_diffrn_standards_number         0
_exptl_absorpt_coefficient_mu    0.711
_exptl_absorpt_correction_T_max  1.0000
_exptl_absorpt_correction_T_min  0.9238
_exptl_absorpt_correction_type   multi-scan
_exptl_absorpt_process_details
'SADABS-2014/5 (Bruker,2014/5) was used for absorption correction. wR2(int) was 0.0653 before and 0.0530 after correction. The Ratio of minimum to maximum transmission is 0.9238. The \l/2 correction factor is Not present.'
_exptl_crystal_colour            colourless
_exptl_crystal_colour_primary    colourless
_exptl_crystal_density_diffrn    1.309
_exptl_crystal_description       prism
_exptl_crystal_F_000             166
_exptl_crystal_size_max          0.19
_exptl_crystal_size_mid          0.17
_exptl_crystal_size_min          0.12
_refine_diff_density_max         0.176
_refine_diff_density_min         -0.261
_refine_diff_density_rms         0.061
_refine_ls_abs_structure_details
;
 Flack x determined using 1297 quotients [(I+)-(I-)]/[(I+)+(I-)]
 (Parsons, Flack and Wagner, Acta Cryst. B69 (2013) 249-259).
;
_refine_ls_abs_structure_Flack   0.02(7)
_refine_ls_extinction_method     none
_refine_ls_goodness_of_fit_ref   1.092
_refine_ls_hydrogen_treatment    constr
_refine_ls_matrix_type           full
_refine_ls_number_parameters     211
_refine_ls_number_reflns         2932
_refine_ls_number_restraints     3
_refine_ls_restrained_S_all      1.091
_refine_ls_R_factor_all          0.0296
_refine_ls_R_factor_gt           0.0285
_refine_ls_shift/su_max          0.000
_refine_ls_shift/su_mean         0.000
_refine_ls_structure_factor_coef Fsqd
_refine_ls_weighting_details
'w=1/[\s^2^(Fo^2^)+(0.0397P)^2^+0.0490P] where P=(Fo^2^+2Fc^2^)/3'
_refine_ls_weighting_scheme      calc
_refine_ls_wR_factor_gt          0.0697
_refine_ls_wR_factor_ref         0.0703
_reflns_Friedel_coverage         0.897
_reflns_Friedel_fraction_full    0.933
_reflns_Friedel_fraction_max     0.884
_reflns_number_gt                2847
_reflns_number_total             2932
_reflns_threshold_expression     'I > 2\s(I)'
_iucr_refine_instructions_details
;

    p15569.res created by SHELXL-2014/7

TITL p15569 in P1
CELL 1.54178 6.7858 7.7709 8.1797 112.3861 91.9111 96.4987
ZERR 1 0.0009 0.001 0.001 0.006 0.006 0.009
LATT -1
SFAC C H N O
UNIT 19 21 1 3
 
L.S. 25
PLAN  20
SIZE 0.12 0.17 0.19
TEMP -173.15
BOND $H
MORE -1
CONF
wpdb -2
htab
fmap -2
acta 134
REM <olex2.extras>
REM <HklSrc "%.\\p15569.hkl">
REM </olex2.extras>
 
WGHT    0.039700    0.049000
FVAR       0.61083
O1    4    0.700913    0.628804    0.341858    11.00000    0.01064    0.02179 =
         0.02479    0.01319    0.00280    0.00162
O2    4    0.090685    0.774019    0.283927    11.00000    0.01302    0.02295 =
         0.02096    0.01203    0.00183    0.00762
AFIX 147
H2    2   -0.001900    0.723155    0.322888    11.00000   -1.50000
AFIX   0
O3    4    0.699388    0.147289    0.267869    11.00000    0.01839    0.01782 =
         0.01577    0.00522    0.00046    0.00887
N1    3    0.500238    0.434648    0.437890    11.00000    0.00892    0.01547 =
         0.01960    0.00974    0.00233    0.00254
C1    1    0.536116    0.548791    0.350056    11.00000    0.01226    0.01198 =
         0.01389    0.00514    0.00396    0.00467
C2    1    0.338388    0.562574    0.262209    11.00000    0.01129    0.01409 =
         0.01634    0.00701    0.00157    0.00289
C3    1    0.193463    0.403292    0.278667    11.00000    0.01098    0.01308 =
         0.02053    0.00661    0.00086    0.00068
AFIX  23
H3A   2    0.063316    0.446000    0.312742    11.00000   -1.20000
H3B   2    0.172165    0.292986    0.164587    11.00000   -1.20000
AFIX   0
C4    1    0.291865    0.353121    0.423173    11.00000    0.01070    0.01604 =
         0.02287    0.00980    0.00408    0.00150
AFIX  23
H4A   2    0.231413    0.408805    0.536915    11.00000   -1.20000
H4B   2    0.279646    0.215267    0.387662    11.00000   -1.20000
AFIX   0
C5    1    0.277504    0.761622    0.361381    11.00000    0.00981    0.01376 =
         0.01735    0.00729    0.00091    0.00274
AFIX  13
H5    2    0.378119    0.851984    0.337782    11.00000   -1.20000
AFIX   0
C6    1    0.282383    0.825504    0.561697    11.00000    0.01358    0.01179 =
         0.01769    0.00642    0.00170    0.00541
C7    1    0.129987    0.766835    0.646965    11.00000    0.01424    0.01748 =
         0.01925    0.00405    0.00285    0.00151
AFIX  43
H7    2    0.014924    0.686712    0.579255    11.00000   -1.20000
AFIX   0
C8    1    0.145821    0.825034    0.830199    11.00000    0.02270    0.01867 =
         0.02228    0.00668    0.00838    0.00562
AFIX  43
H8    2    0.043269    0.781296    0.886855    11.00000   -1.20000
AFIX   0
C9    1    0.310045    0.946503    0.931396    11.00000    0.02942    0.01656 =
         0.01448    0.00360    0.00127    0.00684
AFIX  43
H9    2    0.320280    0.985409    1.056786    11.00000   -1.20000
AFIX   0
C10   1    0.458613    1.010607    0.848952    11.00000    0.02285    0.01521 =
         0.02229    0.00684   -0.00730   -0.00005
AFIX  43
H10   2    0.569648    1.096573    0.917837    11.00000   -1.20000
AFIX   0
C11   1    0.445567    0.949160    0.664785    11.00000    0.01626    0.01679 =
         0.02210    0.00935   -0.00037    0.00057
AFIX  43
H11   2    0.549312    0.992133    0.608710    11.00000   -1.20000
AFIX   0
C12   1    0.363754    0.535336    0.069022    11.00000    0.01831    0.01879 =
         0.01500    0.00552    0.00192    0.00442
AFIX 137
H12A  2    0.466050    0.633189    0.065329    11.00000   -1.50000
H12B  2    0.237253    0.543821    0.013053    11.00000   -1.50000
H12C  2    0.404200    0.411560    0.005003    11.00000   -1.50000
AFIX   0
C13   1    0.647454    0.386301    0.535884    11.00000    0.01029    0.01541 =
         0.01901    0.01017    0.00188    0.00181
C14   1    0.679651    0.479497    0.718539    11.00000    0.01731    0.01870 =
         0.01943    0.00820    0.00487    0.00332
AFIX  43
H14   2    0.610743    0.582776    0.778115    11.00000   -1.20000
AFIX   0
C15   1    0.812011    0.422834    0.814988    11.00000    0.02100    0.02549 =
         0.01642    0.00977    0.00034   -0.00090
AFIX  43
H15   2    0.834621    0.487175    0.940045    11.00000   -1.20000
AFIX   0
C16   1    0.910915    0.270876    0.726261    11.00000    0.01393    0.02192 =
         0.02271    0.01426   -0.00352   -0.00029
AFIX  43
H16   2    1.001320    0.231388    0.791667    11.00000   -1.20000
AFIX   0
C17   1    0.879514    0.175385    0.542602    11.00000    0.01055    0.01720 =
         0.02347    0.01127    0.00150    0.00148
AFIX  43
H17   2    0.948372    0.071961    0.483372    11.00000   -1.20000
AFIX   0
C18   1    0.746540    0.232798    0.446821    11.00000    0.01055    0.01576 =
         0.01685    0.00901    0.00154    0.00003
C19   1    0.796329   -0.012562    0.176154    11.00000    0.01952    0.01628 =
         0.02296    0.00423    0.00099    0.00979
AFIX 137
H19A  2    0.752008   -0.063138    0.049508    11.00000   -1.50000
H19B  2    0.762636   -0.109059    0.224174    11.00000   -1.50000
H19C  2    0.940749    0.025010    0.191951    11.00000   -1.50000
AFIX   0
HKLF 4
 
REM  p15569 in P1
REM R1 =  0.0285 for    2847 Fo > 4sig(Fo)  and  0.0296 for all    2932 data
REM    211 parameters refined using      3 restraints
 
END  
     
WGHT      0.0398      0.0491 

REM Instructions for potential hydrogen bonds
EQIV $1 x-1, y, z
HTAB O2 O1_$1
EQIV $2 x+1, y-1, z
HTAB C17 O2_$2
EQIV $3 x, y-1, z
HTAB C19 O1_$3

REM Highest difference peak  0.176,  deepest hole -0.261,  1-sigma level  0.061
Q1    1   0.2782  0.8461  0.6710  11.00000  0.05   -0.26
Q2    1   0.4367  0.4794  0.3511  11.00000  0.05   -0.24
Q3    1   0.3564  0.4595  0.2075  11.00000  0.05   -0.22
Q4    1   0.3167  0.9197  0.7778  11.00000  0.05   -0.22
Q5    1   0.7998  0.1683  0.4020  11.00000  0.05   -0.22
Q6    1   0.8643  0.1290  0.4582  11.00000  0.05   -0.21
Q7    1   0.6123  0.5134  0.4088  11.00000  0.05   -0.21
Q8    1   0.3530  0.4761  0.4354  11.00000  0.05   -0.21
Q9    1   0.9841  0.2387  0.5346  11.00000  0.05   -0.20
Q10   1   0.2134  0.8230  0.4211  11.00000  0.05   -0.20
Q11   1   0.1905  0.7685  0.5336  11.00000  0.05   -0.20
Q12   1   0.6953  0.1223  0.4245  11.00000  0.05   -0.20
Q13   1   0.7906  0.2684  0.5780  11.00000  0.05   -0.20
Q14   1   0.5985  0.4800  0.5641  11.00000  0.05   -0.19
Q15   1   0.3691  0.7461  0.5248  11.00000  0.05   -0.19
Q16   1   0.3344  0.5584  0.3491  11.00000  0.05   -0.18
Q17   1   0.7584  0.0322  0.2876  11.00000  0.05   -0.18
Q18   1   0.7529  0.3917  0.6630  11.00000  0.05   -0.18
Q19   1   0.6320  0.3548  0.4390  11.00000  0.05   -0.18
Q20   1   0.4402  0.6074  0.2337  11.00000  0.05   -0.18

  REM The information below was added by Olex2.
  REM
  REM R1 = 0.0285 for 2847 Fo > 4sig(Fo) and 0.0296 for all 12444 data
  REM n/a parameters refined using n/a restraints
  REM Highest difference peak 0.18, deepest hole -0.26
  REM Mean Shift 0, Max Shift 0.000.
  
  REM +++ Tabular Listing of Refinement Information +++
  REM R1_all = 0.0296
  REM R1_gt = 0.0285
  REM wR_ref = 0.0703
  REM GOOF = 1.092
  REM Shift_max = 0.000
  REM Shift_mean = 0
  REM Reflections_all = 12444
  REM Reflections_gt = 2847
  REM Parameters = n/a
  REM Hole = -0.26
  REM Peak = 0.18
  REM Flack = 0.03(7)
  
  
;
_cod_data_source_file            ja6b02120_si_003.cif
_cod_data_source_block           p15569
_cod_database_code               4130305
_shelx_space_group_comment
;
The symmetry employed for this shelxl refinement is uniquely defined
by the following loop, which should always be used as a source of
symmetry information in preference to the above space-group names.
They are only intended as comments.
;
_shelx_estimated_absorpt_t_max   0.920
_shelx_estimated_absorpt_t_min   0.877
_refine_ls_abs_structure_hooft   0.03(7)
_olex2_refinement_description
;
1. Fixed Uiso
 At 1.2 times of:
  All C(H) groups, All C(H,H) groups
 At 1.5 times of:
  All C(H,H,H) groups, All O(H) groups
2.a Ternary CH refined with riding coordinates:
 C5(H5)
2.b Secondary CH2 refined with riding coordinates:
 C3(H3A,H3B), C4(H4A,H4B)
2.c Aromatic/amide H refined with riding coordinates:
 C7(H7), C8(H8), C9(H9), C10(H10), C11(H11), C14(H14), C15(H15), C16(H16),
 C17(H17)
2.d Idealised Me refined as rotating group:
 C12(H12A,H12B,H12C), C19(H19A,H19B,H19C)
2.e Idealised tetrahedral OH refined as rotating group:
 O2(H2)
;
_shelx_shelxl_version_number     2014/7
_olex2_submission_special_instructions 'No special instructions were received'
loop_
_space_group_symop_operation_xyz
'x, y, z'
loop_
_atom_site_label
_atom_site_type_symbol
_atom_site_fract_x
_atom_site_fract_y
_atom_site_fract_z
_atom_site_U_iso_or_equiv
_atom_site_adp_type
_atom_site_occupancy
_atom_site_site_symmetry_order
_atom_site_calc_flag
_atom_site_refinement_flags_posn
O1 O 0.7009(2) 0.6288(2) 0.34186(18) 0.0178(3) Uani 1 1 d .
O2 O 0.09069(19) 0.7740(2) 0.28393(18) 0.0175(3) Uani 1 1 d .
H2 H -0.0019 0.7232 0.3229 0.026 Uiso 1 1 calc GR
O3 O 0.6994(2) 0.1473(2) 0.26787(18) 0.0172(3) Uani 1 1 d .
N1 N 0.5002(2) 0.4346(2) 0.4379(2) 0.0137(3) Uani 1 1 d .
C1 C 0.5361(3) 0.5488(3) 0.3501(2) 0.0123(4) Uani 1 1 d .
C2 C 0.3384(3) 0.5626(3) 0.2622(2) 0.0135(4) Uani 1 1 d .
C3 C 0.1935(3) 0.4033(3) 0.2787(3) 0.0149(4) Uani 1 1 d .
H3A H 0.0633 0.4460 0.3127 0.018 Uiso 1 1 calc R
H3B H 0.1722 0.2930 0.1646 0.018 Uiso 1 1 calc R
C4 C 0.2919(3) 0.3531(3) 0.4232(3) 0.0158(4) Uani 1 1 d .
H4A H 0.2314 0.4088 0.5369 0.019 Uiso 1 1 calc R
H4B H 0.2796 0.2153 0.3877 0.019 Uiso 1 1 calc R
C5 C 0.2775(3) 0.7616(3) 0.3614(2) 0.0132(4) Uani 1 1 d .
H5 H 0.3781 0.8520 0.3378 0.016 Uiso 1 1 calc R
C6 C 0.2824(3) 0.8255(3) 0.5617(2) 0.0138(4) Uani 1 1 d .
C7 C 0.1300(3) 0.7668(3) 0.6470(3) 0.0179(4) Uani 1 1 d .
H7 H 0.0149 0.6867 0.5793 0.022 Uiso 1 1 calc R
C8 C 0.1458(3) 0.8250(3) 0.8302(3) 0.0212(4) Uani 1 1 d .
H8 H 0.0433 0.7813 0.8869 0.025 Uiso 1 1 calc R
C9 C 0.3100(3) 0.9465(3) 0.9314(3) 0.0206(4) Uani 1 1 d .
H9 H 0.3203 0.9854 1.0568 0.025 Uiso 1 1 calc R
C10 C 0.4586(3) 1.0106(3) 0.8490(3) 0.0207(4) Uani 1 1 d .
H10 H 0.5696 1.0966 0.9178 0.025 Uiso 1 1 calc R
C11 C 0.4456(3) 0.9492(3) 0.6648(3) 0.0180(4) Uani 1 1 d .
H11 H 0.5493 0.9921 0.6087 0.022 Uiso 1 1 calc R
C12 C 0.3638(3) 0.5353(3) 0.0690(2) 0.0175(4) Uani 1 1 d .
H12A H 0.4660 0.6332 0.0653 0.026 Uiso 1 1 calc GR
H12B H 0.2373 0.5438 0.0131 0.026 Uiso 1 1 calc GR
H12C H 0.4042 0.4116 0.0050 0.026 Uiso 1 1 calc GR
C13 C 0.6475(3) 0.3863(3) 0.5359(2) 0.0138(4) Uani 1 1 d .
C14 C 0.6797(3) 0.4795(3) 0.7185(3) 0.0181(4) Uani 1 1 d .
H14 H 0.6107 0.5828 0.7781 0.022 Uiso 1 1 calc R
C15 C 0.8120(3) 0.4228(3) 0.8150(3) 0.0208(4) Uani 1 1 d .
H15 H 0.8346 0.4872 0.9400 0.025 Uiso 1 1 calc R
C16 C 0.9109(3) 0.2709(3) 0.7263(3) 0.0182(4) Uani 1 1 d .
H16 H 1.0013 0.2314 0.7917 0.022 Uiso 1 1 calc R
C17 C 0.8795(3) 0.1754(3) 0.5426(3) 0.0161(4) Uani 1 1 d .
H17 H 0.9484 0.0720 0.4834 0.019 Uiso 1 1 calc R
C18 C 0.7465(3) 0.2328(3) 0.4468(3) 0.0137(4) Uani 1 1 d .
C19 C 0.7963(3) -0.0126(3) 0.1762(3) 0.0200(4) Uani 1 1 d .
H19A H 0.7520 -0.0631 0.0495 0.030 Uiso 1 1 calc GR
H19B H 0.7626 -0.1091 0.2242 0.030 Uiso 1 1 calc GR
H19C H 0.9407 0.0250 0.1920 0.030 Uiso 1 1 calc GR
loop_
_atom_site_aniso_label
_atom_site_aniso_U_11
_atom_site_aniso_U_22
_atom_site_aniso_U_33
_atom_site_aniso_U_23
_atom_site_aniso_U_13
_atom_site_aniso_U_12
O1 0.0106(7) 0.0218(7) 0.0248(7) 0.0132(6) 0.0028(5) 0.0016(6)
O2 0.0130(7) 0.0229(7) 0.0210(7) 0.0120(6) 0.0018(5) 0.0076(6)
O3 0.0184(7) 0.0178(7) 0.0158(6) 0.0052(5) 0.0005(5) 0.0089(6)
N1 0.0089(7) 0.0155(8) 0.0196(8) 0.0097(6) 0.0023(6) 0.0025(6)
C1 0.0123(9) 0.0120(9) 0.0139(8) 0.0051(7) 0.0040(7) 0.0047(7)
C2 0.0113(9) 0.0141(9) 0.0163(9) 0.0070(7) 0.0016(7) 0.0029(7)
C3 0.0110(9) 0.0131(9) 0.0205(10) 0.0066(7) 0.0009(7) 0.0007(7)
C4 0.0107(9) 0.0160(9) 0.0229(10) 0.0098(8) 0.0041(7) 0.0015(8)
C5 0.0098(9) 0.0138(9) 0.0174(9) 0.0073(7) 0.0009(7) 0.0027(7)
C6 0.0136(9) 0.0118(9) 0.0177(9) 0.0064(7) 0.0017(7) 0.0054(8)
C7 0.0142(10) 0.0175(10) 0.0192(9) 0.0040(8) 0.0029(7) 0.0015(8)
C8 0.0227(11) 0.0187(10) 0.0223(10) 0.0067(8) 0.0084(8) 0.0056(9)
C9 0.0294(12) 0.0166(10) 0.0145(9) 0.0036(8) 0.0013(8) 0.0068(9)
C10 0.0228(11) 0.0152(10) 0.0223(10) 0.0068(8) -0.0073(8) 0.0000(9)
C11 0.0163(10) 0.0168(10) 0.0221(10) 0.0094(8) -0.0004(8) 0.0006(8)
C12 0.0183(10) 0.0188(10) 0.0150(9) 0.0055(8) 0.0019(7) 0.0044(8)
C13 0.0103(9) 0.0154(10) 0.0190(10) 0.0102(8) 0.0019(7) 0.0018(8)
C14 0.0173(10) 0.0187(10) 0.0194(10) 0.0082(8) 0.0049(8) 0.0033(8)
C15 0.0210(11) 0.0255(11) 0.0164(9) 0.0098(8) 0.0003(8) -0.0009(9)
C16 0.0139(10) 0.0219(10) 0.0227(10) 0.0143(8) -0.0035(8) -0.0003(8)
C17 0.0106(9) 0.0172(10) 0.0235(10) 0.0113(8) 0.0015(7) 0.0015(8)
C18 0.0106(9) 0.0158(9) 0.0169(9) 0.0090(7) 0.0015(7) 0.0000(8)
C19 0.0195(10) 0.0163(10) 0.0230(10) 0.0042(8) 0.0010(8) 0.0098(8)
loop_
_atom_type_symbol
_atom_type_description
_atom_type_scat_dispersion_real
_atom_type_scat_dispersion_imag
_atom_type_scat_source
C C 0.0181 0.0091 'International Tables Vol C Tables 4.2.6.8 and 6.1.1.4'
H H 0.0000 0.0000 'International Tables Vol C Tables 4.2.6.8 and 6.1.1.4'
N N 0.0311 0.0180 'International Tables Vol C Tables 4.2.6.8 and 6.1.1.4'
O O 0.0492 0.0322 'International Tables Vol C Tables 4.2.6.8 and 6.1.1.4'
loop_
_exptl_crystal_face_index_h
_exptl_crystal_face_index_k
_exptl_crystal_face_index_l
_exptl_crystal_face_perp_dist
0.00 -1.00 0.00 0.0770
0.00 1.00 0.00 0.0010
0.00 0.00 -1.00 0.0540
-3.00 -2.00 -1.00 0.0740
-1.00 3.00 -3.00 0.0690
-3.00 0.00 -1.00 0.0880
3.00 -2.00 0.00 0.0870
3.00 2.00 -1.00 0.0440
0.00 -1.00 3.00 0.0470
1.00 0.00 3.00 0.0530
loop_
_geom_angle_atom_site_label_1
_geom_angle_atom_site_label_2
_geom_angle_atom_site_label_3
_geom_angle
C5 O2 H2 109.5
C18 O3 C19 116.08(15)
C1 N1 C4 114.79(15)
C1 N1 C13 125.33(16)
C13 N1 C4 119.86(15)
O1 C1 N1 125.46(17)
O1 C1 C2 125.84(17)
N1 C1 C2 108.70(16)
C1 C2 C3 103.50(15)
C1 C2 C5 109.36(15)
C3 C2 C5 113.35(15)
C12 C2 C1 109.59(15)
C12 C2 C3 112.58(16)
C12 C2 C5 108.32(15)
C2 C3 H3A 110.6
C2 C3 H3B 110.6
H3A C3 H3B 108.7
C4 C3 C2 105.91(16)
C4 C3 H3A 110.6
C4 C3 H3B 110.6
N1 C4 C3 103.61(15)
N1 C4 H4A 111.0
N1 C4 H4B 111.0
C3 C4 H4A 111.0
C3 C4 H4B 111.0
H4A C4 H4B 109.0
O2 C5 C2 109.80(15)
O2 C5 H5 106.3
O2 C5 C6 112.56(15)
C2 C5 H5 106.3
C6 C5 C2 115.08(15)
C6 C5 H5 106.2
C7 C6 C5 122.89(17)
C11 C6 C5 118.50(17)
C11 C6 C7 118.62(18)
C6 C7 H7 119.9
C8 C7 C6 120.27(19)
C8 C7 H7 119.9
C7 C8 H8 119.7
C9 C8 C7 120.58(19)
C9 C8 H8 119.7
C8 C9 H9 120.2
C10 C9 C8 119.66(19)
C10 C9 H9 120.2
C9 C10 H10 120.0
C9 C10 C11 119.95(19)
C11 C10 H10 120.0
C6 C11 H11 119.6
C10 C11 C6 120.86(19)
C10 C11 H11 119.6
C2 C12 H12A 109.5
C2 C12 H12B 109.5
C2 C12 H12C 109.5
H12A C12 H12B 109.5
H12A C12 H12C 109.5
H12B C12 H12C 109.5
C14 C13 N1 120.58(17)
C14 C13 C18 120.32(17)
C18 C13 N1 118.87(16)
C13 C14 H14 119.8
C13 C14 C15 120.44(18)
C15 C14 H14 119.8
C14 C15 H15 120.4
C14 C15 C16 119.17(18)
C16 C15 H15 120.4
C15 C16 H16 119.5
C15 C16 C17 121.02(18)
C17 C16 H16 119.5
C16 C17 H17 120.3
C18 C17 C16 119.50(18)
C18 C17 H17 120.3
O3 C18 C13 115.63(16)
O3 C18 C17 124.81(17)
C17 C18 C13 119.55(17)
O3 C19 H19A 109.5
O3 C19 H19B 109.5
O3 C19 H19C 109.5
H19A C19 H19B 109.5
H19A C19 H19C 109.5
H19B C19 H19C 109.5
loop_
_geom_bond_atom_site_label_1
_geom_bond_atom_site_label_2
_geom_bond_distance
O1 C1 1.233(2)
O2 H2 0.8400
O2 C5 1.428(2)
O3 C18 1.366(2)
O3 C19 1.431(2)
N1 C1 1.346(2)
N1 C4 1.464(3)
N1 C13 1.429(2)
C1 C2 1.535(2)
C2 C3 1.542(3)
C2 C5 1.560(2)
C2 C12 1.531(3)
C3 H3A 0.9900
C3 H3B 0.9900
C3 C4 1.534(3)
C4 H4A 0.9900
C4 H4B 0.9900
C5 H5 1.0000
C5 C6 1.518(3)
C6 C7 1.395(3)
C6 C11 1.393(3)
C7 H7 0.9500
C7 C8 1.387(3)
C8 H8 0.9500
C8 C9 1.387(3)
C9 H9 0.9500
C9 C10 1.381(3)
C10 H10 0.9500
C10 C11 1.392(3)
C11 H11 0.9500
C12 H12A 0.9800
C12 H12B 0.9800
C12 H12C 0.9800
C13 C14 1.387(3)
C13 C18 1.399(3)
C14 H14 0.9500
C14 C15 1.389(3)
C15 H15 0.9500
C15 C16 1.389(3)
C16 H16 0.9500
C16 C17 1.395(3)
C17 H17 0.9500
C17 C18 1.392(3)
C19 H19A 0.9800
C19 H19B 0.9800
C19 H19C 0.9800
loop_
_geom_torsion_atom_site_label_1
_geom_torsion_atom_site_label_2
_geom_torsion_atom_site_label_3
_geom_torsion_atom_site_label_4
_geom_torsion
O1 C1 C2 C3 167.47(18)
O1 C1 C2 C5 -71.4(2)
O1 C1 C2 C12 47.2(2)
O2 C5 C6 C7 46.8(2)
O2 C5 C6 C11 -132.75(18)
N1 C1 C2 C3 -12.53(18)
N1 C1 C2 C5 108.57(17)
N1 C1 C2 C12 -132.83(16)
N1 C13 C14 C15 175.12(18)
N1 C13 C18 O3 3.4(3)
N1 C13 C18 C17 -175.27(17)
C1 N1 C4 C3 10.2(2)
C1 N1 C13 C14 98.1(2)
C1 N1 C13 C18 -87.4(2)
C1 C2 C3 C4 18.19(18)
C1 C2 C5 O2 -178.29(14)
C1 C2 C5 C6 -50.1(2)
C2 C3 C4 N1 -17.37(19)
C2 C5 C6 C7 -80.1(2)
C2 C5 C6 C11 100.4(2)
C3 C2 C5 O2 -63.4(2)
C3 C2 C5 C6 64.8(2)
C4 N1 C1 O1 -178.47(18)
C4 N1 C1 C2 1.5(2)
C4 N1 C13 C14 -83.8(2)
C4 N1 C13 C18 90.7(2)
C5 C2 C3 C4 -100.17(17)
C5 C6 C7 C8 177.85(18)
C5 C6 C11 C10 -179.30(18)
C6 C7 C8 C9 2.0(3)
C7 C6 C11 C10 1.1(3)
C7 C8 C9 C10 0.3(3)
C8 C9 C10 C11 -1.8(3)
C9 C10 C11 C6 1.0(3)
C11 C6 C7 C8 -2.6(3)
C12 C2 C3 C4 136.44(16)
C12 C2 C5 O2 62.3(2)
C12 C2 C5 C6 -169.46(16)
C13 N1 C1 O1 -0.3(3)
C13 N1 C1 C2 179.70(16)
C13 N1 C4 C3 -168.05(16)
C13 C14 C15 C16 -0.4(3)
C14 C13 C18 O3 177.95(17)
C14 C13 C18 C17 -0.7(3)
C14 C15 C16 C17 0.2(3)
C15 C16 C17 C18 -0.2(3)
C16 C17 C18 O3 -178.03(19)
C16 C17 C18 C13 0.5(3)
C18 C13 C14 C15 0.6(3)
C19 O3 C18 C13 -178.57(17)
C19 O3 C18 C17 0.0(3)
loop_
_refln_index_h
_refln_index_k
_refln_index_l
_refln_F_squared_meas
_refln_F_squared_sigma
-1 0 0 85.41 2.91
-1 0 0 82.41 2.89
-1 0 0 85.47 2.9
-1 0 0 83.09 2.88
-1 0 0 82.96 2.93
-1 0 0 87.04 2.88
1 0 0 79.91 2.88
1 0 0 87.56 2.91
1 0 0 86.65 2.88
1 0 0 85.13 2.9
1 0 0 86.84 2.89
1 0 0 86.84 2.9
1 0 0 79.14 2.85
1 0 0 80.19 2.88
-2 0 0 212.78 7.14
-2 0 0 205.14 7.15
-2 0 0 199.99 7.16
-2 0 0 199.44 7.21
-2 0 0 207.21 7.16
-2 0 0 198.88 7.16
2 0 0 212.41 7.2
2 0 0 203.08 7.08
2 0 0 222.88 7.15
2 0 0 221.51 7.2
2 0 0 217.32 7.18
-3 0 0 28.13 1.31
-3 0 0 28.21 1.3
-3 0 0 28.04 1.3
3 0 0 30.28 1.41
3 0 0 29.41 1.24
3 0 0 31.12 1.31
3 0 0 29.33 1.06
3 0 0 30.53 1.26
-4 0 0 2.27 0.41
-4 0 0 2.12 0.34
-4 0 0 1.99 0.4
-4 0 0 2.34 0.55
-4 0 0 2.95 0.67
-4 0 0 2.71 0.43
4 0 0 2.16 0.27
4 0 0 2.74 0.73
4 0 0 3.35 0.49
4 0 0 2.25 0.55
4 0 0 2.14 0.62
-5 0 0 126.76 4.46
-5 0 0 114.28 4.25
-5 0 0 122.16 4.27
-5 0 0 119.31 4.62
-5 0 0 115.48 4.18
5 0 0 122.46 4.2
5 0 0 122.33 4.64
5 0 0 120.45 5.06
-6 0 0 9.37 0.61
-6 0 0 9.04 0.69
-6 0 0 10.02 0.61
-6 0 0 8.18 0.92
-6 0 0 9.74 0.8
6 0 0 8.13 1.9
6 0 0 9.02 0.65
-7 0 0 1.74 0.29
-7 0 0 2.01 0.47
-7 0 0 2.23 0.38
-7 0 0 2.43 0.58
7 0 0 1.72 0.6
7 0 0 2.17 0.35
-8 0 0 5.09 0.39
-8 0 0 5.83 0.78
-8 0 0 5.8 0.49
-8 0 0 5.6 0.39
8 0 0 4.75 0.54
8 -1 0 0.46 0.26
-8 1 0 0.3 0.21
-8 1 0 -0.08 0.24
-8 1 0 0.46 0.24
7 -1 0 75 2.8
7 -1 0 76.37 2.76
-7 1 0 78.23 2.89
-7 1 0 79.3 2.93
-7 1 0 78.28 2.79
-7 1 0 75.48 2.77
6 -1 0 31.21 1.3
6 -1 0 32.23 1.27
6 -1 0 30.9 2.19
-6 1 0 30.54 1.44
-6 1 0 32.43 1.31
-6 1 0 33.25 1.33
5 -1 0 2.4 0.29
5 -1 0 1.78 0.52
5 -1 0 1.75 0.26
5 -1 0 2.26 1.32
-5 1 0 1.92 0.34
-5 1 0 1.5 0.39
-5 1 0 2.56 0.72
-5 1 0 2.71 0.39
-5 1 0 3.09 0.44
4 -1 0 27.81 1.9
4 -1 0 28.47 1.04
4 -1 0 26.09 1.05
4 -1 0 30.01 1.36
4 -1 0 27.49 1.68
-4 1 0 26.86 1.16
-4 1 0 29.09 1.44
-4 1 0 26.96 1.09
-4 1 0 26.52 1.22
-4 1 0 25.62 1.17
-4 1 0 26.36 1.28
-4 1 0 24.78 1.14
3 -1 0 111.08 4
3 -1 0 106.04 3.75
3 -1 0 101.29 3.77
3 -1 0 112.46 3.75
3 -1 0 108.95 3.95
3 -1 0 112.95 4.08
3 -1 0 111.33 4.25
-3 1 0 112.24 4.04
-3 1 0 106.79 3.81
-3 1 0 110.15 4.01
-3 1 0 111.37 3.81
-3 1 0 102.78 3.92
2 -1 0 41.1 1.49
2 -1 0 38.58 1.63
2 -1 0 38.74 1.4
2 -1 0 39.33 1.53
2 -1 0 37.86 1.37
2 -1 0 39.28 1.56
2 -1 0 38.61 1.48
2 -1 0 40.05 1.56
2 -1 0 37.32 1.37
-2 1 0 39.24 1.51
-2 1 0 33.15 1.58
-2 1 0 38.28 1.54
-2 1 0 39.29 1.41
-2 1 0 39.74 1.42
-2 1 0 41.23 1.5
-2 1 0 36.61 1.66
-2 1 0 40.39 1.53
1 -1 0 156.23 5.47
1 -1 0 165.17 5.54
1 -1 0 161.51 5.51
1 -1 0 162.98 5.55
1 -1 0 162.7 5.53
1 -1 0 158.89 5.45
1 -1 0 156.39 5.46
1 -1 0 167.16 5.51
-1 1 0 163.11 5.54
-1 1 0 151.37 5.48
-1 1 0 162.73 5.51
-1 1 0 163.05 5.47
-1 1 0 161.46 5.53
-1 1 0 167.17 5.54
-1 1 0 158.69 5.51
-1 1 0 153.72 5.46
0 -1 0 65.35 2.32
0 -1 0 66.52 2.29
0 -1 0 69.89 2.3
0 -1 0 61.72 2.27
0 -1 0 64.15 2.27
0 -1 0 65.78 2.31
0 -1 0 64.47 2.29
0 -1 0 66.37 2.3
0 1 0 69.43 2.31
0 1 0 64.03 2.27
0 1 0 65.66 2.27
0 1 0 68.64 2.31
0 1 0 69.55 2.31
0 1 0 63.68 2.33
0 1 0 68.6 2.29
0 1 0 69.58 2.32
0 1 0 71.96 2.3
0 1 0 62.95 2.27
-1 -1 0 541.77 18.09
-1 -1 0 527.43 18.11
-2 -1 0 115.85 4.29
2 1 0 125.67 4.35
2 1 0 121.89 4.22
2 1 0 123.53 4.21
2 1 0 126.59 4.16
2 1 0 121.93 4.16
2 1 0 122.17 4.2
-3 -1 0 11.71 0.81
-3 -1 0 11.01 0.75
-3 -1 0 11.42 0.57
3 1 0 11.52 0.72
3 1 0 11.34 0.7
3 1 0 11.47 0.54
3 1 0 10.12 0.49
3 1 0 12.27 1.05
3 1 0 12.88 0.8
3 1 0 12.15 0.85
3 1 0 12 0.8
-4 -1 0 31.96 1.32
-4 -1 0 33.81 1.29
-4 -1 0 30.45 1.48
-4 -1 0 30.66 1.43
-4 -1 0 34.3 1.67
-4 -1 0 30.67 1.29
4 1 0 36.44 1.59
4 1 0 32.86 1.22
4 1 0 34.97 1.79
-5 -1 0 13.03 0.89
-5 -1 0 10.07 0.68
-5 -1 0 11.48 0.7
-5 -1 0 13.52 1.21
-5 -1 0 11.58 0.67
5 1 0 13.26 2.52
5 1 0 12.85 0.63
5 1 0 12.17 1.36
5 1 0 11.3 0.88
-6 -1 0 77.77 2.84
-6 -1 0 79.92 2.98
-6 -1 0 80.33 2.88
-6 -1 0 79.42 3.02
-6 -1 0 75.93 2.86
6 1 0 80.5 2.85
6 1 0 79.38 2.84
6 1 0 81.2 2.99
6 1 0 69.89 4.28
-7 -1 0 0.15 0.32
-7 -1 0 0.2 0.2
-7 -1 0 0.11 0.19
-7 -1 0 0.67 0.53
7 1 0 0.97 0.38
7 1 0 0.28 0.36
-8 -1 0 0.89 0.31
-8 -1 0 0.42 0.18
-8 -1 0 0.81 0.18
8 -2 0 42.45 1.54
8 -2 0 41.52 1.54
-8 2 0 41.12 1.61
-8 2 0 41.5 1.59
7 -2 0 26.31 1.06
7 -2 0 25.9 1.08
7 -2 0 24.6 1.17
7 -2 0 26.73 1.4
-7 2 0 26.93 1.23
-7 2 0 26.47 1.26
-7 2 0 26.16 1.13
-7 2 0 26.81 1.11
-7 2 0 26.34 1.06
6 -2 0 195.09 6.57
6 -2 0 185.04 7.2
-6 2 0 201.29 6.54
-6 2 0 196.95 6.57
-6 2 0 194 6.56
-6 2 0 194.05 6.68
-6 2 0 161.78 6.61
-6 2 0 185.12 6.51
5 -2 0 9.63 0.98
5 -2 0 10.06 0.55
5 -2 0 6.86 1.78
5 -2 0 9.69 0.53
-5 2 0 10.14 0.56
-5 2 0 9.61 0.63
-5 2 0 8.91 0.63
-5 2 0 8.59 0.8
-5 2 0 9.3 0.71
4 -2 0 0.73 0.18
4 -2 0 0.63 0.18
4 -2 0 -0.1 1.11
-4 2 0 0.28 0.26
-4 2 0 0.36 0.15
-4 2 0 1.48 0.32
-4 2 0 0.92 0.24
-4 2 0 0.64 0.53
-4 2 0 1.05 0.31
3 -2 0 26.37 1.44
3 -2 0 26.79 0.97
3 -2 0 25.15 0.97
3 -2 0 25.43 1.05
3 -2 0 24.04 1.76
3 -2 0 26.39 1.54
3 -2 0 24.03 2.46
-3 2 0 25.65 1.56
-3 2 0 25.39 0.98
-3 2 0 25.79 1.03
-3 2 0 26.85 1.1
-3 2 0 25.26 1.22
-3 2 0 23.68 1.37
-3 2 0 25.09 1.65
-3 2 0 23.28 1.75
2 -2 0 103.5 4.23
2 -2 0 112.24 3.93
2 -2 0 113.08 4.01
2 -2 0 112.77 3.88
2 -2 0 113.76 4.05
2 -2 0 111.86 4.16
2 -2 0 110.32 3.9
-2 2 0 118.91 4.06
-2 2 0 122.93 4.2
-2 2 0 114.41 4.11
-2 2 0 110.85 3.91
-2 2 0 110.99 3.99
-2 2 0 109.26 4.31
-2 2 0 117.08 4.12
-2 2 0 113.85 3.96
1 -2 0 967.2 31.66
1 -2 0 859.79 31.52
1 -2 0 924.03 31.62
1 -2 0 882.43 31.54
-1 2 0 966.08 31.67
-1 2 0 1000 31.59
0 -2 0 87 3
0 -2 0 85.22 3
0 -2 0 83.4 3.01
0 -2 0 83.97 3.02
0 -2 0 84.71 3.05
0 2 0 80.77 2.95
0 2 0 89.61 3.06
0 2 0 82.01 2.94
0 2 0 90.35 3
0 2 0 91.25 3.03
0 2 0 81.08 2.96
0 2 0 85.39 3
0 2 0 88.35 3.04
0 2 0 88.03 3.03
-1 -2 0 63.86 2.22
-1 -2 0 59.4 2.3
-1 -2 0 64.31 2.37
1 2 0 68.26 2.33
1 2 0 67.92 2.26
1 2 0 66.18 2.28
1 2 0 64.37 2.26
1 2 0 63.39 2.22
1 2 0 64.19 2.26
1 2 0 60.02 2.23
-2 -2 0 56.46 2.23
2 2 0 57.98 2.25
2 2 0 58.68 2.04
2 2 0 57.24 2.04
-3 -2 0 65.56 2.6
-3 -2 0 65.42 2.58
3 2 0 65.11 2.51
3 2 0 64.13 2.86
3 2 0 65.97 2.41
3 2 0 69.42 2.42
-4 -2 0 24.45 1.09
-4 -2 0 24.73 1.23
-4 -2 0 24.65 1.1
-4 -2 0 26.42 1.4
-4 -2 0 24.94 1.07
4 2 0 26.84 1.47
4 2 0 26.29 1.46
4 2 0 25.02 1.05
-5 -2 0 47.55 1.76
-5 -2 0 49.26 2.02
-5 -2 0 48.98 1.84
-5 -2 0 46.43 1.9
-5 -2 0 49.69 1.87
5 2 0 47.93 1.82
-6 -2 0 0.95 0.25
-6 -2 0 0.55 0.41
-6 -2 0 0.7 0.26
-6 -2 0 1.1 0.41
6 2 0 0.89 0.39
6 2 0 0.48 0.7
-7 -2 0 10.04 0.54
-7 -2 0 9.72 0.57
-7 -2 0 9.76 0.78
8 -3 0 3.68 0.43
8 -3 0 2.78 0.45
-8 3 0 3.19 0.51
7 -3 0 27.74 1.11
7 -3 0 28.52 1.09
7 -3 0 26.02 1.26
-7 3 0 27.78 1.11
-7 3 0 26.45 1.12
-7 3 0 28.16 1.26
-7 3 0 26.49 1.14
-7 3 0 29.27 1.28
6 -3 0 48.03 1.74
6 -3 0 45.47 1.72
6 -3 0 46.38 1.81
6 -3 0 44.43 1.91
-6 3 0 46.68 1.91
-6 3 0 45.84 1.73
-6 3 0 44.62 1.75
-6 3 0 48.3 1.77
-6 3 0 45.45 1.77
5 -3 0 81.26 2.93
5 -3 0 79.83 3.43
5 -3 0 83.14 2.93
5 -3 0 84 2.97
-5 3 0 82.31 2.98
-5 3 0 83.95 2.95
-5 3 0 84.02 2.95
-5 3 0 82.09 3.1
-5 3 0 81.99 2.98
4 -3 0 13.13 0.62
4 -3 0 8.21 1.98
4 -3 0 12.97 0.96
4 -3 0 13 0.6
4 -3 0 10.48 2.32
-4 3 0 13.44 0.75
-4 3 0 12.7 1.08
-4 3 0 13.24 0.92
-4 3 0 11.71 0.77
-4 3 0 13.73 0.75
-4 3 0 12.97 0.62
-4 3 0 12.41 0.65
3 -3 0 17.49 0.93
3 -3 0 16.28 0.68
3 -3 0 13.32 2.69
3 -3 0 16.5 1.56
3 -3 0 15.28 1.81
3 -3 0 16.47 0.69
3 -3 0 15.93 0.72
-3 3 0 16.26 0.7
-3 3 0 16.78 0.86
-3 3 0 14.99 0.74
-3 3 0 16.38 0.77
-3 3 0 14.93 1.84
-3 3 0 15.87 1.67
-3 3 0 16.52 1.63
2 -3 0 169.14 6.07
2 -3 0 168.79 5.72
2 -3 0 169.07 6
2 -3 0 172.15 5.84
2 -3 0 165.72 5.71
2 -3 0 167.71 6.07
2 -3 0 167.04 6.18
2 -3 0 169.21 5.98
2 -3 0 173.92 5.88
2 -3 0 162.31 5.81
-2 3 0 171.82 5.86
-2 3 0 165.29 5.78
-2 3 0 168.29 6.01
-2 3 0 163.74 5.72
-2 3 0 165.16 6.07
-2 3 0 162.6 5.76
-2 3 0 162.89 6.12
-2 3 0 168.6 6.08
1 -3 0 46.66 1.71
1 -3 0 46.72 1.93
1 -3 0 47.3 1.8
1 -3 0 47.27 1.95
1 -3 0 41.67 1.99
1 -3 0 45.69 1.81
-1 3 0 45.1 1.64
-1 3 0 43.87 2.27
-1 3 0 49.78 1.93
-1 3 0 46.11 1.95
-1 3 0 48.82 1.77
-1 3 0 44.99 1.66
-1 3 0 46.7 1.67
-1 3 0 44.1 1.97
0 -3 0 41.4 1.69
0 -3 0 41.55 1.7
0 -3 0 42.11 1.64
0 -3 0 40.56 1.66
0 3 0 40.14 1.5
0 3 0 42.46 1.65
0 3 0 40.92 1.5
0 3 0 43.14 1.74
0 3 0 39.29 1.46
0 3 0 42.26 1.89
0 3 0 43.31 1.72
-1 -3 0 55.88 2.24
1 3 0 57.19 2.13
1 3 0 57.43 2.13
1 3 0 58.14 2.14
1 3 0 58.18 2.22
1 3 0 53.5 1.95
1 3 0 55.99 2.06
1 3 0 54.87 2.02
1 3 0 58.17 2.17
-2 -3 0 58.99 2.46
2 3 0 58.6 2.55
2 3 0 61.99 2.23
2 3 0 60.72 2.19
2 3 0 59.7 2.24
2 3 0 61.96 2.28
-3 -3 0 17.05 0.89
-3 -3 0 18.45 1.07
-3 -3 0 18.22 0.83
-3 -3 0 18.25 0.88
-3 -3 0 17.14 0.95
-3 -3 0 17.9 0.74
-3 -3 0 18.91 1.48
3 3 0 15.3 2.4
-4 -3 0 6.64 0.45
-4 -3 0 5.6 0.58
-4 -3 0 6.44 0.53
4 3 0 5.38 0.86
-5 -3 0 6.75 0.58
-5 -3 0 6.61 0.48
-5 -3 0 6.98 0.57
-5 -3 0 5.04 0.75
-6 -3 0 9.65 0.63
-6 -3 0 9.15 0.59
-7 -3 0 7.26 0.46
-7 -3 0 6.63 0.45
7 -4 0 10.24 0.61
7 -4 0 7.66 0.7
7 -4 0 10 0.51
-7 4 0 9.76 0.55
-7 4 0 10.67 0.74
-7 4 0 10.28 0.55
6 -4 0 20.51 1.17
6 -4 0 19.66 1.34
6 -4 0 21 0.95
6 -4 0 23.01 0.91
-6 4 0 23.36 0.94
-6 4 0 21.82 0.97
-6 4 0 21.66 0.95
5 -4 0 16.7 0.97
5 -4 0 18.87 0.84
5 -4 0 17.64 1.04
5 -4 0 18.66 1.35
5 -4 0 18.26 1.59
5 -4 0 20.83 0.98
-5 4 0 18.65 0.95
-5 4 0 18.43 1.19
-5 4 0 19.17 0.86
-5 4 0 18.26 0.84
4 -4 0 68.88 2.42
4 -4 0 60.26 2.71
4 -4 0 66.39 2.37
4 -4 0 67.04 2.32
4 -4 0 64.67 2.32
4 -4 0 61.35 2.41
-4 4 0 65.51 2.34
-4 4 0 64.13 2.44
-4 4 0 62.39 2.67
-4 4 0 65.06 2.48
3 -4 0 36.8 1.48
3 -4 0 33.91 2.89
3 -4 0 38.23 1.66
3 -4 0 35.51 1.42
3 -4 0 38.25 1.37
3 -4 0 36.16 1.49
3 -4 0 36.73 1.36
3 -4 0 35.75 1.42
-3 4 0 36.7 1.38
-3 4 0 35.49 1.61
-3 4 0 33.25 3.57
-3 4 0 35.55 1.56
-3 4 0 35.77 1.6
-3 4 0 37.5 2.8
-3 4 0 35.36 1.39
-3 4 0 35.97 1.38
2 -4 0 58.36 2.18
2 -4 0 60.85 2.29
2 -4 0 53.84 3.02
2 -4 0 59.15 2.11
2 -4 0 58.85 2.2
2 -4 0 60.81 2.18
2 -4 0 58.55 2.85
2 -4 0 56.62 2.95
2 -4 0 59.3 2.11
2 -4 0 56.33 3.05
-2 4 0 60.36 2.19
-2 4 0 58.45 3.01
-2 4 0 59.1 2.8
-2 4 0 62.54 2.11
-2 4 0 54.58 2.14
-2 4 0 62.98 2.32
-2 4 0 61.15 3.05
1 -4 0 145.55 5.55
1 -4 0 146.99 5.15
1 -4 0 146.65 5.39
1 -4 0 166.14 5.4
1 -4 0 144.57 5.15
1 -4 0 141.04 5.15
1 -4 0 136.84 5.43
-1 4 0 154.71 5.52
-1 4 0 155.23 5.51
-1 4 0 145.13 5.08
-1 4 0 149.35 5.09
-1 4 0 148.93 5.14
-1 4 0 150.33 5.57
-1 4 0 136.68 5.68
-1 4 0 148.98 5.14
-1 4 0 152.57 5.29
0 -4 0 15.38 0.8
0 -4 0 15.4 1.3
0 -4 0 15.73 1.1
0 -4 0 14.31 0.8
0 -4 0 15.87 1.66
0 -4 0 17.86 1.29
0 -4 0 16.25 0.76
0 4 0 12.78 1.71
0 4 0 16.47 1.35
0 4 0 17.15 1.21
0 4 0 17.77 1.45
0 4 0 16.05 0.7
0 4 0 16.45 0.64
0 4 0 16.29 0.74
0 4 0 16.14 0.75
-1 -4 0 57.01 2.15
-1 -4 0 57.38 2.12
-1 -4 0 62.96 2.52
-1 -4 0 58.2 2.1
-1 -4 0 60.31 2.13
-1 -4 0 56.5 2.05
1 4 0 58.71 2.12
1 4 0 60.14 2.75
1 4 0 52.14 2.71
1 4 0 48.42 2.7
1 4 0 61.37 2.45
1 4 0 60.31 2.13
1 4 0 60.77 2.04
-2 -4 0 11.3 0.59
-2 -4 0 11.7 0.64
-2 -4 0 10.96 0.75
-2 -4 0 11.04 0.53
-2 -4 0 10.52 1.25
-2 -4 0 10.88 0.69
-2 -4 0 10.66 0.88
2 4 0 10.67 1.17
2 4 0 11.29 0.54
2 4 0 11.62 0.75
2 4 0 10.61 0.79
-3 -4 0 23.26 1.11
-3 -4 0 21.35 1.14
-3 -4 0 22.91 0.97
-3 -4 0 25.71 1.97
-3 -4 0 23.89 1.17
-3 -4 0 23.19 0.92
3 4 0 23.05 1.39
-4 -4 0 10.71 0.71
-4 -4 0 10.72 0.56
-4 -4 0 11.05 0.84
-4 -4 0 10.75 0.7
-4 -4 0 9.8 0.88
-4 -4 0 11.87 0.73
-5 -4 0 14.93 0.78
-5 -4 0 15.14 0.67
-5 -4 0 13.57 0.89
-6 -4 0 16.4 0.76
-6 -4 0 17.24 0.76
-6 -4 0 14.47 0.72
7 -5 0 3.11 0.29
7 -5 0 2.69 0.45
-7 5 0 3.1 0.45
-7 5 0 3.09 0.37
6 -5 0 8.22 0.47
6 -5 0 8.22 0.6
-6 5 0 8.62 0.6
-6 5 0 7.96 0.5
-6 5 0 8.66 0.85
5 -5 0 1.1 0.41
5 -5 0 0.83 0.19
5 -5 0 1.66 0.33
-5 5 0 0.77 0.21
-5 5 0 0.91 0.31
4 -5 0 18.63 0.8
4 -5 0 18.25 0.86
4 -5 0 18.57 0.96
4 -5 0 17.9 1.04
-4 5 0 17.79 1.73
-4 5 0 18.09 0.9
-4 5 0 19.26 1.03
-4 5 0 18.4 1.13
-4 5 0 18.73 1.03
3 -5 0 35.04 1.37
3 -5 0 35.38 1.44
3 -5 0 36.15 1.47
3 -5 0 36.9 1.35
-3 5 0 33.01 1.35
-3 5 0 34.42 1.78
-3 5 0 27.08 4.7
-3 5 0 36.36 1.4
-3 5 0 36.14 1.55
2 -5 0 3.58 0.46
2 -5 0 4.6 0.71
2 -5 0 3.03 0.35
2 -5 0 3.21 0.98
-2 5 0 2.83 0.38
-2 5 0 3.27 0.43
-2 5 0 1.66 1.52
-2 5 0 2.56 0.54
-2 5 0 2.99 0.33
-2 5 0 3.13 0.59
1 -5 0 27.92 1.18
1 -5 0 29.22 1.23
1 -5 0 27.93 1.11
1 -5 0 30.38 1.23
1 -5 0 28.55 1.13
1 -5 0 29.33 1.84
1 -5 0 28.1 1.21
-1 5 0 31.3 2.39
-1 5 0 29.08 1.13
-1 5 0 30.54 1.5
0 -5 0 143.05 4.83
0 -5 0 142.27 4.86
0 -5 0 138.47 4.84
0 -5 0 135.68 4.88
0 -5 0 137.79 4.84
0 -5 0 133.68 4.79
0 -5 0 148.88 5.39
0 5 0 139.27 4.91
0 5 0 136.79 5.49
0 5 0 138.97 4.81
-1 -5 0 37.66 1.48
-1 -5 0 39.98 1.46
-1 -5 0 37.62 2.3
1 5 0 42.07 2.56
1 5 0 39.35 1.85
1 5 0 38.55 1.5
-2 -5 0 19.71 1.03
-2 -5 0 21.01 2.14
-2 -5 0 20.23 0.87
-2 -5 0 20.41 0.93
-2 -5 0 17.8 1.06
-2 -5 0 19.72 0.81
2 5 0 25.1 2.81
2 5 0 19.49 1.23
-3 -5 0 10.68 0.55
-3 -5 0 12.25 0.85
-3 -5 0 10.69 1.11
-3 -5 0 8.34 1.88
-3 -5 0 11.95 0.62
-3 -5 0 10.34 0.8
3 5 0 12.12 0.81
-4 -5 0 25.92 1.16
-4 -5 0 26.72 1.06
-4 -5 0 25.55 1.02
-5 -5 0 5.37 0.53
-5 -5 0 6.43 0.59
-5 -5 0 5.17 0.39
-6 -5 0 4.15 0.61
6 -6 0 5.46 0.35
6 -6 0 4.94 0.64
-6 6 0 5.04 0.5
-6 6 0 5.54 0.37
5 -6 0 13.54 0.84
5 -6 0 10.95 0.79
5 -6 0 13.35 0.61
-5 6 0 11.41 1.02
-5 6 0 13.11 0.86
-5 6 0 14.22 0.83
4 -6 0 3.89 0.57
4 -6 0 3.56 0.37
4 -6 0 3.83 0.59
-4 6 0 5.31 0.82
-4 6 0 4.64 0.82
3 -6 0 1.13 0.31
3 -6 0 2.07 0.34
3 -6 0 1.85 0.35
-3 6 0 2.05 0.29
-3 6 0 2.02 0.63
-3 6 0 2.24 0.3
-3 6 0 2.87 0.71
-3 6 0 1.39 0.41
-3 6 0 1.75 0.91
2 -6 0 18.64 0.89
2 -6 0 18.63 0.91
2 -6 0 19.2 0.92
2 -6 0 18.48 0.81
2 -6 0 19.15 0.81
-2 6 0 19.19 0.89
-2 6 0 18.95 0.86
-2 6 0 17.88 1.38
-2 6 0 16.47 1.56
-2 6 0 19.19 0.83
1 -6 0 1.01 1.53
1 -6 0 1 0.28
1 -6 0 1.03 0.3
1 -6 0 0.87 0.22
1 -6 0 0.95 0.29
1 -6 0 0.98 0.23
1 -6 0 0.75 0.24
-1 6 0 0.62 0.56
-1 6 0 0.85 0.32
-1 6 0 1.13 0.67
-1 6 0 0.89 0.23
-1 6 0 1.18 0.29
0 -6 0 12.31 0.65
0 -6 0 12.74 0.7
0 -6 0 12.53 0.6
0 -6 0 13.82 0.68
0 -6 0 13.86 2.4
0 -6 0 13.28 0.73
0 -6 0 12.59 0.75
0 6 0 13.24 0.69
0 6 0 11.76 1.26
0 6 0 11.61 1.4
0 6 0 12.54 0.66
-1 -6 0 14.05 0.75
-1 -6 0 13.93 0.73
-1 -6 0 13.47 0.7
-1 -6 0 14.03 0.66
1 6 0 12.88 1.59
1 6 0 15.2 0.76
1 6 0 15.02 0.75
-2 -6 0 1.16 2.39
-2 -6 0 0.57 0.18
-2 -6 0 0.24 0.24
-2 -6 0 0.72 0.24
-2 -6 0 0.81 0.37
2 6 0 0.47 0.35
2 6 0 0.91 1.25
-3 -6 0 11.98 0.65
-3 -6 0 12.98 0.59
3 6 0 14.02 1.05
-4 -6 0 7.08 0.42
-4 -6 0 6.55 0.46
-5 -6 0 21.39 0.81
6 -7 0 16.22 0.63
5 -7 0 22.69 0.87
5 -7 0 22.22 0.96
-5 7 0 22.94 0.89
-5 7 0 21.21 1.01
4 -7 0 0.1 0.16
4 -7 0 0.06 0.26
-4 7 0 0.04 0.19
-4 7 0 0.02 0.58
3 -7 0 5.92 0.58
3 -7 0 7.16 0.58
3 -7 0 6.41 0.53
-3 7 0 6.29 0.95
-3 7 0 6.38 0.6
-3 7 0 7.81 0.52
2 -7 0 22.42 0.91
2 -7 0 21.12 0.95
2 -7 0 21.71 0.88
2 -7 0 22.45 0.99
2 -7 0 22.13 0.97
-2 7 0 21.9 0.95
-2 7 0 19.43 0.98
-2 7 0 21.02 1.02
1 -7 0 25.69 1.08
1 -7 0 26.06 1.04
1 -7 0 25.28 1.08
1 -7 0 25.83 1.01
-1 7 0 25.52 1.14
0 -7 0 10.25 0.52
0 -7 0 9.65 0.59
0 -7 0 10.06 0.59
0 -7 0 10.9 0.58
0 7 0 9.85 0.69
-1 -7 0 0.38 0.26
-1 -7 0 0.29 0.36
-1 -7 0 0.22 0.26
1 7 0 0.42 0.33
-2 -7 0 2.08 0.3
-2 -7 0 2.57 0.4
-2 -7 0 2.15 0.36
2 7 0 2.72 0.46
2 7 0 2.6 0.47
-3 -7 0 13.41 0.57
-3 -7 0 13.27 0.62
-3 -7 0 13.77 0.67
-4 -7 0 0.85 0.15
4 -8 0 1.38 0.19
-4 8 0 1.13 0.25
-4 8 0 1.02 0.26
-4 8 0 1.2 0.24
3 -8 0 10.77 0.56
3 -8 0 11.47 0.52
-3 8 0 9.11 0.79
2 -8 0 4.11 0.5
2 -8 0 3.41 0.36
2 -8 0 2.88 0.42
-2 8 0 3.4 0.61
-2 8 0 3.77 0.49
1 -8 0 15.3 0.76
1 -8 0 13.85 0.62
1 -8 0 15.11 0.8
1 -8 0 14.02 0.67
1 -8 0 14.88 0.67
-1 8 0 13.39 0.87
-1 8 0 13.88 0.71
0 -8 0 7.38 0.5
0 -8 0 7.59 0.41
0 -8 0 6.88 0.65
0 -8 0 8.16 0.48
0 8 0 7.83 0.56
0 8 0 8.68 0.73
-1 -8 0 4.87 0.39
-1 -8 0 4.64 0.31
-1 -8 0 5.15 0.37
1 8 0 3.82 0.54
-2 -8 0 25.72 0.99
-2 -8 0 22.57 0.9
-2 -8 0 23.49 0.88
0 9 -1 13.58 0.75
0 -9 1 13.43 0.56
-1 9 -1 5.42 0.5
1 -9 1 4.82 0.33
-3 -8 1 4.19 0.41
-3 -8 1 3.2 0.28
-3 -8 1 4.18 0.3
2 8 -1 22.49 1.21
-2 -8 1 23.02 0.93
-2 -8 1 24.42 0.88
-2 -8 1 22.94 0.9
1 8 -1 9.38 0.94
-1 -8 1 10.94 0.57
-1 -8 1 10.52 0.54
-1 -8 1 10.81 0.49
0 8 -1 5.89 0.64
0 -8 1 6.32 0.39
0 -8 1 5.88 0.46
0 -8 1 6.39 0.47
-1 8 -1 14.51 0.92
-1 8 -1 13.52 0.82
1 -8 1 14.1 0.63
1 -8 1 13.67 0.72
1 -8 1 16.94 0.84
1 -8 1 13.39 0.74
1 -8 1 13.78 0.71
-2 8 -1 2.98 0.42
-2 8 -1 2.88 0.48
-2 8 -1 0.83 0.45
2 -8 1 1.84 0.26
2 -8 1 2.33 0.31
2 -8 1 1.67 0.23
-3 8 -1 5.12 0.66
-3 8 -1 5.14 0.42
-3 8 -1 3.86 1.02
3 -8 1 3.85 0.44
3 -8 1 4.37 0.45
3 -8 1 4.53 0.46
3 -8 1 4.76 0.4
-4 8 -1 3.93 0.51
-4 8 -1 3.66 0.34
4 -8 1 3.87 0.4
4 -8 1 2.89 0.32
5 -8 1 9.41 0.44
-4 -7 1 1.91 0.31
-4 -7 1 2.09 0.28
-4 -7 1 1.74 0.34
-3 -7 1 5.61 0.46
-3 -7 1 6.46 0.39
-3 -7 1 6.32 0.43
2 7 -1 8.41 0.9
-2 -7 1 9.75 0.57
-2 -7 1 9.07 0.76
-2 -7 1 10.43 0.73
1 7 -1 5.96 0.61
1 7 -1 6.31 0.63
-1 -7 1 6.8 0.43
-1 -7 1 6.92 0.5
-1 -7 1 6.55 0.49
0 7 -1 12.5 2.02
0 7 -1 8.91 0.81
0 7 -1 9.18 0.62
0 7 -1 9.5 0.65
0 -7 1 10.1 0.6
0 -7 1 11.27 0.84
0 -7 1 9.66 0.51
0 -7 1 8.74 0.59
0 -7 1 9.93 0.64
-1 7 -1 0.73 0.24
-1 7 -1 0.9 0.31
-1 7 -1 0.64 0.3
-1 7 -1 0.26 0.99
1 -7 1 0.66 0.28
1 -7 1 0.79 0.21
1 -7 1 0.63 0.29
1 -7 1 0.46 0.26
1 -7 1 0.37 0.24
1 -7 1 0.59 0.25
-2 7 -1 3.34 0.45
-2 7 -1 4.08 0.56
-2 7 -1 2.81 1.13
-2 7 -1 4.5 0.5
2 -7 1 4.53 0.44
2 -7 1 4.22 0.51
2 -7 1 3.67 0.48
2 -7 1 4.53 0.53
2 -7 1 4.96 0.41
-3 7 -1 5.86 0.48
-3 7 -1 6.29 0.62
3 -7 1 5.7 0.43
3 -7 1 5.84 0.46
3 -7 1 5.83 0.54
3 -7 1 6.36 0.57
-4 7 -1 5.25 0.42
-4 7 -1 6.16 1.04
4 -7 1 5.76 0.55
4 -7 1 5.15 0.54
4 -7 1 5.41 0.57
4 -7 1 5.71 0.42
-5 7 -1 4.53 0.67
5 -7 1 3.35 0.48
5 -7 1 3.68 0.33
5 -7 1 4.33 0.6
-6 7 -1 25.25 1.07
6 -7 1 28.8 1.06
6 -7 1 24.4 1.07
-5 -6 1 11.08 0.68
-4 -6 1 3.53 0.52
-4 -6 1 3.63 0.4
-4 -6 1 2.84 0.36
-3 -6 1 17.43 0.83
-3 -6 1 16.73 0.78
-3 -6 1 17.17 0.73
2 6 -1 4.06 1.19
-2 -6 1 2.9 0.4
-2 -6 1 3.91 0.35
-2 -6 1 3.01 0.45
1 6 -1 61.05 2.14
1 6 -1 57.56 2.15
-1 -6 1 61.63 2.1
-1 -6 1 52.6 2.24
-1 -6 1 55.53 2.14
-1 -6 1 61.34 2.19
-1 -6 1 60.12 2.15
0 6 -1 15.88 0.73
0 6 -1 16.22 0.74
0 6 -1 14.32 1.27
0 -6 1 15.14 0.79
0 -6 1 15.19 0.75
0 -6 1 14.12 0.81
0 -6 1 15.49 0.68
0 -6 1 15.19 0.76
0 -6 1 15.06 0.76
-1 6 -1 31.37 1.75
-1 6 -1 32.45 1.26
-1 6 -1 32.69 1.24
1 -6 1 29.52 1.27
1 -6 1 29.75 1.3
1 -6 1 32.53 1.2
1 -6 1 32.71 1.29
1 -6 1 31.67 1.24
-2 6 -1 27.11 1.09
-2 6 -1 27.01 1.41
2 -6 1 27.18 1.14
2 -6 1 27.17 1.09
2 -6 1 26.43 1.18
-3 6 -1 5.26 0.46
-3 6 -1 5.28 0.49
-3 6 -1 5.3 1.35
-3 6 -1 5.68 0.61
-3 6 -1 6.46 1.01
3 -6 1 4.45 0.65
3 -6 1 5.71 0.59
3 -6 1 4.94 0.62
3 -6 1 4.83 0.43
-4 6 -1 7.37 0.51
-4 6 -1 9.05 2.14
-4 6 -1 6.07 0.85
-4 6 -1 6.31 0.79
4 -6 1 8.41 0.69
4 -6 1 7.18 0.64
4 -6 1 6.97 0.47
-5 6 -1 9 0.75
-5 6 -1 8.34 0.74
5 -6 1 9.03 0.76
-6 6 -1 8.09 0.58
-6 6 -1 7.45 0.45
-6 6 -1 8.58 0.83
6 -6 1 7.73 0.43
6 -6 1 7.53 0.76
7 -6 1 5.99 0.33
-6 -5 1 6.95 0.69
-5 -5 1 4.09 0.41
-5 -5 1 4.28 0.57
-5 -5 1 4.05 0.58
-4 -5 1 24.17 1.03
-4 -5 1 24.46 0.99
-4 -5 1 24.91 1.1
-4 -5 1 25.82 1.16
-3 -5 1 5.3 0.5
-3 -5 1 4.56 0.46
-3 -5 1 4.32 0.38
-3 -5 1 4.94 0.74
2 5 -1 25.79 1.53
2 5 -1 27.16 1.06
-2 -5 1 26.81 1.08
-2 -5 1 26.39 1.02
-2 -5 1 26.1 2.06
-2 -5 1 25.82 1.1
1 5 -1 1.82 0.48
1 5 -1 3 0.86
1 5 -1 2.77 0.34
1 5 -1 1.63 0.36
-1 -5 1 2.2 0.23
-1 -5 1 3.35 0.51
-1 -5 1 2.44 0.41
-1 -5 1 2.45 0.41
-1 -5 1 3.6 0.81
-1 -5 1 2.93 0.37
0 5 -1 130.72 4.31
0 5 -1 125.69 4.39
0 5 -1 122.36 4.3
0 5 -1 124.43 4.88
0 -5 1 118.78 4.32
0 -5 1 123.21 4.33
0 -5 1 126.57 4.37
0 -5 1 121.19 4.33
0 -5 1 124.59 4.76
0 -5 1 124.95 4.35
0 -5 1 127.93 4.29
-1 5 -1 5.74 0.36
-1 5 -1 5.5 0.63
-1 5 -1 5.68 0.71
-1 5 -1 6.07 0.39
-1 5 -1 5.91 1.08
1 -5 1 7.13 1.16
1 -5 1 5.29 0.47
1 -5 1 5.37 0.52
1 -5 1 5.94 0.52
1 -5 1 3.82 0.61
1 -5 1 4.53 0.5
-2 5 -1 49.74 1.9
-2 5 -1 50.38 1.84
-2 5 -1 49.8 1.95
-2 5 -1 52.66 2.15
-2 5 -1 50.75 1.82
-2 5 -1 49.24 3.08
2 -5 1 51.07 2.12
2 -5 1 51.42 1.91
2 -5 1 46.39 1.88
2 -5 1 50.52 1.82
2 -5 1 49.39 1.89
-3 5 -1 72.28 2.73
-3 5 -1 74.22 2.55
-3 5 -1 69.98 2.89
-3 5 -1 71.01 2.55
-3 5 -1 74.72 2.57
-3 5 -1 72.83 2.69
-3 5 -1 71.33 4.83
-3 5 -1 74.64 2.68
3 -5 1 68.15 2.67
3 -5 1 69.44 2.65
3 -5 1 70.22 2.53
3 -5 1 65.63 2.87
3 -5 1 69.39 2.65
-4 5 -1 1.47 0.36
-4 5 -1 0.89 0.22
-4 5 -1 1.37 0.37
-4 5 -1 2.19 0.46
-4 5 -1 1.32 0.26
4 -5 1 1.95 0.35
4 -5 1 1.28 0.35
4 -5 1 1.97 0.33
4 -5 1 0.53 0.67
-5 5 -1 53.68 1.99
-5 5 -1 50.16 1.9
-5 5 -1 49.82 1.88
5 -5 1 52.17 1.87
5 -5 1 50.82 1.97
5 -5 1 52.54 2.06
5 -5 1 50.75 1.91
5 -5 1 45.5 2.84
-6 5 -1 12.52 0.65
-6 5 -1 12.9 0.73
-6 5 -1 12.84 0.69
6 -5 1 13.54 0.62
6 -5 1 11.49 1.11
6 -5 1 11.26 0.74
-7 5 -1 4.6 0.51
-7 5 -1 3.97 0.57
-7 5 -1 4.39 0.4
7 -5 1 4.57 0.33
-7 -4 1 10.75 0.59
-7 -4 1 10.37 0.6
-6 -4 1 8.28 0.58
-6 -4 1 8.81 0.56
-5 -4 1 0.66 0.28
-5 -4 1 0.88 0.32
-5 -4 1 1.2 0.25
-4 -4 1 79.21 2.92
-4 -4 1 82.89 2.9
-4 -4 1 80.02 2.85
-4 -4 1 80.33 2.81
-4 -4 1 77.2 2.88
-3 -4 1 5.01 0.46
-3 -4 1 4.86 0.65
-3 -4 1 5.96 0.65
-3 -4 1 5.01 0.41
-3 -4 1 5.61 0.52
2 4 -1 15.98 0.88
-2 -4 1 16.9 0.81
-2 -4 1 17.75 0.76
-2 -4 1 16.4 0.71
1 4 -1 9.32 0.93
1 4 -1 8.97 0.59
1 4 -1 9.65 0.66
1 4 -1 7.89 0.95
1 4 -1 8.89 0.55
1 4 -1 7.36 1.41
1 4 -1 9.48 1.02
-1 -4 1 9.56 0.59
-1 -4 1 8.99 0.48
-1 -4 1 9.14 0.87
-1 -4 1 9.63 0.72
-1 -4 1 9.11 0.57
0 4 -1 71.59 2.93
0 4 -1 70.88 2.86
0 4 -1 72.67 2.5
0 4 -1 68.41 2.52
0 4 -1 70.43 2.54
0 4 -1 73.16 2.81
0 4 -1 67.94 3.19
0 4 -1 77.39 2.7
0 -4 1 71.61 2.77
0 -4 1 73.88 2.8
-1 4 -1 176.91 6.08
-1 4 -1 172.83 6.42
-1 4 -1 179.88 6.27
-1 4 -1 178.64 6.46
-1 4 -1 174.97 6.39
-1 4 -1 170.73 6.08
1 -4 1 190.17 6.33
1 -4 1 176.53 6.37
1 -4 1 183.09 6.5
1 -4 1 176.26 6.44
1 -4 1 173.97 6.2
1 -4 1 182.02 6.22
-2 4 -1 76.73 3.34
-2 4 -1 82.71 2.91
-2 4 -1 72.7 3.91
-2 4 -1 74.61 3.31
-2 4 -1 76.06 3.22
-2 4 -1 76.85 2.7
-2 4 -1 77.05 2.7
-2 4 -1 77.74 2.69
-2 4 -1 76.83 2.76
2 -4 1 74.28 3.33
2 -4 1 76.77 2.78
2 -4 1 77.67 3.42
2 -4 1 72.22 2.68
2 -4 1 76.15 3.38
2 -4 1 82.5 2.74
2 -4 1 75.4 2.8
2 -4 1 77.89 3.09
-3 4 -1 70.4 2.48
-3 4 -1 71.82 2.46
-3 4 -1 74.41 2.58
-3 4 -1 67.2 3.85
-3 4 -1 67.43 2.6
-3 4 -1 71.94 2.72
-3 4 -1 65.47 3.44
-3 4 -1 70.32 2.64
3 -4 1 69.46 2.48
3 -4 1 66.92 2.58
3 -4 1 70.2 2.56
3 -4 1 64.15 3.9
3 -4 1 71.6 2.5
3 -4 1 72.03 2.76
3 -4 1 70.31 2.46
3 -4 1 68.06 3.64
3 -4 1 69.74 2.5
-4 4 -1 250.36 8.76
-4 4 -1 240 8.47
4 -4 1 249.78 8.45
4 -4 1 239 8.51
4 -4 1 253.94 8.49
4 -4 1 255.33 8.53
4 -4 1 249.78 8.47
4 -4 1 227.04 9.83
4 -4 1 255.11 8.57
4 -4 1 253.14 8.86
-5 4 -1 30.73 1.17
-5 4 -1 28.14 1.5
-5 4 -1 27.49 1.22
-5 4 -1 28.2 1.15
5 -4 1 25.57 1.75
5 -4 1 28.91 1.13
5 -4 1 28.7 1.51
5 -4 1 28.71 1.25
5 -4 1 27.23 1.31
5 -4 1 27.56 1.14
5 -4 1 30.58 1.37
-6 4 -1 71.49 2.53
-6 4 -1 72.86 2.8
-6 4 -1 72.07 2.58
-6 4 -1 71.2 2.56
6 -4 1 66.13 2.63
6 -4 1 74.3 2.55
6 -4 1 66.1 2.72
6 -4 1 69.03 2.52
-7 4 -1 2.49 0.55
-7 4 -1 2.81 0.34
-7 4 -1 1.8 0.44
-7 4 -1 2.36 0.4
7 -4 1 2.23 0.31
7 -4 1 1.58 0.34
-7 -3 1 6.66 0.43
-7 -3 1 6.84 0.45
-6 -3 1 57.8 2.5
-6 -3 1 66.7 2.67
-6 -3 1 69.4 2.66
-5 -3 1 20.47 1.09
-5 -3 1 21.72 1.27
-5 -3 1 20.58 1.05
-5 -3 1 22.87 1
4 3 -1 14.16 1.51
-4 -3 1 14.55 0.7
-4 -3 1 11.89 1.54
-4 -3 1 13.96 0.81
-4 -3 1 13.88 0.83
3 3 -1 85.37 3.62
-3 -3 1 85.65 3.01
-3 -3 1 82.16 3.03
-3 -3 1 83.9 3.03
-3 -3 1 84.23 2.96
-3 -3 1 85.39 3.06
-3 -3 1 87.72 3.27
2 3 -1 78.41 2.82
-2 -3 1 70.92 2.87
1 3 -1 93.35 3.35
1 3 -1 101.45 3.44
1 3 -1 101.44 3.41
1 3 -1 98.53 3.39
1 3 -1 91.94 3.34
1 3 -1 103.83 3.42
1 3 -1 103.54 3.49
-1 -3 1 92.59 3.35
-1 -3 1 90.07 3.46
-1 -3 1 96.53 3.35
0 3 -1 45.53 1.74
0 3 -1 41.89 1.55
0 3 -1 39.63 1.52
0 3 -1 43.69 1.83
0 3 -1 44.39 1.65
0 3 -1 44.06 1.73
0 -3 1 43.6 1.73
0 -3 1 44.08 1.55
0 -3 1 46.43 1.7
0 -3 1 42.07 1.69
0 -3 1 45.12 1.73
-1 3 -1 111.3 3.89
-1 3 -1 108.76 3.94
-1 3 -1 102.29 4.08
-1 3 -1 110.43 3.94
-1 3 -1 111.63 3.83
1 -3 1 112.03 3.78
1 -3 1 106.06 3.91
1 -3 1 101.66 3.69
1 -3 1 104.98 3.83
1 -3 1 104.19 3.96
1 -3 1 105.14 3.86
1 -3 1 113.93 3.96
1 -3 1 109.97 3.85
-2 3 -1 92.97 3.51
-2 3 -1 94.12 3.68
-2 3 -1 93.24 3.28
-2 3 -1 95.5 3.37
-2 3 -1 96.18 3.58
-2 3 -1 95.19 3.58
-2 3 -1 90.58 3.24
2 -3 1 93.64 3.56
2 -3 1 90.96 3.24
2 -3 1 98.68 3.41
2 -3 1 96.06 3.6
2 -3 1 89.67 3.23
2 -3 1 90.76 3.68
2 -3 1 93.6 3.24
-3 3 -1 11.08 1.42
-3 3 -1 9.2 0.49
-3 3 -1 9.66 1.45
-3 3 -1 6.74 1.67
-3 3 -1 8.92 0.49
-3 3 -1 9.34 0.54
-3 3 -1 9.77 0.66
-3 3 -1 10.71 1.56
3 -3 1 9.88 0.71
3 -3 1 9.49 1.32
3 -3 1 6.45 1.47
3 -3 1 9.43 0.46
3 -3 1 9.29 0.47
3 -3 1 9.35 1.6
-4 3 -1 3.86 0.62
-4 3 -1 2.98 0.34
-4 3 -1 2.81 0.48
-4 3 -1 2.31 0.35
-4 3 -1 2.53 0.63
-4 3 -1 2.26 0.48
4 -3 1 3.1 0.66
4 -3 1 1.93 1.17
4 -3 1 2.4 1.77
4 -3 1 2.84 0.46
4 -3 1 3.49 0.32
4 -3 1 3.33 0.43
4 -3 1 2.79 0.33
4 -3 1 1.82 0.58
-5 3 -1 35.65 1.37
-5 3 -1 35.16 1.38
-5 3 -1 35.27 1.36
-5 3 -1 35.6 1.42
-5 3 -1 34.65 1.43
-5 3 -1 30.1 1.85
-5 3 -1 33.27 1.57
5 -3 1 35.88 1.87
5 -3 1 37.33 1.48
5 -3 1 35.69 1.35
5 -3 1 36.37 1.4
-6 3 -1 9.05 0.61
-6 3 -1 8.91 0.57
-6 3 -1 7.71 0.67
-6 3 -1 10.28 0.63
-6 3 -1 8.59 0.85
6 -3 1 7.38 1.66
6 -3 1 9.74 0.57
6 -3 1 9.12 0.81
6 -3 1 8.35 0.66
-7 3 -1 6.61 0.67
-7 3 -1 6.85 0.64
-7 3 -1 7.76 0.53
-7 3 -1 7.25 0.72
7 -3 1 6.96 1.09
7 -3 1 7.58 0.54
7 -3 1 7.89 0.47
7 -3 1 6.68 0.76
-8 3 -1 12.37 0.7
8 -3 1 11.49 0.68
8 -3 1 11.82 0.55
8 -3 1 13.43 0.8
7 2 -1 17.79 1.16
-7 -2 1 18.84 0.98
-7 -2 1 18.23 0.82
-7 -2 1 18.31 0.81
6 2 -1 23.45 1.14
-6 -2 1 25.52 1.24
-6 -2 1 25.87 1.34
-6 -2 1 24.64 1.08
-6 -2 1 24.2 1.06
5 2 -1 166.35 5.55
5 2 -1 158.18 6.1
-5 -2 1 154.71 5.67
-5 -2 1 159.23 5.58
-5 -2 1 161.67 6.03
-5 -2 1 163 5.61
-5 -2 1 157.09 5.7
4 2 -1 15.3 1.09
-4 -2 1 14.07 1.2
-4 -2 1 15.36 1.05
-4 -2 1 14.02 0.71
-4 -2 1 11.19 1.19
-4 -2 1 13.93 0.75
3 2 -1 118.23 4.53
3 2 -1 121.39 4.25
-3 -2 1 123.27 4.41
2 2 -1 390.77 12.69
-2 -2 1 374 12.72
-2 -2 1 346.56 12.66
1 2 -1 313.03 10.51
1 2 -1 321.68 10.52
1 2 -1 325.58 10.53
1 2 -1 318.45 10.51
1 2 -1 329.6 10.51
-1 -2 1 290.03 10.47
-1 -2 1 294.21 10.47
-1 -2 1 299.77 10.62
-1 -2 1 298.38 10.57
0 2 -1 603.44 19.36
0 2 -1 602.9 19.39
0 -2 1 549.52 19.32
0 -2 1 559.22 19.34
0 -2 1 554.1 19.37
0 -2 1 556.98 19.34
-1 2 -1 77.12 2.92
-1 2 -1 79.2 2.79
-1 2 -1 79.77 2.77
-1 2 -1 82.65 2.88
-1 2 -1 85.62 2.94
-1 2 -1 82.37 2.85
-1 2 -1 81.84 2.92
-1 2 -1 83.74 2.99
1 -2 1 82.29 2.91
1 -2 1 79.89 2.77
1 -2 1 84.72 2.94
1 -2 1 78.57 2.92
1 -2 1 80.99 2.86
1 -2 1 78.14 2.96
1 -2 1 74.94 2.87
-2 2 -1 142.26 5.08
-2 2 -1 139.66 5.11
-2 2 -1 155.33 5.25
-2 2 -1 151.51 5.19
-2 2 -1 144.42 5.44
-2 2 -1 142.78 5.35
2 -2 1 146.74 5.09
2 -2 1 157.34 5.3
2 -2 1 149.95 5.34
2 -2 1 147.85 5.41
2 -2 1 152.49 5.33
2 -2 1 151.84 5.25
2 -2 1 156.19 5.24
-3 2 -1 125.04 4.49
-3 2 -1 114.57 4.6
-3 2 -1 121.92 4.47
-3 2 -1 124.36 4.25
3 -2 1 119.71 4.11
3 -2 1 114.81 4.6
3 -2 1 123.23 4.12
3 -2 1 111.9 4.91
3 -2 1 118.61 4.41
-4 2 -1 12.37 0.59
-4 2 -1 12.75 0.66
-4 2 -1 11.08 0.74
-4 2 -1 11.83 0.82
-4 2 -1 12.22 0.76
-4 2 -1 12.74 0.81
-4 2 -1 12.53 0.79
-4 2 -1 13.54 0.83
4 -2 1 11.29 2
4 -2 1 12.97 0.89
4 -2 1 13.23 0.59
4 -2 1 12.15 0.58
-5 2 -1 10.82 0.79
-5 2 -1 12.67 0.87
-5 2 -1 12.72 0.71
-5 2 -1 11.34 0.82
-5 2 -1 12.31 0.74
-5 2 -1 13.06 0.62
-5 2 -1 12.57 0.64
5 -2 1 10.39 1.88
5 -2 1 13.19 0.64
5 -2 1 11.56 1.15
5 -2 1 12.93 0.63
-6 2 -1 21.99 1.04
-6 2 -1 22.42 0.99
-6 2 -1 23.53 1.02
-6 2 -1 22.12 1.15
6 -2 1 22.82 1.02
6 -2 1 20.91 1.93
6 -2 1 21.82 1.13
-7 2 -1 7.28 0.53
-7 2 -1 7.56 0.71
-7 2 -1 7.4 0.59
-7 2 -1 7.29 0.68
-7 2 -1 7.7 0.58
7 -2 1 7.64 0.74
7 -2 1 7.48 0.52
7 -2 1 6.36 0.9
-8 2 -1 2.58 0.43
-8 2 -1 3 0.43
-8 2 -1 2.3 0.34
8 -2 1 2.99 0.44
8 -2 1 2.72 0.37
-8 -1 1 1.98 0.34
-8 -1 1 2.05 0.31
7 1 -1 13.55 0.85
7 1 -1 14.22 0.81
7 1 -1 11.58 1.33
-7 -1 1 14.56 0.71
-7 -1 1 14.07 0.71
-7 -1 1 14.2 0.85
-7 -1 1 15.06 0.96
6 1 -1 24.65 1.1
6 1 -1 25.26 2.5
6 1 -1 24.6 1.42
-6 -1 1 24.7 1.08
-6 -1 1 23.43 1.25
-6 -1 1 26.45 1.12
-6 -1 1 26.71 1.33
5 1 -1 9.75 0.75
5 1 -1 9.59 1.18
5 1 -1 10.94 0.59
5 1 -1 13.36 2.23
-5 -1 1 9.88 0.88
-5 -1 1 10.24 0.62
-5 -1 1 10.49 0.84
-5 -1 1 11.85 1.29
-5 -1 1 10.05 0.66
-5 -1 1 10.18 1.05
4 1 -1 26.55 0.99
4 1 -1 27.7 1.35
-4 -1 1 26.05 1.1
-4 -1 1 24.7 1.07
-4 -1 1 25.22 1.4
-4 -1 1 25.57 1.37
-4 -1 1 25.42 1.31
3 1 -1 8.46 0.48
3 1 -1 8.03 0.75
3 1 -1 8.57 0.67
3 1 -1 7.99 0.4
3 1 -1 8.78 0.69
3 1 -1 8.45 0.85
3 1 -1 8.34 0.53
-3 -1 1 7.93 0.72
2 1 -1 346.61 12.23
2 1 -1 368.42 12.24
2 1 -1 369.31 12.26
2 1 -1 365.51 12.24
2 1 -1 366.55 12.21
2 1 -1 381.44 12.27
-2 -1 1 345.86 12.33
-2 -1 1 343.7 12.21
-1 -1 1 773.55 26.09
0 1 -1 54.29 1.85
0 1 -1 54.33 1.84
0 1 -1 54.6 1.84
0 1 -1 48.33 1.81
0 -1 1 51.92 1.77
0 -1 1 52.02 1.84
0 -1 1 50.33 1.83
0 -1 1 52.2 1.86
0 -1 1 48.07 1.78
0 -1 1 52.95 1.83
0 -1 1 54.19 1.83
-1 1 -1 359.19 11.83
-1 1 -1 329.43 11.75
-1 1 -1 355.03 11.79
1 -1 1 367.15 11.77
1 -1 1 328.53 11.76
1 -1 1 351.16 11.8
1 -1 1 332.23 11.71
1 -1 1 343.35 11.81
1 -1 1 351.87 11.81
-2 1 -1 31.14 1.08
-2 1 -1 27.04 1.41
-2 1 -1 29.84 1.23
-2 1 -1 28.95 1.31
-2 1 -1 28.72 1.13
-2 1 -1 30.03 1.25
2 -1 1 29.76 1.27
2 -1 1 29.11 1.36
2 -1 1 30.65 1.2
2 -1 1 28.51 1.06
2 -1 1 28.38 1.17
2 -1 1 30.23 1.27
2 -1 1 30.23 1.23
-3 1 -1 10.01 0.96
-3 1 -1 10.69 0.6
3 -1 1 9.49 0.44
3 -1 1 10.91 0.89
3 -1 1 10.26 1.19
3 -1 1 10.28 0.64
3 -1 1 9.79 0.51
3 -1 1 10.28 0.83
3 -1 1 9.83 1.4
-4 1 -1 52.88 2.02
-4 1 -1 52.78 2.14
-4 1 -1 55.05 1.95
-4 1 -1 51.4 2
-4 1 -1 55.31 2.1
-4 1 -1 52.92 2.01
-4 1 -1 52.69 1.95
-4 1 -1 52.91 2.04
4 -1 1 54 1.97
4 -1 1 53.99 3.21
4 -1 1 56.95 1.95
4 -1 1 57.65 2.23
-5 1 -1 5.11 0.43
-5 1 -1 4.77 0.68
-5 1 -1 3.44 0.66
-5 1 -1 4.19 0.57
-5 1 -1 4.45 0.56
-5 1 -1 4.54 0.49
5 -1 1 4.8 0.46
5 -1 1 4.91 0.41
5 -1 1 4.67 0.97
5 -1 1 3.32 1.38
-6 1 -1 26.43 1.15
-6 1 -1 26.57 1.1
-6 1 -1 27.06 1.13
-6 1 -1 27.55 1.31
-6 1 -1 26.81 1.15
6 -1 1 21.69 1.27
6 -1 1 27.11 2.17
6 -1 1 26.47 1.25
6 -1 1 27.08 1.14
-7 1 -1 5.14 0.51
-7 1 -1 5.69 0.51
-7 1 -1 6.1 0.76
-7 1 -1 6.77 0.65
7 -1 1 4.92 0.93
7 -1 1 5.79 0.52
7 -1 1 5.6 0.68
-8 1 -1 10.78 0.61
-8 1 -1 10.76 0.56
-8 1 -1 9.42 0.56
-8 1 -1 11.2 0.77
8 -1 1 10.6 0.6
8 -1 1 10.52 0.6
8 0 -1 16.67 0.76
-8 0 1 17.08 0.78
-8 0 1 14.43 0.69
-8 0 1 16.54 0.7
7 0 -1 17.62 0.87
7 0 -1 18.52 0.96
-7 0 1 18.94 0.86
-7 0 1 19.34 1.04
-7 0 1 18.7 0.98
-7 0 1 18.86 0.86
6 0 -1 37.35 1.46
6 0 -1 33.7 2.36
6 0 -1 38.3 1.47
-6 0 1 36.96 2.27
-6 0 1 36 1.56
-6 0 1 37.16 1.64
-6 0 1 38.16 1.48
-6 0 1 36.98 1.49
5 0 -1 17.01 1.28
5 0 -1 17.48 2.36
5 0 -1 16.97 0.78
5 0 -1 17.2 0.81
-5 0 1 18.11 1.09
-5 0 1 17.27 1.44
-5 0 1 18.16 0.85
-5 0 1 16.78 0.83
-5 0 1 16.79 0.85
-5 0 1 14.76 0.98
-5 0 1 16.77 0.87
4 0 -1 10.68 0.61
4 0 -1 10.99 0.72
4 0 -1 11.04 0.82
4 0 -1 9.44 1.2
4 0 -1 11.76 1.52
4 0 -1 10.95 0.51
-4 0 1 9.39 0.83
-4 0 1 11.28 0.68
-4 0 1 11.63 0.54
-4 0 1 12.06 0.65
-4 0 1 11.24 0.96
-4 0 1 10.91 0.72
3 0 -1 9.38 0.49
3 0 -1 8.51 0.7
3 0 -1 9.97 0.42
3 0 -1 9.78 0.82
3 0 -1 8.75 1.11
-3 0 1 8.33 0.73
-3 0 1 9.61 0.89
-3 0 1 9.3 0.72
2 0 -1 60.78 2.02
2 0 -1 58.47 2.18
2 0 -1 58.04 2.07
2 0 -1 61.56 2.16
2 0 -1 59.09 2.1
2 0 -1 59.16 2.16
2 0 -1 60.31 2.14
2 0 -1 57.56 2.05
-2 0 1 57.07 2.05
-2 0 1 55.38 2.12
-2 0 1 55.46 2.19
-2 0 1 57.8 2.1
1 0 -1 84.35 2.88
1 0 -1 82.61 2.85
1 0 -1 86.26 2.9
1 0 -1 76.33 2.84
1 0 -1 82.27 2.86
1 0 -1 85.53 2.89
1 0 -1 82.45 2.9
-1 0 1 83.47 2.89
-1 0 1 82.22 2.83
-1 0 1 78.8 2.84
-1 0 1 81.88 2.91
-1 0 1 89.93 2.89
-1 0 1 83.81 2.88
-1 0 1 77.38 2.89
0 0 -1 296.17 11.8
0 0 -1 378.17 11.86
0 0 -1 351.34 11.83
0 0 1 339.49 11.8
0 0 1 382.6 11.85
-1 0 -1 1.02 0.18
-1 0 -1 0.98 0.09
-1 0 -1 1.13 0.19
1 0 1 0.87 0.13
1 0 1 1.26 0.18
1 0 1 1.2 0.18
1 0 1 1.38 0.22
1 0 1 1.35 0.23
1 0 1 1.3 0.27
1 0 1 1.18 0.24
1 0 1 1.18 0.17
-2 0 -1 215.92 7.63
-2 0 -1 213.36 7.68
-2 0 -1 217.7 7.66
-2 0 -1 228.04 7.66
-2 0 -1 221.21 7.67
2 0 1 225.79 7.71
2 0 1 226.2 7.67
2 0 1 223.23 7.63
2 0 1 230.95 7.69
2 0 1 217.54 7.67
2 0 1 231.97 7.71
2 0 1 213.29 7.56
2 0 1 235.53 7.65
-3 0 -1 126.71 4.72
-3 0 -1 129.2 4.68
-3 0 -1 125.35 4.66
-3 0 -1 127.54 4.6
3 0 1 133.79 4.86
3 0 1 141.78 4.71
3 0 1 130.1 4.82
3 0 1 135.12 4.78
3 0 1 132.64 4.66
3 0 1 134.73 4.64
-4 0 -1 91.57 3.43
-4 0 -1 92.77 3.35
-4 0 -1 92.05 3.28
-4 0 -1 91.91 3.38
-4 0 -1 91.1 3.47
-4 0 -1 95.48 3.3
-4 0 -1 93.94 3.39
-4 0 -1 95.26 3.37
4 0 1 101.81 3.6
4 0 1 101.45 3.31
4 0 1 92.51 3.82
4 0 1 97.66 3.84
4 0 1 96.03 3.32
-5 0 -1 122.62 4.41
-5 0 -1 127.3 4.42
-5 0 -1 129.23 4.49
-5 0 -1 119.93 4.38
-5 0 -1 125.43 4.43
-5 0 -1 123.39 4.52
5 0 1 132.23 4.38
5 0 1 117.1 5.35
5 0 1 126.12 4.36
5 0 1 129.59 4.84
-6 0 -1 15.26 0.81
-6 0 -1 15.11 0.78
-6 0 -1 14.73 1.07
-6 0 -1 14.59 0.96
-6 0 -1 14.26 0.82
6 0 1 14.75 0.97
6 0 1 15.74 1.03
6 0 1 14.11 0.79
6 0 1 17.11 2.41
-7 0 -1 2.16 0.38
-7 0 -1 1.5 0.27
-7 0 -1 3.46 0.85
-7 0 -1 2.51 0.54
7 0 1 2.07 0.35
7 0 1 1.73 0.8
7 0 1 1.97 0.38
-8 0 -1 10.65 0.67
-8 0 -1 9.71 0.52
-8 0 -1 10.17 0.52
8 0 1 13 1.03
8 -1 -1 6.07 0.49
8 -1 -1 6.75 0.47
-8 1 1 5.2 0.5
-8 1 1 6.02 0.54
-8 1 1 5.65 0.49
-8 1 1 5.95 0.4
7 -1 -1 84.92 3.03
7 -1 -1 82.91 3.07
7 -1 -1 81.11 3
-7 1 1 91.47 3.2
-7 1 1 78.35 3.02
-7 1 1 85.6 3.03
-7 1 1 88.21 3.15
-7 1 1 88.25 3.06
6 -1 -1 4.27 0.5
6 -1 -1 4.41 0.44
-6 1 1 3.73 0.63
-6 1 1 3.91 0.5
-6 1 1 4.42 0.47
-6 1 1 4.53 0.58
-6 1 1 4.19 0.66
-6 1 1 3.97 0.76
5 -1 -1 6.22 0.44
5 -1 -1 7.82 1.58
5 -1 -1 5.45 0.91
-5 1 1 5.85 0.52
-5 1 1 6.68 1.16
-5 1 1 5.86 0.72
4 -1 -1 30.95 1.5
4 -1 -1 31.13 1.37
4 -1 -1 32.36 1.33
4 -1 -1 31.75 2.22
4 -1 -1 33.4 1.21
-4 1 1 31.31 1.3
-4 1 1 29.66 1.42
-4 1 1 31.35 1.31
-4 1 1 32.07 1.27
-4 1 1 32.47 1.58
-4 1 1 33.37 1.31
-4 1 1 32.94 1.21
3 -1 -1 46.82 2.57
3 -1 -1 50.21 2.26
3 -1 -1 51 1.83
3 -1 -1 52.66 1.99
3 -1 -1 48.63 1.78
3 -1 -1 49.41 1.85
3 -1 -1 52.07 2.07
-3 1 1 48.66 1.79
-3 1 1 49.18 2.17
-3 1 1 48.3 1.81
-3 1 1 49.08 2.18
-3 1 1 50.73 2
-3 1 1 51.69 2.07
-3 1 1 52.4 1.85
2 -1 -1 106.19 3.71
2 -1 -1 103.02 3.72
2 -1 -1 113.28 3.87
2 -1 -1 102.74 3.93
2 -1 -1 109.26 3.86
2 -1 -1 111.87 3.81
2 -1 -1 109.53 3.87
2 -1 -1 104.93 3.67
-2 1 1 102.03 3.69
-2 1 1 104.84 3.7
-2 1 1 105.59 3.72
-2 1 1 104.01 3.96
-2 1 1 110.81 3.81
-2 1 1 106.47 3.86
-2 1 1 110.39 3.85
-2 1 1 108.45 3.86
1 -1 -1 428.91 14.73
1 -1 -1 432.32 14.69
1 -1 -1 411.78 14.57
1 -1 -1 436.62 14.66
1 -1 -1 422 14.62
1 -1 -1 403.82 14.69
1 -1 -1 454.02 14.71
1 -1 -1 427.84 14.68
-1 1 1 448.53 14.71
-1 1 1 446.11 14.7
-1 1 1 441.46 14.67
-1 1 1 439.7 14.69
-1 1 1 424.48 14.64
-1 1 1 429.91 14.74
-1 1 1 426.78 14.6
0 -1 -1 271.88 8.9
0 -1 -1 244.94 8.83
0 -1 -1 252.98 8.84
0 -1 -1 242.36 8.79
0 -1 -1 261.8 8.9
0 -1 -1 246.48 8.88
0 -1 -1 252.21 8.91
0 -1 -1 272.54 8.89
0 -1 -1 271.99 8.87
0 1 1 273.06 8.9
0 1 1 271.71 8.88
0 1 1 263.53 8.91
0 1 1 238.06 8.79
0 1 1 268.54 8.9
0 1 1 266.85 8.89
0 1 1 274.4 8.91
0 1 1 252.85 8.83
-1 -1 -1 65.33 2.36
-1 -1 -1 61.81 2.31
-1 -1 -1 61.42 2.38
-1 -1 -1 61.73 2.3
-1 -1 -1 66.62 2.31
-1 -1 -1 67.04 2.3
-1 -1 -1 61.64 2.32
-1 -1 -1 63.31 2.27
1 1 1 67.4 2.35
1 1 1 68.47 2.34
1 1 1 65.8 2.33
1 1 1 66.89 2.38
1 1 1 68.27 2.33
1 1 1 67.93 2.29
-2 -1 -1 23.4 1
-2 -1 -1 25.86 1.07
2 1 1 24.72 1.04
2 1 1 22.83 0.86
2 1 1 22.65 1.06
2 1 1 25.08 1.1
2 1 1 22.84 0.96
2 1 1 23.57 1.14
2 1 1 25.04 1.02
-3 -1 -1 0.68 0.41
-3 -1 -1 0.34 0.23
3 1 1 1 0.62
3 1 1 0.88 0.38
3 1 1 0.35 0.68
3 1 1 0.54 0.27
3 1 1 0.81 0.41
3 1 1 0.67 0.16
3 1 1 0.26 0.52
3 1 1 1.25 0.43
3 1 1 0.78 0.31
-4 -1 -1 8.63 0.55
-4 -1 -1 9.13 0.97
-4 -1 -1 8.58 0.69
-4 -1 -1 9.52 1.29
-4 -1 -1 7.63 0.8
-4 -1 -1 8.82 0.62
-4 -1 -1 9.08 0.52
4 1 1 9.53 0.91
4 1 1 7.83 1.66
4 1 1 8.92 0.48
-5 -1 -1 56.03 2.06
-5 -1 -1 57.21 2.17
-5 -1 -1 57.94 2.16
-5 -1 -1 59.25 2.3
-5 -1 -1 56.88 2.47
-5 -1 -1 58.14 2.19
5 1 1 56.58 2.79
5 1 1 56.98 2.15
5 1 1 56.65 2.13
5 1 1 59.97 2.23
-6 -1 -1 8.62 0.65
-6 -1 -1 8.8 0.53
-6 -1 -1 8.3 0.56
-6 -1 -1 7.85 0.6
-6 -1 -1 8.01 0.81
-6 -1 -1 6.46 1.2
6 1 1 8.13 0.64
6 1 1 7.44 0.73
6 1 1 10.52 1.11
-7 -1 -1 6.56 0.46
-7 -1 -1 7.69 0.66
-7 -1 -1 6 0.48
7 1 1 6.65 0.96
7 1 1 4.77 0.72
8 -2 -1 30.59 1.18
8 -2 -1 30 1.17
-8 2 1 30.01 1.22
-8 2 1 30.63 1.23
7 -2 -1 34.04 1.88
7 -2 -1 38.45 1.85
7 -2 -1 40.85 1.66
7 -2 -1 38.74 1.5
-7 2 1 40.86 1.67
-7 2 1 39.96 1.57
-7 2 1 40.55 1.52
-7 2 1 40.27 1.48
-7 2 1 41.9 1.66
-7 2 1 37.22 1.49
6 -2 -1 54.89 2.04
6 -2 -1 56 2.11
6 -2 -1 57.25 2.07
6 -2 -1 53.92 2.82
-6 2 1 54.46 2.09
-6 2 1 58.5 2.11
-6 2 1 56.34 2.25
-6 2 1 55.32 2.05
-6 2 1 53.78 2.06
-6 2 1 57.31 2.22
5 -2 -1 0.27 1.84
5 -2 -1 3.06 0.31
5 -2 -1 2.76 0.36
-5 2 1 2.46 0.33
-5 2 1 2.8 0.47
-5 2 1 3.64 0.88
-5 2 1 2.83 0.34
-5 2 1 2.85 0.39
-5 2 1 3.64 0.45
4 -2 -1 51.2 2.76
4 -2 -1 51.79 1.88
4 -2 -1 52.09 2.06
4 -2 -1 55.13 2.25
4 -2 -1 53.89 1.9
4 -2 -1 54.31 3.35
-4 2 1 55.52 2.09
-4 2 1 52.9 2.25
-4 2 1 49.05 2.07
-4 2 1 51.43 2.17
-4 2 1 50.88 1.89
-4 2 1 51.11 1.92
-4 2 1 51.6 1.96
-4 2 1 51.88 1.96
3 -2 -1 78.88 2.78
3 -2 -1 75.58 3.12
3 -2 -1 76.3 2.67
3 -2 -1 74.92 3.49
3 -2 -1 82.25 2.93
3 -2 -1 80.73 3.24
3 -2 -1 76.71 2.68
3 -2 -1 80.25 2.77
-3 2 1 75.69 3.18
-3 2 1 78.02 2.78
-3 2 1 72.12 3.17
-3 2 1 68.54 3.46
-3 2 1 75.54 2.68
-3 2 1 73.3 2.9
-3 2 1 77.88 2.76
2 -2 -1 142.84 5.16
2 -2 -1 151.19 5.03
2 -2 -1 142.15 4.95
2 -2 -1 148.07 5.1
2 -2 -1 149.08 5.22
2 -2 -1 143.57 5.04
2 -2 -1 141.07 5.03
2 -2 -1 142.51 5.23
2 -2 -1 154.1 5.26
2 -2 -1 143.04 4.95
-2 2 1 147.67 5.04
-2 2 1 143.82 5
-2 2 1 139.66 5.26
-2 2 1 145.53 5.24
-2 2 1 145.45 5.17
-2 2 1 145.93 5.02
-2 2 1 138.37 5.22
-2 2 1 142.19 4.95
1 -2 -1 333.33 11.33
1 -2 -1 334.12 11.39
1 -2 -1 327.82 11.34
1 -2 -1 323.83 11.33
1 -2 -1 334.17 11.42
1 -2 -1 336.63 11.55
1 -2 -1 357.33 11.48
1 -2 -1 349.08 11.46
1 -2 -1 337.14 11.41
1 -2 -1 317.19 11.45
1 -2 -1 328.91 11.27
-1 2 1 335.67 11.46
-1 2 1 313.98 11.3
-1 2 1 324.52 11.31
-1 2 1 327.96 11.31
-1 2 1 334.11 11.41
-1 2 1 342.7 11.47
-1 2 1 328.59 11.27
-1 2 1 342.66 11.48
-1 2 1 326.9 11.54
0 -2 -1 2.61 0.44
0 -2 -1 2.91 0.54
0 -2 -1 3.26 0.55
0 -2 -1 3.41 0.54
0 -2 -1 2.78 0.28
0 -2 -1 2.49 0.38
0 -2 -1 3.08 0.41
0 2 1 3.35 0.47
0 2 1 2.57 0.5
0 2 1 2.81 0.25
0 2 1 2.82 0.25
0 2 1 3.31 0.58
0 2 1 3.11 0.43
0 2 1 2.98 0.43
0 2 1 2.97 0.66
-1 -2 -1 61.26 2.26
-1 -2 -1 57.36 2.14
-1 -2 -1 56.12 2.18
-1 -2 -1 57.74 2.18
1 2 1 61.82 2.23
1 2 1 59.03 2.25
1 2 1 61.02 2.2
1 2 1 60.37 2.11
1 2 1 60.01 2.15
1 2 1 63.43 2.28
1 2 1 57.97 2.25
1 2 1 52.91 2.04
-2 -2 -1 14.4 0.89
2 2 1 14.1 0.87
2 2 1 13.19 0.56
2 2 1 13.06 0.67
2 2 1 13.76 1.05
2 2 1 13.18 0.92
2 2 1 14.17 0.6
2 2 1 15.02 0.99
2 2 1 13.7 0.7
-3 -2 -1 34.78 1.33
-3 -2 -1 34.22 1.4
-3 -2 -1 35.36 1.41
-3 -2 -1 35.71 1.75
-3 -2 -1 36.35 1.49
-3 -2 -1 34.74 1.43
3 2 1 36.28 2.37
3 2 1 36.03 1.57
3 2 1 36.52 1.69
3 2 1 36.23 1.87
3 2 1 35.58 1.69
3 2 1 38.48 1.58
3 2 1 37.07 1.38
3 2 1 37.16 1.32
-4 -2 -1 12.77 0.66
-4 -2 -1 15.66 0.99
-4 -2 -1 13.65 1.11
-4 -2 -1 13.72 0.82
-4 -2 -1 14.2 1.68
-4 -2 -1 14.93 0.81
-4 -2 -1 14.01 0.86
4 2 1 14.46 0.68
4 2 1 14.16 1.85
-5 -2 -1 27.42 1.13
-5 -2 -1 25.25 1.41
-5 -2 -1 26.91 1.16
-5 -2 -1 25.81 1.03
-5 -2 -1 24.91 1.16
5 2 1 23.49 1.4
5 2 1 25.17 1.1
-6 -2 -1 4.92 0.46
-6 -2 -1 5.41 0.57
-6 -2 -1 5.56 0.52
6 2 1 6.04 0.91
-7 -2 -1 0.79 0.2
-7 -2 -1 0.54 0.18
8 -3 -1 8.14 0.7
-8 3 1 6.46 0.51
-8 3 1 6.53 0.62
7 -3 -1 11.49 0.89
7 -3 -1 11.44 0.61
7 -3 -1 10.45 0.59
7 -3 -1 10.66 0.62
-7 3 1 12.01 0.79
-7 3 1 10.88 0.6
-7 3 1 11.42 0.79
6 -3 -1 10.47 2
6 -3 -1 12.45 0.78
6 -3 -1 12.72 0.66
6 -3 -1 11.97 0.63
-6 3 1 13.03 0.7
-6 3 1 12.07 0.91
-6 3 1 12.63 0.7
-6 3 1 11.78 0.91
5 -3 -1 37.81 1.46
5 -3 -1 38.96 1.52
5 -3 -1 37.86 1.47
-5 3 1 40.48 1.5
-5 3 1 38.64 1.53
-5 3 1 39.8 1.52
-5 3 1 37.16 1.67
-5 3 1 38.09 1.48
4 -3 -1 11.73 0.56
4 -3 -1 9.77 1.12
4 -3 -1 11.89 0.6
4 -3 -1 10.74 0.57
4 -3 -1 10.51 1.05
4 -3 -1 13.31 0.96
-4 3 1 11.42 0.74
-4 3 1 11.11 0.72
-4 3 1 11.45 0.6
-4 3 1 9.74 0.81
-4 3 1 11.28 0.67
-4 3 1 11.85 1.3
-4 3 1 11.8 0.58
-4 3 1 10.72 1.06
-4 3 1 10.8 0.98
3 -3 -1 21.63 1.02
3 -3 -1 17.95 1.92
3 -3 -1 20.89 2.27
3 -3 -1 20.93 1.14
3 -3 -1 22.41 1.11
3 -3 -1 19.79 0.92
3 -3 -1 20.54 0.85
3 -3 -1 19.89 0.85
-3 3 1 19.62 1.32
-3 3 1 21.79 0.95
-3 3 1 20.26 0.89
-3 3 1 21.6 1.03
-3 3 1 20.35 0.86
-3 3 1 20.27 0.85
-3 3 1 20.85 0.88
2 -3 -1 7.02 0.45
2 -3 -1 5.17 0.85
2 -3 -1 5.91 0.77
2 -3 -1 7.29 1.38
2 -3 -1 4.73 1.15
2 -3 -1 6.74 0.4
2 -3 -1 6.21 0.51
2 -3 -1 6.39 0.58
2 -3 -1 4.83 0.77
2 -3 -1 5.75 1.22
-2 3 1 6.4 0.45
-2 3 1 7.33 1.18
-2 3 1 5.98 0.52
-2 3 1 6.27 0.37
-2 3 1 4.51 1.11
1 -3 -1 248.66 9.01
1 -3 -1 266.36 9.1
1 -3 -1 248.94 8.82
1 -3 -1 264.97 9.11
1 -3 -1 266.36 8.92
-1 3 1 247.02 9.12
-1 3 1 265.88 8.85
-1 3 1 259.75 9.04
-1 3 1 262.42 9.14
-1 3 1 261.54 8.86
-1 3 1 255.94 9.45
-1 3 1 255.68 8.79
0 -3 -1 35.05 1.67
0 -3 -1 33.33 1.69
0 -3 -1 35.03 1.31
0 -3 -1 36.17 1.57
0 -3 -1 36.76 1.55
0 -3 -1 35.33 1.39
0 3 1 37.39 1.69
0 3 1 36.18 1.34
0 3 1 34.71 1.3
0 3 1 35.83 1.6
0 3 1 32.19 1.72
0 3 1 31.61 2.07
0 3 1 37.84 1.35
0 3 1 36.48 1.85
-1 -3 -1 18.37 1.35
-1 -3 -1 18.63 1.29
-1 -3 -1 19.12 1.12
-1 -3 -1 19.04 1.08
1 3 1 19.3 1.59
1 3 1 20.44 0.86
1 3 1 20.77 1.41
1 3 1 20.65 1.32
1 3 1 18.21 1.13
1 3 1 19.54 1.17
1 3 1 17.45 1.22
-2 -3 -1 58.66 2.15
-2 -3 -1 59.3 2.13
-2 -3 -1 60.5 2.17
-2 -3 -1 59.81 2.17
-2 -3 -1 61.46 2.54
-2 -3 -1 60.83 2.24
-2 -3 -1 59.78 2.25
2 3 1 58.76 2.54
2 3 1 59.76 2.46
2 3 1 60.7 2.11
2 3 1 60.11 2.87
2 3 1 65.64 2.25
2 3 1 58.02 2.42
-3 -3 -1 9.31 0.5
-3 -3 -1 10.1 0.69
-3 -3 -1 10.95 0.75
-3 -3 -1 10.45 0.65
-3 -3 -1 10.4 0.58
-3 -3 -1 10.06 1.41
3 3 1 10.69 0.58
3 3 1 10.58 1.5
3 3 1 10.13 0.78
-4 -3 -1 14.33 0.73
-4 -3 -1 14.78 0.66
-4 -3 -1 14.55 0.82
-4 -3 -1 13.21 0.86
-4 -3 -1 14.73 0.79
4 3 1 13.85 1.17
-5 -3 -1 0.99 0.21
-5 -3 -1 1 0.36
5 3 1 0.98 0.45
5 3 1 1.27 1.14
-6 -3 -1 0.86 0.21
-6 -3 -1 0.45 0.36
-6 -3 -1 1.24 0.28
-6 -3 -1 0.58 0.23
-7 -3 -1 2.72 0.36
-7 -3 -1 2.32 0.4
7 -4 -1 22.29 0.86
7 -4 -1 19.23 0.93
-7 4 1 22.64 0.9
-7 4 1 21.36 0.87
-7 4 1 21.95 1.04
6 -4 -1 3.38 0.56
6 -4 -1 4.28 0.42
6 -4 -1 2.9 0.46
-6 4 1 4.4 0.63
-6 4 1 4.34 0.82
5 -4 -1 5.9 0.93
5 -4 -1 4.91 1.03
5 -4 -1 6.28 0.44
5 -4 -1 5.9 0.8
5 -4 -1 4.83 0.69
-5 4 1 4.59 0.91
-5 4 1 7.63 1.15
-5 4 1 5.79 0.49
-5 4 1 5.12 0.6
-5 4 1 4.76 0.87
-5 4 1 5.18 0.83
4 -4 -1 23.41 1.63
4 -4 -1 25.56 1.02
4 -4 -1 24.67 0.99
4 -4 -1 23.38 1.02
4 -4 -1 24.63 1.16
4 -4 -1 24.08 1.24
-4 4 1 24.54 1.04
-4 4 1 25.43 1.02
-4 4 1 24.08 1.22
-4 4 1 25.46 1.15
3 -4 -1 17 0.75
3 -4 -1 16.71 0.94
3 -4 -1 16.02 1.2
3 -4 -1 15.49 0.92
3 -4 -1 17.02 0.96
3 -4 -1 16.99 0.73
-3 4 1 18 1.02
-3 4 1 16.74 0.77
-3 4 1 17.42 0.8
-3 4 1 16.67 0.75
-3 4 1 22.34 3.17
-3 4 1 16.57 1.09
-3 4 1 16.01 0.87
-3 4 1 17.57 0.91
2 -4 -1 18.71 1.05
2 -4 -1 20.43 0.83
2 -4 -1 19.45 1.11
2 -4 -1 21.25 1.42
2 -4 -1 20.5 0.9
2 -4 -1 19.79 0.99
2 -4 -1 21.08 1.01
2 -4 -1 18.31 0.85
2 -4 -1 20.3 0.96
-2 4 1 19.8 0.88
-2 4 1 16.83 1.11
-2 4 1 21.74 1.02
-2 4 1 14.33 2.86
-2 4 1 21.21 0.84
1 -4 -1 10.35 0.62
1 -4 -1 9.32 0.71
1 -4 -1 10.37 0.71
1 -4 -1 11.11 0.74
1 -4 -1 10.37 0.55
1 -4 -1 9.78 1.07
1 -4 -1 8.55 1.4
1 -4 -1 11.46 0.64
1 -4 -1 10.11 0.57
-1 4 1 11.29 0.52
-1 4 1 11.31 0.69
-1 4 1 10.14 2.15
-1 4 1 11.18 0.78
-1 4 1 12.71 0.66
-1 4 1 10.61 0.52
0 -4 -1 7.22 0.52
0 -4 -1 6.08 0.61
0 -4 -1 4.88 1.43
0 -4 -1 6.69 0.99
0 -4 -1 5.35 0.65
0 -4 -1 5.93 0.44
0 -4 -1 5.6 0.58
0 -4 -1 5.93 0.51
0 -4 -1 6.35 0.49
0 4 1 5.74 0.55
0 4 1 6.92 1.2
0 4 1 5.2 0.91
0 4 1 6.22 0.39
0 4 1 7.06 0.56
-1 -4 -1 0.27 0.22
-1 -4 -1 0.28 0.25
-1 -4 -1 0.43 0.19
-1 -4 -1 -0.09 0.34
-1 -4 -1 0.29 0.25
-1 -4 -1 0.38 0.2
-1 -4 -1 -0.54 0.58
1 4 1 -0.09 0.79
1 4 1 1.22 1.54
1 4 1 0.21 0.28
1 4 1 0.54 0.24
1 4 1 0.28 0.18
1 4 1 0.35 0.3
-2 -4 -1 32.95 1.37
-2 -4 -1 32.33 1.33
-2 -4 -1 32.68 1.39
-2 -4 -1 34.42 2.12
-2 -4 -1 32.89 1.3
2 4 1 33.53 2.32
2 4 1 36.02 1.43
2 4 1 33.05 1.48
2 4 1 32.87 1.26
-3 -4 -1 26.15 1.17
-3 -4 -1 24.59 1.14
-3 -4 -1 26.9 1.19
-3 -4 -1 27.33 1.07
-3 -4 -1 24.91 2.56
-3 -4 -1 27.34 1.02
3 4 1 23.27 1.57
-4 -4 -1 26.36 4.89
-4 -4 -1 32.48 1.44
-4 -4 -1 34.6 1.42
-4 -4 -1 33.58 1.4
-4 -4 -1 34.06 1.28
-4 -4 -1 35.18 1.33
-5 -4 -1 13.76 0.74
-5 -4 -1 12.92 0.74
-5 -4 -1 13.62 0.85
-5 -4 -1 12.46 0.75
-5 -4 -1 13.79 0.62
-6 -4 -1 1.29 0.34
-6 -4 -1 1.61 0.26
-6 -4 -1 1.16 0.33
7 -5 -1 7.56 0.42
7 -5 -1 7.58 0.46
-7 5 1 7.08 0.45
6 -5 -1 0.84 0.18
6 -5 -1 0.86 0.51
6 -5 -1 0.42 0.49
6 -5 -1 1.46 0.28
-6 5 1 1.03 0.5
-6 5 1 1.13 0.2
5 -5 -1 3.38 0.37
5 -5 -1 3.36 0.52
-5 5 1 3.36 0.64
-5 5 1 3.49 0.4
-5 5 1 3.66 0.51
4 -5 -1 12.46 0.62
4 -5 -1 13.3 0.82
4 -5 -1 12.2 0.77
4 -5 -1 12.24 0.92
4 -5 -1 13.73 0.73
-4 5 1 12.74 1.06
-4 5 1 12.61 0.87
-4 5 1 12.45 0.66
3 -5 -1 3.6 0.38
3 -5 -1 3.72 0.57
3 -5 -1 3.12 0.59
3 -5 -1 3.52 0.43
3 -5 -1 3.79 0.45
-3 5 1 3.16 0.42
-3 5 1 2.39 0.55
-3 5 1 3.89 0.46
-3 5 1 3.36 0.44
2 -5 -1 4.45 0.51
2 -5 -1 3.63 0.39
2 -5 -1 3.84 0.54
2 -5 -1 4.44 0.51
2 -5 -1 6.75 1.41
2 -5 -1 4.28 0.49
-2 5 1 3.46 2.34
-2 5 1 3.9 0.92
-2 5 1 4.04 0.68
-2 5 1 4.37 0.51
1 -5 -1 6.46 0.62
1 -5 -1 7.35 0.57
1 -5 -1 7.47 0.47
1 -5 -1 6.2 0.6
1 -5 -1 7.16 0.52
1 -5 -1 6.87 0.62
1 -5 -1 7.07 1.18
-1 5 1 7.24 0.93
-1 5 1 6.5 0.7
-1 5 1 6.56 0.45
-1 5 1 7.46 0.48
-1 5 1 5.52 1.82
-1 5 1 7.07 0.7
-1 5 1 7.42 0.99
0 -5 -1 7.46 0.48
0 -5 -1 7.73 0.54
0 -5 -1 6.22 1.14
0 -5 -1 8.08 0.48
0 -5 -1 8.02 0.54
0 -5 -1 7.67 0.64
0 5 1 8.36 0.51
0 5 1 8.12 0.96
0 5 1 5.27 1.61
0 5 1 7.55 1.03
0 5 1 8.57 0.76
-1 -5 -1 7.45 0.48
-1 -5 -1 5.92 0.69
-1 -5 -1 5.05 0.64
-1 -5 -1 6.85 0.44
-1 -5 -1 6.85 1.36
-1 -5 -1 7.23 0.49
-1 -5 -1 6.92 0.53
1 5 1 6.87 0.54
1 5 1 7.73 0.8
-2 -5 -1 7.31 0.57
-2 -5 -1 6 0.66
-2 -5 -1 6.95 0.49
-2 -5 -1 7.36 0.66
-2 -5 -1 7.71 0.44
-2 -5 -1 6.18 1.61
2 5 1 5.58 1.03
2 5 1 6.8 0.57
-3 -5 -1 2.67 0.37
-3 -5 -1 2.79 0.35
-3 -5 -1 3.17 0.58
-3 -5 -1 2.23 0.37
3 5 1 2.55 0.43
-4 -5 -1 0.92 0.4
-4 -5 -1 0.8 0.33
-4 -5 -1 1.43 0.26
-4 -5 -1 1.39 0.23
-5 -5 -1 4.19 0.32
-5 -5 -1 3.28 0.55
-5 -5 -1 3.59 0.5
6 -6 -1 -0.25 0.3
6 -6 -1 -0.1 0.14
-6 6 1 0 0.14
-6 6 1 0.15 0.23
5 -6 -1 0.19 0.15
5 -6 -1 -0.06 0.3
5 -6 -1 0.24 0.29
-5 6 1 0.21 0.18
-5 6 1 -0.33 0.33
-5 6 1 -0.18 0.31
-5 6 1 -0.28 0.31
4 -6 -1 1.79 0.31
4 -6 -1 2.4 0.38
-4 6 1 2.54 0.8
-4 6 1 2 0.5
3 -6 -1 19.27 0.94
3 -6 -1 17.87 0.8
-3 6 1 17.58 1.06
-3 6 1 19.74 0.86
-3 6 1 18.84 0.89
-3 6 1 18.24 1.41
2 -6 -1 14.43 0.67
2 -6 -1 14.77 0.73
2 -6 -1 13.99 0.77
2 -6 -1 14.12 0.73
-2 6 1 13.49 0.78
-2 6 1 10.87 1.77
-2 6 1 13.12 0.78
-2 6 1 13.15 1.2
-2 6 1 14.84 0.8
1 -6 -1 18.93 0.87
1 -6 -1 18.12 0.8
1 -6 -1 18.22 0.81
1 -6 -1 18.43 0.9
1 -6 -1 20.46 3.79
1 -6 -1 17.33 0.86
-1 6 1 16.72 1.34
-1 6 1 17.97 0.88
0 -6 -1 2.6 0.36
0 -6 -1 3.45 0.43
0 -6 -1 2.84 0.39
0 -6 -1 3.03 0.45
0 -6 -1 3.31 1.99
0 -6 -1 3.01 0.54
0 6 1 2.99 0.71
0 6 1 3.13 0.48
-1 -6 -1 12.22 0.89
-1 -6 -1 11.74 0.57
-1 -6 -1 11.46 0.62
-1 -6 -1 11.61 0.74
-1 -6 -1 11.32 0.63
-1 -6 -1 12.07 0.66
1 6 1 12.51 0.73
1 6 1 13.33 1.91
1 6 1 11.72 0.72
-2 -6 -1 26.92 1.17
-2 -6 -1 26.31 1.1
-2 -6 -1 27 1.07
-2 -6 -1 27.33 1.03
2 6 1 26.08 1.19
2 6 1 25.46 1.19
-3 -6 -1 20.03 0.99
-3 -6 -1 21.24 0.87
-3 -6 -1 20.52 1.02
-3 -6 -1 20.65 0.94
-3 -6 -1 21.4 0.83
3 6 1 20.31 1.14
-4 -6 -1 9.39 1.17
-4 -6 -1 9.57 0.45
-4 -6 -1 9.82 0.5
5 -7 -1 8.4 0.53
5 -7 -1 8.05 0.41
-5 7 1 7.74 0.77
-5 7 1 8.58 0.64
4 -7 -1 7.92 0.53
4 -7 -1 7.24 0.43
-4 7 1 7.61 0.57
-4 7 1 7.55 0.48
-4 7 1 6.87 0.49
3 -7 -1 1.01 0.21
3 -7 -1 1.34 0.28
-3 7 1 1.69 0.36
-3 7 1 1.03 0.32
2 -7 -1 -0.24 0.24
2 -7 -1 0.05 0.19
2 -7 -1 0.3 0.31
-2 7 1 -0.07 0.25
-2 7 1 0.34 0.46
1 -7 -1 5.79 0.45
1 -7 -1 6.8 0.58
1 -7 -1 7.04 0.54
1 -7 -1 5.62 0.45
1 -7 -1 6.06 0.47
-1 7 1 5.72 0.52
-1 7 1 5.54 0.64
0 -7 -1 1.75 0.32
0 -7 -1 2.18 0.25
0 -7 -1 1.85 0.26
0 -7 -1 1.28 0.26
0 -7 -1 1.82 0.29
0 7 1 2.38 0.41
0 7 1 1.49 0.3
-1 -7 -1 16.94 0.74
-1 -7 -1 15.82 0.84
-1 -7 -1 17.09 0.77
-1 -7 -1 17.2 0.7
1 7 1 15.9 0.81
1 7 1 16.55 0.9
-2 -7 -1 11.5 0.61
-2 -7 -1 12.32 0.53
-2 -7 -1 12.36 0.57
-2 -7 -1 11.59 0.75
2 7 1 11.99 0.75
2 7 1 12.65 0.92
-3 -7 -1 4.36 0.33
-3 -7 -1 4.33 0.3
3 -8 -1 8.62 0.5
-3 8 1 7.91 0.5
-3 8 1 8.26 0.46
2 -8 -1 4.78 0.53
2 -8 -1 3.59 0.36
2 -8 -1 3.91 0.43
-2 8 1 4.04 0.46
-2 8 1 4.03 0.56
-2 8 1 4.05 0.35
1 -8 -1 2.55 0.34
1 -8 -1 3.21 0.46
1 -8 -1 2.9 0.41
-1 8 1 2.5 0.35
-1 8 1 2.51 0.32
0 -8 -1 8.4 0.84
0 -8 -1 6.84 0.47
0 -8 -1 7.32 0.55
0 8 1 6.16 0.52
-1 -8 -1 1.33 0.17
-1 -8 -1 1.13 0.2
1 8 1 0.83 0.34
-1 -9 2 9.67 0.45
-1 -9 2 8.07 0.54
0 9 -2 4.96 0.49
0 -9 2 5.18 0.42
0 -9 2 5.09 0.3
0 -9 2 5.11 0.38
1 -9 2 -0.01 0.25
1 -9 2 0.25 0.14
-2 9 -2 2.03 0.31
-2 9 -2 1.06 0.3
2 -9 2 1.49 0.26
-3 9 -2 4.93 0.42
-3 -8 2 7.61 0.47
-3 -8 2 8.53 0.42
-3 -8 2 7.32 0.48
-2 -8 2 1.17 0.17
-2 -8 2 1.19 0.21
-2 -8 2 1.2 0.2
1 8 -2 1.56 0.4
1 8 -2 1.1 0.31
-1 -8 2 1.1 0.23
-1 -8 2 1.27 0.19
-1 -8 2 0.82 0.22
0 8 -2 10.81 0.8
0 8 -2 10.1 0.64
0 -8 2 11.83 0.62
0 -8 2 10.66 0.53
0 -8 2 11.5 0.6
-1 8 -2 10.67 0.6
-1 8 -2 10.08 0.7
-1 8 -2 10.82 0.67
1 -8 2 10.56 0.68
1 -8 2 10.02 0.62
1 -8 2 11.39 0.65
1 -8 2 11.01 0.64
1 -8 2 11.63 0.54
-2 8 -2 8.13 0.51
-2 8 -2 6.06 0.74
-2 8 -2 7.62 0.52
2 -8 2 7.23 0.54
2 -8 2 5.48 0.55
2 -8 2 6.39 0.61
2 -8 2 7.19 0.54
2 -8 2 7.14 0.44
-3 8 -2 7.48 1.04
-3 8 -2 7 0.59
-3 8 -2 8.28 0.49
3 -8 2 7.8 0.52
3 -8 2 9.21 0.48
3 -8 2 8.45 0.54
3 -8 2 8.05 0.55
4 -8 2 25.11 0.98
4 -8 2 24.71 1.02
4 -8 2 26.36 1.02
4 -8 2 21.08 1.37
5 -8 2 40.19 1.44
-4 -7 2 2.73 0.49
-4 -7 2 1.67 0.23
-4 -7 2 2.08 0.23
-3 -7 2 51.56 1.87
-3 -7 2 51.56 1.93
-3 -7 2 53.49 1.91
2 7 -2 106.87 4.11
-2 -7 2 120.13 4.08
-2 -7 2 122.29 4.03
-2 -7 2 116.17 4.1
1 7 -2 3.14 0.4
1 7 -2 2.71 0.37
1 7 -2 0.66 1.5
-1 -7 2 2.25 0.4
-1 -7 2 2.69 0.33
-1 -7 2 2.54 0.39
0 7 -2 15.55 1.94
0 7 -2 18.01 0.84
0 7 -2 17.34 0.98
0 -7 2 16.48 0.74
0 -7 2 17.23 0.86
0 -7 2 17.2 0.81
0 -7 2 17.55 0.84
0 -7 2 17.4 0.9
-1 7 -2 7 0.56
-1 7 -2 6.84 1.13
1 -7 2 7.79 0.56
1 -7 2 7.32 0.57
1 -7 2 8.4 0.6
1 -7 2 6.59 0.61
1 -7 2 6.25 0.45
1 -7 2 7.46 0.6
-2 7 -2 8.16 1.76
-2 7 -2 9.89 0.59
2 -7 2 9.38 0.65
2 -7 2 10.26 0.66
2 -7 2 9.66 0.67
2 -7 2 9.83 0.59
2 -7 2 9.89 0.53
-3 7 -2 91.26 3.26
-3 7 -2 94.78 3.26
-3 7 -2 88.28 3.33
3 -7 2 91.28 3.32
3 -7 2 92.18 3.31
3 -7 2 93.78 3.24
-4 7 -2 15.5 0.81
-4 7 -2 17.65 1.22
4 -7 2 19.08 0.88
4 -7 2 17.59 0.77
-5 7 -2 14.93 0.66
-5 7 -2 17.21 0.94
5 -7 2 12.47 0.79
5 -7 2 15.18 0.79
5 -7 2 14.87 0.65
6 -7 2 3.06 0.37
6 -7 2 2.65 0.28
-4 -6 2 7.44 0.48
-4 -6 2 6.65 0.57
-4 -6 2 6.54 0.5
-3 -6 2 4.04 0.36
-3 -6 2 3.46 0.41
-3 -6 2 3.15 0.44
2 6 -2 26.95 2.29
2 6 -2 30.73 1.23
-2 -6 2 31.4 1.22
-2 -6 2 30.17 1.23
-2 -6 2 30.11 1.15
1 6 -2 57.35 2.14
1 6 -2 60.03 2.13
1 6 -2 58.7 2.66
-1 -6 2 56.47 2.15
-1 -6 2 59.22 2.14
-1 -6 2 58.63 2.09
-1 -6 2 58.01 2.19
0 6 -2 7.57 1.06
0 6 -2 6.97 0.52
0 -6 2 6.07 0.6
0 -6 2 7.07 0.52
0 -6 2 6.29 0.41
0 -6 2 6.22 0.65
0 -6 2 5.89 0.51
-1 6 -2 5.55 0.44
-1 6 -2 5.99 1.81
-1 6 -2 6.38 0.97
1 -6 2 6.54 0.58
1 -6 2 6.13 0.52
1 -6 2 5.82 0.55
1 -6 2 5.35 0.56
-2 6 -2 15.2 0.72
-2 6 -2 12.89 1.25
-2 6 -2 14.02 0.67
2 -6 2 13.47 0.7
2 -6 2 14.6 0.77
2 -6 2 13.5 0.76
2 -6 2 13.38 0.78
-3 6 -2 55.47 2.35
-3 6 -2 57.42 2.71
-3 6 -2 55.64 2.4
-3 6 -2 58.69 2.16
-3 6 -2 59.69 2.13
3 -6 2 61.62 2.22
3 -6 2 57.6 2.11
3 -6 2 59.77 2.21
-4 6 -2 152.54 5
-4 6 -2 128.63 5.56
-4 6 -2 142.42 4.99
-4 6 -2 145.8 5.08
-4 6 -2 142.95 5.05
4 -6 2 147.72 4.97
4 -6 2 149.04 5.04
4 -6 2 129.34 5.85
4 -6 2 149.66 5.06
-5 6 -2 6.95 0.6
5 -6 2 6.43 0.67
5 -6 2 8.03 0.67
-6 6 -2 7.24 0.47
-6 6 -2 6.32 0.54
6 -6 2 7.74 0.43
6 -6 2 8.09 0.79
7 -6 2 4.13 0.3
-6 -5 2 7.29 1.03
-5 -5 2 6.54 0.75
-5 -5 2 6.18 0.64
-5 -5 2 8.3 0.7
-4 -5 2 43.53 1.68
-4 -5 2 42.55 1.6
-4 -5 2 44.5 1.56
-4 -5 2 37.7 1.84
-4 -5 2 42.68 1.64
-3 -5 2 77.78 2.75
-3 -5 2 78.11 2.82
-3 -5 2 78.74 2.8
2 5 -2 13.77 0.66
2 5 -2 16.03 1.24
-2 -5 2 12.03 0.76
-2 -5 2 12.76 0.7
1 5 -2 18.84 0.75
1 5 -2 19.02 1.12
1 5 -2 17.37 1.71
-1 -5 2 18.25 0.83
-1 -5 2 17.26 0.94
-1 -5 2 18.31 0.81
-1 -5 2 18.48 0.77
0 5 -2 38.47 2.1
0 5 -2 40.96 1.41
0 5 -2 39.55 1.69
0 5 -2 37.7 2.51
0 -5 2 37.91 1.51
0 -5 2 38.24 1.47
0 -5 2 35.75 1.47
0 -5 2 37.87 1.45
0 -5 2 38.36 1.48
-1 5 -2 15.66 0.96
-1 5 -2 16.94 2.5
-1 5 -2 14.51 0.77
-1 5 -2 16.12 0.66
-1 5 -2 15.03 0.65
-1 5 -2 16.25 1.68
1 -5 2 14.2 0.81
1 -5 2 15.16 0.77
1 -5 2 14.54 0.77
1 -5 2 14.22 0.8
1 -5 2 15.1 0.79
1 -5 2 15.47 1.19
-2 5 -2 11.92 0.89
-2 5 -2 12.54 0.57
-2 5 -2 11.12 0.63
-2 5 -2 13.11 0.84
-2 5 -2 12.18 2.08
-2 5 -2 11.97 0.57
2 -5 2 12.02 0.87
2 -5 2 12.57 0.73
2 -5 2 11.91 0.62
2 -5 2 11.34 0.71
2 -5 2 11.04 0.69
2 -5 2 12.32 0.91
-3 5 -2 217.14 7.55
-3 5 -2 226.19 7.91
-3 5 -2 224.44 7.55
-3 5 -2 222.95 7.66
-3 5 -2 213.41 7.64
-3 5 -2 195.95 8.77
3 -5 2 236.68 7.71
3 -5 2 224.65 7.91
-4 5 -2 3.86 0.7
-4 5 -2 3.32 0.44
-4 5 -2 2.68 0.44
-4 5 -2 3.2 0.57
4 -5 2 3.27 0.74
4 -5 2 2.7 0.49
4 -5 2 3.22 0.39
4 -5 2 3.19 0.54
-5 5 -2 59.31 2.13
-5 5 -2 58.78 2.11
-5 5 -2 52.32 3.06
-5 5 -2 59.55 2.09
-5 5 -2 56.42 2.15
5 -5 2 52.46 2.88
5 -5 2 56.55 2.16
5 -5 2 58.58 2.15
5 -5 2 57.9 2.25
5 -5 2 54.84 2.43
5 -5 2 56.19 2.06
-6 5 -2 0.28 0.27
-6 5 -2 0.75 0.27
-6 5 -2 0.51 0.23
6 -5 2 0.87 0.2
6 -5 2 1.11 0.59
6 -5 2 0.28 0.48
-7 5 -2 2.28 0.37
-7 5 -2 1.95 0.35
7 -5 2 2.25 0.27
-7 -4 2 1.97 0.36
-6 -4 2 11.19 0.62
-6 -4 2 11.24 0.67
-5 -4 2 4.05 0.5
-5 -4 2 3.64 0.46
-5 -4 2 4.47 0.57
-4 -4 2 22.26 0.92
-4 -4 2 21.32 0.96
-4 -4 2 20.49 1.04
-4 -4 2 17.37 2.34
-4 -4 2 21.92 0.98
-4 -4 2 22.3 0.99
-3 -4 2 16.5 0.75
-3 -4 2 15.25 0.77
-3 -4 2 15.28 0.94
-3 -4 2 13.47 0.81
-3 -4 2 15.41 0.71
-3 -4 2 16.02 1.6
2 4 -2 46.15 1.81
2 4 -2 43.19 1.89
-2 -4 2 41.94 1.63
-2 -4 2 43.27 1.58
-2 -4 2 42.71 1.63
-2 -4 2 42.67 2.01
1 4 -2 12.91 0.53
1 4 -2 10.93 0.82
1 4 -2 11.8 1.02
1 4 -2 12.55 0.99
1 4 -2 15.55 1.45
1 4 -2 12.83 1.21
-1 -4 2 12.7 0.89
-1 -4 2 11.12 0.65
-1 -4 2 13.68 0.94
-1 -4 2 12.88 0.72
0 4 -2 48.61 1.97
0 4 -2 46.73 1.78
0 4 -2 50.35 2.12
0 4 -2 50.9 1.76
0 4 -2 51.48 2.59
0 4 -2 52.92 2.29
0 4 -2 52.59 2.12
0 -4 2 49.69 2.04
0 -4 2 46.64 2.03
0 -4 2 47.16 2.04
0 -4 2 50.77 2.17
-1 4 -2 0.92 0.27
-1 4 -2 0.62 0.16
-1 4 -2 0.81 0.13
-1 4 -2 0.8 0.24
-1 4 -2 0.97 0.55
-1 4 -2 1.8 1.48
-1 4 -2 1.08 0.9
-1 4 -2 0.76 0.62
-1 4 -2 0.54 0.18
1 -4 2 0.82 0.2
1 -4 2 0.61 0.57
1 -4 2 0.5 0.56
1 -4 2 0.66 0.77
1 -4 2 0.63 0.25
-2 4 -2 64.01 2.87
-2 4 -2 64.34 2.99
-2 4 -2 66.21 2.29
-2 4 -2 67.66 3.7
-2 4 -2 65.79 2.35
-2 4 -2 67.03 2.31
-2 4 -2 67.68 2.51
-2 4 -2 64.48 2.3
2 -4 2 64.56 3.06
2 -4 2 62.8 2.38
2 -4 2 65.46 3
2 -4 2 64.46 2.31
2 -4 2 67.24 2.52
2 -4 2 59.08 2.38
-3 4 -2 -0.25 1.15
-3 4 -2 1.36 0.39
-3 4 -2 1.13 0.24
-3 4 -2 1.24 0.2
-3 4 -2 1.53 0.39
-3 4 -2 1.42 1.53
-3 4 -2 0.99 0.18
3 -4 2 1.46 0.28
3 -4 2 1.09 0.36
3 -4 2 0.41 1.2
3 -4 2 2.11 0.38
3 -4 2 1.18 0.24
3 -4 2 0.82 0.29
-4 4 -2 47.2 1.71
-4 4 -2 44.5 2.05
-4 4 -2 45.58 2.04
4 -4 2 42.65 1.88
4 -4 2 45.26 1.69
4 -4 2 45.83 2.11
4 -4 2 47.64 1.77
4 -4 2 47.05 4.27
4 -4 2 45.84 1.73
-5 4 -2 87.4 3.02
-5 4 -2 78.66 3.54
-5 4 -2 85.96 3.03
-5 4 -2 84.89 3.23
-5 4 -2 83.39 3.04
5 -4 2 85.57 3.07
5 -4 2 85.53 3.08
5 -4 2 85.89 3
5 -4 2 83.34 3.21
5 -4 2 85.54 3.12
5 -4 2 82.76 3.6
-6 4 -2 35.33 1.35
-6 4 -2 34.25 1.36
6 -4 2 30.61 1.54
6 -4 2 34.27 1.29
6 -4 2 33.96 1.34
6 -4 2 32.22 1.46
-7 4 -2 -0.03 0.2
-7 4 -2 0.04 0.21
7 -4 2 0.24 0.18
-7 -3 2 2.56 0.32
-7 -3 2 2.19 0.38
-6 -3 2 8.73 0.92
-6 -3 2 11.49 0.97
-6 -3 2 10.4 1.09
-5 -3 2 63.45 2.43
-5 -3 2 68.32 2.41
-5 -3 2 65.23 3.18
-5 -3 2 63.89 2.41
-4 -3 2 2.78 0.47
-4 -3 2 3.35 0.58
-4 -3 2 1.55 0.65
-4 -3 2 2.82 0.37
-4 -3 2 0.99 0.77
3 3 -2 251.37 8.39
-3 -3 2 226.52 8.33
-3 -3 2 242.74 8.31
-3 -3 2 252.31 8.55
-3 -3 2 235.44 8.29
-3 -3 2 247.34 8.32
2 3 -2 204.71 6.92
2 3 -2 191.98 6.83
2 3 -2 196.2 6.82
1 3 -2 147.71 4.95
1 3 -2 143.16 5.01
1 3 -2 133.69 4.81
1 3 -2 147.04 4.97
1 3 -2 138.41 4.94
1 3 -2 149.93 4.98
-1 -3 2 132.92 4.88
-1 -3 2 142.6 5.01
0 3 -2 3.61 0.67
0 3 -2 4.1 0.37
0 3 -2 3.97 0.59
0 3 -2 3.13 0.56
0 3 -2 3.7 0.22
0 -3 2 4.02 0.47
0 -3 2 3.64 0.44
0 -3 2 3.72 0.25
0 -3 2 3.39 0.64
-1 3 -2 20.58 1.22
-1 3 -2 21.29 1.14
-1 3 -2 20.91 1.65
-1 3 -2 21.35 0.92
-1 3 -2 19.87 0.8
-1 3 -2 21.74 1.11
1 -3 2 19.84 1.31
1 -3 2 21.17 1.03
1 -3 2 21.42 0.93
1 -3 2 21.74 0.83
1 -3 2 21.2 1.15
1 -3 2 19.32 1.06
1 -3 2 20.74 0.79
-2 3 -2 271.51 9.45
-2 3 -2 278.56 9.48
-2 3 -2 262.12 9.33
-2 3 -2 263.15 9.12
-2 3 -2 269.81 9.52
-2 3 -2 255.6 9.13
2 -3 2 264.39 9.53
2 -3 2 285.69 9.59
2 -3 2 272.22 9.32
2 -3 2 254.18 9.15
2 -3 2 267.97 9.38
2 -3 2 284.19 9.5
2 -3 2 264.79 9.14
-3 3 -2 25.32 1.21
-3 3 -2 24.37 0.98
-3 3 -2 25.46 1.18
-3 3 -2 24.97 1
-3 3 -2 27.51 1.96
-3 3 -2 23.66 1.9
-3 3 -2 25.82 1.13
3 -3 2 27.33 1.25
3 -3 2 24.3 2.05
3 -3 2 24.5 0.98
3 -3 2 25.85 0.99
3 -3 2 22.6 1.88
3 -3 2 28.49 1.22
3 -3 2 21.46 3.02
3 -3 2 23.67 1.87
3 -3 2 27.06 1.03
-4 3 -2 26.22 1.29
-4 3 -2 25.01 1.13
-4 3 -2 24.64 1.35
-4 3 -2 23.11 1.12
-4 3 -2 26.1 1.09
-4 3 -2 24.93 1.06
-4 3 -2 25.33 1.01
-4 3 -2 25.63 1.3
4 -3 2 24.57 1.15
4 -3 2 24.95 1
4 -3 2 26.06 2.7
4 -3 2 23.58 1.34
4 -3 2 21.73 1.5
4 -3 2 26.34 1.07
4 -3 2 24.78 1.01
-5 3 -2 1.26 0.29
-5 3 -2 0.84 0.39
-5 3 -2 1.18 0.42
-5 3 -2 1.49 0.27
-5 3 -2 1.51 0.32
-5 3 -2 1.22 0.35
-5 3 -2 1.42 0.43
-5 3 -2 1.7 0.45
-5 3 -2 1.26 0.23
5 -3 2 0.86 0.29
5 -3 2 0.6 0.58
5 -3 2 1.15 0.24
5 -3 2 1.43 0.42
5 -3 2 1.55 0.33
-6 3 -2 5.66 0.69
-6 3 -2 4.6 0.51
-6 3 -2 5.14 0.47
-6 3 -2 5.38 0.75
-6 3 -2 4.74 0.74
6 -3 2 6.4 1.74
6 -3 2 5.32 0.7
6 -3 2 4.79 0.47
6 -3 2 5.07 0.58
-7 3 -2 22.51 0.98
-7 3 -2 23.9 1.12
-7 3 -2 24.31 0.98
7 -3 2 23.51 0.99
7 -3 2 23.51 1.16
7 -3 2 24.48 0.96
-8 3 -2 0.61 0.31
8 -3 2 0.3 0.17
7 2 -2 10.4 0.88
7 2 -2 10.4 0.93
-7 -2 2 13.18 0.94
-7 -2 2 12.57 0.78
-7 -2 2 11.7 0.62
-7 -2 2 11.89 0.59
6 2 -2 3.59 0.62
6 2 -2 2.6 0.53
-6 -2 2 3.05 0.5
-6 -2 2 3.16 1.43
-6 -2 2 3.02 0.45
-6 -2 2 3.77 0.72
-6 -2 2 3.44 0.44
5 2 -2 0.74 0.73
-5 -2 2 1.99 0.46
-5 -2 2 1.14 0.43
-5 -2 2 2.08 0.31
-5 -2 2 2.67 0.83
-5 -2 2 1.36 0.28
4 2 -2 12.82 0.6
4 2 -2 13.97 1.26
4 2 -2 12.17 1.07
-4 -2 2 12.29 1.33
-4 -2 2 12.67 0.78
-4 -2 2 12.14 0.96
-4 -2 2 12.45 0.66
-4 -2 2 12.12 0.77
-4 -2 2 10.98 0.7
-4 -2 2 11.05 0.95
3 2 -2 246.85 8.34
3 2 -2 223.96 8.19
3 2 -2 237.06 8.31
3 2 -2 257.42 8.41
-3 -2 2 244.59 8.48
2 2 -2 134.6 4.63
2 2 -2 134.56 4.66
2 2 -2 138.05 4.61
2 2 -2 136.52 4.6
-2 -2 2 129.88 4.54
-2 -2 2 123.29 4.71
1 2 -2 534.93 17.61
1 2 -2 548.65 17.63
1 2 -2 561.4 17.62
1 2 -2 495.98 17.56
1 2 -2 523.49 17.64
-1 -2 2 498.9 17.58
-1 -2 2 505.16 17.71
-1 -2 2 505.01 17.54
-1 -2 2 523.28 17.58
-1 -2 2 510.3 17.56
-1 -2 2 500.41 17.57
0 2 -2 29.44 1.08
0 2 -2 32.23 1.24
0 2 -2 30.55 1.15
0 2 -2 32.09 1.25
0 2 -2 32.11 1.26
0 2 -2 29.92 1.3
0 -2 2 29.5 1.1
0 -2 2 28.98 1.27
0 -2 2 30.7 1.3
0 -2 2 31.28 1.19
0 -2 2 29.11 1.29
0 -2 2 31.33 1.23
-1 2 -2 162.78 5.65
-1 2 -2 162.19 5.56
-1 2 -2 168.29 5.66
-1 2 -2 162.97 5.63
-1 2 -2 155.8 5.71
-1 2 -2 155.3 5.46
1 -2 2 170.21 5.63
1 -2 2 152.76 5.69
1 -2 2 158.05 5.57
1 -2 2 154.93 5.59
1 -2 2 155.52 5.65
1 -2 2 166.98 5.67
1 -2 2 154.41 5.47
1 -2 2 164.86 5.47
1 -2 2 161.26 5.59
-2 2 -2 154.56 5.51
-2 2 -2 150.3 5.24
-2 2 -2 152.01 5.5
-2 2 -2 163.64 5.38
-2 2 -2 153.62 5.55
2 -2 2 154.32 5.4
2 -2 2 157.77 5.43
2 -2 2 157.09 5.54
2 -2 2 147.29 5.25
2 -2 2 146.41 5.26
2 -2 2 154.81 5.41
2 -2 2 152.16 5.45
2 -2 2 157.9 5.5
2 -2 2 151.52 5.53
2 -2 2 149.35 5.66
-3 2 -2 217.69 7.31
-3 2 -2 216.45 7.56
-3 2 -2 204.12 7.15
-3 2 -2 208.13 7.51
3 -2 2 200.92 7.15
3 -2 2 201.6 7.14
3 -2 2 213.15 7.44
3 -2 2 210.84 7.52
3 -2 2 210.49 7.19
3 -2 2 208.74 7.57
3 -2 2 210.41 7.37
-4 2 -2 76.92 2.74
-4 2 -2 76.68 2.79
-4 2 -2 78.73 2.89
-4 2 -2 74.76 2.85
-4 2 -2 78.48 2.96
-4 2 -2 74.76 2.78
-4 2 -2 76.79 2.85
-4 2 -2 77.38 2.74
4 -2 2 75.48 3.54
4 -2 2 81.53 2.75
4 -2 2 77.94 3.05
4 -2 2 80.58 2.73
4 -2 2 72.74 3.87
-5 2 -2 27.6 1.15
-5 2 -2 28.18 1.22
-5 2 -2 29.16 1.37
-5 2 -2 26.42 1.23
-5 2 -2 29.29 1.33
-5 2 -2 28.7 1.21
-5 2 -2 28.85 1.13
-5 2 -2 28.24 1.2
5 -2 2 27.05 1.64
5 -2 2 30.28 1.18
5 -2 2 29.59 1.15
-6 2 -2 1.34 0.33
-6 2 -2 1.98 0.3
-6 2 -2 1.75 0.33
-6 2 -2 1.86 0.3
-6 2 -2 1.3 0.37
-6 2 -2 1.35 0.33
6 -2 2 1.84 0.41
6 -2 2 1.82 0.3
6 -2 2 2.49 0.4
-7 2 -2 1.55 0.27
-7 2 -2 1.63 0.33
-7 2 -2 1.39 0.35
7 -2 2 1.16 0.27
7 -2 2 1.18 0.56
7 -2 2 1.29 0.38
-8 2 -2 2.66 0.41
8 -2 2 3.6 0.33
8 -2 2 4.51 0.5
-8 -1 2 13.18 0.93
-8 -1 2 10.15 0.57
-8 -1 2 11.12 0.61
-8 -1 2 10.23 0.56
7 1 -2 0.5 0.34
7 1 -2 0 0.37
-7 -1 2 0.27 0.3
-7 -1 2 0.86 0.22
-7 -1 2 0.68 0.23
-7 -1 2 0.92 0.37
6 1 -2 15.65 0.85
6 1 -2 14.81 0.8
6 1 -2 12.9 2
-6 -1 2 15.96 0.83
-6 -1 2 14.29 0.75
-6 -1 2 14.23 1.87
-6 -1 2 15.04 0.97
-6 -1 2 15.11 0.93
5 1 -2 6.25 1.57
5 1 -2 5.16 1.06
5 1 -2 6.25 0.66
5 1 -2 6.19 0.48
-5 -1 2 7.15 0.56
-5 -1 2 6.29 0.61
-5 -1 2 8.05 1.28
-5 -1 2 7.46 0.54
-5 -1 2 5.74 0.77
-5 -1 2 6.44 0.73
4 1 -2 53.08 1.84
4 1 -2 48.42 1.9
4 1 -2 55.88 2.02
4 1 -2 51.5 2.03
4 1 -2 52.71 2.58
4 1 -2 51.18 2.33
-4 -1 2 49.41 2.04
-4 -1 2 53.36 2.26
-4 -1 2 49.56 2.07
-4 -1 2 49.82 1.9
-4 -1 2 50.84 1.92
-4 -1 2 49.85 1.94
-4 -1 2 51.51 1.9
3 1 -2 3.2 0.5
3 1 -2 3.21 0.44
3 1 -2 3.04 0.4
3 1 -2 3.11 0.69
3 1 -2 4.87 0.91
3 1 -2 3.49 0.67
3 1 -2 3.65 0.41
-3 -1 2 2.92 0.42
-3 -1 2 3.41 0.48
-3 -1 2 3.36 0.63
-3 -1 2 3.43 0.54
2 1 -2 94.9 3.36
2 1 -2 92.54 3.37
2 1 -2 100.1 3.38
2 1 -2 101.27 3.43
2 1 -2 105.2 3.46
2 1 -2 99.42 3.49
2 1 -2 98.1 3.43
2 1 -2 92.33 3.28
-2 -1 2 91.51 3.42
-2 -1 2 93.32 3.4
-2 -1 2 92.94 3.47
-2 -1 2 94.1 3.41
-2 -1 2 95.11 3.32
-2 -1 2 95.23 3.38
1 1 -2 1.5 0.35
1 1 -2 1.93 0.25
1 1 -2 1.55 0.27
1 1 -2 1.97 0.44
1 1 -2 1.53 0.24
1 1 -2 1.5 0.16
1 1 -2 1.45 0.2
1 1 -2 1.96 0.28
-1 -1 2 1.94 0.22
-1 -1 2 1.62 0.18
-1 -1 2 1.96 0.39
-1 -1 2 1.5 0.26
-1 -1 2 1.45 0.31
-1 -1 2 1.22 0.26
0 1 -2 3.49 0.45
0 1 -2 3.08 0.23
0 1 -2 3.52 0.27
0 1 -2 3.62 0.35
0 1 -2 3.61 0.29
0 1 -2 3.42 0.39
0 1 -2 2.93 0.19
0 -1 2 3.55 0.28
0 -1 2 3.21 0.19
0 -1 2 3.18 0.39
0 -1 2 3.63 0.38
0 -1 2 3.12 0.43
0 -1 2 3.27 0.35
-1 1 -2 198.07 6.68
-1 1 -2 183.02 6.52
-1 1 -2 183.28 6.59
-1 1 -2 194.31 6.73
-1 1 -2 193.59 6.63
-1 1 -2 198.39 6.66
1 -1 2 197.71 6.66
1 -1 2 191.24 6.7
1 -1 2 196.37 6.62
1 -1 2 187.67 6.61
1 -1 2 196.6 6.62
1 -1 2 190.39 6.67
1 -1 2 187.6 6.53
-2 1 -2 0.4 0.32
-2 1 -2 0.74 0.4
2 -1 2 0.94 0.52
2 -1 2 0.52 0.31
2 -1 2 0.87 0.34
2 -1 2 0.75 0.32
2 -1 2 0.31 0.4
2 -1 2 0.6 0.12
2 -1 2 0.64 0.13
2 -1 2 0.69 0.25
2 -1 2 0.44 0.18
2 -1 2 0.64 0.33
-3 1 -2 177.62 5.88
-3 1 -2 166.14 5.92
-3 1 -2 155.86 6.31
3 -1 2 171.74 6.09
3 -1 2 179.72 5.88
3 -1 2 175.88 5.87
3 -1 2 176.23 6.23
3 -1 2 152.33 6.56
3 -1 2 172.75 6.17
3 -1 2 172.46 6.33
3 -1 2 185.96 6.26
3 -1 2 170.38 5.91
-4 1 -2 53.65 2
-4 1 -2 54.89 2.11
-4 1 -2 55.43 2.09
-4 1 -2 57.93 2.03
-4 1 -2 55.89 1.99
-4 1 -2 53.69 2.07
-4 1 -2 52.24 2.07
4 -1 2 59.13 2.34
4 -1 2 58.55 2.16
4 -1 2 58.13 2.02
4 -1 2 55.23 2.81
4 -1 2 53.6 3.16
4 -1 2 58.56 2.03
-5 1 -2 3.35 0.73
-5 1 -2 3.21 0.56
-5 1 -2 3.82 0.4
-5 1 -2 4.46 0.55
-5 1 -2 4.5 0.46
-5 1 -2 4.39 0.53
-5 1 -2 4.7 0.41
-5 1 -2 3.68 0.5
-5 1 -2 5.05 0.69
5 -1 2 4.89 0.46
5 -1 2 4.44 0.52
5 -1 2 4.21 0.48
5 -1 2 5.53 1.09
-6 1 -2 22.7 1.02
-6 1 -2 22.61 1.03
-6 1 -2 22.68 1.03
-6 1 -2 20.84 0.95
-6 1 -2 23.01 1.01
-6 1 -2 24.18 1.2
6 -1 2 22.48 1.16
6 -1 2 22.3 1.02
6 -1 2 23.06 1
6 -1 2 19.2 2.54
-7 1 -2 4.44 0.5
-7 1 -2 4.41 0.48
-7 1 -2 4.64 0.62
-7 1 -2 5.97 0.81
7 -1 2 3.87 0.59
7 -1 2 4.31 0.51
7 -1 2 4.74 0.75
-8 1 -2 27.67 1.07
-8 1 -2 27.22 1.17
8 -1 2 29.14 1.06
8 -1 2 27.93 1.11
8 0 -2 25.44 1.06
8 0 -2 26.32 1.1
-8 0 2 27.83 1.02
-8 0 2 25.46 1
-8 0 2 26.12 1.07
7 0 -2 16.11 0.78
-7 0 2 15.66 0.92
-7 0 2 14.98 0.83
-7 0 2 16.18 0.77
-7 0 2 16.6 0.88
-7 0 2 15.27 0.76
6 0 -2 1.27 0.42
6 0 -2 0.63 0.81
6 0 -2 1.26 0.31
-6 0 2 1.62 0.31
-6 0 2 2.23 0.46
-6 0 2 1.9 1.03
-6 0 2 1.49 0.29
-6 0 2 2.03 0.33
-6 0 2 1.8 0.42
-6 0 2 2.02 0.31
5 0 -2 15.28 0.71
5 0 -2 15.34 0.72
5 0 -2 14.73 1.24
5 0 -2 20.77 3.42
-5 0 2 15.8 0.77
-5 0 2 14.9 0.92
-5 0 2 14.98 0.77
-5 0 2 15.74 1.36
-5 0 2 13.85 0.74
-5 0 2 13.6 0.95
4 0 -2 124.01 4.1
4 0 -2 119.34 4.75
4 0 -2 120.73 4.58
4 0 -2 124.67 4.23
-4 0 2 122.7 4.46
-4 0 2 120.17 4.12
-4 0 2 115.81 4.12
-4 0 2 113.89 4.23
-4 0 2 117.81 4.16
-4 0 2 109.69 4.25
-4 0 2 113.5 4.15
3 0 -2 54.48 1.95
3 0 -2 60.68 2.05
3 0 -2 62.44 2.55
3 0 -2 54.93 2.31
3 0 -2 54.97 2.27
3 0 -2 53.91 1.96
3 0 -2 50.56 2.65
3 0 -2 56.67 2.05
3 0 -2 57.33 2.22
-3 0 2 53.41 2.2
-3 0 2 54.34 2.45
-3 0 2 55.23 2.25
-3 0 2 51.37 2.38
-3 0 2 54.84 2.01
2 0 -2 119.52 4.17
2 0 -2 122.6 4.45
2 0 -2 123.67 4.24
2 0 -2 127.63 4.37
2 0 -2 123.87 4.37
2 0 -2 122.19 4.36
2 0 -2 126.13 4.31
2 0 -2 120.81 4.25
-2 0 2 120.58 4.36
-2 0 2 117.27 4.21
-2 0 2 119.68 4.43
-2 0 2 119.19 4.33
-2 0 2 122.35 4.23
-2 0 2 123.12 4.42
1 0 -2 81.2 2.87
1 0 -2 81.67 2.86
1 0 -2 83.96 2.82
1 0 -2 75.78 2.95
1 0 -2 79.25 2.77
1 0 -2 77.01 2.78
1 0 -2 77.91 2.84
1 0 -2 75.66 2.85
-1 0 2 78.68 2.86
-1 0 2 78.71 2.88
-1 0 2 82.86 2.82
-1 0 2 79.85 2.75
-1 0 2 78.27 2.73
-1 0 2 76.12 2.83
-1 0 2 83.22 2.87
-1 0 2 76.41 2.93
0 0 -2 278.81 9.14
0 0 -2 272.69 9.15
0 0 -2 266.57 9.12
0 0 -2 277.07 9.1
0 0 -2 258.26 9.04
0 0 -2 262.79 9.14
0 0 -2 265.71 9.17
0 0 -2 252.85 9.05
0 0 2 263.89 9.04
0 0 2 258.73 9.01
0 0 2 270.66 9.13
0 0 2 267.38 9.13
0 0 2 260.43 9.16
0 0 2 274.92 9.16
0 0 2 257.06 9.02
0 0 2 270.94 9.15
0 0 2 266.83 9.1
-1 0 -2 104.22 3.65
-1 0 -2 101.93 3.66
-1 0 -2 108.34 3.66
-1 0 -2 97.71 3.7
-1 0 -2 97.3 3.5
-1 0 -2 101.75 3.59
-1 0 -2 99.01 3.51
1 0 2 106.12 3.66
1 0 2 101.53 3.59
1 0 2 97.35 3.55
1 0 2 106.5 3.67
1 0 2 104.25 3.68
1 0 2 105.69 3.64
1 0 2 97.97 3.49
2 0 2 49.03 2.1
2 0 2 52.92 1.96
2 0 2 50.09 2.01
2 0 2 50.24 1.74
2 0 2 48.36 1.76
2 0 2 43.35 2.07
2 0 2 50.16 1.88
2 0 2 50.26 1.85
-3 0 -2 49.93 2.03
-3 0 -2 49.37 2.24
3 0 2 53.12 2.14
3 0 2 51.19 2.5
3 0 2 54.05 2.02
3 0 2 53.59 2.25
3 0 2 48.88 2.21
3 0 2 51.58 1.81
3 0 2 50.2 2.21
3 0 2 51.92 2.39
3 0 2 44.31 2.52
3 0 2 50.52 1.83
3 0 2 51.33 1.86
-4 0 -2 24.1 0.95
-4 0 -2 24.27 1.06
-4 0 -2 24.6 1.1
-4 0 -2 23.36 1
-4 0 -2 24.43 1.16
-4 0 -2 24.36 0.96
-4 0 -2 24.68 1.09
-4 0 -2 24.7 1.08
4 0 2 23.49 1.98
4 0 2 26.38 0.99
4 0 2 24.47 1.01
4 0 2 25.59 1.35
-5 0 -2 26.93 1.34
-5 0 -2 27.67 1.28
-5 0 -2 27.93 1.19
-5 0 -2 27.07 1.17
-5 0 -2 27.69 1.15
-5 0 -2 27.44 1.08
-5 0 -2 25.57 1.2
-5 0 -2 28.1 1.22
5 0 2 29.24 1.17
5 0 2 30.19 1.17
5 0 2 29.73 1.26
-6 0 -2 5.83 0.54
-6 0 -2 6.25 0.56
-6 0 -2 6.13 0.74
-6 0 -2 6.26 0.56
-6 0 -2 6.09 0.45
-6 0 -2 6.65 0.76
6 0 2 6.16 0.6
6 0 2 6.25 0.59
6 0 2 6.45 0.96
-7 0 -2 0.3 0.22
-7 0 -2 0.52 0.25
-7 0 -2 0.24 0.22
-7 0 -2 0.13 0.32
7 0 2 0.27 0.38
7 0 2 0.23 0.29
8 -1 -2 4.34 0.44
8 -1 -2 3.78 0.46
-8 1 2 3.98 0.45
-8 1 2 3.61 0.65
-8 1 2 3.61 0.41
7 -1 -2 2.82 0.43
7 -1 -2 2.22 0.3
-7 1 2 1.41 0.31
-7 1 2 2.62 0.45
-7 1 2 2.07 0.38
-7 1 2 1.93 0.32
-7 1 2 2.11 0.41
6 -1 -2 -0.29 0.32
6 -1 -2 0.77 0.86
6 -1 -2 -0.09 0.25
6 -1 -2 0.25 0.29
-6 1 2 -0.2 0.26
-6 1 2 0.71 0.28
-6 1 2 -0.16 0.24
-6 1 2 0.06 0.26
-6 1 2 0.03 0.33
-6 1 2 -0.77 1
5 -1 -2 0.89 0.31
5 -1 -2 0.85 0.23
5 -1 -2 0.5 0.5
-5 1 2 0.84 0.33
-5 1 2 1.05 0.72
-5 1 2 1.41 0.27
-5 1 2 1.58 0.3
-5 1 2 0.49 0.37
-5 1 2 0.53 0.27
-5 1 2 0.88 0.26
4 -1 -2 41.32 1.9
4 -1 -2 37.45 3.04
4 -1 -2 42.44 2.37
4 -1 -2 45.19 1.56
4 -1 -2 39.79 1.61
4 -1 -2 43.67 1.7
4 -1 -2 43.29 1.55
4 -1 -2 42.25 1.71
-4 1 2 40.99 1.58
-4 1 2 41.14 1.77
-4 1 2 44.61 1.99
-4 1 2 43.52 1.62
-4 1 2 41.74 1.62
-4 1 2 40.23 1.71
3 -1 -2 39.19 1.41
3 -1 -2 40.42 1.55
3 -1 -2 37.72 1.86
3 -1 -2 41.32 1.94
3 -1 -2 37.82 1.4
3 -1 -2 39.4 1.53
3 -1 -2 38.28 1.99
-3 1 2 37.9 1.48
-3 1 2 34.48 2.05
-3 1 2 38.73 2.1
-3 1 2 40.37 1.7
-3 1 2 36.85 1.92
2 -1 -2 24.39 1.02
2 -1 -2 25.61 1.01
2 -1 -2 24.1 1.3
2 -1 -2 23.93 0.93
2 -1 -2 26.3 1.27
2 -1 -2 25.5 1.19
-2 1 2 25.92 1.24
-2 1 2 24.27 0.96
-2 1 2 25.42 1.33
-2 1 2 24.14 1.15
-2 1 2 24.04 1.38
-2 1 2 24.23 0.97
-2 1 2 25.84 0.98
-2 1 2 24.96 1
-2 1 2 25.32 1.3
1 -1 -2 18.43 0.78
1 -1 -2 18.45 0.76
1 -1 -2 19.41 0.96
1 -1 -2 17.44 0.88
1 -1 -2 18.56 1.01
1 -1 -2 17.95 0.7
1 -1 -2 19.97 0.98
-1 1 2 17.6 0.71
-1 1 2 19.11 0.76
-1 1 2 20.12 1.01
-1 1 2 17.38 1
-1 1 2 18.46 0.74
-1 1 2 18.82 0.91
-1 1 2 18.37 0.88
-1 1 2 18.97 0.98
-1 1 2 17.6 1.35
0 -1 -2 138.46 4.77
0 -1 -2 129.44 4.85
0 -1 -2 141.58 4.65
0 -1 -2 137.74 4.77
0 -1 -2 137.68 4.75
0 -1 -2 128.11 4.7
0 -1 -2 135.38 4.66
0 -1 -2 131.89 4.76
0 1 2 125.99 4.59
0 1 2 132.59 4.64
0 1 2 138.57 4.76
0 1 2 143.84 4.81
0 1 2 128.45 4.82
0 1 2 137.99 4.76
0 1 2 132.2 4.59
0 1 2 133.94 4.71
0 1 2 134.17 4.77
-1 -1 -2 30.81 1.32
-1 -1 -2 30.7 1.42
-1 -1 -2 32.04 1.17
-1 -1 -2 31.43 1.33
1 1 2 32.57 1.36
1 1 2 30.18 1.47
1 1 2 32.06 1.42
1 1 2 30.63 1.13
1 1 2 31.48 1.19
1 1 2 32.63 1.38
1 1 2 31.64 1.28
1 1 2 31.74 1.35
-2 -1 -2 47.76 2.13
-2 -1 -2 48.59 1.77
-2 -1 -2 49.73 2.02
2 1 2 49.03 2.22
2 1 2 51.94 1.94
2 1 2 50.87 2.04
2 1 2 51.26 2.12
2 1 2 50.62 1.79
2 1 2 48.01 2.11
2 1 2 47.85 1.77
2 1 2 50.02 1.84
-3 -1 -2 60.06 2.53
-3 -1 -2 66.16 2.44
-3 -1 -2 65.31 2.44
-3 -1 -2 70.05 2.34
-3 -1 -2 71.96 2.69
-3 -1 -2 62.01 2.44
3 1 2 65.29 2.77
3 1 2 67.56 2.81
3 1 2 69.65 2.39
3 1 2 67.25 2.52
3 1 2 63.18 3.13
3 1 2 70.59 2.34
3 1 2 62.96 2.36
3 1 2 65.97 2.81
-4 -1 -2 24.58 1.23
-4 -1 -2 27.68 1.03
-4 -1 -2 24.99 2.02
-4 -1 -2 27.25 1.26
-4 -1 -2 26.95 1.12
-4 -1 -2 25.68 1.18
-4 -1 -2 24.51 1.24
4 1 2 28.81 1.15
4 1 2 27.69 2.32
4 1 2 26.94 1.15
-5 -1 -2 19.84 0.97
-5 -1 -2 20.62 0.99
-5 -1 -2 19.87 0.83
-5 -1 -2 20.15 1.04
-5 -1 -2 18.46 1.15
-5 -1 -2 21 0.95
5 1 2 19.6 0.92
5 1 2 19.26 1.05
5 1 2 20.54 0.98
-6 -1 -2 2.73 0.49
-6 -1 -2 3.72 0.48
-6 -1 -2 3.33 0.44
-6 -1 -2 2.43 0.43
6 1 2 2.79 0.41
6 1 2 3.1 0.42
6 1 2 2.17 0.69
-7 -1 -2 5.07 0.4
-7 -1 -2 5.38 0.43
-7 -1 -2 5.98 0.53
-7 -1 -2 5.76 0.61
7 1 2 4.5 0.56
7 1 2 5.72 0.63
8 -2 -2 1.08 0.38
8 -2 -2 0.75 0.27
8 -2 -2 1.09 0.22
-8 2 2 0.74 0.23
-8 2 2 1.26 0.32
7 -2 -2 2.9 0.4
7 -2 -2 3.01 0.43
7 -2 -2 2.1 0.43
-7 2 2 1.75 0.27
-7 2 2 1.7 0.37
-7 2 2 2.85 0.39
-7 2 2 2.18 0.42
-7 2 2 2.65 0.56
6 -2 -2 29.91 1.24
6 -2 -2 27.16 2.21
6 -2 -2 31.23 1.24
6 -2 -2 29.45 1.29
-6 2 2 31.07 1.33
-6 2 2 32.46 1.24
-6 2 2 32.71 1.26
-6 2 2 31.54 1.45
-6 2 2 31.73 1.42
-6 2 2 31.32 1.27
5 -2 -2 53.49 1.88
5 -2 -2 45.93 2.3
5 -2 -2 44.81 2.49
5 -2 -2 48.02 1.82
5 -2 -2 51.69 1.83
-5 2 2 49.74 1.88
-5 2 2 49.55 1.87
-5 2 2 51.36 2.02
-5 2 2 51.07 2.51
-5 2 2 49.97 1.91
-5 2 2 48.76 1.83
-5 2 2 48.25 2.05
-5 2 2 50.01 2.03
4 -2 -2 2.93 1.21
4 -2 -2 2.45 0.47
4 -2 -2 2.95 0.42
4 -2 -2 3.02 0.35
-4 2 2 2.09 0.42
-4 2 2 2.6 0.5
-4 2 2 2.14 0.7
-4 2 2 1.63 0.54
-4 2 2 3.2 0.44
-4 2 2 1.9 0.31
-4 2 2 1.59 0.43
-4 2 2 3.94 0.78
-4 2 2 2.73 0.42
3 -2 -2 66.24 3.34
3 -2 -2 77.84 2.77
3 -2 -2 75.58 3.52
3 -2 -2 79.13 2.9
3 -2 -2 76.09 2.64
3 -2 -2 77.98 2.79
3 -2 -2 71.93 2.66
3 -2 -2 68.15 4.09
3 -2 -2 74.98 3.24
3 -2 -2 78.21 2.65
3 -2 -2 75.76 2.88
-3 2 2 76.75 2.67
-3 2 2 75.5 2.92
-3 2 2 80.68 2.75
-3 2 2 72.36 3.46
-3 2 2 77 2.7
-3 2 2 73.09 2.72
-3 2 2 71.84 2.74
-3 2 2 76.41 2.73
-3 2 2 73.33 3.53
2 -2 -2 73.65 2.69
2 -2 -2 73.49 2.57
2 -2 -2 72.63 3.01
2 -2 -2 74.41 2.67
2 -2 -2 71.6 3.05
2 -2 -2 76.93 2.58
2 -2 -2 75.52 2.74
2 -2 -2 68.02 3.19
2 -2 -2 70.72 3.03
-2 2 2 68.69 3.21
-2 2 2 77.7 2.67
-2 2 2 76.21 2.58
-2 2 2 70.72 2.76
-2 2 2 77.19 2.65
-2 2 2 73.92 2.98
-2 2 2 72.69 2.67
-2 2 2 74.29 3.09
-2 2 2 75.1 3.04
1 -2 -2 117.9 4.12
1 -2 -2 117.88 4.11
1 -2 -2 120.26 4.36
1 -2 -2 108.49 4.02
1 -2 -2 115.6 4.32
-1 2 2 117.62 4.28
-1 2 2 110.72 4.14
-1 2 2 118.21 4.1
-1 2 2 118.54 4.34
-1 2 2 132.54 4.45
-1 2 2 108.86 4.76
-1 2 2 117.53 4.07
0 -2 -2 4.58 0.57
0 -2 -2 4.06 0.83
0 -2 -2 6.27 0.85
0 -2 -2 4.97 0.37
0 -2 -2 4.27 0.7
0 -2 -2 4.65 0.4
0 2 2 4.44 0.34
0 2 2 5.42 0.82
0 2 2 4.06 0.68
0 2 2 3.58 0.88
0 2 2 3.79 0.73
0 2 2 5.2 0.75
0 2 2 4.38 0.73
0 2 2 4.77 0.36
-1 -2 -2 54.15 2
-1 -2 -2 53.91 2.25
-1 -2 -2 53.17 1.92
-1 -2 -2 54.12 2.15
-1 -2 -2 54.01 2.41
-1 -2 -2 52.34 2.33
-1 -2 -2 54.63 2.19
1 2 2 52.57 1.92
1 2 2 56.22 2.27
1 2 2 55.5 2.35
1 2 2 51.84 1.9
1 2 2 54.44 2.51
1 2 2 54.21 2.22
1 2 2 55.08 2.16
1 2 2 53.52 1.9
-2 -2 -2 32.53 1.23
-2 -2 -2 32.39 1.27
-2 -2 -2 35.03 1.25
-2 -2 -2 34.11 1.61
-2 -2 -2 30.99 1.63
-2 -2 -2 33.07 1.39
2 2 2 33.39 1.93
2 2 2 33.81 1.25
2 2 2 33.06 1.21
2 2 2 34.25 1.34
2 2 2 33.27 1.74
2 2 2 34.15 1.66
2 2 2 30.1 1.28
2 2 2 33.64 1.74
2 2 2 30.61 1.97
-3 -2 -2 4.72 0.82
-3 -2 -2 3.27 0.34
-3 -2 -2 3.16 0.54
-3 -2 -2 3.17 0.46
-3 -2 -2 2.08 0.4
-3 -2 -2 2.03 0.53
-3 -2 -2 2.51 0.31
3 2 2 3.33 0.37
3 2 2 3.1 0.5
3 2 2 3.28 0.97
3 2 2 2.51 0.55
3 2 2 4.38 0.59
-4 -2 -2 20.68 0.94
-4 -2 -2 19.72 1.32
-4 -2 -2 22.47 0.87
-4 -2 -2 20.41 1.18
-4 -2 -2 21.72 1.01
-4 -2 -2 20.73 1.02
-4 -2 -2 18.83 2.48
-4 -2 -2 20.82 0.97
4 2 2 22.45 1.08
4 2 2 22.59 1.06
-5 -2 -2 27.93 1.4
-5 -2 -2 31.09 1.28
-5 -2 -2 27.57 1.22
-5 -2 -2 29.2 1.09
-5 -2 -2 28.01 1.2
5 2 2 26.83 1.2
5 2 2 25.06 1.82
5 2 2 28.61 1.32
-6 -2 -2 8.93 0.58
-6 -2 -2 8.13 0.88
-6 -2 -2 9.41 0.48
-6 -2 -2 8.09 0.6
-6 -2 -2 9.03 0.56
6 2 2 8.73 0.84
6 2 2 7.46 0.75
-7 -2 -2 6.85 0.42
-7 -2 -2 6.26 0.4
7 -3 -2 2 0.33
7 -3 -2 2.28 0.39
7 -3 -2 2.18 0.82
7 -3 -2 1.95 0.53
-7 3 2 2.51 0.4
-7 3 2 2.46 0.27
-7 3 2 2.3 0.38
6 -3 -2 7.76 0.51
6 -3 -2 6.03 0.73
6 -3 -2 7.58 0.57
-6 3 2 7.39 0.85
-6 3 2 7.48 0.57
-6 3 2 8.4 0.5
5 -3 -2 6.04 0.49
5 -3 -2 5.74 0.46
5 -3 -2 7.25 1.4
5 -3 -2 5.91 0.47
5 -3 -2 6.2 0.62
5 -3 -2 8.07 0.93
-5 3 2 4.63 0.88
-5 3 2 4.47 0.77
-5 3 2 5.76 0.47
-5 3 2 5.77 0.56
-5 3 2 6.22 0.83
4 -3 -2 2.2 2.21
4 -3 -2 0.04 0.2
4 -3 -2 -0.25 0.26
4 -3 -2 -0.14 0.5
4 -3 -2 0.33 0.2
4 -3 -2 0.19 0.45
-4 3 2 0.03 0.31
-4 3 2 -0.41 0.37
-4 3 2 0.24 0.31
-4 3 2 0.34 0.31
-4 3 2 0.15 0.21
-4 3 2 0.39 0.97
3 -3 -2 24.96 0.99
3 -3 -2 24.34 1
3 -3 -2 24.88 1.23
3 -3 -2 25.42 1.2
3 -3 -2 25.19 1.35
3 -3 -2 24.95 0.99
3 -3 -2 27.71 3.42
3 -3 -2 24.17 2.69
3 -3 -2 27.49 1.09
-3 3 2 20.2 2.9
-3 3 2 28.15 1.15
-3 3 2 25.45 1.72
-3 3 2 24.36 1.02
-3 3 2 23.98 1.06
-3 3 2 24.76 1.28
-3 3 2 24.84 1.03
-3 3 2 24.44 1.17
2 -3 -2 22.41 1.1
2 -3 -2 22.3 2.2
2 -3 -2 25.2 1.1
2 -3 -2 20.79 2.15
2 -3 -2 22.25 2.45
2 -3 -2 22.19 1.03
2 -3 -2 22.15 0.95
2 -3 -2 23.29 1.18
2 -3 -2 22.04 0.96
2 -3 -2 24.79 1.09
2 -3 -2 22.75 0.93
2 -3 -2 24.71 1.4
-2 3 2 21.99 1.43
-2 3 2 23.46 1.11
-2 3 2 22.57 1.01
-2 3 2 23.96 0.93
-2 3 2 23.44 0.92
-2 3 2 22.26 1.99
-2 3 2 23.99 1.02
-2 3 2 23.82 1.06
-2 3 2 23.8 2.47
1 -3 -2 44.62 1.75
1 -3 -2 44.46 1.66
1 -3 -2 43.97 2.33
1 -3 -2 46.84 1.72
1 -3 -2 41.98 2.39
1 -3 -2 44.8 1.64
1 -3 -2 49.8 1.82
1 -3 -2 43.15 2.49
1 -3 -2 49.77 2.02
1 -3 -2 45.56 2.52
-1 3 2 44.33 2.49
-1 3 2 46.11 1.73
-1 3 2 51.87 1.78
-1 3 2 39.83 2.77
-1 3 2 46.06 1.66
-1 3 2 46.01 2.29
-1 3 2 43.4 2.42
0 -3 -2 13.07 1.46
0 -3 -2 16.2 0.69
0 -3 -2 16.19 0.79
0 -3 -2 13.83 0.79
0 -3 -2 14.78 2.1
0 -3 -2 16.71 0.84
0 -3 -2 15.52 1.07
0 -3 -2 14.83 0.7
0 -3 -2 15.76 0.76
0 3 2 16.63 0.79
0 3 2 16.59 0.76
0 3 2 14.94 1.58
0 3 2 16.11 1.43
0 3 2 17.88 1.69
0 3 2 15.58 1.66
0 3 2 16.57 0.66
-1 -3 -2 5.99 0.42
-1 -3 -2 6.52 0.93
-1 -3 -2 5.35 0.44
-1 -3 -2 5.21 0.67
-1 -3 -2 5.62 0.58
-1 -3 -2 5.63 0.44
-1 -3 -2 6.14 0.75
1 3 2 5.82 0.52
1 3 2 5.73 0.51
1 3 2 5.69 1.03
1 3 2 5.9 1.18
-2 -3 -2 54.61 2.25
-2 -3 -2 58.94 2.08
-2 -3 -2 57.39 2.12
-2 -3 -2 56.96 2.17
-2 -3 -2 60.01 2.12
-2 -3 -2 57.5 2.18
-2 -3 -2 59.13 2.12
-2 -3 -2 56.25 2.18
-2 -3 -2 58.75 2.68
2 3 2 62.36 2.27
2 3 2 61.68 2.1
2 3 2 60.48 2.84
2 3 2 57.45 2.19
-3 -3 -2 13.89 1.85
-3 -3 -2 13.42 0.78
-3 -3 -2 12.09 0.9
-3 -3 -2 13.17 0.6
-3 -3 -2 12.62 0.67
-3 -3 -2 13.41 0.76
3 3 2 13.5 0.68
3 3 2 11.17 1.63
3 3 2 13.27 0.84
3 3 2 11.22 0.97
-4 -3 -2 1.16 0.34
-4 -3 -2 0.54 0.33
-4 -3 -2 0.49 0.2
4 3 2 -0.26 0.7
4 3 2 0.62 0.35
-5 -3 -2 10.9 0.66
-5 -3 -2 10.6 0.53
5 3 2 9.27 1
-6 -3 -2 4.01 0.53
-6 -3 -2 4.24 0.43
-6 -3 -2 4.46 0.43
-6 -3 -2 4.74 0.33
7 -4 -2 0.68 0.24
7 -4 -2 0.81 0.2
7 -4 -2 0.93 0.27
-7 4 2 0.96 0.19
-7 4 2 0.73 0.39
-7 4 2 1.01 0.2
6 -4 -2 3 0.39
6 -4 -2 2.37 0.41
6 -4 -2 3.22 0.42
6 -4 -2 2.12 0.93
-6 4 2 2.62 0.47
-6 4 2 3.24 0.37
5 -4 -2 26.25 1.05
5 -4 -2 23.08 1.12
5 -4 -2 25.16 1.01
5 -4 -2 27.02 1.34
-5 4 2 24.37 1.11
-5 4 2 24.16 1.12
-5 4 2 24.62 1.02
-5 4 2 24.48 1.19
-5 4 2 23.66 1.38
4 -4 -2 13.91 0.67
4 -4 -2 13.48 0.65
4 -4 -2 11.62 0.92
-4 4 2 14.12 0.69
-4 4 2 12.63 0.89
-4 4 2 13.32 1.01
-4 4 2 13.61 0.87
-4 4 2 12.77 0.74
3 -4 -2 1.01 0.29
3 -4 -2 1.03 0.39
3 -4 -2 1.31 0.44
3 -4 -2 1.04 0.2
-3 4 2 1.17 0.61
-3 4 2 1.06 0.44
-3 4 2 0.54 0.36
-3 4 2 1.51 0.26
-3 4 2 1.05 0.34
-3 4 2 0.94 0.25
2 -4 -2 56.66 2.69
2 -4 -2 54.17 1.95
2 -4 -2 51.64 2.04
2 -4 -2 47.55 2.12
2 -4 -2 52.34 2.01
2 -4 -2 53.78 2.18
-2 4 2 56.44 2.3
-2 4 2 52.49 2.35
-2 4 2 55.02 1.99
-2 4 2 54.73 1.96
-2 4 2 57.74 2.11
-2 4 2 55.05 3.76
-2 4 2 55.71 2.18
-2 4 2 49.9 1.97
1 -4 -2 22.56 0.93
1 -4 -2 22.6 1.68
1 -4 -2 22.65 1.03
1 -4 -2 19.89 1
1 -4 -2 23.56 1.16
1 -4 -2 23.59 1
1 -4 -2 21.11 1.01
1 -4 -2 22.95 0.93
-1 4 2 23.54 1.15
-1 4 2 23.25 1.07
-1 4 2 23.57 0.93
-1 4 2 25.28 2.53
-1 4 2 23.62 0.95
0 -4 -2 4.7 0.92
0 -4 -2 3.25 0.41
0 -4 -2 2.99 0.43
0 -4 -2 3.11 0.37
0 -4 -2 3.56 0.44
0 -4 -2 2.85 0.35
0 -4 -2 3.42 0.43
0 -4 -2 3.58 0.45
0 4 2 2.97 1.27
0 4 2 3.41 0.62
0 4 2 3.16 0.53
0 4 2 3.6 0.36
-1 -4 -2 1.74 0.46
-1 -4 -2 1.62 0.26
-1 -4 -2 2.23 0.29
-1 -4 -2 2.73 0.96
-1 -4 -2 2.45 0.42
1 4 2 2.41 0.41
1 4 2 2.4 0.44
1 4 2 2.01 0.35
1 4 2 1.89 1.22
1 4 2 1.61 0.26
-2 -4 -2 17.01 0.85
-2 -4 -2 17.06 0.9
-2 -4 -2 17.87 0.74
-2 -4 -2 17.87 0.79
-2 -4 -2 16.95 2.08
-2 -4 -2 17 0.83
-2 -4 -2 17.65 0.88
-2 -4 -2 14.88 1.03
2 4 2 16.68 0.86
2 4 2 18.8 0.83
2 4 2 17.63 1.02
2 4 2 15.37 1.17
-3 -4 -2 15.29 0.68
-3 -4 -2 14.87 0.74
-3 -4 -2 10.6 2.07
-3 -4 -2 15.69 0.85
-3 -4 -2 14.73 0.83
3 4 2 16.14 0.89
3 4 2 14.14 0.82
3 4 2 16.36 1.13
3 4 2 15.94 1.61
-4 -4 -2 16.42 0.75
-4 -4 -2 16.59 0.88
-4 -4 -2 16.36 0.71
-4 -4 -2 15.78 0.85
4 4 2 16.26 1.08
4 4 2 15.99 0.9
4 4 2 16.83 1.51
-5 -4 -2 3.58 0.46
-5 -4 -2 3.21 0.31
-5 -4 -2 4.1 0.49
-5 -4 -2 2.76 0.53
-5 -4 -2 3.33 0.6
5 4 2 3.22 0.63
-6 -4 -2 13.24 0.61
-6 -4 -2 12.82 0.54
6 -5 -2 2.23 0.23
6 -5 -2 2.35 0.31
6 -5 -2 1.44 0.47
6 -5 -2 1.43 0.24
-6 5 2 2.26 0.41
-6 5 2 2.1 0.3
5 -5 -2 2.41 0.34
5 -5 -2 1.17 0.39
5 -5 -2 1.6 0.29
-5 5 2 0.22 0.73
-5 5 2 1.54 0.25
-5 5 2 1.14 0.34
-5 5 2 1.73 0.35
4 -5 -2 43.53 1.59
4 -5 -2 43.1 1.65
4 -5 -2 42.42 1.76
4 -5 -2 39.82 1.59
-4 5 2 44.8 1.74
-4 5 2 41.44 1.63
-4 5 2 35.89 2.08
-4 5 2 44.78 1.75
-4 5 2 44.33 1.61
3 -5 -2 7.83 0.48
3 -5 -2 8.47 0.67
3 -5 -2 8.54 0.68
3 -5 -2 8.38 0.58
-3 5 2 8.45 0.95
-3 5 2 7.04 0.82
-3 5 2 7.49 1.35
-3 5 2 7.56 0.59
-3 5 2 7.86 0.59
-3 5 2 5.79 1.22
2 -5 -2 5.35 0.66
2 -5 -2 6.06 0.43
2 -5 -2 6.58 0.63
2 -5 -2 6.35 0.53
-2 5 2 6.19 0.59
-2 5 2 6.82 0.87
-2 5 2 5.62 0.62
-2 5 2 6.78 0.5
1 -5 -2 23.18 1.02
1 -5 -2 24.39 1.21
1 -5 -2 24.76 1.01
1 -5 -2 25.36 1.05
1 -5 -2 23.26 1.06
1 -5 -2 24.78 1.09
1 -5 -2 24.07 2.64
1 -5 -2 25.31 1.07
-1 5 2 25.07 1.61
-1 5 2 25.57 1.06
-1 5 2 25.22 1.03
-1 5 2 24.37 1.27
0 -5 -2 3.31 0.4
0 -5 -2 2.58 1.41
0 -5 -2 2.55 0.44
0 -5 -2 3.22 0.37
0 -5 -2 2.92 0.44
0 -5 -2 4.33 0.54
0 -5 -2 3.93 0.55
0 5 2 3.49 0.44
0 5 2 4.08 0.8
0 5 2 2.58 0.43
0 5 2 3.65 0.79
-1 -5 -2 35.73 1.65
-1 -5 -2 34.37 1.41
-1 -5 -2 33.16 1.33
-1 -5 -2 30.51 3.16
-1 -5 -2 32.17 1.39
-1 -5 -2 34.22 1.29
-1 -5 -2 35.42 1.34
1 5 2 33.25 1.61
1 5 2 35.18 1.36
1 5 2 34.55 1.37
-2 -5 -2 0.38 0.28
-2 -5 -2 0.09 0.19
-2 -5 -2 -0.84 2.48
-2 -5 -2 0.07 0.21
-2 -5 -2 0.62 0.31
-2 -5 -2 0.15 0.28
2 5 2 0 0.71
2 5 2 0.17 0.32
2 5 2 0.4 0.31
-3 -5 -2 6.59 0.43
-3 -5 -2 5.34 0.71
-3 -5 -2 7.16 0.46
3 5 2 5.55 0.74
3 5 2 6.36 1.19
-4 -5 -2 19.01 0.76
-4 -5 -2 20.78 0.89
-4 -5 -2 20.11 0.81
-4 -5 -2 18.12 0.9
4 5 2 18.09 1.21
4 5 2 16.58 1.12
-5 -5 -2 0.63 0.24
-5 -5 -2 0.41 0.14
6 -6 -2 2.6 0.41
5 -6 -2 7.92 0.61
5 -6 -2 8.88 0.67
5 -6 -2 8.84 0.46
-5 6 2 8.35 0.6
-5 6 2 9.7 0.92
-5 6 2 8.59 0.47
-5 6 2 8.44 0.67
4 -6 -2 2.61 0.51
4 -6 -2 2.89 0.35
4 -6 -2 2.68 0.36
4 -6 -2 2.94 0.53
-4 6 2 3.7 0.51
-4 6 2 3.1 0.45
-4 6 2 3.21 0.52
-4 6 2 3.36 0.43
3 -6 -2 24.45 1.13
3 -6 -2 24.06 1.13
3 -6 -2 22.86 1.2
-3 6 2 23.68 1.03
-3 6 2 23.16 1.06
-3 6 2 22.42 1.66
2 -6 -2 2.14 0.33
2 -6 -2 3.28 0.36
-2 6 2 2.97 0.47
-2 6 2 2.49 0.33
-2 6 2 2.24 0.75
1 -6 -2 12.98 0.71
1 -6 -2 12.76 0.62
1 -6 -2 12.47 0.65
1 -6 -2 11.99 0.71
-1 6 2 11.94 0.68
-1 6 2 10.91 0.76
-1 6 2 12.11 1.33
-1 6 2 11.78 2.64
0 -6 -2 27.45 1.12
0 -6 -2 28.66 1.15
0 -6 -2 27.37 1.13
0 -6 -2 28.11 1.08
0 -6 -2 28.14 1.1
0 -6 -2 27.93 1.19
0 6 2 27.03 1.2
0 6 2 28.49 1.16
0 6 2 23.45 1.71
0 6 2 27.32 1.32
-1 -6 -2 45.73 1.81
-1 -6 -2 47.48 1.89
1 6 2 47.33 1.75
1 6 2 46.54 1.78
1 6 2 42.85 2.53
-2 -6 -2 33.14 1.24
-2 -6 -2 31.52 1.3
-2 -6 -2 32.29 1.19
-2 -6 -2 32.2 1.34
2 6 2 30.65 1.34
2 6 2 30.88 1.3
-3 -6 -2 9.73 0.65
-3 -6 -2 9.61 0.47
-3 -6 -2 10.29 0.52
-3 -6 -2 11.11 0.68
3 6 2 10.02 0.78
3 6 2 9.85 0.96
-4 -6 -2 4.95 0.37
-4 -6 -2 4.68 0.35
4 -7 -2 4.62 0.31
4 -7 -2 3.73 0.4
-4 7 2 4.58 0.41
-4 7 2 3.95 0.59
-4 7 2 5.03 0.67
3 -7 -2 4.04 0.32
3 -7 -2 4.21 0.42
-3 7 2 3.3 0.36
-3 7 2 3.73 0.45
2 -7 -2 1.97 0.31
2 -7 -2 2.04 0.27
-2 7 2 1.98 0.34
-2 7 2 2.12 0.69
-2 7 2 2.24 0.47
-2 7 2 1.58 0.25
1 -7 -2 2.75 0.48
1 -7 -2 3.55 0.43
1 -7 -2 4.01 0.65
1 -7 -2 3.73 0.34
-1 7 2 3.72 0.42
-1 7 2 3 0.46
-1 7 2 3.13 0.5
0 -7 -2 3.41 0.38
0 -7 -2 4.89 0.44
0 -7 -2 3.92 0.36
0 -7 -2 2.87 0.42
0 7 2 3.79 0.51
0 7 2 2.83 0.47
0 7 2 4.05 0.37
0 7 2 4.14 0.48
-1 -7 -2 17.03 0.79
-1 -7 -2 16.77 0.72
-1 -7 -2 17.22 0.69
1 7 2 17.72 0.85
1 7 2 16.94 0.97
-2 -7 -2 14.23 0.59
-2 -7 -2 13.51 0.69
-2 -7 -2 13.61 0.56
2 7 2 13.18 0.79
-2 -9 3 18.12 0.72
-1 -9 3 39.55 1.43
-1 -9 3 39.74 1.41
-1 -9 3 39.92 1.45
0 9 -3 15.02 0.8
0 -9 3 15.4 0.69
0 -9 3 15.75 0.62
0 -9 3 15.44 0.69
1 -9 3 0.7 0.15
1 -9 3 0.69 0.31
1 -9 3 0.52 0.45
-2 9 -3 1.1 0.24
2 -9 3 0.82 0.15
3 -9 3 4.86 0.4
3 -9 3 5 0.35
3 -9 3 4.57 0.49
-3 -8 3 24.32 0.94
-3 -8 3 21.94 0.98
-3 -8 3 25.61 0.93
2 8 -3 19.86 1.17
-2 -8 3 23.07 0.93
-2 -8 3 22.44 0.91
-2 -8 3 23.67 0.87
1 8 -3 7.61 0.61
-1 -8 3 7.8 0.51
-1 -8 3 7.95 0.5
-1 -8 3 8.17 0.46
0 8 -3 1.64 0.29
0 -8 3 1.23 0.26
0 -8 3 1.98 0.24
0 -8 3 0.91 0.33
0 -8 3 1.76 0.29
-1 8 -3 3.26 0.43
1 -8 3 3.24 0.5
1 -8 3 2.32 0.33
1 -8 3 2.82 0.48
1 -8 3 2.88 0.34
-2 8 -3 31.96 1.28
-2 8 -3 32.76 1.27
-2 8 -3 33.25 1.69
2 -8 3 33.02 1.3
2 -8 3 32.66 1.33
2 -8 3 31.77 1.37
2 -8 3 32.41 1.23
-3 8 -3 4.14 0.69
-3 8 -3 6.78 0.45
3 -8 3 6.06 0.53
3 -8 3 5.94 0.51
3 -8 3 6.65 0.56
3 -8 3 6 0.42
-4 8 -3 2.07 0.28
4 -8 3 1.88 0.27
4 -8 3 2.3 0.39
4 -8 3 1.59 0.27
4 -8 3 2.1 0.26
-5 8 -3 12.29 1.19
5 -8 3 12.31 0.65
5 -8 3 11.01 0.58
5 -8 3 12.19 0.63
-4 -7 3 3.11 0.39
-4 -7 3 2.57 0.35
-4 -7 3 2.77 0.38
-3 -7 3 1.83 0.24
-3 -7 3 2.63 0.37
2 7 -3 56.72 2.26
2 7 -3 56.94 2.22
-2 -7 3 62.78 2.21
-2 -7 3 61.6 2.16
-2 -7 3 63.8 2.24
1 7 -3 7.93 0.65
1 7 -3 7.62 1.75
1 7 -3 7 0.57
-1 -7 3 7.2 0.5
-1 -7 3 7.28 0.47
-1 -7 3 6.34 0.69
0 7 -3 20.93 2.14
0 7 -3 21.36 0.96
0 -7 3 21.77 0.98
0 -7 3 22.69 0.9
0 -7 3 20.86 1
0 -7 3 22.49 0.96
-1 7 -3 10.95 1.76
-1 7 -3 11.75 0.67
1 -7 3 12.65 0.71
1 -7 3 11.67 0.68
1 -7 3 11.68 0.74
1 -7 3 11.71 0.7
-2 7 -3 98.17 3.51
-2 7 -3 104.69 3.49
-2 7 -3 95.5 4.2
2 -7 3 93.43 3.45
2 -7 3 95.56 3.5
2 -7 3 96.99 3.49
2 -7 3 101.45 3.51
2 -7 3 100.21 3.53
-3 7 -3 135.66 4.86
-3 7 -3 122.11 5.75
-3 7 -3 132.94 4.89
-3 7 -3 148.47 4.84
-3 7 -3 140.55 4.83
3 -7 3 145.14 4.81
3 -7 3 141.2 4.88
3 -7 3 143.71 4.89
-4 7 -3 1.35 0.37
4 -7 3 1.56 0.31
4 -7 3 1.22 0.33
4 -7 3 1.61 0.26
-5 7 -3 1.12 0.39
-5 7 -3 1.42 0.39
-5 7 -3 1.41 0.22
5 -7 3 0.68 0.28
5 -7 3 0.9 0.29
5 -7 3 1.26 0.21
-6 7 -3 0.86 0.49
-6 7 -3 0.41 0.19
6 -7 3 0.09 0.29
6 -7 3 0.48 0.18
-5 -6 3 5.19 0.53
-4 -6 3 30.24 1.2
-4 -6 3 31.92 1.23
-4 -6 3 30.49 1.24
-3 -6 3 48.9 1.88
-3 -6 3 51.59 1.83
-3 -6 3 50.99 1.92
2 6 -3 7.49 0.59
-2 -6 3 6.87 0.58
-2 -6 3 7.84 0.47
-2 -6 3 7.59 0.55
1 6 -3 8.39 0.61
1 6 -3 7.43 1.37
1 6 -3 8.79 0.55
-1 -6 3 8.48 0.49
-1 -6 3 7.51 0.58
-1 -6 3 8.37 0.54
-1 -6 3 8.87 0.69
0 6 -3 17.75 0.81
0 6 -3 15.9 2.9
0 6 -3 17.41 1.37
0 -6 3 18.17 0.87
0 -6 3 17.38 0.82
0 -6 3 18.17 0.84
0 -6 3 17.84 0.93
0 -6 3 17.49 0.84
-1 6 -3 17.68 1.3
-1 6 -3 17.93 0.9
-1 6 -3 17.89 3.12
-1 6 -3 18.15 0.79
1 -6 3 18.99 0.9
1 -6 3 16.38 0.87
1 -6 3 18.56 0.84
1 -6 3 18.13 0.87
1 -6 3 17.42 0.86
-2 6 -3 33.94 1.38
-2 6 -3 36.73 1.39
-2 6 -3 36.47 1.36
-2 6 -3 35.95 1.89
2 -6 3 33.17 1.49
2 -6 3 33.11 1.43
2 -6 3 35.27 1.43
2 -6 3 35.71 1.38
2 -6 3 36.47 1.39
-3 6 -3 55.14 1.97
-3 6 -3 55.1 1.99
-3 6 -3 49.34 2.22
-3 6 -3 53.54 2.24
-3 6 -3 53.42 2.6
3 -6 3 53.42 1.95
3 -6 3 55.35 2.07
3 -6 3 55 2.04
3 -6 3 49.87 2.59
-4 6 -3 17.92 1.92
-4 6 -3 18.22 0.84
-4 6 -3 17.85 1.04
-4 6 -3 17.78 0.87
4 -6 3 18.1 0.96
4 -6 3 18.71 0.9
4 -6 3 16.71 2.05
4 -6 3 17.73 0.8
-5 6 -3 10.55 0.69
-5 6 -3 10.96 0.61
-5 6 -3 10 0.79
-5 6 -3 10.02 0.64
5 -6 3 10.09 0.84
5 -6 3 10.89 0.71
-6 6 -3 5.44 0.52
-6 6 -3 5.65 0.58
-6 6 -3 5.87 0.48
6 -6 3 6.28 0.62
6 -6 3 6.14 0.79
6 -6 3 5.16 0.38
7 -6 3 2.21 0.26
-6 -5 3 19.24 0.95
-5 -5 3 30.59 1.27
-5 -5 3 32.74 1.3
-4 -5 3 45.12 1.69
-4 -5 3 44.75 1.72
-4 -5 3 44.66 1.72
-3 -5 3 57.95 2.14
-3 -5 3 61.11 2.2
-3 -5 3 60.43 2.22
2 5 -3 3.6 0.97
2 5 -3 4.19 0.77
2 5 -3 4.99 0.43
-2 -5 3 4.75 0.47
-2 -5 3 4.51 0.47
1 5 -3 28.33 1.98
1 5 -3 26.8 0.98
1 5 -3 26.4 1.35
-1 -5 3 22.36 1.21
-1 -5 3 23.53 1.12
-1 -5 3 24.51 1.04
-1 -5 3 25.55 1.06
-1 -5 3 25.04 1.05
0 5 -3 11.09 0.86
0 5 -3 10.48 0.54
0 5 -3 10.64 0.51
0 5 -3 10.21 1.53
0 -5 3 10.93 0.61
0 -5 3 10.31 0.65
0 -5 3 11.09 0.62
0 -5 3 9.99 0.64
0 -5 3 11.88 0.73
-1 5 -3 27.42 1.04
-1 5 -3 25.9 2.13
-1 5 -3 25.44 1.05
-1 5 -3 26.92 1.32
-1 5 -3 27.05 1.05
1 -5 3 27 1.1
1 -5 3 27.63 1.19
1 -5 3 27.29 1.15
1 -5 3 26.61 1.12
1 -5 3 25.76 1.11
-2 5 -3 48.72 3.03
-2 5 -3 48.83 1.76
-2 5 -3 48.54 2.08
-2 5 -3 49.47 1.77
-2 5 -3 47.94 1.74
2 -5 3 48.24 1.81
2 -5 3 47.33 1.79
2 -5 3 47.14 1.82
2 -5 3 47.73 2.13
2 -5 3 46.46 1.77
2 -5 3 43.7 1.86
2 -5 3 48.54 1.83
-3 5 -3 0.83 0.22
-3 5 -3 0.12 0.5
-3 5 -3 1.24 0.29
-3 5 -3 0.47 0.23
-3 5 -3 2.02 2.2
-3 5 -3 1.04 0.53
3 -5 3 0.77 0.33
3 -5 3 0.25 0.26
3 -5 3 0.58 0.46
3 -5 3 0.74 0.28
3 -5 3 0.81 0.3
-4 5 -3 23.08 1.13
-4 5 -3 23.91 0.99
-4 5 -3 22.73 1.07
-4 5 -3 23.66 0.99
-4 5 -3 21.61 1.58
4 -5 3 22.89 1.13
4 -5 3 21.48 1.27
4 -5 3 22.79 0.96
4 -5 3 22.34 1.06
-5 5 -3 14.45 0.72
-5 5 -3 13.8 1.48
-5 5 -3 13.31 0.71
-5 5 -3 13.61 0.75
-5 5 -3 13.58 0.84
5 -5 3 14.58 0.96
5 -5 3 13.14 0.67
5 -5 3 14.08 0.82
5 -5 3 12.35 1.92
-6 5 -3 17.98 0.85
-6 5 -3 18.12 0.88
-6 5 -3 21.47 1.39
-6 5 -3 18.44 0.89
6 -5 3 17.89 1
6 -5 3 19.22 1.33
6 -5 3 19.5 0.8
-7 5 -3 6.67 0.44
-7 5 -3 7.5 0.51
7 -5 3 7.02 0.39
-7 -4 3 11.88 0.56
-6 -4 3 0.47 0.23
-6 -4 3 1.07 0.32
-5 -4 3 0.44 0.24
-5 -4 3 -0.24 0.3
-5 -4 3 0.32 0.35
-4 -4 3 156.89 5.47
-4 -4 3 158.01 5.5
-4 -4 3 160.59 5.47
-4 -4 3 154.64 5.44
-4 -4 3 154.88 5.6
-4 -4 3 157.97 6
3 4 -3 103.44 3.66
3 4 -3 112.59 3.94
-3 -4 3 105.29 3.91
-3 -4 3 101.4 3.72
-3 -4 3 107.78 4.32
-3 -4 3 104.31 3.72
2 4 -3 22.26 0.84
2 4 -3 23.6 1.2
-2 -4 3 21.89 1.34
-2 -4 3 21.48 1.36
-2 -4 3 22.27 0.92
-2 -4 3 18.99 1
-2 -4 3 20.38 1.05
-2 -4 3 20.77 0.94
-2 -4 3 21.32 0.93
1 4 -3 51.21 2.25
1 4 -3 54.26 1.85
1 4 -3 54.69 2.46
1 4 -3 47.63 1.9
-1 -4 3 57.3 2.3
-1 -4 3 49.74 2.17
-1 -4 3 50.9 2.27
-1 -4 3 53.57 1.92
-1 -4 3 52.2 1.94
-1 -4 3 52.39 2.17
-1 -4 3 53.88 1.95
0 4 -3 16.44 1.38
0 4 -3 13.78 1.75
0 4 -3 16.84 0.66
0 4 -3 17.44 0.87
0 4 -3 15.78 0.69
0 -4 3 17.08 0.71
0 -4 3 15.15 1.27
0 -4 3 17.91 1.32
0 -4 3 14.98 1.5
-1 4 -3 26.74 2.27
-1 4 -3 25.82 1.01
-1 4 -3 25.76 1.2
-1 4 -3 25.49 1.02
-1 4 -3 27.35 1.01
-1 4 -3 27.46 1.6
-1 4 -3 26.34 1.85
1 -4 3 26.84 1.9
1 -4 3 25.67 1.86
1 -4 3 25.17 1.76
1 -4 3 27.07 1.04
1 -4 3 30.66 1.27
1 -4 3 24.78 1.62
-2 4 -3 28.53 1.92
-2 4 -3 32.21 1.4
-2 4 -3 30.83 1.15
-2 4 -3 29.39 1.19
-2 4 -3 30.65 1.16
-2 4 -3 29.44 2.37
2 -4 3 32.15 1.19
2 -4 3 29.72 2.33
2 -4 3 30.91 1.26
2 -4 3 30.71 1.3
2 -4 3 29.6 1.28
2 -4 3 30.5 2.43
2 -4 3 29.63 1.39
-3 4 -3 3.85 0.46
-3 4 -3 5.19 0.67
-3 4 -3 4.81 0.71
-3 4 -3 2.04 1.44
-3 4 -3 3.67 0.39
-3 4 -3 2.31 2.01
-3 4 -3 4.2 0.76
-3 4 -3 4.33 0.39
3 -4 3 4.5 0.52
3 -4 3 4.1 0.44
3 -4 3 4.63 0.48
3 -4 3 3.43 0.48
3 -4 3 4.34 0.65
3 -4 3 4.43 0.43
3 -4 3 2.52 1.52
3 -4 3 3.94 0.66
-4 4 -3 10.93 0.71
-4 4 -3 12.18 0.73
-4 4 -3 11.82 0.79
-4 4 -3 12.69 0.64
-4 4 -3 13.99 1.16
4 -4 3 12.82 0.63
4 -4 3 11.98 0.74
4 -4 3 12.41 1.11
4 -4 3 12.71 0.71
4 -4 3 12.47 0.74
4 -4 3 9.81 1.01
-5 4 -3 1.55 0.29
-5 4 -3 2.45 0.41
-5 4 -3 3.1 0.58
-5 4 -3 1.65 0.5
5 -4 3 2.06 0.42
5 -4 3 2.76 0.44
5 -4 3 2.66 0.41
5 -4 3 1.58 0.75
5 -4 3 1.96 0.37
5 -4 3 2.38 0.63
-6 4 -3 7.37 0.88
-6 4 -3 4.98 0.49
-6 4 -3 6.48 0.69
6 -4 3 5.76 0.91
6 -4 3 5.96 0.88
6 -4 3 5.86 0.54
6 -4 3 6.49 0.75
-7 4 -3 2.84 0.53
-7 4 -3 3.03 0.43
-7 4 -3 2.28 0.38
7 -4 3 2.87 0.4
7 -4 3 2.56 0.31
-7 -3 3 10.81 0.93
-7 -3 3 8.6 0.56
-7 -3 3 9.34 0.49
6 3 -3 6.74 1.05
-6 -3 3 8.03 0.59
-6 -3 3 9.36 0.83
-6 -3 3 4.52 3.24
-6 -3 3 7.52 0.82
-6 -3 3 8.92 0.54
5 3 -3 12.85 0.75
5 3 -3 12.25 1.93
-5 -3 3 11.21 1.84
-5 -3 3 9.55 0.99
-5 -3 3 11.94 0.76
-5 -3 3 11.78 1.6
-5 -3 3 12.71 0.66
-5 -3 3 11.96 0.75
4 3 -3 2.61 0.65
4 3 -3 2.46 0.78
4 3 -3 2.82 0.44
-4 -3 3 2.46 0.4
-4 -3 3 2.38 0.84
-4 -3 3 2.87 0.35
-4 -3 3 1.97 0.5
3 3 -3 25 1.39
3 3 -3 24.3 0.93
3 3 -3 25.03 1.18
-3 -3 3 22.39 1.17
-3 -3 3 25.06 1.02
-3 -3 3 25.92 1.45
-3 -3 3 24.05 1.07
-3 -3 3 24.31 1.41
-3 -3 3 23.38 1.33
-3 -3 3 23.29 1.14
-3 -3 3 24.49 1.02
2 3 -3 65.93 2.4
2 3 -3 66.44 2.53
2 3 -3 69.91 2.84
2 3 -3 61.31 2.31
2 3 -3 61.83 2.43
2 3 -3 68.06 2.55
-2 -3 3 64.71 2.42
-2 -3 3 70.15 2.62
-2 -3 3 64.87 2.4
1 3 -3 101.94 3.64
1 3 -3 100.22 3.46
1 3 -3 93.42 3.72
1 3 -3 98.38 3.6
-1 -3 3 96.95 3.56
-1 -3 3 99.9 3.51
-1 -3 3 96.3 3.52
-1 -3 3 94.43 3.63
-1 -3 3 98.79 3.57
-1 -3 3 95.62 3.39
0 3 -3 80.83 3.03
0 3 -3 77.44 3.08
0 3 -3 78.84 2.76
0 3 -3 81.59 2.89
0 -3 3 80.76 3.03
0 -3 3 78.41 2.97
0 -3 3 80.24 2.79
-1 3 -3 6.26 1.15
-1 3 -3 5.07 0.47
-1 3 -3 4.31 0.27
-1 3 -3 4.66 0.92
-1 3 -3 3.57 0.33
-1 3 -3 4.84 1.16
1 -3 3 5.21 0.46
1 -3 3 4.13 0.31
1 -3 3 6.7 0.96
1 -3 3 3.94 0.8
1 -3 3 4.87 1.02
1 -3 3 4.6 0.31
1 -3 3 4.59 0.44
1 -3 3 4.92 0.82
1 -3 3 4.98 0.72
-2 3 -3 66.36 3.35
-2 3 -3 70.06 2.48
-2 3 -3 70.99 2.65
-2 3 -3 73.12 3.05
-2 3 -3 68.91 2.48
-2 3 -3 71.79 3.02
-2 3 -3 68.73 2.46
2 -3 3 63.78 3.33
2 -3 3 68.48 2.87
2 -3 3 68.08 2.97
2 -3 3 71.39 2.47
2 -3 3 70.1 2.71
2 -3 3 73.28 2.51
2 -3 3 75.15 2.7
2 -3 3 75.62 3.09
-3 3 -3 12.51 0.82
-3 3 -3 12.43 0.86
-3 3 -3 13.62 0.92
-3 3 -3 12.78 1.99
-3 3 -3 11.96 0.82
-3 3 -3 12.67 0.6
-3 3 -3 12.43 0.65
-3 3 -3 13.82 1.06
3 -3 3 12.69 1.1
3 -3 3 12.68 0.61
3 -3 3 10.46 1.78
3 -3 3 12.81 0.63
3 -3 3 11.69 0.75
3 -3 3 12.08 1.91
3 -3 3 12.29 0.59
3 -3 3 12.84 2.16
3 -3 3 13.13 0.88
-4 3 -3 12.21 0.85
-4 3 -3 11.07 0.99
-4 3 -3 11.09 0.6
-4 3 -3 11.26 0.78
-4 3 -3 11.35 0.93
4 -3 3 11.24 0.6
4 -3 3 7.94 1.82
4 -3 3 10.98 0.64
4 -3 3 10.96 0.58
4 -3 3 13.28 1.24
4 -3 3 11 1.02
-5 3 -3 31.36 1.25
-5 3 -3 30.78 1.3
-5 3 -3 32.55 1.41
-5 3 -3 30.68 1.48
-5 3 -3 29.9 1.31
-5 3 -3 30.73 1.22
-5 3 -3 31.26 1.29
5 -3 3 27.71 1.9
5 -3 3 30.4 1.32
5 -3 3 31.37 1.29
5 -3 3 29.54 1.33
5 -3 3 30.31 1.23
-6 3 -3 5.9 0.5
-6 3 -3 7.35 0.75
-6 3 -3 6.46 0.98
-6 3 -3 5.34 0.55
6 -3 3 5.21 0.77
6 -3 3 5.94 0.53
6 -3 3 5.51 0.65
6 -3 3 4.56 0.78
-7 3 -3 23.75 1.14
-7 3 -3 24.69 0.95
-7 3 -3 23.47 1.01
-7 3 -3 23.41 1.09
7 -3 3 22.6 0.97
7 -3 3 21.55 1.21
7 2 -3 5.22 0.81
7 2 -3 5.55 0.7
-7 -2 3 5.6 0.63
-7 -2 3 4.91 0.4
-7 -2 3 4.78 0.45
-7 -2 3 5.17 0.57
6 2 -3 15.37 0.87
6 2 -3 17.77 1
-6 -2 3 16.84 1.01
-6 -2 3 17.07 0.79
-6 -2 3 17.55 0.98
-6 -2 3 16.62 0.82
5 2 -3 38.78 1.43
-5 -2 3 35.69 1.61
-5 -2 3 37.27 2.26
-5 -2 3 36.65 1.45
-5 -2 3 36.58 1.61
-5 -2 3 35.08 1.49
-5 -2 3 35.95 1.47
-5 -2 3 37.13 1.43
4 2 -3 3.11 0.57
4 2 -3 2.57 0.38
4 2 -3 3.02 0.56
4 2 -3 3.22 0.59
-4 -2 3 2.63 0.35
-4 -2 3 3.16 0.77
-4 -2 3 2.7 0.5
-4 -2 3 2.77 0.41
-4 -2 3 2.18 0.32
-4 -2 3 2.4 0.49
-4 -2 3 3.18 0.69
3 2 -3 20.85 1.31
3 2 -3 22.4 1
3 2 -3 22.2 1.62
3 2 -3 20.78 0.82
3 2 -3 21.77 1.03
3 2 -3 20.44 1.63
3 2 -3 20.15 1.27
-3 -2 3 21.12 0.93
-3 -2 3 21.69 0.94
-3 -2 3 21.83 1.26
-3 -2 3 21.76 1.21
-3 -2 3 20.33 1.14
2 2 -3 25.08 1.33
2 2 -3 30.38 1.16
2 2 -3 28.43 1.26
2 2 -3 27.3 1.33
2 2 -3 29.12 1.32
-2 -2 3 25.77 1.4
-2 -2 3 26.39 1.47
-2 -2 3 27.65 1.28
-2 -2 3 30.36 1.32
1 2 -3 8.78 0.72
1 2 -3 7.89 0.46
1 2 -3 8.08 0.45
1 2 -3 7.75 0.35
1 2 -3 8.22 0.61
1 2 -3 8.52 0.93
1 2 -3 7.5 0.57
1 2 -3 7.97 0.76
-1 -2 3 7.97 0.39
-1 -2 3 7.18 0.78
-1 -2 3 8 0.61
-1 -2 3 7.36 0.63
0 2 -3 37.9 1.62
0 2 -3 39.38 1.58
0 2 -3 37.79 1.51
0 2 -3 37.55 1.41
0 2 -3 36.79 1.55
0 2 -3 37.04 1.41
0 2 -3 35.23 1.31
0 2 -3 32.79 1.75
0 -2 3 37.93 1.62
0 -2 3 36.7 1.33
0 -2 3 38.82 1.56
0 -2 3 36.65 1.34
0 -2 3 37.31 1.48
0 -2 3 36.89 1.64
-1 2 -3 120.52 4.36
-1 2 -3 126.38 4.4
-1 2 -3 115.23 4.59
-1 2 -3 119.1 4.12
-1 2 -3 124.02 4.24
-1 2 -3 111.28 4.62
-1 2 -3 116.87 4.11
1 -2 3 112.98 4.13
1 -2 3 118.06 4.3
1 -2 3 122.08 4.44
1 -2 3 120.81 4.27
1 -2 3 118.28 4.13
1 -2 3 125.82 4.42
1 -2 3 133.47 4.4
1 -2 3 117.06 4.12
1 -2 3 118.63 4.23
-2 2 -3 140.94 5.49
-2 2 -3 146.54 5.05
-2 2 -3 150.96 5.4
-2 2 -3 140.74 5.05
-2 2 -3 148.64 5.05
2 -2 3 146.81 5.31
2 -2 3 148.66 5.39
2 -2 3 144.17 5.52
2 -2 3 147.89 5.05
2 -2 3 145.36 5.07
2 -2 3 151.36 5.29
2 -2 3 158.01 5.37
2 -2 3 141.31 5.34
2 -2 3 148.81 5.44
2 -2 3 151.18 5.09
-3 2 -3 26.4 0.98
-3 2 -3 24.02 1.24
-3 2 -3 26.28 1.15
-3 2 -3 23.59 1.07
-3 2 -3 24.99 1.15
-3 2 -3 22.1 2.1
-3 2 -3 27.37 1.2
3 -2 3 25.52 0.99
3 -2 3 24.23 1.85
3 -2 3 26.29 1.24
3 -2 3 26.6 1.87
3 -2 3 22.48 2.11
3 -2 3 26.94 1.03
3 -2 3 25.51 1.79
3 -2 3 23.21 1.98
-4 2 -3 21.15 0.99
-4 2 -3 20.37 1.02
-4 2 -3 20.5 1.12
-4 2 -3 21.55 1.16
-4 2 -3 21.71 0.9
-4 2 -3 20.52 0.92
4 -2 3 22.19 2.6
4 -2 3 21.8 0.9
4 -2 3 22.03 0.91
4 -2 3 21.93 0.96
4 -2 3 22.16 1.3
-5 2 -3 4.09 0.7
-5 2 -3 4.04 0.43
-5 2 -3 4.85 0.52
-5 2 -3 3.75 0.75
-5 2 -3 3.95 0.54
-5 2 -3 4.61 0.52
-5 2 -3 4.27 0.65
-5 2 -3 4.85 0.46
5 -2 3 4.28 0.45
5 -2 3 5.66 1.52
5 -2 3 4.23 0.5
5 -2 3 4.14 0.54
5 -2 3 3.5 0.6
-6 2 -3 3.86 0.63
-6 2 -3 3.86 0.52
-6 2 -3 3.64 0.45
-6 2 -3 4.46 0.54
-6 2 -3 3.22 0.61
-6 2 -3 4.01 0.46
-6 2 -3 4.69 0.51
6 -2 3 4.89 0.48
6 -2 3 3.51 0.57
6 -2 3 4.46 0.81
6 -2 3 4.03 0.72
-7 2 -3 1.38 0.4
-7 2 -3 2.03 0.4
-7 2 -3 1.82 0.31
-7 2 -3 1.39 0.32
7 -2 3 1.77 0.28
7 -2 3 2.33 0.44
-8 -1 3 0.71 0.18
7 1 -3 2.81 0.44
7 1 -3 1.98 0.33
7 1 -3 2.26 0.41
-7 -1 3 2.82 0.38
-7 -1 3 2.72 0.59
-7 -1 3 2.67 0.51
6 1 -3 27.12 1.13
6 1 -3 25.68 1.11
6 1 -3 21.59 2.38
-6 -1 3 27.45 2.25
-6 -1 3 27.35 1.28
-6 -1 3 26.78 1.12
-6 -1 3 26.97 1.09
-6 -1 3 26.23 1.23
-6 -1 3 25.88 1.1
5 1 -3 2.55 0.33
5 1 -3 2.59 0.33
-5 -1 3 2.89 0.5
-5 -1 3 2.48 0.35
-5 -1 3 2.66 0.41
-5 -1 3 2.88 0.36
-5 -1 3 2.36 0.88
-5 -1 3 3.05 0.47
-5 -1 3 2.86 0.33
4 1 -3 60.47 2.33
4 1 -3 60.89 2.32
4 1 -3 64.2 2.14
4 1 -3 59.64 2.84
4 1 -3 57.16 2.14
-4 -1 3 59.18 2.16
-4 -1 3 56.45 2.17
-4 -1 3 58.42 2.33
-4 -1 3 62.65 2.61
-4 -1 3 58.12 2.29
-4 -1 3 58.38 2.2
3 1 -3 7.84 0.52
3 1 -3 9.52 1.54
3 1 -3 8.49 0.42
3 1 -3 9.14 1.59
3 1 -3 9.79 1.04
3 1 -3 9.95 0.6
3 1 -3 8.82 0.63
3 1 -3 9.21 1.26
-3 -1 3 8.03 0.55
-3 -1 3 9.09 0.87
-3 -1 3 9.97 1.23
-3 -1 3 9.56 0.61
-3 -1 3 8.94 0.58
-3 -1 3 9.53 0.88
-3 -1 3 7.83 0.79
2 1 -3 32.64 1.41
2 1 -3 32.11 1.55
2 1 -3 31.77 1.8
2 1 -3 34.33 1.28
2 1 -3 34.21 1.31
2 1 -3 31.33 1.49
2 1 -3 32.7 1.17
2 1 -3 29.83 1.19
-2 -1 3 34.41 1.26
-2 -1 3 30.79 1.58
-2 -1 3 31.72 1.22
-2 -1 3 32.44 1.42
-2 -1 3 32.11 1.45
1 1 -3 17.26 0.94
1 1 -3 17.17 0.87
1 1 -3 18.31 0.88
1 1 -3 16.78 1
1 1 -3 16.17 0.75
1 1 -3 17.21 0.73
1 1 -3 17.91 0.94
1 1 -3 16.1 1.21
1 1 -3 16.1 0.65
-1 -1 3 16.72 0.69
-1 -1 3 17.8 0.86
-1 -1 3 17.95 0.71
-1 -1 3 16.45 0.86
-1 -1 3 16.72 1.07
-1 -1 3 18.39 0.95
-1 -1 3 16.58 0.68
-1 -1 3 18.24 1.02
0 1 -3 0.84 0.25
0 1 -3 0.5 0.3
0 1 -3 0.78 0.2
0 1 -3 0.83 0.15
0 1 -3 0.49 0.54
0 1 -3 1.18 0.32
0 1 -3 0.85 0.17
0 1 -3 0.87 0.36
0 1 -3 0.77 0.28
0 -1 3 0.79 0.16
0 -1 3 0.68 0.25
0 -1 3 0.98 0.24
0 -1 3 1.39 0.44
0 -1 3 0.82 0.16
0 -1 3 0.59 0.33
0 -1 3 0.69 0.13
0 -1 3 0.83 0.57
0 -1 3 0.36 0.31
-1 1 -3 152.19 5.26
-1 1 -3 166.3 5.51
-1 1 -3 155.23 5.33
-1 1 -3 150.43 5.49
-1 1 -3 155.58 5.44
-1 1 -3 153.45 5.22
-1 1 -3 148.39 5.27
-1 1 -3 153.31 5.4
1 -1 3 150.35 5.5
1 -1 3 148.15 5.26
1 -1 3 157.13 5.45
1 -1 3 150.3 5.23
1 -1 3 159.63 5.4
1 -1 3 161.98 5.4
1 -1 3 136.46 5.24
1 -1 3 141.07 5.24
1 -1 3 155.66 5.35
1 -1 3 169.45 5.53
1 -1 3 143.31 5.59
-2 1 -3 19.66 1.57
-2 1 -3 19.29 1.19
-2 1 -3 17.98 0.82
-2 1 -3 18.41 0.75
-2 1 -3 18.14 0.8
2 -1 3 17.28 1.5
2 -1 3 19.42 0.9
2 -1 3 18.64 1.11
2 -1 3 18.56 1.22
2 -1 3 14.98 2.06
2 -1 3 19.17 1.13
2 -1 3 18.8 0.76
2 -1 3 17.91 0.74
-3 1 -3 2.6 0.37
-3 1 -3 2.41 0.28
-3 1 -3 3.28 0.58
-3 1 -3 1.53 0.34
-3 1 -3 1.82 0.39
-3 1 -3 2.08 0.52
-3 1 -3 2.33 0.32
3 -1 3 3.22 0.94
3 -1 3 0.41 0.83
3 -1 3 1.75 0.76
3 -1 3 1.93 0.29
3 -1 3 4.14 1
3 -1 3 1.71 0.3
3 -1 3 1.42 0.36
-4 1 -3 14.79 0.83
-4 1 -3 16.05 0.72
-4 1 -3 14.95 0.88
-4 1 -3 15.31 0.92
-4 1 -3 15.77 0.82
-4 1 -3 15.76 0.74
-4 1 -3 15.6 0.67
4 -1 3 16.77 0.73
4 -1 3 14.48 2.4
4 -1 3 16.21 1.16
4 -1 3 15.75 0.73
4 -1 3 15.64 0.77
-5 1 -3 12.55 0.73
-5 1 -3 12.08 0.71
-5 1 -3 12.04 0.59
-5 1 -3 11.41 0.76
-5 1 -3 12.07 0.6
-5 1 -3 12.58 0.85
-5 1 -3 11.49 0.68
-5 1 -3 12.41 0.7
5 -1 3 12.1 0.69
5 -1 3 12.3 0.66
5 -1 3 12.33 0.76
-6 1 -3 44.75 1.81
-6 1 -3 44.14 1.77
-6 1 -3 45.31 1.86
-6 1 -3 44.02 1.73
-6 1 -3 44.42 1.72
-6 1 -3 46.16 1.66
-6 1 -3 43.31 1.71
6 -1 3 41.72 1.85
6 -1 3 44.79 1.7
6 -1 3 44.81 1.75
-7 1 -3 2.69 0.54
-7 1 -3 2.47 0.39
-7 1 -3 3.51 0.53
-7 1 -3 2.35 0.4
-7 1 -3 2.54 0.59
7 -1 3 2.5 0.44
7 -1 3 2.96 0.34
-8 0 3 7.69 0.49
7 0 -3 3.75 0.59
7 0 -3 4.13 0.49
7 0 -3 3.64 0.48
-7 0 3 3.66 0.53
-7 0 3 3.97 0.46
-7 0 3 4.63 0.6
-7 0 3 4.63 0.42
-7 0 3 3.97 0.41
6 0 -3 15.41 2.1
6 0 -3 18.96 0.92
6 0 -3 19.51 0.89
-6 0 3 18.59 0.87
-6 0 3 20.71 0.89
-6 0 3 17.94 2.06
-6 0 3 20.16 0.91
-6 0 3 20.67 1.04
-6 0 3 20.05 0.89
-6 0 3 19.03 1.07
5 0 -3 46.35 1.74
5 0 -3 47.8 1.76
5 0 -3 47.27 2.39
-5 0 3 47.03 1.77
-5 0 3 47.21 1.94
-5 0 3 44.87 1.79
-5 0 3 46.74 1.93
-5 0 3 45.03 1.75
-5 0 3 47.95 2.42
-5 0 3 46.05 1.74
4 0 -3 38.79 1.4
4 0 -3 34 2.41
4 0 -3 38.64 1.62
4 0 -3 36.94 1.39
4 0 -3 37.49 1.6
-4 0 3 36.45 1.41
-4 0 3 36.48 1.56
-4 0 3 37.75 1.45
-4 0 3 38.98 2.03
-4 0 3 36.8 1.45
-4 0 3 36.8 1.59
-4 0 3 37.14 1.66
-4 0 3 34.24 1.78
-4 0 3 37.7 1.44
3 0 -3 28.83 2.32
3 0 -3 30.83 1.26
3 0 -3 31.47 2
3 0 -3 27.3 1.26
3 0 -3 25.78 1.96
3 0 -3 29.19 1.69
3 0 -3 31.22 1.11
3 0 -3 28.77 1.1
-3 0 3 29.08 1.31
-3 0 3 30.74 1.2
-3 0 3 28.13 1.23
-3 0 3 29.71 1.18
-3 0 3 29.97 1.2
-3 0 3 30.3 1.22
-3 0 3 31.56 1.47
-3 0 3 27.85 1.44
2 0 -3 26.98 1.06
2 0 -3 25.62 1.07
2 0 -3 24.6 1.39
2 0 -3 27.57 1.31
2 0 -3 25.28 2.09
2 0 -3 24.74 1.37
2 0 -3 23.51 0.94
2 0 -3 22.21 1.52
2 0 -3 24.36 0.96
-2 0 3 25.6 1.01
-2 0 3 24.46 1.2
-2 0 3 27.49 1.04
-2 0 3 25.99 1.51
-2 0 3 25.23 1.46
-2 0 3 25.1 1.35
-2 0 3 23.04 1.63
1 0 -3 172.54 5.77
1 0 -3 170.41 5.93
1 0 -3 168.83 5.91
1 0 -3 166.31 5.78
1 0 -3 170.87 5.97
1 0 -3 164.84 5.69
1 0 -3 164.5 5.86
1 0 -3 164.39 5.95
-1 0 3 153.86 5.71
-1 0 3 162.79 5.71
-1 0 3 165.94 5.7
-1 0 3 163.1 5.83
-1 0 3 174.33 5.88
-1 0 3 170.84 5.94
-1 0 3 168.5 5.75
-1 0 3 166.3 5.96
0 0 -3 38.73 2.16
0 0 -3 36.58 1.72
0 0 -3 40.53 1.45
0 0 -3 38.5 1.64
0 0 -3 39.08 1.6
0 0 -3 40.84 1.7
0 0 -3 37.89 1.46
0 0 -3 38.16 1.64
0 0 -3 37.01 1.38
0 0 3 37.37 1.4
0 0 3 37.16 1.58
0 0 3 41.15 1.7
0 0 3 34.21 1.99
0 0 3 40.86 1.86
0 0 3 38.71 1.39
0 0 3 39.36 1.67
0 0 3 41.73 1.44
0 0 3 38.35 1.6
0 0 3 41.22 1.44
-1 0 -3 1.71 0.21
-1 0 -3 1.63 0.28
-1 0 -3 1.99 0.55
-1 0 -3 2.05 0.48
-1 0 -3 1.94 0.32
-1 0 -3 1.77 0.45
-1 0 -3 1.14 0.48
1 0 3 1.49 0.22
1 0 3 1.85 0.45
1 0 3 1.57 0.43
1 0 3 1.28 0.4
1 0 3 1.67 0.77
1 0 3 1.85 0.46
1 0 3 1.46 0.57
1 0 3 1.8 0.27
-2 0 -3 69.45 2.44
-2 0 -3 67.56 2.43
-2 0 -3 71.26 3.04
2 0 3 70.91 2.44
2 0 3 71.39 2.82
2 0 3 68.5 2.44
2 0 3 68.07 3.03
2 0 3 71.9 2.75
2 0 3 65.03 2.81
2 0 3 71.34 2.57
2 0 3 68.22 2.84
2 0 3 75.21 2.54
2 0 3 59.26 3.3
2 0 3 72.36 2.47
-3 0 -3 34.27 1.41
-3 0 -3 32.43 1.69
-3 0 -3 35.84 1.35
-3 0 -3 35.61 1.74
-3 0 -3 35.1 1.45
-3 0 -3 35.42 1.45
-3 0 -3 34.08 1.38
-3 0 -3 36.63 1.52
-3 0 -3 36.19 1.33
3 0 3 38.5 1.6
3 0 3 38.37 1.4
3 0 3 36.09 2.27
3 0 3 38.11 2.27
3 0 3 37.36 1.44
3 0 3 38.96 1.37
-4 0 -3 0.88 0.3
-4 0 -3 1.37 0.29
-4 0 -3 1.58 0.25
-4 0 -3 1.39 0.21
4 0 3 1.63 0.26
4 0 3 1.93 0.42
4 0 3 1.8 0.28
4 0 3 2.28 1.37
4 0 3 1.51 0.63
-5 0 -3 7.74 0.81
-5 0 -3 7.87 0.77
-5 0 -3 7.93 0.6
-5 0 -3 8.9 0.72
-5 0 -3 8.68 0.64
5 0 3 8.95 0.71
5 0 3 8.65 0.62
5 0 3 8.51 0.6
-6 0 -3 7.49 0.71
-6 0 -3 8.51 0.58
6 0 3 8.12 0.61
6 0 3 9.49 0.9
6 0 3 6.89 1
6 0 3 7.81 0.67
-7 0 -3 12.92 0.65
-7 0 -3 12.93 0.76
-7 0 -3 12.78 0.63
-7 0 -3 13.14 0.67
7 0 3 13.29 0.87
7 0 3 13.32 0.7
7 -1 -3 10.35 0.75
7 -1 -3 10.6 0.6
7 -1 -3 10.76 0.58
-7 1 3 10.6 0.62
-7 1 3 11.41 0.71
-7 1 3 10.13 0.73
-7 1 3 10.62 0.57
-7 1 3 10.16 0.56
6 -1 -3 5.1 0.49
6 -1 -3 5.31 0.47
6 -1 -3 5.56 0.55
-6 1 3 5.87 0.54
-6 1 3 5.41 0.5
-6 1 3 4.8 0.64
-6 1 3 5.88 0.47
-6 1 3 5.85 0.69
-6 1 3 3.75 1.36
-6 1 3 5.19 0.46
5 -1 -3 16.75 0.76
5 -1 -3 18.13 0.81
5 -1 -3 16.4 1.46
5 -1 -3 13.85 1.39
-5 1 3 15.46 0.76
-5 1 3 17.61 0.83
-5 1 3 16.12 0.95
-5 1 3 16.43 0.83
-5 1 3 15.56 1.03
-5 1 3 16.84 0.8
-5 1 3 17.48 1.73
4 -1 -3 20.54 1.11
4 -1 -3 19.78 0.82
4 -1 -3 20.58 0.84
4 -1 -3 21.44 2.53
4 -1 -3 17.61 1.26
-4 1 3 19.38 0.98
-4 1 3 20.1 1.47
-4 1 3 18.49 1.06
-4 1 3 17.22 0.98
-4 1 3 20.13 0.92
-4 1 3 20.9 1
-4 1 3 20.63 0.89
-4 1 3 19.51 0.86
-4 1 3 18.34 1.09
-4 1 3 18.88 1.19
3 -1 -3 5.13 1.01
3 -1 -3 5.46 0.54
3 -1 -3 6.83 1.27
3 -1 -3 5.27 0.56
3 -1 -3 5.22 0.38
3 -1 -3 5.31 0.36
3 -1 -3 5.18 0.35
-3 1 3 5.87 0.74
-3 1 3 5.4 0.46
-3 1 3 6.25 0.77
-3 1 3 4.74 0.48
-3 1 3 5.51 0.63
-3 1 3 5.9 0.98
-3 1 3 5.55 0.5
-3 1 3 4.97 0.75
-3 1 3 4.3 0.62
-3 1 3 4.77 0.65
-3 1 3 5.45 0.54
2 -1 -3 0.94 0.25
2 -1 -3 1.33 0.17
2 -1 -3 0.55 0.89
2 -1 -3 0.89 0.23
2 -1 -3 0.65 0.74
2 -1 -3 0.98 0.17
2 -1 -3 1.29 0.18
2 -1 -3 2.24 0.66
-2 1 3 1.71 0.48
-2 1 3 1.24 0.47
-2 1 3 1.05 0.68
-2 1 3 -0.24 1.07
-2 1 3 0.96 0.21
-2 1 3 0.74 0.21
-2 1 3 1.14 0.7
-2 1 3 1.55 0.77
-2 1 3 0.9 0.25
1 -1 -3 82.66 3.29
1 -1 -3 79.7 2.93
1 -1 -3 83.03 3.34
1 -1 -3 82.85 3.3
1 -1 -3 83.21 3.06
1 -1 -3 86.66 3.05
1 -1 -3 84.15 3.44
-1 1 3 85.4 2.99
-1 1 3 84.16 3.32
-1 1 3 97.19 3.11
-1 1 3 83.48 2.94
-1 1 3 86.37 3.25
-1 1 3 85.23 3.35
-1 1 3 83.95 3.12
-1 1 3 79.11 3.37
0 -1 -3 432.55 15.07
0 -1 -3 455.11 15.06
0 -1 -3 452.45 15.03
0 -1 -3 434.28 14.96
0 -1 -3 457.76 14.84
0 -1 -3 427.43 14.84
0 1 3 463.3 15.04
0 1 3 430.63 15.23
0 1 3 427.66 14.79
0 1 3 457.11 15.05
0 1 3 395.84 14.75
0 1 3 441.61 14.97
0 1 3 445.84 14.84
0 1 3 395.37 15.19
0 1 3 418.55 14.76
-1 -1 -3 44.93 2.17
-1 -1 -3 46.13 1.64
-1 -1 -3 44.61 1.96
-1 -1 -3 45.96 2.07
-1 -1 -3 46.16 2.24
-1 -1 -3 46.66 1.69
1 1 3 45.49 2.34
1 1 3 43.11 2.03
1 1 3 41.53 2.68
1 1 3 45.63 1.64
1 1 3 44.92 2.05
1 1 3 44.02 2.02
1 1 3 45.46 1.63
1 1 3 46.07 1.98
1 1 3 46.48 1.63
1 1 3 47.69 1.72
-2 -1 -3 5.66 0.65
-2 -1 -3 4.47 0.9
-2 -1 -3 6.22 0.68
-2 -1 -3 6.93 0.62
-2 -1 -3 6.51 0.85
-2 -1 -3 6.45 0.49
-2 -1 -3 6.38 0.5
-2 -1 -3 5.55 0.43
2 1 3 5.67 1.16
2 1 3 5.92 0.41
2 1 3 6.88 0.98
2 1 3 6.05 0.42
2 1 3 6.62 0.51
2 1 3 8 1.46
2 1 3 6.65 0.39
2 1 3 4.64 0.87
-3 -1 -3 13.29 0.83
-3 -1 -3 13.61 0.93
-3 -1 -3 13.98 0.63
-3 -1 -3 14.36 0.76
-3 -1 -3 13.93 0.71
-3 -1 -3 14.53 0.64
-3 -1 -3 13.79 0.79
3 1 3 13.46 0.69
3 1 3 14.42 0.66
3 1 3 14.35 0.72
3 1 3 14.34 0.84
3 1 3 13.37 2.02
-4 -1 -3 16.99 0.91
-4 -1 -3 16.65 0.85
-4 -1 -3 17.25 0.89
-4 -1 -3 17.42 0.85
-4 -1 -3 17.23 0.74
-4 -1 -3 16.97 0.88
-4 -1 -3 16.54 1.01
4 1 3 18.19 0.93
4 1 3 18.4 0.85
4 1 3 17.98 0.83
4 1 3 17.46 1.13
-5 -1 -3 105.03 3.84
-5 -1 -3 105.94 3.68
-5 -1 -3 102.13 3.79
-5 -1 -3 106.91 3.79
-5 -1 -3 106.99 3.91
-5 -1 -3 105.75 3.8
5 1 3 106.8 3.77
5 1 3 106.72 3.75
-6 -1 -3 0.93 0.37
-6 -1 -3 1.64 0.33
-6 -1 -3 1.17 0.28
-6 -1 -3 1.02 0.2
6 1 3 0.81 0.37
6 1 3 1.29 0.35
-7 -1 -3 8.3 0.46
-7 -1 -3 8.91 0.5
-7 -1 -3 8.92 0.69
7 1 3 8.28 0.68
7 -2 -3 14.48 0.7
7 -2 -3 15.83 0.74
7 -2 -3 15.2 0.99
-7 2 3 15.93 0.8
-7 2 3 13.06 0.76
-7 2 3 15.65 0.84
-7 2 3 16.74 0.69
6 -2 -3 14.44 0.69
6 -2 -3 13.74 0.83
6 -2 -3 13.99 0.71
-6 2 3 12.4 0.93
-6 2 3 14.01 0.68
-6 2 3 14.35 0.72
-6 2 3 13.8 0.99
5 -2 -3 5.8 1.45
5 -2 -3 6.14 0.49
5 -2 -3 5.49 0.6
5 -2 -3 7.28 1.31
5 -2 -3 6.23 0.58
5 -2 -3 6.17 0.47
-5 2 3 5.32 0.88
-5 2 3 6.66 0.49
-5 2 3 6.85 0.85
-5 2 3 5.6 0.99
-5 2 3 5.96 0.57
-5 2 3 6.71 0.76
-5 2 3 5.58 1.17
-5 2 3 6.65 0.84
-5 2 3 6.94 0.76
4 -2 -3 2.4 0.77
4 -2 -3 3.02 0.41
4 -2 -3 0.9 2
4 -2 -3 2.41 0.52
4 -2 -3 2.42 0.37
4 -2 -3 2.54 0.36
4 -2 -3 2 0.55
4 -2 -3 1.65 0.59
-4 2 3 3.81 0.61
-4 2 3 3.17 0.37
-4 2 3 2.88 0.89
-4 2 3 1.98 0.46
-4 2 3 2.74 0.38
-4 2 3 3.59 0.57
-4 2 3 3.01 0.59
3 -2 -3 33.62 1.24
3 -2 -3 31.3 1.86
3 -2 -3 33.35 1.42
3 -2 -3 32.11 3.7
3 -2 -3 33.48 1.44
3 -2 -3 34.08 1.24
3 -2 -3 32.58 1.25
3 -2 -3 30.95 1.57
3 -2 -3 31.57 1.27
3 -2 -3 32.85 1.58
-3 2 3 31.84 1.49
-3 2 3 31.56 1.27
-3 2 3 30.98 1.39
-3 2 3 32.45 1.77
-3 2 3 32.46 1.78
-3 2 3 32.57 1.45
-3 2 3 32.66 1.3
-3 2 3 33.28 1.39
-3 2 3 31.48 1.36
2 -2 -3 63.45 2.37
2 -2 -3 63.57 3.23
2 -2 -3 64.82 2.33
2 -2 -3 69.07 2.49
2 -2 -3 63.32 3.08
2 -2 -3 65.13 2.32
2 -2 -3 66.1 2.3
2 -2 -3 64.26 3.39
2 -2 -3 66.63 2.3
2 -2 -3 60.88 2.44
2 -2 -3 66.76 2.46
-2 2 3 63.14 2.42
-2 2 3 63.12 2.35
-2 2 3 65.94 2.36
-2 2 3 66.42 2.31
-2 2 3 63.91 2.45
-2 2 3 61.06 3.24
-2 2 3 64.96 3.3
-2 2 3 68.47 2.46
-2 2 3 66.68 2.33
-2 2 3 64.8 3.38
-2 2 3 62.06 2.62
-2 2 3 68.82 2.4
1 -2 -3 71.08 2.63
1 -2 -3 70.54 3.12
1 -2 -3 71.93 3.29
1 -2 -3 71.9 2.56
1 -2 -3 78.4 2.72
1 -2 -3 69.32 2.64
1 -2 -3 70.08 3.21
1 -2 -3 75.09 2.69
-1 2 3 73.51 2.67
-1 2 3 73.25 2.56
-1 2 3 70.52 3.36
-1 2 3 69.76 3.77
-1 2 3 79.24 2.65
-1 2 3 72.75 3.28
-1 2 3 71.66 2.71
-1 2 3 73.84 2.86
-1 2 3 76.18 3.21
-1 2 3 72.61 2.57
0 -2 -3 33.35 1.31
0 -2 -3 31.97 2.08
0 -2 -3 33.42 1.35
0 -2 -3 33.25 2.11
0 -2 -3 32.94 1.95
0 -2 -3 37.19 1.41
0 -2 -3 32.51 1.41
0 -2 -3 35.28 1.29
0 -2 -3 35.56 1.65
0 -2 -3 36.6 1.43
0 -2 -3 34.39 1.42
0 2 3 34.64 1.38
0 2 3 38.31 2.09
0 2 3 36 1.29
0 2 3 34.33 1.28
0 2 3 32.37 1.67
0 2 3 33.81 2.04
0 2 3 32.43 2.53
0 2 3 37.46 1.37
0 2 3 33.95 1.93
0 2 3 37.03 2.11
-1 -2 -3 35.76 1.31
-1 -2 -3 35.2 1.41
-1 -2 -3 36.3 1.74
-1 -2 -3 34.03 1.31
-1 -2 -3 32.89 1.46
-1 -2 -3 36.84 1.45
-1 -2 -3 33.98 1.41
-1 -2 -3 34.79 1.33
-1 -2 -3 34.22 1.32
1 2 3 32.11 2.26
1 2 3 33.26 1.33
1 2 3 36.1 2.22
1 2 3 35.96 1.31
1 2 3 36.15 1.43
-2 -2 -3 37.84 1.51
-2 -2 -3 40.59 2
-2 -2 -3 37.78 1.39
-2 -2 -3 37.91 1.51
-2 -2 -3 36.92 1.42
-2 -2 -3 33.33 1.78
-2 -2 -3 38.11 1.43
-2 -2 -3 37.44 1.39
-2 -2 -3 37.91 1.54
2 2 3 40.85 1.59
2 2 3 35.82 2.38
2 2 3 36.67 1.42
2 2 3 41.28 1.43
2 2 3 36.79 1.47
-3 -2 -3 1.04 0.29
-3 -2 -3 1.37 0.35
-3 -2 -3 1.06 0.5
-3 -2 -3 1.64 1.02
-3 -2 -3 2.35 0.38
-3 -2 -3 1.08 0.21
3 2 3 1.4 0.26
3 2 3 1.64 1.51
3 2 3 1.33 0.3
3 2 3 1.28 0.41
-4 -2 -3 3.86 0.58
-4 -2 -3 3.86 0.55
-4 -2 -3 4.2 0.37
-4 -2 -3 4.5 0.51
4 2 3 4.27 0.54
4 2 3 4.31 0.58
-5 -2 -3 17.98 0.75
-5 -2 -3 18.3 0.89
-5 -2 -3 18.11 0.86
-5 -2 -3 18.24 0.89
5 2 3 16.86 0.93
5 2 3 17.04 0.93
-6 -2 -3 42.81 1.56
-6 -2 -3 34.63 1.78
-6 -2 -3 41.05 1.54
-6 -2 -3 42.08 1.53
-6 -2 -3 42.34 1.46
6 2 3 39.22 1.64
6 2 3 41.1 1.61
7 -3 -3 8.7 1.01
7 -3 -3 8.41 0.47
7 -3 -3 7.6 0.49
-7 3 3 7.58 0.46
-7 3 3 7.7 0.43
6 -3 -3 54.8 1.98
6 -3 -3 48.79 2.15
6 -3 -3 53.35 2.01
6 -3 -3 52.99 1.94
6 -3 -3 57.58 1.96
-6 3 3 55.55 1.98
-6 3 3 49.46 2.1
-6 3 3 51.91 2.11
-6 3 3 52.19 1.93
5 -3 -3 3.95 0.44
5 -3 -3 4.94 0.52
5 -3 -3 4.46 0.48
5 -3 -3 3.13 0.54
-5 3 3 4.33 0.83
-5 3 3 3.97 0.43
-5 3 3 4.65 0.73
-5 3 3 4.25 0.89
-5 3 3 3.82 0.59
-5 3 3 4.21 0.55
-5 3 3 5.01 0.72
4 -3 -3 15.56 0.73
4 -3 -3 14.91 1.15
4 -3 -3 14.13 1.14
4 -3 -3 14.65 0.72
4 -3 -3 15.26 0.72
4 -3 -3 14.37 0.78
4 -3 -3 14.69 0.91
-4 3 3 13.78 1.19
-4 3 3 13.94 1
-4 3 3 15.65 0.9
-4 3 3 16.14 0.88
-4 3 3 15.05 0.8
-4 3 3 14.9 0.72
-4 3 3 15.71 1.32
3 -3 -3 0.74 0.4
3 -3 -3 0.85 0.39
3 -3 -3 0.79 0.2
3 -3 -3 1.04 0.48
3 -3 -3 0.91 0.26
3 -3 -3 1.02 0.27
3 -3 -3 0.84 0.23
-3 3 3 1.34 0.32
-3 3 3 1.06 0.36
-3 3 3 0.67 0.25
-3 3 3 0.56 0.39
-3 3 3 0.49 0.31
-3 3 3 0.97 0.71
-3 3 3 1.07 0.25
-3 3 3 1.47 0.46
2 -3 -3 69.78 2.44
2 -3 -3 68.36 2.65
2 -3 -3 69.51 2.66
2 -3 -3 67.32 2.99
2 -3 -3 68.98 2.49
2 -3 -3 68.81 2.53
2 -3 -3 68.51 2.44
-2 3 3 67.52 2.47
-2 3 3 64.98 4.21
-2 3 3 66.97 2.56
-2 3 3 65.33 2.47
-2 3 3 70.48 2.44
-2 3 3 68.31 2.56
-2 3 3 71.07 2.63
-2 3 3 66.52 2.68
-2 3 3 71.13 2.64
1 -3 -3 134.67 4.78
1 -3 -3 132.04 4.61
1 -3 -3 134.62 4.6
1 -3 -3 130.99 4.64
1 -3 -3 135.71 4.59
1 -3 -3 130.62 4.64
1 -3 -3 135.2 5.05
1 -3 -3 131.23 4.78
-1 3 3 132.43 4.59
-1 3 3 130.95 4.75
-1 3 3 134.27 4.62
-1 3 3 131.73 5.54
-1 3 3 131.27 4.7
0 -3 -3 2.05 0.34
0 -3 -3 1.91 0.3
0 -3 -3 2.77 0.56
0 -3 -3 2.2 0.35
0 -3 -3 2.68 0.35
0 -3 -3 1.85 0.3
0 -3 -3 2.58 0.31
0 -3 -3 3.17 0.75
0 -3 -3 2.16 0.33
0 3 3 2.37 0.33
0 3 3 2.59 0.45
0 3 3 2.86 0.54
0 3 3 1.94 0.47
0 3 3 2.72 0.34
0 3 3 2.02 1.15
-1 -3 -3 27.17 1.12
-1 -3 -3 28.74 1.22
-1 -3 -3 27.85 1.2
-1 -3 -3 29.22 1.14
-1 -3 -3 30.57 1.17
-1 -3 -3 30.53 1.9
-1 -3 -3 27.49 1.14
-1 -3 -3 29.29 1.26
-1 -3 -3 29.35 1.23
1 3 3 29.05 1.14
1 3 3 31.31 1.28
1 3 3 29.59 1.15
1 3 3 30.15 1.34
1 3 3 27.9 2.55
-2 -3 -3 6.24 0.7
-2 -3 -3 6.62 0.68
-2 -3 -3 6.77 0.6
-2 -3 -3 7.09 0.51
-2 -3 -3 6.46 0.44
-2 -3 -3 5.88 0.48
2 3 3 6.21 0.79
2 3 3 7.12 0.66
2 3 3 5.08 1.86
2 3 3 6.62 0.52
-3 -3 -3 2.94 0.4
-3 -3 -3 2.07 0.42
-3 -3 -3 1.5 0.23
-3 -3 -3 1.81 1.6
-3 -3 -3 3.27 0.5
-3 -3 -3 2.71 0.39
-3 -3 -3 1.78 0.36
3 3 3 2.47 0.66
3 3 3 2.24 0.34
3 3 3 3.31 0.51
-4 -3 -3 30.24 1.28
-4 -3 -3 28.16 1.12
-4 -3 -3 29.21 1.18
-4 -3 -3 29.38 1.25
-4 -3 -3 30.79 1.28
4 3 3 28.81 1.27
-5 -3 -3 11.62 0.71
-5 -3 -3 12.08 0.69
-5 -3 -3 13.47 0.7
-5 -3 -3 12.71 0.57
5 3 3 12.98 0.83
5 3 3 12.38 0.85
-6 -3 -3 4.47 0.5
-6 -3 -3 4.44 0.32
-6 -3 -3 4.92 0.4
-6 -3 -3 5.74 0.48
6 -4 -3 26.31 1.08
6 -4 -3 28.13 1.1
6 -4 -3 27.37 1.08
-6 4 3 27.74 1.06
-6 4 3 28.21 1.12
5 -4 -3 12.83 0.67
5 -4 -3 14.66 0.68
5 -4 -3 14.99 1.03
-5 4 3 12.57 1.27
-5 4 3 13.6 0.87
-5 4 3 13.75 0.76
4 -4 -3 10.25 0.66
4 -4 -3 9.15 1.14
4 -4 -3 9.93 0.84
4 -4 -3 9.95 0.58
4 -4 -3 10.95 0.56
-4 4 3 10.42 0.59
-4 4 3 10.84 1.04
-4 4 3 10.66 0.76
-4 4 3 10.33 0.65
-4 4 3 10.16 0.75
3 -4 -3 10.17 0.55
3 -4 -3 9.88 0.82
3 -4 -3 8.62 0.99
3 -4 -3 8.45 0.57
-3 4 3 9.46 0.85
-3 4 3 7.97 0.85
-3 4 3 9.61 0.67
-3 4 3 8.71 0.6
-3 4 3 9.64 0.61
-3 4 3 8.75 0.76
2 -4 -3 21.81 0.92
2 -4 -3 21.09 1.01
2 -4 -3 23.69 1.07
2 -4 -3 23.97 1.27
2 -4 -3 22.68 0.94
-2 4 3 22.19 1.02
-2 4 3 22.47 1.16
-2 4 3 22.12 1.43
-2 4 3 21.72 0.95
-2 4 3 20.72 1.02
-2 4 3 24.09 1.13
-2 4 3 21.02 1.59
-2 4 3 21.62 1.4
1 -4 -3 40.35 1.61
1 -4 -3 40.93 1.6
1 -4 -3 39.89 1.8
1 -4 -3 42.07 1.53
1 -4 -3 40.47 1.56
-1 4 3 41.18 1.57
-1 4 3 39.4 1.7
-1 4 3 40.85 1.85
-1 4 3 40.91 1.69
-1 4 3 40.27 1.54
0 -4 -3 16.7 0.82
0 -4 -3 16.05 0.8
0 -4 -3 16.47 0.85
0 -4 -3 18.54 0.8
0 -4 -3 16.89 0.8
0 -4 -3 17.32 0.76
0 -4 -3 18 0.93
0 -4 -3 15.43 2.11
0 4 3 17.85 0.81
0 4 3 16.24 1.08
0 4 3 17.69 1
0 4 3 18.06 0.79
0 4 3 15.48 1.12
-1 -4 -3 38.84 2.79
-1 -4 -3 35.55 1.54
-1 -4 -3 37.72 1.44
-1 -4 -3 37.94 1.46
-1 -4 -3 35.51 1.36
-1 -4 -3 38.7 1.42
-1 -4 -3 37.82 1.48
-1 -4 -3 38.99 1.45
-1 -4 -3 35.03 1.47
-1 -4 -3 37.58 1.52
1 4 3 38.01 1.48
1 4 3 38.97 1.46
1 4 3 39.75 1.67
-2 -4 -3 6.98 0.46
-2 -4 -3 6.72 0.62
-2 -4 -3 9.62 1.99
-2 -4 -3 7.1 0.59
-2 -4 -3 5.62 0.78
-2 -4 -3 6.5 0.5
-2 -4 -3 7.48 0.58
-2 -4 -3 7.97 0.75
2 4 3 6.81 0.6
2 4 3 7.34 1.29
2 4 3 7.09 0.9
2 4 3 5.81 0.59
-3 -4 -3 1.4 0.32
-3 -4 -3 2.02 0.25
-3 -4 -3 1.58 0.33
-3 -4 -3 1.74 0.27
3 4 3 0.76 0.67
3 4 3 1.51 0.35
3 4 3 1.53 0.39
-4 -4 -3 8.23 0.6
-4 -4 -3 8.48 0.61
-4 -4 -3 7.89 0.5
-4 -4 -3 8.08 0.43
4 4 3 6.85 0.7
4 4 3 7.17 0.73
-5 -4 -3 0.51 0.25
-5 -4 -3 0.44 0.15
-5 -4 -3 0.24 0.21
5 4 3 0.55 0.57
6 -5 -3 0.51 0.47
-6 5 3 0.76 0.23
-6 5 3 0.66 0.18
5 -5 -3 9.01 0.55
5 -5 -3 9.19 0.73
5 -5 -3 9.54 0.51
5 -5 -3 8.83 0.58
-5 5 3 9.43 0.52
-5 5 3 8.95 0.6
-5 5 3 9.56 0.65
-5 5 3 10.43 0.67
4 -5 -3 0.17 0.23
4 -5 -3 -0.16 0.25
4 -5 -3 0.06 0.32
4 -5 -3 0.03 0.19
-4 5 3 -0.52 0.74
-4 5 3 0.06 0.24
-4 5 3 0.22 0.29
-4 5 3 0.08 0.36
-4 5 3 -0.01 0.25
3 -5 -3 17.9 0.88
3 -5 -3 17.62 0.85
3 -5 -3 16.97 0.76
3 -5 -3 17.75 0.82
-3 5 3 17.01 1.25
-3 5 3 15.89 1.25
-3 5 3 16.9 0.83
-3 5 3 17.43 0.83
-3 5 3 15.54 0.94
-3 5 3 18.01 0.93
2 -5 -3 0.37 0.28
2 -5 -3 0.96 0.3
2 -5 -3 0.89 0.22
2 -5 -3 0.68 0.29
-2 5 3 0.74 0.43
-2 5 3 0.05 1.13
-2 5 3 1.37 0.31
-2 5 3 1.05 0.29
-2 5 3 0.82 0.34
-2 5 3 1.43 1.29
-2 5 3 1 0.57
1 -5 -3 37.84 4.27
1 -5 -3 42.89 1.66
1 -5 -3 42.95 1.6
1 -5 -3 43.49 1.65
1 -5 -3 43.4 1.64
1 -5 -3 41.32 1.68
-1 5 3 42.57 1.91
-1 5 3 44.69 1.76
-1 5 3 44.49 1.64
-1 5 3 39.44 2.55
-1 5 3 42.48 2.49
-1 5 3 43.03 1.69
0 -5 -3 99.1 3.4
0 -5 -3 99.71 3.36
0 -5 -3 100.46 3.4
0 -5 -3 99.97 3.47
0 -5 -3 96.92 3.46
0 -5 -3 93.29 3.4
0 -5 -3 96.97 3.4
0 5 3 98.32 3.41
0 5 3 89.77 4.12
0 5 3 96.52 3.63
0 5 3 80.63 4.44
0 5 3 99.54 3.53
0 5 3 95.25 3.44
-1 -5 -3 55.8 2.01
-1 -5 -3 55.65 2.05
-1 -5 -3 55.2 2.1
-1 -5 -3 56.64 2.16
-1 -5 -3 54.91 2.05
-1 -5 -3 58.64 2.15
-1 -5 -3 55.73 2.13
1 5 3 54.89 2.4
1 5 3 56.88 2.13
1 5 3 58.4 2.09
1 5 3 54.58 2.11
-2 -5 -3 0.74 0.33
-2 -5 -3 0.47 0.34
-2 -5 -3 0.56 0.34
2 5 3 0.78 0.32
2 5 3 0.3 0.34
2 5 3 2.18 0.88
-3 -5 -3 2.25 0.35
-3 -5 -3 3.12 0.39
-3 -5 -3 2.05 0.34
-3 -5 -3 2.33 0.3
3 5 3 1.16 0.58
3 5 3 2.61 0.44
-4 -5 -3 5.92 0.42
-4 -5 -3 6.17 0.47
-4 -5 -3 5.9 0.33
-4 -5 -3 5.34 0.47
4 5 3 5.72 0.55
5 -6 -3 5.38 0.35
5 -6 -3 4.95 0.58
-5 6 3 5.43 0.47
-5 6 3 5.48 0.52
-5 6 3 4.13 0.45
-5 6 3 5.97 0.61
4 -6 -3 12.63 0.55
4 -6 -3 12.23 0.65
4 -6 -3 10.18 0.73
-4 6 3 12.49 1.12
-4 6 3 11.77 0.66
-4 6 3 12.12 0.58
3 -6 -3 -0.13 0.24
3 -6 -3 0.39 0.55
3 -6 -3 0.23 0.18
3 -6 -3 0.02 0.3
-3 6 3 -0.24 0.2
-3 6 3 -0.1 0.23
2 -6 -3 3.14 0.34
2 -6 -3 2.24 0.49
2 -6 -3 2.37 0.45
2 -6 -3 3.81 0.74
-2 6 3 2.48 0.42
-2 6 3 2.33 0.36
-2 6 3 3.69 0.64
-2 6 3 2.02 0.34
1 -6 -3 29.85 1.26
1 -6 -3 30.61 1.26
1 -6 -3 31.57 1.19
1 -6 -3 32.1 1.23
-1 6 3 32.2 1.23
-1 6 3 30 1.33
-1 6 3 31.03 1.24
-1 6 3 27.65 2.09
-1 6 3 27.63 1.5
0 -6 -3 27.13 1.22
0 -6 -3 28.24 1.08
0 -6 -3 26.37 1.18
0 -6 -3 27.14 1.09
0 -6 -3 27.87 1.15
0 -6 -3 26.57 1.1
0 6 3 26.96 1.12
0 6 3 27.05 1.13
0 6 3 25.42 1.24
-1 -6 -3 34.49 1.26
-1 -6 -3 33.54 1.37
-1 -6 -3 33.96 1.28
-1 -6 -3 34.48 1.34
1 6 3 34.23 1.33
1 6 3 32.37 1.42
-2 -6 -3 0.85 0.31
-2 -6 -3 0.52 0.19
-2 -6 -3 0.88 0.18
-2 -6 -3 1.06 0.26
2 6 3 1.13 0.3
2 6 3 0.61 0.74
-3 -6 -3 4.08 0.44
-3 -6 -3 4.94 0.44
-3 -6 -3 4.78 0.56
-3 -6 -3 4.3 0.31
3 -7 -3 1.55 0.29
3 -7 -3 1.01 0.24
-3 7 3 1.45 0.26
2 -7 -3 21.7 0.84
2 -7 -3 22.1 0.88
-2 7 3 21.27 0.86
-2 7 3 21.5 0.98
1 -7 -3 14.86 0.61
1 -7 -3 14.06 0.65
-1 7 3 14.48 0.81
-1 7 3 14.15 0.73
-1 7 3 13.14 0.7
0 -7 -3 9.48 0.52
0 7 3 9.65 0.6
0 7 3 11.46 0.8
-1 -7 -3 1.47 0.24
1 7 3 1.97 0.36
-2 -9 4 10.19 0.48
-2 -9 4 9.73 0.52
-2 -9 4 10.06 0.45
1 9 -4 6.74 0.6
-1 -9 4 7.33 0.41
-1 -9 4 7.8 0.39
-1 -9 4 7.98 0.44
0 9 -4 25.59 1.02
0 -9 4 24.84 0.99
0 -9 4 24.61 1
0 -9 4 26.19 0.94
-1 9 -4 12.95 0.62
-1 9 -4 12.78 0.65
1 -9 4 12.44 0.71
1 -9 4 12.77 0.82
1 -9 4 13.2 0.54
-2 9 -4 31.27 1.17
2 -9 4 31.69 1.21
2 -9 4 31.24 1.14
-3 9 -4 1.8 0.28
3 -9 4 2.39 0.38
3 -9 4 2.57 0.29
3 -9 4 2.23 0.33
-3 -8 4 0.98 0.2
-3 -8 4 1.07 0.19
-3 -8 4 0.97 0.27
2 8 -4 3.06 0.51
2 8 -4 1.82 0.43
-2 -8 4 2.51 0.35
-2 -8 4 2.22 0.37
-2 -8 4 2.66 0.34
1 8 -4 3.37 0.51
1 8 -4 3.81 0.56
-1 -8 4 3.11 0.34
-1 -8 4 3.31 0.42
-1 -8 4 3.17 0.38
0 8 -4 25.16 1.06
0 8 -4 23.94 1.1
0 -8 4 25.97 0.99
0 -8 4 26.74 1.13
0 -8 4 24.49 1.07
0 -8 4 25.6 1.05
-1 8 -4 51.58 1.94
-1 8 -4 48.28 1.98
1 -8 4 50.38 1.96
1 -8 4 55.34 1.9
1 -8 4 55.27 1.93
1 -8 4 55.3 2.01
1 -8 4 52.48 1.94
-2 8 -4 22.7 0.99
2 -8 4 23.51 0.92
2 -8 4 23.31 1.03
2 -8 4 23.36 1
-3 8 -4 7.36 0.62
-3 8 -4 7.8 0.49
3 -8 4 8.19 0.57
3 -8 4 8.72 0.56
-4 8 -4 3.86 0.33
4 -8 4 3 0.42
4 -8 4 3.89 0.4
-5 8 -4 2.16 0.32
5 -8 4 1.61 0.25
5 -8 4 1.37 0.36
-4 -7 4 2.83 0.37
-4 -7 4 2.99 0.37
-3 -7 4 1.08 0.24
-3 -7 4 1.37 0.26
-3 -7 4 1.83 0.27
2 7 -4 10.16 0.7
2 7 -4 10.76 0.81
-2 -7 4 11.12 0.61
-2 -7 4 8.91 0.6
-2 -7 4 9.92 0.58
1 7 -4 16.91 0.82
1 7 -4 15.34 0.79
-1 -7 4 15.17 0.93
-1 -7 4 15.78 0.77
-1 -7 4 15.4 0.76
-1 -7 4 15.22 0.7
0 7 -4 13.01 0.7
0 7 -4 9.65 1.57
0 7 -4 13.37 0.7
0 -7 4 12.6 0.8
0 -7 4 12.2 0.73
0 -7 4 13.5 0.69
0 -7 4 13.37 0.63
0 -7 4 13.52 0.71
-1 7 -4 10.56 2
-1 7 -4 11.63 0.69
-1 7 -4 12.85 0.66
1 -7 4 10.96 0.72
1 -7 4 11.66 0.71
1 -7 4 11.93 0.66
1 -7 4 12.38 0.75
-2 7 -4 58.78 2.23
-2 7 -4 60.04 2.23
-2 7 -4 57.68 3.13
-2 7 -4 61.08 2.18
2 -7 4 61.41 2.25
2 -7 4 58.68 2.21
2 -7 4 58.63 2.21
-3 7 -4 18.54 0.96
-3 7 -4 17.96 0.86
3 -7 4 17.65 0.88
3 -7 4 17.15 0.88
-4 7 -4 2.36 0.45
-4 7 -4 2.89 0.53
-4 7 -4 3.11 0.4
4 -7 4 3.39 0.41
4 -7 4 3.07 0.47
-5 7 -4 6.71 0.92
-5 7 -4 8.21 0.48
-5 7 -4 8.06 0.67
5 -7 4 8.84 0.54
5 -7 4 8.6 0.62
5 -7 4 8.85 0.51
-6 7 -4 2.69 0.31
6 -7 4 1.79 0.34
6 -7 4 1.85 0.23
-5 -6 4 26.3 1.07
-4 -6 4 7.09 0.53
-4 -6 4 5.78 0.51
3 6 -4 -0.21 1.67
3 6 -4 1.49 0.41
-3 -6 4 0.42 0.24
-3 -6 4 0.39 0.27
-3 -6 4 0.64 0.24
2 6 -4 25.87 1.07
2 6 -4 25.61 1.14
-2 -6 4 24.55 1.08
-2 -6 4 25.94 1.08
1 6 -4 12.48 0.64
1 6 -4 10.49 1.79
1 6 -4 12.15 0.68
1 6 -4 11.02 0.73
-1 -6 4 13.39 0.89
-1 -6 4 12.2 0.69
-1 -6 4 12.79 0.68
-1 -6 4 12.64 0.66
-1 -6 4 12.54 0.61
0 6 -4 5.1 0.43
0 6 -4 5.73 0.51
0 6 -4 5.14 1.28
0 6 -4 5.31 0.45
0 -6 4 4.2 0.57
0 -6 4 4.74 0.47
0 -6 4 5.28 0.47
0 -6 4 4.29 0.51
0 -6 4 4.13 0.63
-1 6 -4 12.4 1.34
-1 6 -4 13.83 0.71
-1 6 -4 14.78 0.69
-1 6 -4 13.21 0.67
1 -6 4 14.09 0.84
1 -6 4 12.53 0.72
1 -6 4 13.03 0.79
1 -6 4 13.76 0.72
1 -6 4 13.61 0.76
-2 6 -4 12.87 0.68
-2 6 -4 11.46 1.6
-2 6 -4 11.69 0.67
-2 6 -4 11.37 0.6
2 -6 4 12.5 0.76
2 -6 4 11.14 0.67
2 -6 4 11.5 0.69
2 -6 4 10.57 0.76
-3 6 -4 8.65 1.53
-3 6 -4 12.34 0.65
-3 6 -4 9.87 1.02
-3 6 -4 10.59 0.61
-3 6 -4 11.35 1.09
3 -6 4 10.66 0.72
3 -6 4 10.72 0.73
3 -6 4 11.77 0.83
3 -6 4 12.14 0.74
3 -6 4 9.97 1.45
-4 6 -4 2.48 0.33
-4 6 -4 1.44 0.42
-4 6 -4 1.74 0.3
-4 6 -4 2.78 1.16
4 -6 4 2.4 0.42
4 -6 4 1.7 0.34
4 -6 4 1.78 1.03
4 -6 4 1.88 0.27
-5 6 -4 16.18 0.82
-5 6 -4 15.68 0.76
-5 6 -4 15.87 0.76
-5 6 -4 16.17 0.89
5 -6 4 16.13 0.81
5 -6 4 15.5 0.93
5 -6 4 15.51 0.72
-6 6 -4 1.74 0.28
-6 6 -4 2.42 0.31
6 -6 4 1.91 0.3
6 -6 4 1.29 0.32
-6 -5 4 23.94 0.98
-5 -5 4 32.19 1.28
-5 -5 4 32.78 1.3
4 5 -4 36.58 1.57
-4 -5 4 40.22 1.52
-4 -5 4 38.47 1.5
-4 -5 4 37.51 1.78
-4 -5 4 39.24 1.51
3 5 -4 11.21 1.45
3 5 -4 11.63 0.7
-3 -5 4 10.31 0.74
-3 -5 4 12.64 0.68
-3 -5 4 11.34 0.67
2 5 -4 8.26 0.51
2 5 -4 9.8 1.02
2 5 -4 9.64 1.45
-2 -5 4 7.36 0.55
-2 -5 4 8.71 0.6
-2 -5 4 8.52 1.28
-2 -5 4 8.17 0.58
1 5 -4 22.19 0.86
1 5 -4 20.01 2.16
1 5 -4 20.4 0.89
1 5 -4 20.87 1.37
-1 -5 4 20.27 0.91
-1 -5 4 19.06 1.22
-1 -5 4 19.94 0.97
-1 -5 4 21.75 1.15
-1 -5 4 22.04 1.74
-1 -5 4 21.2 0.93
0 5 -4 40.89 1.48
0 5 -4 40.51 1.48
0 5 -4 42.99 1.85
0 5 -4 39.52 2.45
0 -5 4 38.13 1.71
0 -5 4 38.66 2.06
0 -5 4 39.16 1.51
0 -5 4 38.08 1.52
0 -5 4 39.02 1.55
0 -5 4 39.63 1.54
-1 5 -4 61.74 2.09
-1 5 -4 57.92 2.07
-1 5 -4 54.82 3.15
-1 5 -4 60.06 2.09
-1 5 -4 57.12 2.52
1 -5 4 55.68 2.19
1 -5 4 57.51 2.13
1 -5 4 56.38 2.12
1 -5 4 56.62 2.16
1 -5 4 56.76 2.1
-2 5 -4 59.86 2.08
-2 5 -4 57.41 2.06
-2 5 -4 53.34 2.35
-2 5 -4 53.33 3.85
-2 5 -4 58.35 2.09
-2 5 -4 56.25 2.42
2 -5 4 57.47 2.14
2 -5 4 57.88 2.46
-3 5 -4 6.06 0.53
-3 5 -4 5.39 0.79
-3 5 -4 6.75 0.61
-3 5 -4 7 0.82
-3 5 -4 6.78 1.05
-3 5 -4 6.1 0.49
3 -5 4 6.33 0.57
3 -5 4 6.11 0.53
3 -5 4 5.95 0.66
3 -5 4 6.21 0.63
3 -5 4 6.21 0.64
3 -5 4 5.57 0.97
-4 5 -4 8.87 0.56
-4 5 -4 9.26 0.68
-4 5 -4 5.96 1.51
-4 5 -4 8.13 0.78
4 -5 4 8.63 0.63
4 -5 4 6.05 1.38
4 -5 4 7.69 0.76
4 -5 4 7.94 0.77
-5 5 -4 2.55 0.44
-5 5 -4 2.53 0.41
-5 5 -4 2.6 0.33
5 -5 4 1.76 0.49
5 -5 4 2.02 0.57
5 -5 4 1.95 0.41
-6 5 -4 3.34 0.42
-6 5 -4 3.93 0.46
-6 5 -4 3.43 0.64
6 -5 4 2.66 0.67
6 -5 4 3.25 0.53
6 -5 4 3.14 0.37
-7 5 -4 5.12 0.52
7 -5 4 5.42 0.5
-7 -4 4 4.05 0.34
-6 -4 4 -0.1 0.41
-6 -4 4 -0.07 0.47
-6 -4 4 0.04 0.22
5 4 -4 13.16 0.95
-5 -4 4 17.87 1.12
-5 -4 4 15.45 0.77
-5 -4 4 15.65 0.8
-5 -4 4 15.59 2.83
4 4 -4 11.59 1.52
4 4 -4 13.22 0.74
4 4 -4 14.94 2.03
-4 -4 4 11.87 1.3
-4 -4 4 11.5 0.69
-4 -4 4 11.97 0.75
-4 -4 4 13.65 1.09
-4 -4 4 15.82 2.09
-4 -4 4 12.23 0.71
3 4 -4 21.73 0.89
3 4 -4 21.29 1.3
-3 -4 4 21.24 0.94
-3 -4 4 21.03 0.94
-3 -4 4 19.94 0.93
-3 -4 4 22.29 1.67
-3 -4 4 20.87 1.19
2 4 -4 29.21 1.35
2 4 -4 27.24 1.85
2 4 -4 30.1 1.1
-2 -4 4 28.36 1.2
-2 -4 4 29.12 1.19
-2 -4 4 29 1.4
-2 -4 4 31.15 1.74
-2 -4 4 27.73 1.16
-2 -4 4 28.48 1.19
-2 -4 4 27.65 1.15
1 4 -4 25.99 2.02
1 4 -4 27.81 1.07
1 4 -4 27.37 1.75
1 4 -4 30.08 1.05
-1 -4 4 25.69 1.13
-1 -4 4 27.02 1.39
-1 -4 4 26.54 1.26
-1 -4 4 27.81 1.13
-1 -4 4 25.91 1.13
-1 -4 4 27.86 1.14
-1 -4 4 29.68 1.51
0 4 -4 18.73 1.7
0 4 -4 21.89 1.85
0 4 -4 22.62 0.86
0 4 -4 23.43 1.11
0 -4 4 21.89 1.19
0 -4 4 20.24 1.02
0 -4 4 23.09 0.92
0 -4 4 21.35 0.98
0 -4 4 21.03 0.97
0 -4 4 21.87 0.96
-1 4 -4 96.64 3.4
-1 4 -4 102.45 3.43
-1 4 -4 92.81 4.22
-1 4 -4 106.9 3.66
-1 4 -4 97.61 3.41
1 -4 4 100.6 3.45
1 -4 4 99.34 3.45
1 -4 4 94.69 3.67
1 -4 4 94.91 3.47
1 -4 4 93.4 4.5
1 -4 4 95.75 3.49
-2 4 -4 18.82 1.07
-2 4 -4 18.48 1.28
-2 4 -4 15.13 2.04
-2 4 -4 18.48 0.78
-2 4 -4 18.75 0.79
-2 4 -4 18.92 0.8
-2 4 -4 19.82 1.2
-2 4 -4 14.99 2.98
2 -4 4 18.69 0.89
2 -4 4 19.93 3.7
2 -4 4 19.26 0.94
2 -4 4 17.73 0.92
2 -4 4 19.48 0.85
-3 4 -4 12.09 0.75
-3 4 -4 13.43 0.66
-3 4 -4 11.53 0.89
-3 4 -4 11.99 1.11
-3 4 -4 13.88 0.82
-3 4 -4 13.7 0.84
-3 4 -4 13.01 1.05
3 -4 4 10.42 0.84
3 -4 4 12.41 0.68
3 -4 4 13.24 1.07
3 -4 4 14.06 0.71
3 -4 4 12.24 0.85
3 -4 4 11.52 0.77
-4 4 -4 12.71 0.65
-4 4 -4 12.58 0.77
-4 4 -4 12.47 0.72
-4 4 -4 11.68 0.8
-4 4 -4 12.43 0.99
-4 4 -4 11.41 0.77
4 -4 4 12.2 0.82
4 -4 4 12.91 0.67
4 -4 4 11.53 0.96
4 -4 4 11.65 0.78
4 -4 4 12.82 0.75
-5 4 -4 21.4 0.95
-5 4 -4 19.94 0.93
-5 4 -4 22.74 1.19
-5 4 -4 21.59 1.13
-5 4 -4 21.02 1.04
5 -4 4 21.32 1.89
5 -4 4 20.31 1.12
5 -4 4 19.9 1.01
5 -4 4 20.75 0.94
5 -4 4 19.48 1.11
-6 4 -4 2.7 0.4
-6 4 -4 2.96 0.5
-6 4 -4 3.03 0.39
-6 4 -4 2.45 0.47
6 -4 4 3.23 0.42
6 -4 4 2.18 0.6
6 -4 4 3.06 0.73
6 -4 4 3.27 0.41
-7 4 -4 1.13 0.3
7 -4 4 0.59 0.17
-7 -3 4 3.55 0.7
-7 -3 4 4.01 0.33
-7 -3 4 3.82 0.48
6 3 -4 20.89 1.1
6 3 -4 20.86 1.09
-6 -3 4 21.19 1.1
-6 -3 4 22.75 0.93
-6 -3 4 24.91 3.06
-6 -3 4 20.45 1.03
-6 -3 4 21.55 0.97
-6 -3 4 22.04 1.1
5 3 -4 16.16 0.81
5 3 -4 15.14 0.94
-5 -3 4 15.27 0.85
-5 -3 4 13.2 2.16
-5 -3 4 16.56 0.96
-5 -3 4 16.39 0.82
-5 -3 4 14.42 0.99
-5 -3 4 16.18 0.77
4 3 -4 11.62 1.02
4 3 -4 10.79 1.14
4 3 -4 11.62 0.72
-4 -3 4 9.15 1.48
-4 -3 4 10.73 0.79
-4 -3 4 11.8 0.65
-4 -3 4 10.67 0.91
-4 -3 4 11.59 0.76
-4 -3 4 10.51 0.89
-4 -3 4 11.05 0.66
3 3 -4 16.06 0.88
3 3 -4 18.28 0.74
3 3 -4 19.35 1.06
3 3 -4 18.86 1.71
3 3 -4 20.1 1.06
-3 -3 4 17.73 1.35
-3 -3 4 18.1 0.87
-3 -3 4 15.98 1.04
-3 -3 4 17.81 0.81
-3 -3 4 16.71 0.87
-3 -3 4 17.19 1.73
-3 -3 4 14.49 1.16
-3 -3 4 17.39 0.82
2 3 -4 5.04 0.48
2 3 -4 5.13 0.56
2 3 -4 5.43 0.87
2 3 -4 5.19 0.34
2 3 -4 5.41 0.9
-2 -3 4 5.8 0.48
-2 -3 4 5.83 0.5
-2 -3 4 6.04 0.69
-2 -3 4 5.13 0.9
-2 -3 4 6.29 0.76
-2 -3 4 4.28 0.79
1 3 -4 28.88 1.21
1 3 -4 27.88 1.54
1 3 -4 29.2 1.22
1 3 -4 27.74 1.07
1 3 -4 27.3 1.67
1 3 -4 29.52 1.06
-1 -3 4 29.36 1.41
-1 -3 4 24.39 1.8
-1 -3 4 28.18 1.58
-1 -3 4 30.02 1.12
-1 -3 4 28.13 1.19
0 3 -4 70.37 2.48
0 3 -4 69.74 2.91
0 3 -4 69.1 2.48
0 3 -4 72.96 2.63
0 3 -4 69.27 3.26
0 3 -4 69.84 2.92
0 -3 4 70.87 3.09
0 -3 4 73.97 2.53
0 -3 4 70.75 2.86
0 -3 4 71.29 3.01
-1 3 -4 101.94 4.12
-1 3 -4 101.55 3.6
-1 3 -4 100.15 4.5
-1 3 -4 111.98 3.8
-1 3 -4 104.51 3.62
-1 3 -4 105.57 4.11
1 -3 4 102.31 3.62
1 -3 4 107.06 4.16
1 -3 4 99.74 4.02
1 -3 4 107.76 3.66
1 -3 4 102.85 3.76
1 -3 4 105.83 4.24
1 -3 4 102.53 4.1
-2 3 -4 8.08 0.83
-2 3 -4 7.36 0.66
-2 3 -4 6.47 0.88
-2 3 -4 6.95 0.44
-2 3 -4 7.18 0.42
-2 3 -4 6.48 0.66
-2 3 -4 6.97 0.42
-2 3 -4 6.24 1.25
-2 3 -4 8.73 0.91
2 -3 4 6.83 0.68
2 -3 4 5.97 1.18
2 -3 4 6.99 0.48
2 -3 4 7.35 1.37
2 -3 4 4.93 1.2
2 -3 4 7.91 0.66
2 -3 4 7.65 0.46
2 -3 4 7.3 0.57
2 -3 4 7.03 0.8
2 -3 4 8.69 1.37
2 -3 4 7.46 1.31
2 -3 4 7.33 0.47
2 -3 4 7.64 0.67
-3 3 -4 7.94 0.82
-3 3 -4 6.35 0.62
-3 3 -4 8.26 0.79
-3 3 -4 7.34 0.7
-3 3 -4 7.59 0.47
-3 3 -4 7.56 0.7
3 -3 4 7.08 2.16
3 -3 4 6.8 0.61
3 -3 4 8.18 0.93
3 -3 4 7.91 0.51
3 -3 4 7.78 0.88
3 -3 4 6.91 0.5
3 -3 4 7.3 0.48
3 -3 4 6.12 0.84
-4 3 -4 15.23 0.82
-4 3 -4 15.63 0.86
-4 3 -4 15.72 0.72
-4 3 -4 13.48 0.98
-4 3 -4 14.66 0.76
4 -3 4 15.3 0.8
4 -3 4 13.48 3
4 -3 4 15.52 0.73
4 -3 4 13.82 1.24
4 -3 4 15.06 0.84
-5 3 -4 20.86 0.97
-5 3 -4 19.05 0.97
-5 3 -4 20.23 1.08
-5 3 -4 19.95 0.96
-5 3 -4 19.76 0.87
-5 3 -4 19.82 1.13
5 -3 4 20.69 0.99
5 -3 4 19.2 1.02
5 -3 4 19.1 0.99
5 -3 4 17.52 1.85
-6 3 -4 10.94 0.87
-6 3 -4 12.1 0.71
-6 3 -4 11.56 0.68
-6 3 -4 11.34 0.68
-6 3 -4 12.37 0.8
6 -3 4 11.95 0.68
6 -3 4 11.47 0.99
6 -3 4 13.08 0.81
6 -3 4 11.55 0.87
-7 3 -4 9.1 0.65
-7 3 -4 8.24 0.52
-7 3 -4 8.32 0.79
-7 3 -4 8.69 0.63
7 -3 4 9.32 0.59
7 2 -4 10.1 0.69
-7 -2 4 11.54 0.68
-7 -2 4 10.03 0.69
-7 -2 4 10.18 0.55
-7 -2 4 10.96 0.53
6 2 -4 36.66 1.4
6 2 -4 33.87 1.45
-6 -2 4 33.76 1.45
-6 -2 4 38.31 2.7
5 2 -4 61.57 2.29
5 2 -4 63.78 2.29
5 2 -4 61.52 2.31
-5 -2 4 64.96 2.5
-5 -2 4 64.92 2.35
-5 -2 4 60.32 2.3
-5 -2 4 62.31 2.28
-5 -2 4 61 2.32
-5 -2 4 64.41 2.49
-5 -2 4 61.08 3.06
4 2 -4 0.93 0.5
4 2 -4 1.33 0.58
4 2 -4 1.18 0.23
4 2 -4 0.63 0.33
4 2 -4 0.65 0.28
-4 -2 4 1.01 0.72
-4 -2 4 0.64 0.36
-4 -2 4 1.05 0.38
-4 -2 4 0.46 0.26
-4 -2 4 0.92 0.31
-4 -2 4 1.28 0.36
-4 -2 4 1.03 0.27
3 2 -4 21.45 1.72
3 2 -4 18.95 0.95
3 2 -4 20.57 0.89
3 2 -4 21.79 0.84
3 2 -4 22.59 1.09
-3 -2 4 20.51 0.97
-3 -2 4 20.58 1.13
-3 -2 4 21.3 1.04
-3 -2 4 18.56 1.18
-3 -2 4 21.84 0.9
-3 -2 4 22.16 1.38
-3 -2 4 19.96 0.99
-3 -2 4 19.86 1.11
-3 -2 4 21.78 0.9
2 2 -4 7.33 0.55
2 2 -4 7.14 1.37
2 2 -4 7.1 1.2
2 2 -4 7.3 0.59
2 2 -4 7.17 0.46
2 2 -4 8.22 0.39
2 2 -4 8.29 1.12
2 2 -4 7.65 0.94
-2 -2 4 7.98 0.85
-2 -2 4 7.51 0.83
-2 -2 4 7.43 0.52
-2 -2 4 6.81 0.54
-2 -2 4 8.78 1.25
1 2 -4 68.51 2.74
1 2 -4 60.64 3.37
1 2 -4 68.98 2.45
1 2 -4 65.03 2.33
1 2 -4 63.79 2.58
1 2 -4 65.52 2.7
1 2 -4 69.03 2.71
1 2 -4 66.43 2.33
1 2 -4 66.72 2.91
-1 -2 4 66.39 2.87
-1 -2 4 71.64 2.39
-1 -2 4 60.43 2.63
-1 -2 4 66.65 2.74
-1 -2 4 69.22 2.38
-1 -2 4 67.47 2.57
0 2 -4 25.71 1.07
0 2 -4 25.53 0.93
0 2 -4 23.53 0.93
0 2 -4 24.7 1.07
0 2 -4 25.47 1.43
0 2 -4 20.3 1.77
0 2 -4 19.26 2.46
0 2 -4 26.39 1.38
0 -2 4 24.04 1.62
0 -2 4 28.38 1.89
0 -2 4 23.31 0.96
0 -2 4 26.03 1.36
0 -2 4 24.33 1.52
0 -2 4 24.66 0.98
0 -2 4 26.21 0.98
-1 2 -4 5.79 0.45
-1 2 -4 5.27 1.08
-1 2 -4 4.79 0.34
-1 2 -4 4.06 0.74
-1 2 -4 5.42 0.53
-1 2 -4 5.53 0.56
-1 2 -4 5.27 0.33
1 -2 4 4.79 0.4
1 -2 4 5.5 0.36
1 -2 4 4.39 1.04
1 -2 4 5.96 1.07
1 -2 4 4.76 0.75
1 -2 4 5.24 0.41
1 -2 4 4.68 0.81
1 -2 4 3.77 0.77
-2 2 -4 27.34 1.09
-2 2 -4 28.18 1.25
-2 2 -4 28.6 1.18
-2 2 -4 27.82 1.11
-2 2 -4 28.32 1.22
-2 2 -4 27.23 1.33
-2 2 -4 28.94 2.03
-2 2 -4 27.99 1.08
-2 2 -4 26.72 1.22
-2 2 -4 28.7 1.08
-2 2 -4 28.58 1.28
2 -2 4 29.76 2.1
2 -2 4 27.33 2.1
2 -2 4 26.57 1.93
2 -2 4 29.7 1.13
2 -2 4 29.36 1.16
2 -2 4 29.66 1.31
2 -2 4 27.62 1.09
-3 2 -4 39.58 1.4
-3 2 -4 38.03 1.56
-3 2 -4 37.55 1.52
-3 2 -4 38.08 1.59
-3 2 -4 37.49 1.46
-3 2 -4 38.41 1.43
3 -2 4 37.14 3.2
3 -2 4 37.61 1.43
3 -2 4 40.5 1.49
3 -2 4 40.01 1.45
3 -2 4 33.38 1.97
3 -2 4 39.48 1.74
3 -2 4 34.28 1.61
3 -2 4 38.71 2.78
-4 2 -4 11.11 0.71
-4 2 -4 11.28 0.63
-4 2 -4 11.26 0.81
-4 2 -4 10.65 0.62
-4 2 -4 12.32 0.73
4 -2 4 12.08 0.61
4 -2 4 7.15 2.32
4 -2 4 12.63 1.2
4 -2 4 11.92 0.69
-5 2 -4 7.31 0.81
-5 2 -4 8.62 0.61
-5 2 -4 8.55 0.77
-5 2 -4 8.29 0.62
-5 2 -4 8.67 0.53
-5 2 -4 9.38 0.64
5 -2 4 10.1 1.92
5 -2 4 8.76 0.69
5 -2 4 8.78 0.7
5 -2 4 9.52 0.66
-6 2 -4 -0.14 0.48
-6 2 -4 0.49 0.38
-6 2 -4 0.1 0.27
-6 2 -4 0.16 0.29
-6 2 -4 0.49 0.29
-6 2 -4 0.35 0.41
-6 2 -4 0.27 0.32
6 -2 4 -0.3 0.46
6 -2 4 0.39 0.37
6 -2 4 0.45 0.35
6 -2 4 -0.08 0.24
-7 2 -4 9.24 0.56
-7 2 -4 9.69 1.05
-7 2 -4 9.82 0.61
7 -2 4 8.13 0.56
7 1 -4 2.03 0.43
7 1 -4 2.91 0.45
7 1 -4 2.9 0.53
-7 -1 4 2.09 0.48
-7 -1 4 3.5 0.48
-7 -1 4 3.12 0.37
-7 -1 4 3.07 0.35
6 1 -4 17.15 0.82
6 1 -4 15.66 0.85
6 1 -4 16.84 0.83
-6 -1 4 16.03 0.8
-6 -1 4 17.46 0.92
-6 -1 4 14.72 0.96
-6 -1 4 16.55 0.82
-6 -1 4 17.17 0.79
-6 -1 4 16.85 0.98
-6 -1 4 19.47 2.13
5 1 -4 21.99 0.97
5 1 -4 22.86 0.98
5 1 -4 23.17 0.96
-5 -1 4 17.81 1.17
-5 -1 4 22.03 0.95
-5 -1 4 22 0.96
-5 -1 4 20.47 1.01
-5 -1 4 23.53 1.02
-5 -1 4 21.8 1.84
-5 -1 4 21.51 1.13
-5 -1 4 21.36 1.15
4 1 -4 4.6 0.8
4 1 -4 6.15 0.46
4 1 -4 5.17 1.49
4 1 -4 4.98 0.43
4 1 -4 5.4 0.89
4 1 -4 4.89 0.47
-4 -1 4 5.02 0.96
-4 -1 4 6.13 0.92
-4 -1 4 5.99 0.65
-4 -1 4 6.1 0.7
-4 -1 4 7.08 0.69
-4 -1 4 5.21 0.49
-4 -1 4 6.24 0.55
-4 -1 4 5.52 0.46
3 1 -4 4.04 0.33
3 1 -4 5.02 0.98
3 1 -4 4.94 0.64
3 1 -4 4.88 0.4
3 1 -4 3.42 1.31
3 1 -4 4.36 0.57
3 1 -4 3.62 0.46
-3 -1 4 5.62 0.56
-3 -1 4 3.38 0.74
-3 -1 4 3.57 0.45
-3 -1 4 4.03 0.56
-3 -1 4 4.34 0.71
-3 -1 4 3.73 0.43
-3 -1 4 5.03 0.53
-3 -1 4 4.67 0.48
-3 -1 4 3.72 0.66
-3 -1 4 5.12 0.78
2 1 -4 45.88 1.71
2 1 -4 40.88 1.54
2 1 -4 42.42 1.53
2 1 -4 39.38 2.52
2 1 -4 42.88 2.16
2 1 -4 44.11 1.53
2 1 -4 43.41 2.24
2 1 -4 44.67 1.68
2 1 -4 41.37 2.02
2 1 -4 41.58 2.2
-2 -1 4 44.5 1.68
-2 -1 4 43 1.84
-2 -1 4 43.37 1.59
-2 -1 4 40.05 2.13
-2 -1 4 40.5 1.63
-2 -1 4 40.13 1.64
-2 -1 4 42.04 1.75
-2 -1 4 40.12 2.29
-2 -1 4 40.75 1.59
1 1 -4 103.38 4.48
1 1 -4 95.45 4.88
1 1 -4 114.62 4.22
1 1 -4 119.4 4.26
1 1 -4 118.49 4.04
1 1 -4 104.93 3.9
1 1 -4 114.61 4.29
1 1 -4 125.33 4.04
1 1 -4 112.98 3.9
1 1 -4 111.15 3.91
-1 -1 4 119.12 4.14
-1 -1 4 117.2 3.96
-1 -1 4 117.45 3.98
-1 -1 4 112.97 3.93
-1 -1 4 112.87 4.21
-1 -1 4 110.53 4.48
-1 -1 4 116.75 4.36
-1 -1 4 112.58 4.31
0 1 -4 306.51 10.35
0 1 -4 294.5 10.41
0 1 -4 289.16 10
0 1 -4 302.24 10.11
0 1 -4 309.26 10.36
0 1 -4 293.95 10.26
0 1 -4 290.44 10.11
0 1 -4 301.59 10.29
0 1 -4 293.08 10.01
0 -1 4 282.11 10.03
0 -1 4 303.84 10.06
0 -1 4 279.7 10.02
0 -1 4 288.21 10.37
0 -1 4 295.28 10.27
0 -1 4 296.72 10.26
0 -1 4 306.22 10.08
0 -1 4 298.62 10.34
0 -1 4 276.19 10.4
-1 1 -4 56.06 3.01
-1 1 -4 59.09 2.59
-1 1 -4 60.96 2.18
-1 1 -4 57.37 2.65
-1 1 -4 61.58 2.73
-1 1 -4 63.19 2.27
-1 1 -4 60.04 2.17
-1 1 -4 64.95 2.25
-1 1 -4 63.94 2.69
1 -1 4 62.33 2.19
1 -1 4 63.67 2.53
1 -1 4 60.46 2.69
1 -1 4 63.28 2.18
1 -1 4 64.54 2.21
1 -1 4 61.37 2.57
1 -1 4 60.23 2.97
-2 1 -4 41.05 1.71
-2 1 -4 43.52 1.66
-2 1 -4 43.28 2.61
-2 1 -4 43.49 1.74
-2 1 -4 44.57 1.61
-2 1 -4 44.43 1.61
-2 1 -4 42.85 1.66
-2 1 -4 42.07 1.74
-2 1 -4 44.51 1.59
2 -1 4 47.39 1.83
2 -1 4 39.57 2.26
2 -1 4 44.22 2.43
2 -1 4 45.12 2.41
2 -1 4 44.14 1.67
2 -1 4 46.32 1.71
2 -1 4 47.06 1.65
2 -1 4 44.47 1.62
2 -1 4 42.69 2.35
-3 1 -4 7.04 1.31
-3 1 -4 8.25 0.72
-3 1 -4 8.48 0.54
-3 1 -4 8.32 0.77
-3 1 -4 9.15 0.69
-3 1 -4 8.03 0.46
-3 1 -4 8.28 0.54
-3 1 -4 9.03 0.69
3 -1 4 7.98 0.88
3 -1 4 8.16 0.5
3 -1 4 7.41 0.49
3 -1 4 8.75 0.55
3 -1 4 7.77 0.68
3 -1 4 7.92 0.87
-4 1 -4 12.24 0.57
-4 1 -4 11.9 0.75
-4 1 -4 11.45 0.82
-4 1 -4 12.99 0.69
-4 1 -4 11.81 0.86
-4 1 -4 12.31 0.63
-4 1 -4 10.74 0.71
4 -1 4 11.23 1.39
4 -1 4 12.38 0.73
4 -1 4 11.34 1.01
4 -1 4 12.34 0.64
4 -1 4 12.5 0.68
-5 1 -4 3.02 0.49
-5 1 -4 2.92 0.46
-5 1 -4 2.09 0.35
-5 1 -4 1.81 0.31
-5 1 -4 2.89 0.33
-5 1 -4 1.66 0.37
5 -1 4 1.77 0.32
5 -1 4 1.73 0.41
5 -1 4 1.45 0.84
5 -1 4 2.18 0.36
-6 1 -4 9.15 0.61
-6 1 -4 10.4 0.76
-6 1 -4 8.45 0.7
-6 1 -4 10.43 0.7
-6 1 -4 8.68 0.61
6 -1 4 8.58 0.6
6 -1 4 9.67 0.73
6 -1 4 9.43 0.73
-7 1 -4 4.55 0.48
-7 1 -4 4.05 0.38
-7 1 -4 3.99 0.38
-7 1 -4 4.24 0.64
7 -1 4 3.82 0.48
7 0 -4 30.36 1.34
7 0 -4 31.31 1.27
7 0 -4 31.98 1.24
7 0 -4 32.15 1.26
-7 0 4 33.61 1.35
-7 0 4 33.57 1.31
-7 0 4 31.13 1.23
6 0 -4 16.49 0.78
6 0 -4 14.25 0.82
6 0 -4 15.77 0.78
-6 0 4 15.59 0.94
-6 0 4 16.47 0.89
-6 0 4 14.37 0.78
-6 0 4 16.57 0.77
-6 0 4 13.81 2.16
-6 0 4 16.86 0.93
-6 0 4 16.7 0.76
5 0 -4 1.14 0.81
5 0 -4 0.26 0.68
5 0 -4 0.04 0.23
5 0 -4 0.65 0.28
5 0 -4 0.58 0.25
-5 0 4 0.33 0.24
-5 0 4 0.74 0.42
-5 0 4 0.52 0.25
-5 0 4 0.43 0.32
-5 0 4 0.79 0.94
-5 0 4 0.35 0.38
-5 0 4 0.93 0.29
4 0 -4 16.64 0.75
4 0 -4 18.19 1.12
4 0 -4 17.77 1.06
4 0 -4 13.31 2.96
4 0 -4 16.85 0.75
4 0 -4 16.63 0.76
-4 0 4 14.84 1.05
-4 0 4 15.53 0.81
-4 0 4 16.21 0.94
-4 0 4 16.43 0.77
-4 0 4 16.09 0.98
-4 0 4 17.66 1.45
-4 0 4 15.92 0.8
-4 0 4 16.28 0.78
3 0 -4 19.61 2.03
3 0 -4 21.97 1.06
3 0 -4 20.35 0.84
3 0 -4 21.01 0.85
3 0 -4 21.94 1.07
3 0 -4 20.02 0.84
-3 0 4 21.22 1.12
-3 0 4 19.03 1.15
-3 0 4 19.79 0.95
-3 0 4 21.79 1.38
-3 0 4 20.81 1.09
-3 0 4 19.79 0.88
-3 0 4 21.26 1
-3 0 4 20.53 0.91
-3 0 4 20.82 0.97
-3 0 4 21.43 0.93
2 0 -4 8.54 0.44
2 0 -4 8.94 1.32
2 0 -4 8.53 0.6
2 0 -4 5.33 1.04
2 0 -4 8.52 1.65
2 0 -4 9.05 0.43
2 0 -4 8.3 1.59
2 0 -4 8.78 0.58
-2 0 4 5.84 1.11
-2 0 4 8.17 0.89
-2 0 4 7.7 0.77
-2 0 4 7.56 0.78
-2 0 4 8.1 0.57
-2 0 4 8.65 1.84
-2 0 4 7.71 0.69
-2 0 4 8.04 0.55
-2 0 4 7.82 0.62
-2 0 4 8.57 0.57
1 0 -4 73.82 2.6
1 0 -4 74.54 2.61
1 0 -4 77.43 2.74
1 0 -4 70.12 3.07
1 0 -4 76.19 3.17
1 0 -4 74.88 2.6
1 0 -4 71.15 3.49
1 0 -4 77.56 2.73
-1 0 4 73.68 2.62
-1 0 4 78.34 3.23
-1 0 4 74.73 2.63
-1 0 4 66.36 3.48
-1 0 4 71.48 3.16
-1 0 4 76.49 2.65
-1 0 4 73.54 2.85
-1 0 4 73.87 3.07
-1 0 4 80.37 2.71
-1 0 4 74.24 2.66
0 0 -4 43.73 1.56
0 0 -4 44.42 2.19
0 0 -4 42.79 1.55
0 0 -4 44.19 2.23
0 0 -4 43.69 1.68
0 0 -4 41.1 1.56
0 0 -4 42.13 2.61
0 0 -4 40.21 1.7
0 0 -4 40.01 2.05
0 0 -4 44.25 2.16
0 0 4 44.25 1.57
0 0 4 41.5 2.13
0 0 4 43.74 1.63
0 0 4 43.04 2.01
0 0 4 43.93 1.58
0 0 4 44.01 1.64
0 0 4 42.5 2.06
0 0 4 45.73 1.6
0 0 4 43.4 2.58
-1 0 -4 10.35 0.79
-1 0 -4 11.21 0.79
-1 0 -4 12.29 0.66
-1 0 -4 12.94 1.65
-1 0 -4 11.41 1.48
-1 0 -4 11.9 0.76
-1 0 -4 11.93 0.56
-1 0 -4 11.54 0.63
-1 0 -4 10.73 1.65
-1 0 -4 11.77 0.68
1 0 4 12.13 0.65
1 0 4 12.28 2.3
1 0 4 12.27 0.57
1 0 4 11.31 0.55
1 0 4 11.26 1.3
1 0 4 12.35 1.35
1 0 4 8.73 1.42
1 0 4 14.72 1.53
1 0 4 10.9 0.55
-2 0 -4 27.31 1.27
-2 0 -4 28.1 1.14
-2 0 -4 28.36 1.28
-2 0 -4 30 1.12
-2 0 -4 27.71 1.14
-2 0 -4 26.88 1.23
-2 0 -4 28.59 1.25
2 0 4 30.01 1.24
2 0 4 29.57 2.29
2 0 4 30.9 1.13
2 0 4 30.05 1.16
2 0 4 28.27 1.11
-3 0 -4 10.7 0.69
-3 0 -4 10.62 0.53
-3 0 -4 11.79 1.54
-3 0 -4 10.49 0.81
-3 0 -4 9.21 0.74
-3 0 -4 10.22 0.8
3 0 4 11.65 0.58
3 0 4 11.26 0.79
3 0 4 7.51 1.57
3 0 4 10.26 0.83
3 0 4 9.86 1.24
3 0 4 11.09 0.63
3 0 4 11.37 0.59
-4 0 -4 36.66 1.51
-4 0 -4 38.32 1.57
-4 0 -4 37.38 1.62
-4 0 -4 37.07 1.41
-4 0 -4 39.62 1.42
-4 0 -4 38.12 1.56
4 0 4 40.58 1.53
4 0 4 39.09 1.59
4 0 4 38.89 1.5
-5 0 -4 2.81 0.54
-5 0 -4 2.65 0.33
-5 0 -4 4.29 0.46
-5 0 -4 3.05 0.49
-5 0 -4 4.06 0.64
-5 0 -4 4.52 0.52
5 0 4 3.97 0.53
5 0 4 3.12 0.96
5 0 4 3.71 0.54
-6 0 -4 20.91 0.96
-6 0 -4 20 0.92
-6 0 -4 21.37 0.93
-6 0 -4 21.7 1.08
6 0 4 20.03 1.02
6 0 4 21.14 1.02
-7 0 -4 3.25 0.35
-7 0 -4 3.69 0.51
-7 0 -4 2.78 0.34
7 0 4 3.51 0.49
7 -1 -4 37.86 1.41
7 -1 -4 35.46 1.38
7 -1 -4 36.52 1.39
7 -1 -4 36.9 1.61
-7 1 4 36.33 1.45
-7 1 4 35.2 1.34
-7 1 4 38.6 1.5
6 -1 -4 7.1 0.52
6 -1 -4 7.64 0.61
6 -1 -4 6.97 0.54
6 -1 -4 6.96 0.63
-6 1 4 6.96 0.58
-6 1 4 7.41 1.61
-6 1 4 7.84 0.79
5 -1 -4 19.37 1.93
5 -1 -4 19.97 2.25
5 -1 -4 23.41 1.83
5 -1 -4 24.7 1.07
-5 1 4 24.63 1.17
-5 1 4 25.07 1.06
-5 1 4 24.71 1.04
-5 1 4 24.93 1.02
-5 1 4 24.79 1.27
-5 1 4 24.65 1.09
-5 1 4 23 2.17
-5 1 4 23.7 1.25
4 -1 -4 4.64 0.86
4 -1 -4 6.8 0.93
4 -1 -4 5.73 0.44
4 -1 -4 6.35 0.49
4 -1 -4 5.36 0.45
-4 1 4 7.76 1.49
-4 1 4 6.06 0.9
-4 1 4 6.34 0.49
-4 1 4 5.6 0.57
-4 1 4 4.61 0.86
-4 1 4 5.72 0.58
-4 1 4 4.81 0.79
-4 1 4 5.84 0.72
-4 1 4 6.01 0.57
3 -1 -4 1.7 0.62
3 -1 -4 2.12 0.32
3 -1 -4 1.81 1.33
3 -1 -4 1.98 0.35
3 -1 -4 1.88 0.32
3 -1 -4 1.51 0.4
3 -1 -4 1.96 0.24
3 -1 -4 2.52 0.58
-3 1 4 0.93 0.24
-3 1 4 1.88 0.42
-3 1 4 1.3 0.51
-3 1 4 1.36 0.32
-3 1 4 1.63 0.34
-3 1 4 1.49 0.35
-3 1 4 1.05 0.38
-3 1 4 1.35 0.39
-3 1 4 1.34 0.29
2 -1 -4 11.56 0.74
2 -1 -4 11.87 0.56
2 -1 -4 12.85 0.59
2 -1 -4 12.5 2.55
2 -1 -4 9.28 0.96
2 -1 -4 12.33 0.7
2 -1 -4 14.34 2.08
2 -1 -4 11.64 0.55
-2 1 4 12.44 0.71
-2 1 4 11.67 0.73
-2 1 4 12.68 0.75
-2 1 4 10.47 1.11
-2 1 4 11.91 0.71
-2 1 4 12.13 0.7
-2 1 4 11.55 0.89
-2 1 4 11.13 0.82
-2 1 4 12.71 0.83
-2 1 4 12.84 0.71
1 -1 -4 2.13 1.03
1 -1 -4 2.05 0.44
1 -1 -4 1.61 0.37
1 -1 -4 1.99 0.23
1 -1 -4 2.79 0.54
1 -1 -4 1.8 0.28
1 -1 -4 2.02 0.34
1 -1 -4 2.61 0.37
-1 1 4 2.46 0.58
-1 1 4 4.66 1.24
-1 1 4 2.02 0.39
-1 1 4 2.81 0.53
-1 1 4 1.82 0.3
-1 1 4 2.39 0.42
-1 1 4 2.85 0.36
-1 1 4 1.51 0.24
-1 1 4 2.3 0.98
-1 1 4 2.91 1.07
-1 1 4 1.79 0.31
0 -1 -4 21.26 2.2
0 -1 -4 18.86 0.89
0 -1 -4 19.97 0.8
0 -1 -4 20.75 0.97
0 -1 -4 20.03 0.87
0 -1 -4 20.38 0.94
0 -1 -4 19.24 0.97
0 -1 -4 18.53 0.94
0 -1 -4 16.39 1.95
0 -1 -4 16.48 1.98
0 1 4 21.23 1.01
0 1 4 19.5 0.83
0 1 4 19.2 0.8
0 1 4 20.19 0.82
0 1 4 20.96 1.98
0 1 4 20.21 0.89
0 1 4 21.21 1.76
0 1 4 18.3 1.13
0 1 4 18.87 2.03
0 1 4 20.09 0.91
0 1 4 18.04 1.97
-1 -1 -4 7.24 0.56
-1 -1 -4 8.6 0.65
-1 -1 -4 7.67 0.65
-1 -1 -4 7.7 0.66
-1 -1 -4 8.19 0.77
-1 -1 -4 8.23 0.54
-1 -1 -4 8.44 0.64
-1 -1 -4 8.59 0.46
-1 -1 -4 7.96 0.54
1 1 4 8 1.39
1 1 4 8.75 0.52
1 1 4 8.41 0.47
1 1 4 8.96 0.62
1 1 4 8.14 0.46
-2 -1 -4 18.91 0.83
-2 -1 -4 19.18 0.83
-2 -1 -4 18.79 0.95
-2 -1 -4 19.19 0.97
-2 -1 -4 20.05 1.54
-2 -1 -4 19.04 0.81
-2 -1 -4 19.35 0.85
-2 -1 -4 19.35 1.09
-2 -1 -4 18.96 0.96
2 1 4 21.07 1.04
2 1 4 20.26 2.24
2 1 4 20.42 0.83
2 1 4 19.72 0.85
2 1 4 20.68 0.9
-3 -1 -4 17.73 0.9
-3 -1 -4 16.39 0.94
-3 -1 -4 16.58 0.79
-3 -1 -4 15.01 1.89
-3 -1 -4 16.87 0.73
-3 -1 -4 17.14 0.74
-3 -1 -4 17.08 1.01
-3 -1 -4 16.77 0.91
-3 -1 -4 17.86 0.88
3 1 4 17.98 0.8
3 1 4 18.65 0.93
3 1 4 17.37 0.89
-4 -1 -4 86 3.06
-4 -1 -4 85.83 2.93
-4 -1 -4 82.34 3.16
4 1 4 79.31 3.09
4 1 4 80 3.31
4 1 4 86.28 3.03
-5 -1 -4 94.35 3.42
-5 -1 -4 90.61 3.46
-5 -1 -4 95.79 3.44
5 1 4 100.24 3.39
5 1 4 94.46 3.42
-6 -1 -4 12.71 0.55
-6 -1 -4 13.72 0.65
-6 -1 -4 12.32 0.83
-6 -1 -4 12.44 0.66
-6 -1 -4 12.99 0.66
6 1 4 11.4 0.84
7 -2 -4 5.09 0.62
7 -2 -4 6.07 0.41
7 -2 -4 5 0.41
-7 2 4 4.06 0.63
-7 2 4 3.53 0.6
6 -2 -4 10.07 0.92
6 -2 -4 11.13 0.6
6 -2 -4 12.32 0.65
6 -2 -4 12.25 0.66
-6 2 4 12.24 0.59
-6 2 4 12.59 0.65
-6 2 4 12.57 0.79
-6 2 4 11.1 0.86
5 -2 -4 3.04 0.46
5 -2 -4 2.5 0.38
5 -2 -4 2.2 1.43
5 -2 -4 2.44 0.32
5 -2 -4 2.63 0.38
-5 2 4 2.41 0.42
-5 2 4 0.07 1.57
-5 2 4 3.88 0.55
-5 2 4 2.84 0.48
-5 2 4 1.64 0.44
-5 2 4 1.75 0.31
-5 2 4 2.37 0.46
4 -2 -4 5.54 0.65
4 -2 -4 6.69 0.49
4 -2 -4 7.06 0.45
4 -2 -4 5.51 1.07
4 -2 -4 7.1 1.02
4 -2 -4 5.45 0.64
4 -2 -4 6.63 1.22
4 -2 -4 7.16 0.59
-4 2 4 6.9 0.88
-4 2 4 6.06 0.82
-4 2 4 6.57 0.59
-4 2 4 6.15 0.57
-4 2 4 6.56 0.95
-4 2 4 5.51 0.74
-4 2 4 6.3 1.29
-4 2 4 6.57 0.51
3 -2 -4 9.93 0.87
3 -2 -4 8.45 0.89
3 -2 -4 12.68 2.26
3 -2 -4 8.84 0.55
3 -2 -4 10.43 0.65
3 -2 -4 10.18 0.52
3 -2 -4 10.47 1.31
3 -2 -4 9.74 0.62
3 -2 -4 7.16 0.91
-3 2 4 8.55 0.57
-3 2 4 8.33 0.74
-3 2 4 9.25 0.78
-3 2 4 7.83 0.93
-3 2 4 9.54 0.63
-3 2 4 8.56 1.68
-3 2 4 9.64 0.92
-3 2 4 9.73 0.72
2 -2 -4 89.04 3.42
2 -2 -4 94.48 3.33
2 -2 -4 100.29 3.58
2 -2 -4 92.32 3.44
2 -2 -4 95.33 3.35
2 -2 -4 100.11 3.56
2 -2 -4 93.95 3.39
2 -2 -4 99.58 3.35
-2 2 4 93.53 3.5
-2 2 4 96.2 3.56
-2 2 4 96.6 3.45
-2 2 4 93.88 3.85
-2 2 4 96.15 3.35
-2 2 4 93.94 3.37
-2 2 4 95.02 3.39
-2 2 4 86.97 3.41
-2 2 4 103.64 3.55
-2 2 4 97.57 3.47
1 -2 -4 45.4 1.85
1 -2 -4 49.31 1.77
1 -2 -4 47.12 1.95
1 -2 -4 49 1.78
1 -2 -4 49.81 1.98
1 -2 -4 49.22 1.85
1 -2 -4 47.7 1.82
-1 2 4 52.16 1.9
-1 2 4 49.71 1.78
-1 2 4 50.62 1.83
-1 2 4 47.8 1.89
-1 2 4 50.11 2.05
-1 2 4 42.5 3.24
-1 2 4 48.79 4.08
-1 2 4 46.49 2.59
-1 2 4 48.92 1.95
-1 2 4 50.52 1.82
0 -2 -4 18.27 0.76
0 -2 -4 18.15 1.45
0 -2 -4 17.54 0.82
0 -2 -4 18.86 0.98
0 -2 -4 16.26 1.09
0 -2 -4 17.9 0.79
0 -2 -4 19.53 1
0 -2 -4 17.15 0.89
0 -2 -4 16.78 0.89
0 2 4 17.05 1.06
0 2 4 15.53 2.42
0 2 4 17.53 0.89
0 2 4 18.64 0.79
0 2 4 18.04 0.88
0 2 4 18.15 0.77
0 2 4 17.7 0.95
-1 -2 -4 23.99 1.18
-1 -2 -4 25.27 1.05
-1 -2 -4 26.14 1.02
-1 -2 -4 21.22 1.11
-1 -2 -4 24.88 1.78
-1 -2 -4 26.62 1.03
-1 -2 -4 27.06 1.41
-1 -2 -4 24.57 1.03
1 2 4 26.4 1.15
1 2 4 27.32 1.05
1 2 4 23.07 2.89
1 2 4 25.97 1.23
1 2 4 25.58 1.02
1 2 4 24.61 1.27
-2 -2 -4 12.63 0.64
-2 -2 -4 12.11 0.65
-2 -2 -4 11.71 0.75
-2 -2 -4 12 0.8
-2 -2 -4 11.65 0.59
-2 -2 -4 12.35 0.75
-2 -2 -4 12.44 0.59
2 2 4 13.67 0.7
2 2 4 12.84 0.66
2 2 4 11.92 0.95
-3 -2 -4 0.94 0.32
-3 -2 -4 0.58 0.49
-3 -2 -4 0.88 0.3
-3 -2 -4 0.47 0.26
-3 -2 -4 0.21 0.69
-3 -2 -4 0.67 0.19
3 2 4 0.76 0.29
3 2 4 0.74 0.28
3 2 4 0.34 0.58
-4 -2 -4 2.64 0.37
-4 -2 -4 2.82 0.33
-4 -2 -4 2.36 0.59
-4 -2 -4 3.18 0.49
-4 -2 -4 2.97 0.43
-4 -2 -4 2.14 0.51
4 2 4 2.1 1
4 2 4 2.32 0.36
4 2 4 2.2 0.37
-5 -2 -4 44.74 1.65
-5 -2 -4 45.05 1.68
-5 -2 -4 39.65 1.86
-5 -2 -4 45.53 1.57
-5 -2 -4 43.7 1.66
5 2 4 41.82 1.74
5 2 4 42.17 1.66
-6 -2 -4 7.71 0.37
-6 -2 -4 8.12 0.48
-6 -2 -4 7.96 0.48
-6 -2 -4 6.78 0.57
6 2 4 7.62 0.66
6 -3 -4 27.24 1.06
6 -3 -4 25.67 1.04
-6 3 4 25.96 1.23
-6 3 4 25.57 1.38
-6 3 4 26.91 1.03
-6 3 4 26.98 1.07
5 -3 -4 34.22 1.69
5 -3 -4 31.75 2.15
5 -3 -4 31.55 1.25
5 -3 -4 31.09 1.35
5 -3 -4 33.16 1.3
-5 3 4 32.16 1.68
-5 3 4 33.54 1.51
-5 3 4 30.41 1.77
-5 3 4 33.41 1.31
-5 3 4 29.98 1.41
4 -3 -4 40.48 1.49
4 -3 -4 38.44 1.96
4 -3 -4 38.74 1.53
4 -3 -4 36.73 1.6
4 -3 -4 39.76 1.48
-4 3 4 37.68 1.82
-4 3 4 38.69 1.49
-4 3 4 38.94 1.57
-4 3 4 37.53 1.51
-4 3 4 40 1.63
3 -3 -4 11.92 0.77
3 -3 -4 11.7 0.64
3 -3 -4 10.15 1.21
3 -3 -4 11.03 1.05
3 -3 -4 12.29 0.61
3 -3 -4 12.52 0.83
-3 3 4 11.02 0.69
-3 3 4 10.88 0.95
-3 3 4 11.59 0.8
-3 3 4 11.94 1.27
-3 3 4 11.51 0.67
-3 3 4 12.36 0.8
2 -3 -4 128.64 4.31
2 -3 -4 120.35 4.63
2 -3 -4 124.84 4.35
2 -3 -4 126.84 4.38
2 -3 -4 124.47 4.3
2 -3 -4 122.38 4.56
-2 3 4 122.02 4.85
-2 3 4 125.31 4.42
-2 3 4 124.42 4.31
-2 3 4 111.41 4.3
-2 3 4 122.67 4.42
-2 3 4 124.81 4.59
-2 3 4 125.71 4.34
1 -3 -4 78.14 2.68
1 -3 -4 72.97 2.71
1 -3 -4 75.09 2.73
1 -3 -4 74.12 2.68
1 -3 -4 74.88 2.65
1 -3 -4 74.5 2.91
-1 3 4 76.84 2.83
-1 3 4 67.24 5.85
-1 3 4 72.32 2.91
-1 3 4 74.95 2.79
-1 3 4 74.73 2.67
-1 3 4 76.08 2.7
0 -3 -4 49.14 1.91
0 -3 -4 50.62 2.17
0 -3 -4 50.33 1.83
0 -3 -4 50.74 1.83
0 -3 -4 48.25 1.98
0 -3 -4 48.45 1.89
0 -3 -4 49.74 3.07
0 -3 -4 50.46 1.84
0 -3 -4 47.12 1.88
0 3 4 48.24 2.08
0 3 4 50.3 2
0 3 4 50 1.88
0 3 4 51.31 1.88
0 3 4 47.32 1.97
0 3 4 49.67 1.84
-1 -3 -4 15.37 0.81
-1 -3 -4 14.13 0.82
-1 -3 -4 15.31 0.82
-1 -3 -4 15.49 2.27
-1 -3 -4 16.07 0.73
-1 -3 -4 16.01 0.73
-1 -3 -4 14.57 0.69
-1 -3 -4 15.92 0.75
1 3 4 15.43 0.98
1 3 4 15.89 0.78
1 3 4 14.71 0.93
1 3 4 15.45 0.74
-2 -3 -4 12.87 0.65
-2 -3 -4 12 0.6
-2 -3 -4 12.4 0.83
-2 -3 -4 12.3 0.68
-2 -3 -4 9.65 1.94
-2 -3 -4 12.47 0.75
2 3 4 11.3 1.25
2 3 4 12.22 0.72
2 3 4 12.7 0.69
2 3 4 11.56 0.94
-3 -3 -4 22.31 1.04
-3 -3 -4 22.55 1.03
-3 -3 -4 21.84 1.08
-3 -3 -4 22.22 1.05
-3 -3 -4 23.26 0.9
-3 -3 -4 22.34 0.94
3 3 4 22.91 1.34
3 3 4 23.11 1.02
3 3 4 22.23 1.04
3 3 4 17.09 1.97
-4 -3 -4 21.96 1
-4 -3 -4 21.8 1
-4 -3 -4 21.02 0.91
-4 -3 -4 22.62 1.01
-4 -3 -4 22.82 0.88
4 3 4 20.96 1
-5 -3 -4 2.72 0.38
-5 -3 -4 2.48 0.51
-5 -3 -4 2.83 0.4
5 3 4 2.8 0.38
6 -4 -4 21.76 0.88
6 -4 -4 21.96 0.9
-6 4 4 22.35 0.9
-6 4 4 22.48 0.86
5 -4 -4 3.85 0.38
5 -4 -4 3.82 0.72
5 -4 -4 3.73 0.39
5 -4 -4 2.69 0.46
-5 4 4 4.01 0.56
-5 4 4 3.74 0.4
-5 4 4 4.12 0.5
-5 4 4 3.61 0.46
4 -4 -4 4.84 0.44
4 -4 -4 4.8 0.47
4 -4 -4 5.07 0.71
4 -4 -4 6.2 0.98
-4 4 4 5.62 0.5
-4 4 4 4.5 0.66
-4 4 4 5.4 0.86
3 -4 -4 5.55 0.52
3 -4 -4 4.98 0.46
3 -4 -4 5.05 1.17
3 -4 -4 4.49 0.63
3 -4 -4 6.08 0.46
-3 4 4 5.01 0.74
-3 4 4 5.88 0.49
-3 4 4 6.37 0.62
-3 4 4 6.6 0.81
-3 4 4 4.97 0.6
2 -4 -4 38.68 1.46
2 -4 -4 38.5 1.43
2 -4 -4 37.07 1.85
2 -4 -4 37.11 1.53
2 -4 -4 39.02 1.51
-2 4 4 36.41 1.61
-2 4 4 38.03 1.76
-2 4 4 35.48 1.88
-2 4 4 36.25 2.19
-2 4 4 36.66 1.55
-2 4 4 37.76 1.49
-2 4 4 38.08 1.48
1 -4 -4 124.68 4.38
1 -4 -4 119.49 5.9
1 -4 -4 128.11 4.43
1 -4 -4 129.82 4.39
1 -4 -4 122.53 4.69
1 -4 -4 122.81 4.47
-1 4 4 129.86 4.5
-1 4 4 126.96 4.46
-1 4 4 130.14 4.42
-1 4 4 127.52 4.61
-1 4 4 119.43 4.78
0 -4 -4 58.92 2.2
0 -4 -4 61.08 2.25
0 -4 -4 61.92 2.29
0 -4 -4 63.5 2.22
0 -4 -4 62.87 2.21
0 -4 -4 61.76 2.28
0 -4 -4 59.71 4.22
0 4 4 56.32 2.74
0 4 4 58.12 2.27
0 4 4 61.59 2.24
0 4 4 61.02 2.36
0 4 4 59.32 2.44
-1 -4 -4 23.22 1.08
-1 -4 -4 23.99 0.97
-1 -4 -4 24.2 0.91
-1 -4 -4 23.19 1
-1 -4 -4 23.09 1.03
-1 -4 -4 23.41 1.04
-1 -4 -4 24.51 1.13
1 4 4 25.21 1.28
1 4 4 24.05 1.04
1 4 4 22.79 1.38
1 4 4 23.62 1.09
-2 -4 -4 22.43 1.01
-2 -4 -4 23.38 1.03
-2 -4 -4 22.69 0.94
-2 -4 -4 22.44 0.92
2 4 4 22.37 0.99
2 4 4 20.77 1.04
2 4 4 22.97 1.42
-3 -4 -4 0.77 0.29
-3 -4 -4 0.55 0.25
-3 -4 -4 0.45 0.21
-3 -4 -4 0.41 0.18
3 4 4 -0.33 0.98
3 4 4 1.12 0.37
3 4 4 0.53 0.3
-4 -4 -4 23.11 0.88
-4 -4 -4 23.64 0.97
-4 -4 -4 24.13 0.98
4 4 4 22.8 1.03
5 -5 -4 3.45 0.39
5 -5 -4 4.19 0.44
-5 5 4 4.05 0.53
-5 5 4 3.36 0.53
-5 5 4 3.97 0.5
4 -5 -4 2.04 0.34
4 -5 -4 2.59 0.49
4 -5 -4 2.07 0.4
-4 5 4 3.18 0.52
-4 5 4 2.51 0.36
-4 5 4 2.1 0.46
3 -5 -4 7.92 0.59
3 -5 -4 7.44 0.58
3 -5 -4 7.61 0.46
3 -5 -4 6.69 0.52
-3 5 4 8.9 1.4
-3 5 4 5.67 1.04
-3 5 4 7.62 0.59
-3 5 4 6.86 0.51
2 -5 -4 7.49 0.6
2 -5 -4 8.51 0.6
2 -5 -4 7.84 0.49
2 -5 -4 6.37 0.56
-2 5 4 7.94 0.54
-2 5 4 7.5 0.65
-2 5 4 8.18 0.65
-2 5 4 6.74 1.07
-2 5 4 7.97 1.26
1 -5 -4 7.82 0.59
1 -5 -4 10.06 0.68
1 -5 -4 8.19 0.67
-1 5 4 8.17 0.59
-1 5 4 6.49 0.79
-1 5 4 7.54 1.21
-1 5 4 6.53 0.76
-1 5 4 8.68 0.6
0 -5 -4 12.66 0.69
0 -5 -4 11.76 0.81
0 -5 -4 13.84 0.72
0 -5 -4 12.76 0.63
0 -5 -4 14.05 0.66
0 -5 -4 12.45 0.73
0 5 4 10.5 1.37
0 5 4 11.57 0.95
0 5 4 12.43 0.73
0 5 4 11.82 0.83
0 5 4 12.93 0.69
-1 -5 -4 5.41 0.49
-1 -5 -4 6.31 0.46
-1 -5 -4 5.77 0.53
-1 -5 -4 5.61 0.7
-1 -5 -4 7.21 0.67
-1 -5 -4 5.87 0.53
1 5 4 5.93 0.52
1 5 4 5.28 0.68
1 5 4 7.34 1.06
-2 -5 -4 1.9 0.23
-2 -5 -4 1.81 0.29
-2 -5 -4 2.16 0.26
-2 -5 -4 1.73 0.29
2 5 4 1.63 0.43
2 5 4 1.65 0.3
-3 -5 -4 10.89 0.48
-3 -5 -4 10.33 0.58
-3 -5 -4 10.76 0.58
3 5 4 10.62 0.74
4 -6 -4 0.24 0.18
3 -6 -4 2.1 0.42
3 -6 -4 1.83 0.35
3 -6 -4 1.83 0.36
3 -6 -4 2.6 0.29
-3 6 4 1.85 0.31
2 -6 -4 14.51 0.66
2 -6 -4 14.3 0.62
2 -6 -4 14.15 0.68
-2 6 4 14.19 0.65
-2 6 4 14.35 0.75
1 -6 -4 14.94 0.68
1 -6 -4 14.35 0.63
1 -6 -4 13.99 0.78
1 -6 -4 14.6 0.67
-1 6 4 13.32 0.74
-1 6 4 14.65 0.69
-1 6 4 14.76 0.81
0 -6 -4 8.31 0.5
0 -6 -4 7.99 0.59
0 6 4 9.53 0.75
0 6 4 9.35 0.56
-1 -6 -4 4.28 0.36
-1 -6 -4 4.96 0.62
1 6 4 3.9 0.5
1 9 -5 16.95 0.83
-1 -9 5 17.2 0.74
-1 -9 5 17.82 0.71
-1 -9 5 19.3 0.8
0 9 -5 28.24 1.09
0 -9 5 28.23 1.02
0 -9 5 24.91 1.12
0 -9 5 29.29 1.15
-1 9 -5 10.45 0.59
1 -9 5 9.78 0.72
1 -9 5 11 0.47
1 -9 5 10.36 0.65
-2 9 -5 7.1 0.41
-2 9 -5 7.44 0.59
2 -9 5 7.42 0.5
2 -9 5 7.63 0.38
3 -9 5 1.06 0.36
3 -9 5 1.38 0.18
3 -9 5 1.23 0.23
-3 -8 5 5.88 0.4
-3 -8 5 6.03 0.39
2 8 -5 0.64 0.33
2 8 -5 1.18 0.45
-2 -8 5 0.65 0.22
-2 -8 5 0.57 0.23
-2 -8 5 0.55 0.19
1 8 -5 2.5 0.32
1 8 -5 2.7 0.58
-1 -8 5 3.63 0.41
-1 -8 5 3.79 0.4
-1 -8 5 2.69 0.34
0 8 -5 2.75 0.41
0 8 -5 2.94 0.42
0 -8 5 2.8 0.33
0 -8 5 3.14 0.5
0 -8 5 1.98 0.38
0 -8 5 1.97 0.29
-1 8 -5 32.15 1.27
-1 8 -5 33.48 1.41
1 -8 5 31.46 1.25
1 -8 5 30.42 1.33
1 -8 5 33.14 1.21
1 -8 5 31.74 1.27
1 -8 5 33.05 1.33
-2 8 -5 4.62 0.46
-2 8 -5 4.84 0.74
2 -8 5 4.39 0.48
2 -8 5 4.57 0.52
2 -8 5 4.91 0.73
-3 8 -5 3.25 0.36
-3 8 -5 3.16 0.48
3 -8 5 3.16 0.44
3 -8 5 3.41 0.43
-4 8 -5 2.53 0.29
4 -8 5 2.4 0.36
4 -8 5 2.67 0.4
-4 -7 5 3.3 0.35
-4 -7 5 3.62 0.58
3 7 -5 1.77 0.48
-3 -7 5 0.83 0.24
-3 -7 5 0.72 0.3
2 7 -5 29.47 1.24
2 7 -5 28.61 1.23
-2 -7 5 30.35 1.16
1 7 -5 9.2 0.64
1 7 -5 9.21 0.61
1 7 -5 9.88 0.89
-1 -7 5 8.97 0.6
-1 -7 5 9.25 0.52
-1 -7 5 9.22 0.57
0 7 -5 3.14 0.44
0 7 -5 2.34 0.39
0 7 -5 2.6 0.45
0 -7 5 3.28 0.44
0 -7 5 3.39 0.48
0 -7 5 2.4 0.43
0 -7 5 3 0.46
0 -7 5 2.19 0.33
-1 7 -5 11.28 0.63
-1 7 -5 9.73 2.43
-1 7 -5 10.56 0.68
-1 7 -5 11.07 0.74
1 -7 5 10.39 0.64
1 -7 5 10.65 0.63
1 -7 5 10.11 0.72
1 -7 5 11.42 0.69
1 -7 5 10.51 0.77
-2 7 -5 1.4 0.3
-2 7 -5 1.78 0.4
-2 7 -5 1.13 0.28
2 -7 5 1.19 0.34
2 -7 5 2.13 0.31
2 -7 5 1.45 0.31
2 -7 5 1.84 0.32
-3 7 -5 19.1 0.92
-3 7 -5 18.92 1.34
-3 7 -5 19.31 0.9
-4 7 -5 22.32 0.92
-4 7 -5 18.77 1.17
-4 7 -5 20.87 0.96
-4 7 -5 23.4 1.09
4 -7 5 23.22 0.98
4 -7 5 21.99 0.99
-5 7 -5 4.01 0.48
-5 7 -5 3.56 0.5
-5 7 -5 4.59 0.74
5 -7 5 3.18 0.4
5 -7 5 4.31 0.53
-5 -6 5 16.18 0.72
4 6 -5 1.53 0.67
-4 -6 5 1.5 0.29
-4 -6 5 1.4 0.29
3 6 -5 2.85 0.45
3 6 -5 3.96 0.6
3 6 -5 4.44 1.15
-3 -6 5 3.78 0.44
-3 -6 5 3.89 0.45
2 6 -5 31.92 3.22
2 6 -5 32.02 1.37
2 6 -5 33.12 1.32
-2 -6 5 31.86 1.56
-2 -6 5 33.74 1.31
-2 -6 5 33.04 1.34
-2 -6 5 33.31 1.35
-2 -6 5 32.12 1.27
1 6 -5 50.74 1.91
1 6 -5 54.32 1.93
1 6 -5 53.88 1.91
-1 -6 5 48.68 1.87
-1 -6 5 55.13 2.01
-1 -6 5 53.58 2.17
-1 -6 5 49.05 1.92
-1 -6 5 48.87 1.92
-1 -6 5 49.43 2.13
0 6 -5 23.69 0.98
0 6 -5 22.33 0.98
0 6 -5 23.73 0.98
0 -6 5 22.16 1.1
0 -6 5 22.57 1.01
0 -6 5 21.42 0.98
0 -6 5 22.51 1.02
0 -6 5 22.82 0.98
-1 6 -5 4.88 0.48
-1 6 -5 5.66 0.48
-1 6 -5 5.07 0.45
1 -6 5 6.09 0.51
1 -6 5 5.65 0.59
1 -6 5 5.4 0.57
1 -6 5 4.65 0.72
1 -6 5 4.86 0.5
-2 6 -5 27.26 1.17
-2 6 -5 25.57 1.94
-2 6 -5 28.13 1.12
-2 6 -5 26.94 1.09
2 -6 5 26.38 1.35
2 -6 5 25.52 1.17
-3 6 -5 33.62 1.28
-3 6 -5 25.42 2.21
-3 6 -5 28.55 1.44
-3 6 -5 31.32 1.46
-3 6 -5 31.33 1.54
-3 6 -5 32.26 1.27
3 -6 5 31.96 1.31
3 -6 5 32.43 1.35
3 -6 5 31.51 1.29
-4 6 -5 2.81 0.33
4 -6 5 2.11 0.41
4 -6 5 2.08 0.32
4 -6 5 2.48 0.45
-5 6 -5 0.33 0.32
-5 6 -5 -0.16 0.31
-5 6 -5 0.22 0.22
-5 6 -5 0.35 0.24
5 -6 5 0.1 0.26
5 -6 5 0.1 0.36
5 -6 5 0.21 0.23
-6 6 -5 0.58 0.25
-6 6 -5 0.41 0.26
6 -6 5 0.17 0.49
6 -6 5 0.31 0.21
-6 -5 5 1.41 0.26
-5 -5 5 0.34 0.26
-5 -5 5 0.84 0.45
-5 -5 5 0.17 0.24
4 5 -5 7.16 0.68
4 5 -5 5.91 0.8
-4 -5 5 5.94 0.52
-4 -5 5 6.45 0.89
-4 -5 5 6.28 0.67
-4 -5 5 6.02 0.53
3 5 -5 29.98 1.23
3 5 -5 29.8 1.74
3 5 -5 31.14 1.32
3 5 -5 31.17 2.03
-3 -5 5 31.6 1.26
-3 -5 5 30.17 1.24
-3 -5 5 32 2.69
-3 -5 5 29.21 1.25
2 5 -5 20.06 0.84
2 5 -5 18.66 0.86
-2 -5 5 16.54 0.93
-2 -5 5 16.89 0.89
-2 -5 5 18.66 1.11
-2 -5 5 19.18 0.86
-2 -5 5 19.97 2.01
-2 -5 5 18.48 0.86
1 5 -5 17.37 1.13
1 5 -5 19.39 0.8
-1 -5 5 17.27 0.83
-1 -5 5 17.51 0.83
-1 -5 5 18.02 1.72
-1 -5 5 16.62 1.07
-1 -5 5 15.91 0.83
0 5 -5 2.09 0.61
0 5 -5 2.14 0.36
0 5 -5 2.03 0.33
0 -5 5 2.03 0.3
0 -5 5 2 0.44
0 -5 5 2.22 0.3
0 -5 5 2.33 0.86
0 -5 5 2.53 0.51
0 -5 5 1.23 0.43
-1 5 -5 13.58 0.67
-1 5 -5 14.61 0.68
-1 5 -5 12.43 2
-1 5 -5 14.33 0.69
-1 5 -5 14.21 1.2
1 -5 5 15.26 0.78
1 -5 5 14.11 0.73
1 -5 5 12.45 0.85
1 -5 5 14 0.76
-2 5 -5 -1.28 2.43
-2 5 -5 1.21 0.23
-2 5 -5 0.57 0.59
-2 5 -5 1.08 0.24
-2 5 -5 0.53 0.62
2 -5 5 0.93 0.28
2 -5 5 0.87 0.32
2 -5 5 1.14 0.34
2 -5 5 1.3 0.34
-3 5 -5 62.95 2.2
-3 5 -5 58.94 2.75
-3 5 -5 55.81 2.57
-3 5 -5 59.78 2.27
-3 5 -5 58.63 2.16
-3 5 -5 61.47 2.32
3 -5 5 61.6 2.28
3 -5 5 59.02 2.3
3 -5 5 59.29 2.24
3 -5 5 57.93 2.19
3 -5 5 55.8 2.7
-4 5 -5 40.98 2.62
-4 5 -5 47.27 1.73
-4 5 -5 45.56 1.71
-4 5 -5 46.91 1.83
-4 5 -5 44.8 1.93
-4 5 -5 46.81 1.76
4 -5 5 43.27 1.86
4 -5 5 39.56 2.54
4 -5 5 45.48 1.76
4 -5 5 46.26 1.85
-5 5 -5 11.18 0.62
-5 5 -5 9.87 0.72
-5 5 -5 9.09 0.58
-5 5 -5 10.42 1.07
5 -5 5 9.47 0.99
5 -5 5 9 0.66
5 -5 5 8.86 0.55
-6 5 -5 7.66 0.51
6 -5 5 8 0.45
6 -5 5 7.77 0.58
-6 -4 5 5.57 0.41
-6 -4 5 4.97 0.76
-6 -4 5 5.64 0.56
5 4 -5 2.51 0.44
-5 -4 5 -2.42 2.14
-5 -4 5 2.29 0.41
-5 -4 5 1.42 0.5
-5 -4 5 1.66 0.32
4 4 -5 14.2 1.58
4 4 -5 13.04 0.83
4 4 -5 14.27 2.24
4 4 -5 13.29 0.74
-4 -4 5 13.06 0.72
-4 -4 5 11.81 1
-4 -4 5 12.09 0.79
-4 -4 5 13.46 0.97
-4 -4 5 13.82 0.7
-4 -4 5 12.47 2.17
3 4 -5 67.02 2.68
3 4 -5 67.24 2.33
3 4 -5 65.75 2.33
-3 -4 5 64.55 2.36
-3 -4 5 62.11 2.51
-3 -4 5 64.57 2.34
-3 -4 5 59.78 2.51
-3 -4 5 62.08 2.34
-3 -4 5 65.7 3.02
2 4 -5 20.12 2.45
2 4 -5 21.6 1.22
2 4 -5 22.09 0.92
2 4 -5 22.64 0.9
-2 -4 5 20.44 0.98
-2 -4 5 22.7 1.66
-2 -4 5 21.92 1.16
-2 -4 5 21.04 0.96
-2 -4 5 22.26 0.96
1 4 -5 1.49 0.23
1 4 -5 1.8 0.58
1 4 -5 2.65 1
1 4 -5 1.95 0.45
1 4 -5 1.53 0.22
-1 -4 5 1.62 0.29
-1 -4 5 1.25 0.38
-1 -4 5 1.81 0.38
-1 -4 5 2 0.32
-1 -4 5 1.99 0.31
0 4 -5 3.21 0.34
0 4 -5 4.87 1.12
0 4 -5 2.57 0.63
0 4 -5 3.1 0.59
0 4 -5 3.36 0.78
0 4 -5 3.48 0.32
0 -4 5 3.12 0.52
0 -4 5 2.66 0.44
0 -4 5 3.7 0.55
0 -4 5 3.45 0.59
0 -4 5 3.25 0.63
0 -4 5 2.7 0.49
-1 4 -5 24.47 0.95
-1 4 -5 23.6 0.96
-1 4 -5 23.66 1.17
-1 4 -5 24.35 1.3
-1 4 -5 22.2 1.38
-1 4 -5 23.72 0.96
1 -4 5 22.77 1.11
1 -4 5 22.87 1
1 -4 5 22.57 1.07
1 -4 5 25.04 1.03
-2 4 -5 31.04 1.16
-2 4 -5 29.62 1.4
-2 4 -5 27.18 1.43
-2 4 -5 29.16 1.53
-2 4 -5 30.25 1.17
-2 4 -5 30.08 1.58
-2 4 -5 30.34 1.2
-2 4 -5 29.14 1.45
2 -4 5 30.5 1.25
2 -4 5 28.95 1.55
-3 4 -5 9.97 0.75
-3 4 -5 10.47 0.62
-3 4 -5 9.24 0.91
-3 4 -5 11.33 0.85
-3 4 -5 11.17 1.19
-3 4 -5 12.57 0.93
3 -4 5 11.29 0.69
3 -4 5 10.59 0.71
3 -4 5 9.85 0.68
3 -4 5 10.96 1.19
3 -4 5 10.25 0.75
3 -4 5 10.64 0.79
-4 4 -5 25.33 1.13
-4 4 -5 24.39 1.24
-4 4 -5 24.51 1.08
-4 4 -5 24 1.08
-4 4 -5 25.15 1.15
4 -4 5 24.72 1.12
4 -4 5 23.4 1.36
4 -4 5 24.93 1.06
4 -4 5 24.06 1.84
4 -4 5 23.72 1.16
-5 4 -5 6.23 0.82
-5 4 -5 6.37 0.83
-5 4 -5 5.34 0.52
-5 4 -5 5.93 0.61
-5 4 -5 7 0.87
-5 4 -5 6.48 0.49
5 -4 5 6.28 0.57
5 -4 5 7.31 1.32
5 -4 5 4.56 0.78
5 -4 5 5.96 0.62
-6 4 -5 5.66 0.49
-6 4 -5 4.04 0.66
-6 4 -5 5 0.48
-6 4 -5 5.08 0.38
6 -4 5 3.5 0.47
6 -4 5 5.93 0.55
7 -4 5 1.31 0.18
-7 -3 5 10.98 0.5
6 3 -5 15.95 0.85
6 3 -5 18.22 0.94
-6 -3 5 16.44 0.85
-6 -3 5 17.35 0.91
-6 -3 5 18.36 0.93
-6 -3 5 17.31 0.76
5 3 -5 2.22 0.36
5 3 -5 2.68 0.38
-5 -3 5 2.83 0.61
-5 -3 5 1.96 0.32
-5 -3 5 3.31 0.61
-5 -3 5 2.3 0.44
4 3 -5 0.11 0.26
4 3 -5 0.05 0.25
4 3 -5 0.21 0.9
4 3 -5 -0.28 0.67
-4 -3 5 0.07 0.43
-4 -3 5 0.04 0.54
-4 -3 5 0.38 0.39
-4 -3 5 -0.37 0.94
-4 -3 5 0.25 0.34
-4 -3 5 -0.08 0.32
-4 -3 5 0.04 0.21
-4 -3 5 -0.1 0.24
3 3 -5 44.94 1.6
3 3 -5 41.78 3.22
3 3 -5 42.24 1.92
3 3 -5 42.56 1.88
3 3 -5 42.21 1.58
-3 -3 5 45.31 2.21
-3 -3 5 40.58 1.75
-3 -3 5 39.29 1.61
-3 -3 5 39.85 1.76
-3 -3 5 41.7 1.75
-3 -3 5 40.76 1.59
-3 -3 5 42.29 1.62
2 3 -5 12.38 0.85
2 3 -5 12.24 0.61
2 3 -5 12.16 0.58
2 3 -5 11.45 1.85
2 3 -5 12.12 0.85
-2 -3 5 11.7 0.85
-2 -3 5 11.8 0.69
-2 -3 5 12.12 0.95
-2 -3 5 12.32 0.64
-2 -3 5 12.33 0.82
-2 -3 5 11.72 0.77
-2 -3 5 12.68 0.72
-2 -3 5 12.97 1.18
1 3 -5 38.06 1.34
1 3 -5 30.39 2.61
1 3 -5 35.16 1.32
1 3 -5 35.57 2.2
1 3 -5 34.55 1.5
-1 -3 5 38.01 1.76
-1 -3 5 34.38 1.38
-1 -3 5 35.87 1.55
-1 -3 5 33.98 1.38
-1 -3 5 34.18 1.41
-1 -3 5 36.06 1.38
-1 -3 5 36.6 1.4
0 3 -5 48.35 1.89
0 3 -5 45.93 1.68
0 3 -5 45.77 1.83
0 3 -5 45.72 1.67
0 3 -5 48.73 2.85
0 3 -5 44.55 1.88
0 -3 5 48.29 1.95
0 -3 5 43.54 1.71
0 -3 5 42.03 1.77
0 -3 5 46.28 1.77
0 -3 5 47.61 1.74
0 -3 5 45.67 1.84
-1 3 -5 3.54 0.72
-1 3 -5 5.45 0.77
-1 3 -5 4.8 0.67
-1 3 -5 4.9 0.38
-1 3 -5 4.6 0.69
-1 3 -5 4.61 0.36
-1 3 -5 5.5 1.63
-1 3 -5 4.27 0.57
-1 3 -5 4.78 1.11
-1 3 -5 5.37 0.37
1 -3 5 4.22 0.84
1 -3 5 4.45 0.62
1 -3 5 4.56 0.7
1 -3 5 5.03 0.51
1 -3 5 4.72 0.63
1 -3 5 2.67 1.82
1 -3 5 5.35 0.79
1 -3 5 6.13 0.74
1 -3 5 4.77 0.41
-2 3 -5 43.45 1.73
-2 3 -5 43.46 1.78
-2 3 -5 44.79 1.61
-2 3 -5 41.93 1.82
-2 3 -5 46.01 1.92
-2 3 -5 44.41 1.6
-2 3 -5 42.16 1.76
2 -3 5 42.81 1.65
2 -3 5 43.92 1.75
2 -3 5 45.65 1.69
2 -3 5 45.65 1.97
2 -3 5 36.07 3.59
2 -3 5 41.51 1.85
2 -3 5 41.68 1.73
2 -3 5 43.76 1.61
-3 3 -5 0.92 0.23
-3 3 -5 0.78 0.33
-3 3 -5 0.63 0.35
-3 3 -5 1.05 0.29
3 -3 5 1.08 0.27
3 -3 5 1.35 0.52
3 -3 5 0.83 0.28
3 -3 5 1.51 0.27
3 -3 5 0.65 0.53
3 -3 5 0.98 0.32
-4 3 -5 3.84 0.56
-4 3 -5 4.04 0.71
-4 3 -5 3.36 0.6
-4 3 -5 4.69 0.82
-4 3 -5 4.65 0.45
4 -3 5 3.77 0.61
4 -3 5 2.42 0.83
4 -3 5 3.93 0.93
4 -3 5 3.5 0.56
4 -3 5 3.33 0.47
4 -3 5 2.53 0.52
-5 3 -5 51.33 1.97
-5 3 -5 51.8 1.91
-5 3 -5 49.29 1.92
-5 3 -5 49.64 1.85
-5 3 -5 51.07 2.01
-5 3 -5 50.36 1.92
5 -3 5 48.01 2.02
5 -3 5 50.92 1.9
5 -3 5 51.58 1.95
-6 3 -5 1.64 0.34
-6 3 -5 2.44 0.37
-6 3 -5 1.96 0.29
-6 3 -5 2.76 0.57
-6 3 -5 2.21 0.37
6 -3 5 2.04 0.36
6 -3 5 1.13 0.64
6 -3 5 1.91 0.34
-7 3 -5 4.45 0.51
7 2 -5 3.52 0.54
-7 -2 5 4.46 0.33
-7 -2 5 4.43 0.48
6 2 -5 10.63 0.73
6 2 -5 10.77 0.65
-6 -2 5 11.81 0.6
-6 -2 5 15.52 1.98
-6 -2 5 11.26 0.71
-6 -2 5 10.61 0.73
5 2 -5 13.37 0.72
5 2 -5 13.18 0.74
-5 -2 5 12.18 0.84
-5 -2 5 10.91 1.93
-5 -2 5 12.66 0.85
-5 -2 5 12.58 0.72
-5 -2 5 12.26 0.83
-5 -2 5 13.38 0.71
-5 -2 5 13.04 0.67
4 2 -5 2.81 0.43
4 2 -5 2.54 0.43
4 2 -5 2.71 0.63
4 2 -5 2.07 0.38
-4 -2 5 2.52 0.4
-4 -2 5 1.93 0.41
-4 -2 5 1.48 0.43
-4 -2 5 1.68 0.33
-4 -2 5 1.71 0.49
-4 -2 5 2.73 1
-4 -2 5 1.82 0.29
-4 -2 5 1.95 0.31
-4 -2 5 1.69 0.35
3 2 -5 0.01 0.31
3 2 -5 -0.21 0.39
3 2 -5 0.03 0.44
3 2 -5 1.92 1.31
3 2 -5 0.16 0.2
3 2 -5 0.24 0.19
-3 -2 5 -0.16 0.36
-3 -2 5 -0.18 0.31
-3 -2 5 0.24 0.22
-3 -2 5 0.21 0.23
-3 -2 5 0.11 0.72
2 2 -5 102.56 3.54
2 2 -5 103.4 3.74
2 2 -5 104.16 3.54
2 2 -5 100.83 4.28
2 2 -5 108.65 3.76
-2 -2 5 96.76 3.58
-2 -2 5 101.62 3.57
-2 -2 5 98.53 3.57
-2 -2 5 97.59 3.57
-2 -2 5 101.6 3.71
-2 -2 5 101.3 3.68
-2 -2 5 99.98 3.66
1 2 -5 23.62 0.91
1 2 -5 19.67 2.23
1 2 -5 19.34 2.45
1 2 -5 23.07 0.9
1 2 -5 20.97 0.99
1 2 -5 24.56 1.12
1 2 -5 22.67 1.07
-1 -2 5 22.99 0.99
-1 -2 5 21.4 1.25
-1 -2 5 23.09 0.95
-1 -2 5 24.71 0.99
-1 -2 5 22.52 0.99
-1 -2 5 21.45 1.03
-1 -2 5 24.44 1.33
-1 -2 5 22.16 1.1
0 2 -5 19.5 0.92
0 2 -5 22.81 2.17
0 2 -5 20.19 1.03
0 2 -5 19.67 1.78
0 2 -5 20.8 2.14
0 2 -5 21.83 1
0 2 -5 22.12 1.03
0 2 -5 20.7 0.82
0 2 -5 20.79 0.83
0 -2 5 20.57 1.08
0 -2 5 18.29 2.38
0 -2 5 20.38 0.89
0 -2 5 21.73 0.9
0 -2 5 22.82 1.26
0 -2 5 18.98 1
0 -2 5 17.87 2.19
0 -2 5 18.64 0.97
-1 2 -5 57.75 2.07
-1 2 -5 54.18 2.09
-1 2 -5 51.03 3.3
-1 2 -5 51.97 2.06
-1 2 -5 56.19 1.94
-1 2 -5 50.84 1.95
-1 2 -5 55.35 1.95
-1 2 -5 55.71 2.09
-1 2 -5 53.96 2.18
-1 2 -5 50.79 2.94
-1 2 -5 55.63 1.92
1 -2 5 49.99 2.74
1 -2 5 54.61 1.97
1 -2 5 57.32 2.01
1 -2 5 50.05 3.28
1 -2 5 52.21 2.14
1 -2 5 55.68 2.03
1 -2 5 52.94 1.97
1 -2 5 53 3.2
1 -2 5 54.61 2.2
1 -2 5 51.01 1.96
-2 2 -5 72.59 2.73
-2 2 -5 69.92 2.8
-2 2 -5 73.7 2.78
-2 2 -5 73.85 2.67
-2 2 -5 75.57 2.76
-2 2 -5 71.43 2.71
-2 2 -5 72.65 2.74
-2 2 -5 74.83 2.62
2 -2 5 77.59 2.95
2 -2 5 74.03 2.65
2 -2 5 72.88 2.8
2 -2 5 74.47 2.62
2 -2 5 75.7 2.69
2 -2 5 74.46 2.65
2 -2 5 76.96 2.75
2 -2 5 65.28 4.58
-3 2 -5 24.2 1.17
-3 2 -5 22.57 1.02
-3 2 -5 25.45 1.05
-3 2 -5 24.03 1.25
-3 2 -5 25.79 1.13
3 -2 5 19.33 4.16
3 -2 5 23.68 1.01
3 -2 5 23.74 1.63
3 -2 5 24.29 1.29
3 -2 5 24.59 1.54
3 -2 5 25.29 1.05
3 -2 5 25.15 1.09
-4 2 -5 12.68 0.87
-4 2 -5 13.36 0.72
-4 2 -5 13.08 0.77
-4 2 -5 12.76 0.76
-4 2 -5 12.95 0.68
4 -2 5 12.45 1.82
4 -2 5 13.06 0.79
4 -2 5 12.87 1.33
4 -2 5 13.2 0.69
4 -2 5 12.58 0.76
-5 2 -5 5.44 0.52
-5 2 -5 5.85 0.61
-5 2 -5 5.62 0.67
-5 2 -5 5.6 0.42
-5 2 -5 4.93 0.54
-5 2 -5 4.76 0.51
5 -2 5 4.25 0.69
5 -2 5 5.06 0.6
5 -2 5 5.07 0.64
5 -2 5 5.43 0.51
-6 2 -5 1.48 0.29
-6 2 -5 1.81 0.3
-6 2 -5 1.51 0.27
6 -2 5 1.53 0.3
6 -2 5 2.23 0.52
6 -2 5 1.08 0.32
-7 2 -5 14.67 0.69
-7 2 -5 16.11 0.77
7 1 -5 10.85 0.62
-7 -1 5 11.65 0.61
-7 -1 5 11.38 0.54
-7 -1 5 11.49 0.66
6 1 -5 11.06 0.77
6 1 -5 9.8 0.86
6 1 -5 10.33 0.73
6 1 -5 11.78 0.63
-6 -1 5 12.39 0.77
-6 -1 5 8.54 1.74
-6 -1 5 11.99 0.73
-6 -1 5 12.53 0.75
5 1 -5 1.6 0.3
5 1 -5 1.55 0.33
5 1 -5 2.01 0.43
-5 -1 5 1.57 0.3
-5 -1 5 1.68 0.4
-5 -1 5 0.17 1.09
-5 -1 5 2.01 0.39
-5 -1 5 2.06 0.45
-5 -1 5 1.82 0.3
-5 -1 5 1.16 0.6
4 1 -5 7.12 0.5
4 1 -5 6.05 0.77
4 1 -5 7.69 0.96
4 1 -5 7.29 0.53
4 1 -5 7.99 0.54
-4 -1 5 8.25 0.52
-4 -1 5 7.45 0.83
-4 -1 5 7.31 0.61
-4 -1 5 6.52 0.72
-4 -1 5 6.92 1.18
-4 -1 5 6.79 0.51
-4 -1 5 6.18 0.57
-4 -1 5 7.17 0.76
3 1 -5 22.77 0.9
3 1 -5 21.07 1.16
3 1 -5 19.25 1.14
3 1 -5 21.78 1.14
3 1 -5 20.77 0.87
3 1 -5 21.41 0.89
3 1 -5 20.34 2.7
-3 -1 5 18.92 0.96
-3 -1 5 21.09 0.91
-3 -1 5 19.4 1.09
-3 -1 5 23.85 1.59
2 1 -5 0.16 0.42
2 1 -5 0.47 0.93
2 1 -5 0.29 0.29
2 1 -5 0.36 0.17
2 1 -5 0.44 0.2
2 1 -5 0.32 0.17
-2 -1 5 0.46 0.36
-2 -1 5 0.85 0.37
-2 -1 5 0.36 0.25
-2 -1 5 0.1 0.23
-2 -1 5 0.55 0.34
-2 -1 5 0.12 0.29
-2 -1 5 0.35 0.42
-2 -1 5 0.45 0.36
-2 -1 5 0.64 0.29
-2 -1 5 0.46 0.4
1 1 -5 144.7 4.99
1 1 -5 147.12 5.02
1 1 -5 138.83 5.78
1 1 -5 136.78 5.02
1 1 -5 146.37 5.19
1 1 -5 150.68 5.7
1 1 -5 132.71 5.06
1 1 -5 146.9 5.16
-1 -1 5 149.98 5.07
-1 -1 5 146.52 5.03
-1 -1 5 148.23 5.05
-1 -1 5 144.92 5.19
-1 -1 5 145.48 5.04
-1 -1 5 145.33 5.11
-1 -1 5 142.54 5.06
-1 -1 5 151.08 5.12
-1 -1 5 150 5.32
-1 -1 5 143.5 5.03
0 1 -5 9.46 0.48
0 1 -5 7.54 0.88
0 1 -5 9.92 0.87
0 1 -5 9.53 0.64
0 1 -5 13.33 2.33
0 1 -5 10.15 0.7
0 1 -5 8.34 0.68
0 1 -5 9.37 0.5
0 1 -5 9.17 1.47
0 1 -5 10.71 1.79
0 1 -5 10.19 0.86
0 -1 5 9.63 0.63
0 -1 5 8.5 0.74
0 -1 5 9.34 1.47
0 -1 5 8.94 0.56
0 -1 5 10.9 1.44
0 -1 5 8.63 1.26
0 -1 5 10.45 1.88
0 -1 5 9.71 0.54
0 -1 5 9.35 0.63
0 -1 5 9.3 0.58
0 -1 5 9.98 0.6
-1 1 -5 21.45 1.1
-1 1 -5 22.1 0.91
-1 1 -5 22.42 1.05
-1 1 -5 22.69 1.08
-1 1 -5 23.42 1.03
-1 1 -5 25.93 2.94
-1 1 -5 22.27 1.07
-1 1 -5 23.75 1.56
-1 1 -5 21.3 0.93
-1 1 -5 22.93 0.96
-1 1 -5 21.67 1.08
1 -1 5 23.24 1.05
1 -1 5 23.2 0.91
1 -1 5 18.33 1.34
1 -1 5 22.48 0.93
1 -1 5 21 2.76
1 -1 5 24.24 0.97
1 -1 5 21.92 0.97
1 -1 5 20.42 2.75
-2 1 -5 167.42 6.05
-2 1 -5 169.36 5.99
-2 1 -5 176.93 5.95
-2 1 -5 178.37 6.07
-2 1 -5 169.03 6.07
-2 1 -5 170.08 5.97
-2 1 -5 178.53 5.99
-2 1 -5 177.02 6.06
-2 1 -5 172.7 6.04
2 -1 5 171.71 7.16
2 -1 5 183.57 6.06
2 -1 5 184.73 5.99
2 -1 5 172.09 5.99
2 -1 5 173.92 6.19
2 -1 5 176.27 6.01
2 -1 5 156.6 6.17
-3 1 -5 20.23 0.88
-3 1 -5 22.26 2.24
-3 1 -5 20.23 0.81
-3 1 -5 18.64 1.03
-3 1 -5 20.33 0.93
-3 1 -5 20.66 1.01
-3 1 -5 20.27 1.07
-3 1 -5 20.27 1
3 -1 5 18.94 4.15
3 -1 5 19.4 0.95
3 -1 5 19.42 1.17
3 -1 5 18.52 0.98
3 -1 5 20.19 0.96
3 -1 5 18.36 0.86
-4 1 -5 202.46 6.92
-4 1 -5 196.75 6.96
-4 1 -5 196.06 6.92
-4 1 -5 208.25 7.03
-4 1 -5 209.56 7
-4 1 -5 199.53 7.11
4 -1 5 207.29 7.02
4 -1 5 212.65 6.98
4 -1 5 189.49 7.22
4 -1 5 197.47 7.06
-5 1 -5 5.43 0.61
-5 1 -5 5.66 0.65
-5 1 -5 5.82 0.5
5 -1 5 5.12 0.63
5 -1 5 4.95 0.52
5 -1 5 5.07 0.77
-6 1 -5 0.59 0.24
-6 1 -5 1.23 0.46
-6 1 -5 0.87 0.34
-6 1 -5 0.68 0.29
-6 1 -5 0.53 0.23
6 -1 5 0.23 0.26
6 -1 5 0.45 0.31
6 -1 5 0.87 0.43
7 0 -5 12.48 0.92
7 0 -5 12.12 0.63
-7 0 5 12.12 0.59
-7 0 5 12.28 0.67
-7 0 5 12.5 0.64
6 0 -5 21.09 0.97
6 0 -5 20.85 1.02
6 0 -5 20.25 0.92
6 0 -5 21.55 0.92
-6 0 5 21.54 0.91
-6 0 5 21.76 1.03
-6 0 5 22.31 0.9
-6 0 5 22.35 1.07
-6 0 5 21.04 0.9
-6 0 5 20.97 0.98
5 0 -5 4.21 0.59
5 0 -5 3.52 0.45
5 0 -5 3.23 0.52
5 0 -5 3.62 0.46
-5 0 5 3.63 0.71
-5 0 5 3.39 0.48
-5 0 5 3.26 1.21
-5 0 5 3.5 0.62
-5 0 5 3.55 0.53
-5 0 5 4.12 0.55
-5 0 5 4.07 0.45
-5 0 5 3.98 0.45
4 0 -5 17.19 1.37
4 0 -5 20.01 0.91
4 0 -5 19.34 0.85
4 0 -5 21.01 0.86
4 0 -5 19.61 1.27
4 0 -5 19.39 0.96
-4 0 5 19.34 1.06
-4 0 5 18.6 1.05
-4 0 5 17.09 1.31
-4 0 5 18.33 1.11
-4 0 5 19.93 0.87
-4 0 5 19.09 0.9
-4 0 5 20.5 1.84
-4 0 5 18.74 0.9
-4 0 5 19.57 0.88
3 0 -5 23.58 1.27
3 0 -5 24.44 0.97
3 0 -5 24.34 1.29
3 0 -5 25.18 1.01
3 0 -5 24.72 3.44
3 0 -5 23.16 1.07
3 0 -5 23.08 0.97
-3 0 5 23.87 1.01
-3 0 5 22.93 1.18
-3 0 5 23.94 1.21
-3 0 5 24.45 1.16
-3 0 5 23.52 1.06
-3 0 5 24.2 1.02
-3 0 5 22.94 1.29
-3 0 5 23.91 1.04
-3 0 5 22.75 1.65
2 0 -5 22.13 0.91
2 0 -5 22.37 1.12
2 0 -5 21.42 1.04
2 0 -5 23.16 0.93
2 0 -5 23.37 0.91
2 0 -5 21.92 1.13
2 0 -5 22.25 1.45
2 0 -5 19.64 2.67
-2 0 5 23.13 1.12
-2 0 5 22.07 0.99
-2 0 5 23.56 1.36
-2 0 5 22.85 1.22
-2 0 5 22.22 1.13
-2 0 5 22.21 0.97
-2 0 5 21.76 1.03
-2 0 5 22.35 1.04
-2 0 5 22.2 0.98
1 0 -5 20.44 3.26
1 0 -5 25.47 1.14
1 0 -5 24.01 2.48
1 0 -5 25.79 0.99
1 0 -5 23.55 1.31
1 0 -5 26.28 1.03
1 0 -5 24.82 0.98
1 0 -5 26.61 1.2
1 0 -5 26.45 1.19
-1 0 5 27.1 1.51
-1 0 5 26.27 1.23
-1 0 5 23.01 3.05
-1 0 5 22.39 1.18
-1 0 5 22.6 1.71
-1 0 5 24.38 1.18
-1 0 5 26.71 1.12
-1 0 5 26.62 1.07
-1 0 5 27.27 1.19
-1 0 5 25.29 1.08
-1 0 5 25.05 1.11
0 0 -5 20.36 1.05
0 0 -5 19.63 1.09
0 0 -5 19.45 1.3
0 0 -5 19.7 0.97
0 0 -5 19.12 0.84
0 0 -5 19.7 0.94
0 0 -5 19.51 1
0 0 -5 20.16 0.81
0 0 -5 15.61 2.38
0 0 5 20.05 0.87
0 0 5 15.82 1.16
0 0 5 19.35 1.11
0 0 5 20.35 0.98
0 0 5 20.02 0.86
0 0 5 19.63 0.83
0 0 5 20.23 0.97
0 0 5 20.88 0.93
-1 0 -5 20.3 0.83
-1 0 -5 19.68 1.08
-1 0 -5 18.13 0.96
-1 0 -5 19.1 1.05
-1 0 -5 20.95 0.89
-1 0 -5 18.58 0.89
-1 0 -5 18.43 1.07
-1 0 -5 18.47 0.98
1 0 5 16.85 2.55
1 0 5 20.07 1.03
1 0 5 20.23 0.87
1 0 5 20.56 1.3
1 0 5 21.5 1.4
1 0 5 19.93 0.94
1 0 5 19.79 0.83
-2 0 -5 3.49 0.6
-2 0 -5 2.77 0.37
-2 0 -5 2.72 0.37
-2 0 -5 3.14 0.42
-2 0 -5 3.06 0.47
2 0 5 3.35 0.36
2 0 5 2.39 0.47
2 0 5 2.47 0.37
2 0 5 3.38 1.86
2 0 5 3.5 0.53
2 0 5 2.74 0.41
-3 0 -5 138.57 5.99
-3 0 -5 148.28 5.16
-3 0 -5 141.19 5.01
-3 0 -5 139.7 5.09
-3 0 -5 145.82 4.99
-3 0 -5 146.03 5.1
-3 0 -5 151.87 5.12
3 0 5 145.94 5.12
3 0 5 147.64 5.09
3 0 5 145.09 5.05
3 0 5 144.06 5.06
-4 0 -5 34.33 1.43
-4 0 -5 33.97 1.36
-4 0 -5 33.89 1.25
-4 0 -5 33.47 1.39
-4 0 -5 36.23 1.51
-4 0 -5 35.4 1.28
4 0 5 28.06 1.95
4 0 5 30.17 1.5
4 0 5 34.6 1.4
4 0 5 34.92 1.35
-5 0 -5 21.2 1.02
-5 0 -5 21.7 1.07
-5 0 -5 22.21 0.97
-5 0 -5 22.84 1.14
-5 0 -5 21.68 0.86
-5 0 -5 22.78 0.99
-5 0 -5 20.16 0.93
5 0 5 21.94 0.96
5 0 5 19.98 1.6
5 0 5 21.15 1.06
-6 0 -5 6.09 0.44
-6 0 -5 5.55 0.61
-6 0 -5 6.37 0.46
-6 0 -5 7.67 0.89
6 0 5 5.91 0.93
6 0 5 7.04 0.53
7 -1 -5 28.17 1.12
-7 1 5 32.57 1.18
-7 1 5 26.21 1.17
6 -1 -5 5.76 0.76
6 -1 -5 5.35 0.5
6 -1 -5 5.9 0.49
6 -1 -5 4.92 0.47
-6 1 5 5.73 0.67
-6 1 5 5.52 0.48
-6 1 5 5.47 0.57
-6 1 5 6.24 0.43
5 -1 -5 18.83 0.9
5 -1 -5 19.2 0.85
5 -1 -5 16.91 0.96
5 -1 -5 18.13 0.83
5 -1 -5 16.72 1.88
-5 1 5 17.48 1.13
-5 1 5 18.7 0.97
-5 1 5 18.76 0.83
-5 1 5 20.25 0.92
-5 1 5 17.99 0.93
-5 1 5 17.98 0.85
-5 1 5 21.66 1.06
-5 1 5 18.57 2.56
4 -1 -5 123.98 4.31
4 -1 -5 125.64 4.31
4 -1 -5 138.57 4.31
4 -1 -5 117.8 4.66
4 -1 -5 104.26 4.92
4 -1 -5 122.69 4.6
4 -1 -5 128.23 4.28
-4 1 5 119.18 5
-4 1 5 118 4.3
-4 1 5 124.3 4.28
-4 1 5 120.58 4.29
-4 1 5 122.1 4.39
-4 1 5 125.18 4.4
-4 1 5 123.42 4.27
-4 1 5 120.97 4.44
-4 1 5 116.66 4.49
3 -1 -5 4.84 0.44
3 -1 -5 5.59 0.58
3 -1 -5 5 0.43
3 -1 -5 5.39 0.56
-3 1 5 4.84 1.05
-3 1 5 4.46 0.57
-3 1 5 4.45 0.96
-3 1 5 4.17 0.56
-3 1 5 5.55 0.71
-3 1 5 4.73 0.49
-3 1 5 5.36 0.49
-3 1 5 4.84 0.68
2 -1 -5 67.92 2.56
2 -1 -5 72.17 2.78
2 -1 -5 70.57 2.53
2 -1 -5 70.14 2.77
2 -1 -5 73.4 2.58
2 -1 -5 69.16 2.51
-2 1 5 74.34 3.11
-2 1 5 70.39 2.63
-2 1 5 71.91 2.57
-2 1 5 70.98 2.67
-2 1 5 69.31 2.76
-2 1 5 66.99 2.59
-2 1 5 72.21 2.67
1 -1 -5 9.45 0.8
1 -1 -5 11.22 1
1 -1 -5 9.71 0.78
1 -1 -5 9.1 0.65
1 -1 -5 9.6 0.72
1 -1 -5 9.92 0.76
1 -1 -5 9.43 0.52
-1 1 5 9.61 0.64
-1 1 5 9.11 0.57
-1 1 5 9.73 1.34
-1 1 5 8.69 0.67
-1 1 5 8.1 0.77
-1 1 5 9.62 0.87
-1 1 5 11.24 2.24
0 -1 -5 0.76 0.29
0 -1 -5 0.92 0.23
0 -1 -5 0.84 0.38
0 -1 -5 0.22 0.32
0 -1 -5 0.67 0.41
0 -1 -5 0.86 0.43
0 1 5 1.12 0.26
0 1 5 0.87 0.8
0 1 5 0.75 0.34
0 1 5 0.97 0.23
0 1 5 1.25 0.33
0 1 5 0.57 0.43
0 1 5 0.13 0.56
0 1 5 1.1 0.33
0 1 5 1.72 1.87
-1 -1 -5 56.62 2.79
-1 -1 -5 58.42 2.29
-1 -1 -5 57.05 2.05
-1 -1 -5 57.12 2.04
-1 -1 -5 56.64 2.11
-1 -1 -5 57.61 2.11
-1 -1 -5 54.15 2.32
-1 -1 -5 55.91 2.04
-1 -1 -5 54.49 2.22
1 1 5 58.15 2.06
1 1 5 49.66 2.25
1 1 5 55.48 2.1
1 1 5 54.78 2.16
1 1 5 55.22 2.26
1 1 5 57.41 2.08
-2 -1 -5 24.15 1.11
-2 -1 -5 23.76 1.03
-2 -1 -5 24.26 1.01
-2 -1 -5 23.06 0.98
-2 -1 -5 23.99 1.24
-2 -1 -5 25.07 1.12
-2 -1 -5 24.18 2.35
-2 -1 -5 24.3 0.98
-2 -1 -5 24.91 1.13
2 1 5 23.73 1.18
2 1 5 24.64 1.18
2 1 5 24.04 1.07
2 1 5 25.32 1.03
2 1 5 25.95 1.41
-3 -1 -5 36.5 1.33
-3 -1 -5 37.39 1.47
-3 -1 -5 28.38 3.49
-3 -1 -5 35.3 1.31
-3 -1 -5 35.97 1.46
-3 -1 -5 36.09 1.48
3 1 5 34.49 1.42
3 1 5 36.12 1.44
3 1 5 35.72 1.91
3 1 5 32.08 1.63
-4 -1 -5 27.07 1.17
-4 -1 -5 26.4 1.13
-4 -1 -5 26.42 1.2
-4 -1 -5 25.13 1.01
-4 -1 -5 24.88 1.13
-4 -1 -5 26 1.32
4 1 5 25.76 1.17
4 1 5 27.58 1.14
-5 -1 -5 4.86 0.34
-5 -1 -5 5.21 0.72
-5 -1 -5 5.22 0.48
-5 -1 -5 6.14 0.48
-5 -1 -5 4.71 0.5
-5 -1 -5 4.39 0.64
5 1 5 3.51 0.51
5 1 5 4.74 0.65
-6 -1 -5 1.98 0.25
-6 -1 -5 1.77 0.27
-6 -1 -5 2.11 0.33
6 1 5 2.43 0.43
6 1 5 1.53 0.33
6 -2 -5 2.91 0.39
6 -2 -5 3.16 0.43
-6 2 5 2.95 0.33
-6 2 5 2.16 0.5
-6 2 5 3.07 0.37
-6 2 5 3.67 0.53
5 -2 -5 13.09 0.74
5 -2 -5 12.89 0.65
5 -2 -5 12.87 2.1
5 -2 -5 14.5 0.73
-5 2 5 13.14 0.85
-5 2 5 13.93 0.7
-5 2 5 13.37 0.72
-5 2 5 10.93 1.74
-5 2 5 13.06 1.04
-5 2 5 13.26 0.67
-5 2 5 13.47 0.83
4 -2 -5 3.16 0.56
4 -2 -5 2.75 0.47
4 -2 -5 3.36 0.56
4 -2 -5 3.43 0.41
4 -2 -5 1.75 1.11
-4 2 5 3.03 0.69
-4 2 5 2.88 0.43
-4 2 5 2.9 0.47
-4 2 5 1.88 0.62
-4 2 5 3.63 0.64
-4 2 5 3.08 0.5
3 -2 -5 105.01 4.22
3 -2 -5 114.76 4.06
3 -2 -5 119.46 4.41
3 -2 -5 124.01 4.09
3 -2 -5 113.99 4.46
3 -2 -5 117.66 4.2
3 -2 -5 118.1 4.12
-3 2 5 112.71 4.12
-3 2 5 109.4 4.43
-3 2 5 116.02 4.07
-3 2 5 112.66 4.27
-3 2 5 134.14 4.53
2 -2 -5 4.82 0.84
2 -2 -5 4.23 0.4
2 -2 -5 5.96 1.54
2 -2 -5 4.94 0.52
2 -2 -5 4.29 0.64
2 -2 -5 4.59 0.53
-2 2 5 4.53 0.67
-2 2 5 4.4 0.62
-2 2 5 5.46 0.97
-2 2 5 4.35 0.68
-2 2 5 4.99 0.75
-2 2 5 4.44 0.49
-2 2 5 4.68 0.89
1 -2 -5 50.34 2.08
1 -2 -5 53.45 2.22
1 -2 -5 50.37 2.23
1 -2 -5 50.56 2.96
1 -2 -5 53.3 1.99
1 -2 -5 53.22 2.02
1 -2 -5 55.11 1.94
1 -2 -5 51.98 1.93
1 -2 -5 52.35 2.03
-1 2 5 52.46 2.11
-1 2 5 50.87 2.24
-1 2 5 54.98 2.08
-1 2 5 53.24 1.97
-1 2 5 51.73 1.93
0 -2 -5 3.08 0.59
0 -2 -5 2.09 1.15
0 -2 -5 1.69 0.3
0 -2 -5 2.95 0.41
0 -2 -5 1.44 0.23
0 -2 -5 2.13 0.54
0 -2 -5 1.21 0.61
0 -2 -5 2.09 0.33
0 2 5 2.05 0.36
0 2 5 1.87 0.34
0 2 5 2.48 0.48
0 2 5 1.57 0.46
0 2 5 1.46 0.53
0 2 5 2.45 0.4
-1 -2 -5 20.02 1.25
-1 -2 -5 20.74 0.88
-1 -2 -5 20.07 0.97
-1 -2 -5 21.46 0.98
-1 -2 -5 19.79 1.57
-1 -2 -5 20.56 0.89
-1 -2 -5 20.43 2.34
-1 -2 -5 20 0.89
-1 -2 -5 21.26 0.99
-1 -2 -5 20 0.87
1 2 5 20.1 0.89
1 2 5 19.8 1.19
1 2 5 19.26 1.08
1 2 5 21.33 0.96
1 2 5 18.34 1.26
-2 -2 -5 73.53 2.73
-2 -2 -5 74.07 4.29
-2 -2 -5 74.76 2.66
-2 -2 -5 74.69 2.61
-2 -2 -5 77.55 2.7
-2 -2 -5 76.04 2.73
-2 -2 -5 72.7 2.73
-2 -2 -5 71.28 2.81
-2 -2 -5 73.99 2.61
2 2 5 69.87 2.83
-3 -2 -5 19.49 0.78
-3 -2 -5 18.23 0.9
-3 -2 -5 17.97 1.26
-3 -2 -5 17.81 0.89
-3 -2 -5 18.72 0.92
3 2 5 17.97 0.87
3 2 5 17.56 1.21
3 2 5 16.58 0.92
-4 -2 -5 8.15 1.13
-4 -2 -5 8.86 0.46
-4 -2 -5 9.2 0.61
-4 -2 -5 9.82 0.62
-4 -2 -5 8.55 0.61
4 2 5 9.14 1.32
4 2 5 8.19 0.62
4 2 5 7.39 0.69
-5 -2 -5 8.96 0.55
-5 -2 -5 9.44 0.53
-5 -2 -5 9.82 0.55
-5 -2 -5 9.64 0.44
5 2 5 9.92 0.62
6 -3 -5 6.3 0.42
6 -3 -5 6.56 0.45
-6 3 5 7.24 0.44
-6 3 5 6.24 0.4
5 -3 -5 20.93 0.87
5 -3 -5 19.28 0.84
5 -3 -5 19.21 1.27
-5 3 5 20.72 0.84
-5 3 5 20.49 0.88
-5 3 5 19.07 0.86
-5 3 5 19.06 0.94
4 -3 -5 5.4 0.77
4 -3 -5 4.28 0.95
4 -3 -5 3.95 0.42
4 -3 -5 3.5 0.59
-4 3 5 5.26 0.61
-4 3 5 5.77 0.5
-4 3 5 3.89 0.45
-4 3 5 2.65 0.81
3 -3 -5 10.33 0.77
3 -3 -5 9.07 0.55
3 -3 -5 9.07 0.59
3 -3 -5 7.77 1.2
3 -3 -5 9.8 0.61
-3 3 5 9.56 0.69
-3 3 5 9.21 0.59
-3 3 5 9.14 1.09
-3 3 5 10.14 0.76
-3 3 5 9.71 0.7
2 -3 -5 100.14 3.51
2 -3 -5 101.22 3.44
2 -3 -5 84.8 6.23
2 -3 -5 100.33 3.48
2 -3 -5 97.23 3.42
-2 3 5 95.09 3.66
-2 3 5 97.97 3.46
-2 3 5 98.44 3.56
-2 3 5 101.67 3.56
-2 3 5 91.97 3.89
-2 3 5 93.69 3.45
1 -3 -5 4.42 1.96
1 -3 -5 3.14 0.49
1 -3 -5 2.96 0.39
1 -3 -5 2.91 0.68
-1 3 5 3.65 0.74
-1 3 5 3.45 0.66
-1 3 5 3.18 0.49
-1 3 5 2.31 0.34
-1 3 5 3.11 0.79
0 -3 -5 1.37 0.25
0 -3 -5 1.49 1.81
0 -3 -5 1.13 0.24
0 -3 -5 0.41 0.61
0 -3 -5 1.01 0.31
0 -3 -5 1.35 0.34
0 -3 -5 1.31 0.27
0 -3 -5 1.16 0.32
0 -3 -5 1.08 0.3
0 3 5 0.71 0.32
0 3 5 0.8 0.35
0 3 5 1.05 0.43
0 3 5 0.98 0.44
0 3 5 1.16 0.28
0 3 5 0.44 0.69
-1 -3 -5 23.18 0.93
-1 -3 -5 24.05 1.07
-1 -3 -5 23.9 0.98
-1 -3 -5 22.37 0.98
-1 -3 -5 24.43 1.07
-1 -3 -5 23.89 1.05
-1 -3 -5 24.52 1
1 3 5 20.93 1.79
1 3 5 19.65 1.52
1 3 5 23.48 1.09
1 3 5 23.49 1.01
-2 -3 -5 9.6 0.6
-2 -3 -5 9.53 0.67
-2 -3 -5 11.17 0.65
-2 -3 -5 9.42 0.65
-2 -3 -5 9.7 0.54
2 3 5 10.16 0.62
2 3 5 10.7 1.12
-3 -3 -5 52.5 2.01
-3 -3 -5 53.41 2.01
-3 -3 -5 55.01 2.02
-3 -3 -5 55.97 2.03
-3 -3 -5 54.55 1.91
3 3 5 52.15 2.05
3 3 5 49.1 2.4
3 3 5 53.86 1.99
3 3 5 55.2 1.98
-4 -3 -5 8.4 0.52
-4 -3 -5 8.17 0.41
-4 -3 -5 8.05 0.51
4 3 5 7.46 0.79
4 3 5 7.93 0.58
5 -4 -5 7.54 0.49
5 -4 -5 7.43 0.45
5 -4 -5 7.76 0.94
-5 4 5 7.45 0.51
-5 4 5 7.86 0.55
-5 4 5 6.84 0.51
-5 4 5 7.56 0.58
4 -4 -5 7.27 0.64
4 -4 -5 6.94 0.47
4 -4 -5 7.56 0.51
4 -4 -5 6.49 0.57
-4 4 5 7.39 0.64
-4 4 5 7.25 0.46
-4 4 5 6.49 0.68
-4 4 5 6.86 0.56
3 -4 -5 3.91 0.92
3 -4 -5 4 0.44
3 -4 -5 5.26 0.59
3 -4 -5 3.9 0.48
3 -4 -5 3.88 0.46
-3 4 5 5.07 0.45
-3 4 5 5.91 0.97
-3 4 5 4.94 0.55
-3 4 5 4.64 0.8
2 -4 -5 8 0.65
2 -4 -5 9.03 1.32
2 -4 -5 8.25 0.7
2 -4 -5 8.64 0.54
2 -4 -5 8.07 0.52
2 -4 -5 9.37 0.6
-2 4 5 9.29 0.8
-2 4 5 7.91 0.74
-2 4 5 8.43 0.59
-2 4 5 7.54 1.2
-2 4 5 6.84 1.2
1 -4 -5 4.87 0.48
1 -4 -5 5.62 0.64
-1 4 5 6.05 0.54
-1 4 5 3.65 0.62
-1 4 5 5.05 0.73
0 -4 -5 1.5 0.22
0 -4 -5 2.1 0.37
0 -4 -5 1.87 0.37
0 -4 -5 2.62 0.4
0 4 5 1.92 0.31
0 4 5 1.5 0.45
0 4 5 1.48 0.49
0 4 5 2.03 0.36
0 4 5 1.97 0.64
-1 -4 -5 24.35 1.06
-1 -4 -5 22.2 1
-1 -4 -5 23.93 1.01
-1 -4 -5 23.82 1.04
-1 -4 -5 22.08 1.01
-1 -4 -5 23.69 0.96
-1 -4 -5 24 1.06
1 4 5 24.21 1.73
1 4 5 22.6 1.01
-2 -4 -5 4.77 0.45
-2 -4 -5 5.16 0.57
-2 -4 -5 4.24 0.47
-2 -4 -5 3.84 0.41
2 4 5 3.99 0.47
2 4 5 4.13 0.66
-3 -4 -5 16.75 0.73
-3 -4 -5 15.63 0.73
-3 -4 -5 15.51 0.64
3 4 5 15.45 0.77
3 4 5 15.14 1.59
4 -5 -5 3.36 0.4
4 -5 -5 4.04 0.45
-4 5 5 3.43 0.67
3 -5 -5 52.39 1.97
3 -5 -5 51.57 1.9
3 -5 -5 51.6 1.89
3 -5 -5 49.87 1.89
-3 5 5 57.18 2.38
-3 5 5 51.48 1.87
-3 5 5 51.46 1.93
2 -5 -5 8.77 0.55
2 -5 -5 9.07 0.45
2 -5 -5 8.44 0.57
2 -5 -5 8.25 0.47
2 -5 -5 7.87 0.56
2 -5 -5 8.73 0.55
-2 5 5 8.29 0.62
-2 5 5 8.91 0.51
1 -5 -5 4.09 0.33
1 -5 -5 4.07 0.42
1 -5 -5 3.85 0.42
1 -5 -5 3.24 0.49
-1 5 5 3.03 0.44
-1 5 5 3.26 0.4
0 -5 -5 8.74 0.59
0 -5 -5 9.45 0.57
0 -5 -5 8.99 0.54
0 -5 -5 8.6 0.65
0 -5 -5 9.9 0.65
0 5 5 9.18 0.87
-1 -5 -5 2.55 0.37
-1 -5 -5 2.81 0.38
-1 -5 -5 2.18 0.43
1 5 5 2.84 0.44
-2 -5 -5 3.74 0.37
2 5 5 4.43 0.51
2 5 5 5.84 0.68
-1 -9 6 2.07 0.31
-1 -9 6 2.12 0.29
0 9 -6 -0.1 0.23
0 -9 6 0.14 0.21
0 -9 6 0.36 0.18
-1 9 -6 2.87 0.31
1 -9 6 2.26 0.29
1 -9 6 3.09 0.41
2 -9 6 4.71 0.34
2 -9 6 4.87 0.44
-3 -8 6 13.86 0.72
-3 -8 6 13.55 0.6
2 8 -6 16.96 0.83
-2 -8 6 17.5 0.73
-2 -8 6 17.23 0.75
1 8 -6 7.89 0.69
1 8 -6 8.35 0.56
-1 -8 6 8.34 0.49
-1 -8 6 8.67 0.55
-1 -8 6 8.79 0.5
0 8 -6 3.41 0.6
0 8 -6 4.02 0.42
0 -8 6 2.78 0.36
0 -8 6 3.22 0.4
0 -8 6 3.49 0.34
-1 8 -6 3.1 0.47
-1 8 -6 3.1 0.49
1 -8 6 3.03 0.33
1 -8 6 3.34 0.46
1 -8 6 3.78 0.46
1 -8 6 4.04 0.54
-2 8 -6 6.73 1.05
-2 8 -6 7.39 0.73
-2 8 -6 8.76 0.62
2 -8 6 8.17 0.52
2 -8 6 8.6 0.58
2 -8 6 8.02 0.75
-3 8 -6 3.14 0.41
-3 8 -6 2.37 0.32
3 -8 6 2.41 0.38
3 -8 6 2.6 0.38
-4 8 -6 9.64 0.5
4 -8 6 9.81 0.53
-4 -7 6 9.6 0.6
-4 -7 6 11.08 0.52
3 7 -6 7.52 0.78
3 7 -6 7.65 0.73
-3 -7 6 8.75 0.51
-3 -7 6 8.37 0.51
2 7 -6 30.49 2.24
2 7 -6 26.05 1.28
2 7 -6 27.52 1.21
2 7 -6 29.84 1.2
-2 -7 6 30.05 1.16
-2 -7 6 31.13 1.19
1 7 -6 3.69 0.47
1 7 -6 3.33 0.51
1 7 -6 3.15 0.56
-1 -7 6 3.54 0.5
-1 -7 6 3.47 0.46
0 7 -6 0.77 0.29
0 7 -6 0.83 0.31
0 7 -6 0.92 0.26
0 -7 6 0.84 0.24
0 -7 6 1.15 0.27
-1 7 -6 6.23 0.58
-1 7 -6 6.62 0.5
-1 7 -6 6.01 0.62
1 -7 6 5.85 0.51
1 -7 6 6.57 0.59
1 -7 6 6.31 0.49
-2 7 -6 11.17 0.64
-2 7 -6 11.19 0.66
-2 7 -6 10.47 0.85
2 -7 6 11.42 0.7
2 -7 6 12.65 0.71
2 -7 6 10.58 0.78
-3 7 -6 29.36 1.44
-3 7 -6 25.73 1.13
3 -7 6 27.84 1.19
3 -7 6 27.54 1.14
3 -7 6 28.25 1.16
-4 7 -6 1.21 0.39
-4 7 -6 2.52 0.32
-4 7 -6 2.57 0.41
-4 7 -6 1.6 0.46
4 -7 6 2.5 0.48
4 -7 6 1.96 0.36
-5 7 -6 7.83 0.57
-5 7 -6 7.02 0.59
-5 7 -6 5.45 0.55
5 -7 6 7.84 0.6
-5 -6 6 3.43 0.49
4 6 -6 4.58 0.73
4 6 -6 5.27 0.79
-4 -6 6 4.31 0.77
-4 -6 6 5.29 0.42
-4 -6 6 4.19 0.53
3 6 -6 8.86 0.7
3 6 -6 9.99 0.69
3 6 -6 7.16 1.37
-3 -6 6 10.41 0.87
-3 -6 6 10.61 0.6
-3 -6 6 10.62 0.61
2 6 -6 21.73 1.64
2 6 -6 23.33 1.04
2 6 -6 23.79 1.03
-2 -6 6 24.68 1.24
-2 -6 6 23.38 1.03
-2 -6 6 23.78 1.02
-2 -6 6 23.83 1
1 6 -6 0.66 0.25
1 6 -6 0.85 0.28
1 6 -6 0.39 0.25
1 6 -6 1.27 0.91
-1 -6 6 0.54 0.28
-1 -6 6 -0.16 0.28
-1 -6 6 0.19 0.22
-1 -6 6 0.76 0.39
-1 -6 6 1.23 0.3
-1 -6 6 0.28 0.27
0 6 -6 40.06 1.55
0 6 -6 36.49 2.15
0 -6 6 39.16 1.64
0 -6 6 40.46 1.52
0 -6 6 39.9 1.52
0 -6 6 39.22 1.55
0 -6 6 39.13 1.56
-1 6 -6 5.66 0.54
-1 6 -6 4.09 1.04
-1 6 -6 6.24 1.39
-1 6 -6 6.1 0.57
-1 6 -6 8.01 0.85
1 -6 6 6.02 0.58
1 -6 6 5.76 1.58
1 -6 6 6.23 0.62
1 -6 6 5.93 1.18
1 -6 6 6.26 0.53
-2 6 -6 27.89 1.3
-2 6 -6 24.78 2.48
-2 6 -6 30.12 1.18
-2 6 -6 29.86 1.2
2 -6 6 29.45 1.26
2 -6 6 28.88 1.18
2 -6 6 29.28 1.25
2 -6 6 29.04 1.2
-3 6 -6 49.77 1.84
3 -6 6 51.15 1.88
3 -6 6 44.83 2.1
3 -6 6 48.14 1.98
-4 6 -6 5.14 0.45
-4 6 -6 4.9 0.62
-4 6 -6 4.74 0.73
-4 6 -6 4.77 0.55
4 -6 6 4.81 0.62
4 -6 6 5.06 0.48
-5 6 -6 0.19 0.28
-5 6 -6 0.18 0.21
5 -6 6 0.27 0.22
5 -6 6 0.92 0.37
5 5 -6 1.62 0.44
-5 -5 6 1.39 0.26
-5 -5 6 1.08 0.39
-5 -5 6 1.47 0.3
4 5 -6 27.07 2.84
4 5 -6 22.79 1.08
-4 -5 6 25.59 1.21
-4 -5 6 26.24 1.06
-4 -5 6 25.13 1.05
-4 -5 6 23.48 1.09
-4 -5 6 28.13 4.23
3 5 -6 27.28 1.87
3 5 -6 31.27 1.25
3 5 -6 29.83 1.26
-3 -5 6 31.79 1.43
-3 -5 6 31.85 1.26
-3 -5 6 29.46 1.23
-3 -5 6 32.28 1.25
2 5 -6 12.08 0.66
2 5 -6 11.48 1.39
2 5 -6 12.11 0.67
2 5 -6 12.1 1.15
-2 -5 6 11.14 0.74
-2 -5 6 12.01 0.68
-2 -5 6 11.8 0.91
-2 -5 6 10.04 1.52
-2 -5 6 12.34 0.71
-2 -5 6 12.15 0.65
1 5 -6 0.65 0.24
1 5 -6 0.55 0.23
1 5 -6 0.46 0.64
-1 -5 6 0.34 0.37
-1 -5 6 -0.09 1.01
-1 -5 6 0.35 0.27
-1 -5 6 0.51 0.27
-1 -5 6 0.16 0.27
0 5 -6 21.03 0.89
0 5 -6 19.42 1.95
0 5 -6 19.5 1.58
0 5 -6 21.6 0.93
0 5 -6 20.79 0.89
0 -5 6 19.8 0.97
0 -5 6 20.88 1.13
0 -5 6 20.43 0.99
0 -5 6 21.3 1.07
0 -5 6 20.74 1.11
0 -5 6 20.53 0.92
-1 5 -6 16.78 0.78
-1 5 -6 15.98 1.37
-1 5 -6 16.71 0.77
-1 5 -6 17.74 0.83
1 -5 6 15.4 0.89
1 -5 6 16.71 0.86
1 -5 6 16.95 0.81
-2 5 -6 25.45 1.38
-2 5 -6 25.87 1.21
-2 5 -6 27.4 1.09
-2 5 -6 25.23 1.47
-2 5 -6 26.61 1.07
-2 5 -6 23.57 1.88
2 -5 6 27.2 1.2
2 -5 6 26.64 1.24
-3 5 -6 28.6 1.48
-3 5 -6 30.2 1.31
-3 5 -6 29.14 1.37
-3 5 -6 30.96 1.22
-3 5 -6 28.24 2.22
3 -5 6 28.58 1.36
3 -5 6 29.27 1.23
3 -5 6 28.76 1.25
3 -5 6 29.11 1.32
-4 5 -6 4.01 0.44
-4 5 -6 5.81 0.87
4 -5 6 3.72 0.81
4 -5 6 5.71 0.84
4 -5 6 4.29 0.56
-5 5 -6 28.39 1.15
-5 5 -6 29.55 1.41
-5 5 -6 28.4 1.17
-5 5 -6 27.98 1.34
-5 5 -6 30.69 1.23
5 -5 6 30.82 1.2
5 -5 6 28.75 1.42
5 -5 6 28.89 1.14
-6 5 -6 17.93 0.74
-6 5 -6 16.53 0.84
6 -5 6 17.96 0.92
6 -5 6 15.28 0.72
-6 -4 6 6.11 0.39
-6 -4 6 6.63 0.5
5 4 -6 7.06 0.58
5 4 -6 7.01 0.7
-5 -4 6 8.2 0.62
-5 -4 6 5.91 0.75
4 4 -6 34.87 2.24
4 4 -6 34.87 1.44
4 4 -6 35.19 1.42
-4 -4 6 41.96 3.12
-4 -4 6 37.04 1.44
-4 -4 6 36.39 1.57
-4 -4 6 34.48 1.39
3 4 -6 33.25 2.08
3 4 -6 37.56 1.57
3 4 -6 36.39 1.44
-3 -4 6 37.14 1.56
-3 -4 6 35.45 1.43
-3 -4 6 38.65 1.62
-3 -4 6 37.51 1.45
-3 -4 6 36.91 1.45
-3 -4 6 34.19 2.41
-3 -4 6 36.54 1.43
-3 -4 6 35.19 1.42
2 4 -6 50.49 1.82
2 4 -6 51.45 2.18
2 4 -6 48.49 1.8
2 4 -6 43.47 2.24
-2 -4 6 49.75 1.84
-2 -4 6 49.63 1.95
-2 -4 6 46.82 1.82
-2 -4 6 48.75 2.53
-2 -4 6 48.35 1.83
-2 -4 6 48.67 1.84
-2 -4 6 49.2 2.02
-2 -4 6 47.44 1.82
1 4 -6 26.85 1.39
1 4 -6 26.36 1.06
1 4 -6 26.24 1.07
1 4 -6 25.69 1.42
1 4 -6 25.24 1.33
-1 -4 6 25.7 1.1
-1 -4 6 25.95 1.09
-1 -4 6 26.2 1.23
-1 -4 6 25.21 1.09
-1 -4 6 26.21 1.31
-1 -4 6 26.67 1.13
-1 -4 6 25.6 1.82
0 4 -6 12.72 0.63
0 4 -6 12.78 1.01
0 4 -6 12.3 0.97
0 4 -6 13.66 1.09
0 -4 6 12.48 0.68
0 -4 6 12.19 0.92
0 -4 6 11.88 0.85
0 -4 6 12.75 0.71
0 -4 6 12.12 0.73
0 -4 6 12.78 1.3
0 -4 6 10.67 1.12
0 -4 6 12.99 0.75
-1 4 -6 23.61 1
-1 4 -6 25.74 1.12
-1 4 -6 24.59 1.32
-1 4 -6 25.26 1.01
-1 4 -6 23.1 1.26
-1 4 -6 26.39 1.97
-1 4 -6 24.27 1.56
-1 4 -6 22.42 1.36
1 -4 6 23.67 1.12
1 -4 6 23.65 1.14
1 -4 6 24.91 1.1
1 -4 6 24.25 1.03
-2 4 -6 50.94 2.1
-2 4 -6 48.96 2.02
-2 4 -6 50.98 2.06
-2 4 -6 51.42 1.9
-2 4 -6 46.94 2.27
-2 4 -6 52.97 1.92
2 -4 6 54.68 2.05
2 -4 6 53.72 2.03
2 -4 6 50.67 1.98
2 -4 6 54.21 1.94
-3 4 -6 1.92 0.34
-3 4 -6 1.92 0.39
-3 4 -6 3.42 0.72
-3 4 -6 2.27 0.41
3 -4 6 1.27 0.36
3 -4 6 2.17 0.37
3 -4 6 1.46 0.32
3 -4 6 2.6 0.43
-4 4 -6 27.73 1.18
-4 4 -6 28.87 1.2
-4 4 -6 28.74 1.28
-4 4 -6 29.3 1.34
4 -4 6 28.81 1.23
4 -4 6 27.52 1.39
-5 4 -6 6.38 0.68
-5 4 -6 5.07 0.45
-5 4 -6 5.45 0.56
-5 4 -6 6.12 0.75
-5 4 -6 5.4 0.75
-5 4 -6 5.25 0.52
5 -4 6 5.22 0.92
5 -4 6 5.68 0.54
-6 4 -6 6.99 0.46
-6 4 -6 6.39 0.74
6 -4 6 7.51 0.55
6 3 -6 0.24 0.28
-6 -3 6 0.53 0.19
-6 -3 6 1.13 0.32
-6 -3 6 0.14 0.27
5 3 -6 10.51 0.66
5 3 -6 10.43 0.99
-5 -3 6 11.54 0.81
-5 -3 6 11.98 0.61
-5 -3 6 12.09 0.65
-5 -3 6 12.3 0.82
4 3 -6 25.77 1.12
4 3 -6 25.35 2.32
4 3 -6 26.91 1.1
-4 -3 6 25.82 1.26
-4 -3 6 26.1 1.11
-4 -3 6 26.15 1.1
-4 -3 6 25.15 1.3
-4 -3 6 27.9 1.17
-4 -3 6 25.1 1.21
-4 -3 6 25.27 2.23
3 3 -6 123.6 4.86
3 3 -6 130.72 4.54
3 3 -6 133.29 4.51
-3 -3 6 124.45 4.62
-3 -3 6 128.38 4.51
-3 -3 6 131.77 4.54
-3 -3 6 128.01 4.53
-3 -3 6 132.95 4.56
-3 -3 6 129.15 5.13
-3 -3 6 131.71 4.64
2 3 -6 25.48 1.03
2 3 -6 23.59 1.4
2 3 -6 24.92 1.32
2 3 -6 24.47 1
-2 -3 6 24.56 1.06
-2 -3 6 25.34 1.73
-2 -3 6 24.17 1.07
-2 -3 6 23.45 1.25
-2 -3 6 23.86 1.02
-2 -3 6 22.94 1.06
-2 -3 6 26.93 1.19
1 3 -6 81.94 4.58
1 3 -6 87.97 3.07
1 3 -6 83.75 3.31
1 3 -6 88.28 3.09
1 3 -6 88.66 3.34
-1 -3 6 85.41 3.09
-1 -3 6 88.15 3.2
-1 -3 6 87.52 3.11
-1 -3 6 87.92 3.57
-1 -3 6 87.96 3.17
-1 -3 6 87.6 3.26
-1 -3 6 86.93 3.12
0 3 -6 0.49 0.2
0 3 -6 0.65 0.78
0 3 -6 0.52 0.41
0 3 -6 1.66 1.58
0 3 -6 0.34 0.44
0 3 -6 0.75 0.22
0 -3 6 0.69 0.36
0 -3 6 0.72 0.23
-1 3 -6 41.74 1.81
-1 3 -6 41.08 1.86
-1 3 -6 41.69 1.73
-1 3 -6 42.13 1.59
-1 3 -6 43.18 1.62
-1 3 -6 37.9 2.01
-1 3 -6 45.4 4.18
1 -3 6 41.74 1.75
1 -3 6 44.21 1.71
1 -3 6 44.3 1.62
1 -3 6 42.85 1.68
-2 3 -6 87.45 3.21
-2 3 -6 84.45 3.16
-2 3 -6 86.4 3.1
2 -3 6 86.3 3.11
2 -3 6 87.26 3.19
2 -3 6 88.33 3.18
2 -3 6 91.53 3.23
2 -3 6 87.45 3.12
-3 3 -6 4.98 0.53
-3 3 -6 5.08 0.68
-3 3 -6 3.44 0.48
-3 3 -6 4.82 0.63
-3 3 -6 5.78 0.77
3 -3 6 4.54 0.57
3 -3 6 3.47 0.57
3 -3 6 5.07 0.55
3 -3 6 4.57 0.6
3 -3 6 4.43 0.58
3 -3 6 4.87 0.57
-4 3 -6 39.78 1.55
-4 3 -6 37.59 1.48
-4 3 -6 40.02 1.62
-4 3 -6 36.77 1.49
-4 3 -6 37.97 1.55
4 -3 6 33.87 1.64
4 -3 6 36.87 1.49
4 -3 6 40.42 1.66
4 -3 6 37.72 1.55
4 -3 6 38.14 1.89
-5 3 -6 6.47 0.56
-5 3 -6 6.06 0.43
-5 3 -6 6.27 0.54
-5 3 -6 5.49 0.58
-5 3 -6 6.07 0.64
5 -3 6 6.17 0.55
5 -3 6 7.57 0.97
5 -3 6 6.18 1.08
5 -3 6 5.13 0.87
-6 3 -6 1.74 0.27
-6 3 -6 0.95 0.28
-6 3 -6 1.12 0.26
6 -3 6 2.54 0.53
6 -3 6 2 0.31
6 2 -6 6.67 0.68
-6 -2 6 6.43 0.59
-6 -2 6 6.08 0.54
-6 -2 6 5.54 0.53
5 2 -6 3.58 0.54
5 2 -6 3.76 0.48
-5 -2 6 1.72 1.5
-5 -2 6 4.45 0.64
-5 -2 6 4.36 0.41
-5 -2 6 2.98 0.4
-5 -2 6 4.42 0.47
4 2 -6 20.06 0.91
4 2 -6 19.77 0.93
4 2 -6 19.3 1.49
4 2 -6 22.07 1.87
-4 -2 6 20.01 0.92
-4 -2 6 20.67 2.03
-4 -2 6 19.53 1.1
-4 -2 6 21.54 1.1
-4 -2 6 20 1.05
-4 -2 6 19.55 0.94
-4 -2 6 19.7 0.89
3 2 -6 3.22 0.72
3 2 -6 3.8 0.46
3 2 -6 4 0.84
3 2 -6 3.62 0.42
-3 -2 6 3.28 0.65
-3 -2 6 4.17 0.67
-3 -2 6 3.62 0.69
-3 -2 6 3.57 0.49
-3 -2 6 6.22 1.18
-3 -2 6 3.41 0.42
-3 -2 6 3.74 0.52
2 2 -6 65.42 2.29
2 2 -6 61.06 2.46
2 2 -6 66.73 2.6
2 2 -6 62.89 2.58
2 2 -6 59.3 2.39
-2 -2 6 62.37 2.35
-2 -2 6 62.99 2.49
-2 -2 6 63.31 2.35
-2 -2 6 64.17 2.84
-2 -2 6 65.18 2.33
-2 -2 6 65.73 2.45
-2 -2 6 63.58 2.32
1 2 -6 11.03 0.91
1 2 -6 15.07 2.98
1 2 -6 12 0.61
1 2 -6 11.45 0.73
1 2 -6 12.67 0.9
1 2 -6 11.29 0.68
-1 -2 6 13.14 0.69
-1 -2 6 11.06 1.24
-1 -2 6 10.48 0.74
-1 -2 6 11.43 1.04
-1 -2 6 9.43 0.81
-1 -2 6 12.15 0.73
0 2 -6 5.51 0.93
0 2 -6 3.9 1.73
0 2 -6 7.52 0.46
0 2 -6 7.49 0.8
0 2 -6 6.97 0.98
0 2 -6 8.04 0.75
0 2 -6 7 0.59
0 2 -6 7.27 0.51
0 2 -6 6.66 0.89
0 -2 6 6.99 0.87
0 -2 6 7.08 0.61
0 -2 6 7.82 0.53
0 -2 6 7.68 0.9
-1 2 -6 18.54 0.82
-1 2 -6 18.71 0.99
-1 2 -6 16.21 1.08
-1 2 -6 18.84 1.19
-1 2 -6 19.47 1.03
-1 2 -6 18.8 0.87
-1 2 -6 18.81 0.83
-1 2 -6 19.93 1.11
1 -2 6 19.66 0.91
1 -2 6 18.54 0.85
1 -2 6 17.78 0.87
1 -2 6 17.64 1.07
1 -2 6 18.64 1.14
-2 2 -6 3.57 0.56
-2 2 -6 3.45 0.66
-2 2 -6 3.83 0.46
-2 2 -6 3.82 0.48
-2 2 -6 4.41 0.66
-2 2 -6 2.93 0.43
2 -2 6 3.27 0.61
2 -2 6 3.98 0.46
2 -2 6 3.28 0.54
2 -2 6 3.98 0.55
2 -2 6 4 0.5
2 -2 6 4.19 0.48
-3 2 -6 206.09 6.99
-3 2 -6 190.88 6.97
-3 2 -6 197.41 6.96
-3 2 -6 202.34 6.88
3 -2 6 196.81 7.17
3 -2 6 202.09 6.94
3 -2 6 176.48 7.19
3 -2 6 212.89 7.01
3 -2 6 209.75 6.89
3 -2 6 201.13 6.88
-4 2 -6 21.31 0.98
-4 2 -6 20.24 0.95
-4 2 -6 20.36 0.87
-4 2 -6 17.41 0.99
-4 2 -6 21.05 1.05
4 -2 6 19.3 1.16
4 -2 6 20.4 0.92
-5 2 -6 21.5 0.84
-5 2 -6 20.9 0.95
-5 2 -6 22.61 0.96
-5 2 -6 21.7 0.98
-5 2 -6 22.36 1.05
5 -2 6 22.63 1
5 -2 6 21.16 0.96
5 -2 6 19.24 1.17
5 -2 6 20.47 1.26
-6 2 -6 3.86 0.4
-6 2 -6 3.26 0.4
-6 2 -6 2.8 0.49
-6 2 -6 3.95 0.47
-6 2 -6 3.84 0.41
6 -2 6 3.76 0.57
6 -2 6 3.98 0.49
6 1 -6 4.07 0.68
6 1 -6 4.46 0.44
-6 -1 6 4.19 0.58
-6 -1 6 4.53 0.36
-6 -1 6 4.31 0.49
-6 -1 6 3.87 0.53
5 1 -6 3.63 0.54
5 1 -6 4.15 0.46
5 1 -6 4.97 1.2
5 1 -6 4.26 0.8
5 1 -6 2.81 0.4
-5 -1 6 3.75 1.39
-5 -1 6 4.79 0.55
-5 -1 6 3.23 0.54
-5 -1 6 3.44 0.49
-5 -1 6 3.41 0.62
4 1 -6 74.42 2.7
4 1 -6 67.3 3.21
4 1 -6 70.57 3.02
4 1 -6 73.48 2.68
4 1 -6 76.77 2.65
4 1 -6 72.33 2.64
-4 -1 6 73.68 2.65
-4 -1 6 74.78 2.77
-4 -1 6 72.15 2.79
-4 -1 6 76.46 2.77
-4 -1 6 72.35 2.66
-4 -1 6 74.06 3.49
-4 -1 6 74.64 2.64
3 1 -6 47.22 2.11
3 1 -6 47.87 1.82
3 1 -6 42.32 2.15
3 1 -6 49.89 1.78
3 1 -6 46.52 1.88
3 1 -6 46.44 1.78
-3 -1 6 47.36 2.53
-3 -1 6 50.73 1.94
-3 -1 6 48.26 1.79
-3 -1 6 49.99 1.93
-3 -1 6 47.92 1.97
-3 -1 6 47.56 1.79
-3 -1 6 47.34 1.83
-3 -1 6 48.62 1.81
2 1 -6 24.33 0.97
2 1 -6 23.46 1.27
2 1 -6 22.75 0.98
2 1 -6 23.67 1.14
2 1 -6 23.81 1.34
-2 -1 6 23.83 1.03
-2 -1 6 23.84 1.08
-2 -1 6 23 1.43
-2 -1 6 23.22 1.06
-2 -1 6 23.93 1.7
-2 -1 6 25.22 1.31
-2 -1 6 23.43 1.14
1 1 -6 13.52 0.68
1 1 -6 11.7 2.12
1 1 -6 13.24 0.9
1 1 -6 15.14 1.04
1 1 -6 12.41 1.07
1 1 -6 13.2 0.7
1 1 -6 13.13 0.96
1 1 -6 12.8 0.66
-1 -1 6 12.77 0.75
-1 -1 6 14.2 1.39
-1 -1 6 14.87 1.06
-1 -1 6 14.7 0.75
-1 -1 6 14.7 0.72
-1 -1 6 13.89 0.83
-1 -1 6 13.44 0.78
0 1 -6 23.88 0.98
0 1 -6 23.7 1.25
0 1 -6 23.51 0.97
0 1 -6 26.09 1.49
0 1 -6 22.86 1.21
0 1 -6 23.09 1.06
0 -1 6 24.15 1.06
0 -1 6 21.63 1.02
0 -1 6 23.68 1.01
0 -1 6 23.31 1.55
0 -1 6 23.47 1.16
0 -1 6 23.51 1.24
-1 1 -6 23.16 1.15
-1 1 -6 23.27 1.34
-1 1 -6 23.71 1.14
-1 1 -6 23.7 1
-1 1 -6 23.99 1.02
-1 1 -6 24.06 1.32
-1 1 -6 23.87 1.05
-1 1 -6 23.1 1.1
1 -1 6 23.87 1.09
1 -1 6 24.17 1.16
1 -1 6 23.75 1.27
1 -1 6 20.86 1.32
1 -1 6 25.43 1.09
1 -1 6 24.02 0.99
1 -1 6 25.2 1.03
-2 1 -6 51.16 1.99
-2 1 -6 49.9 1.81
-2 1 -6 50.38 1.99
-2 1 -6 51.43 1.88
-2 1 -6 47.47 1.89
-2 1 -6 49.9 1.94
-2 1 -6 52.67 1.87
-2 1 -6 47.6 1.95
-2 1 -6 51.71 1.97
2 -1 6 51.05 1.96
2 -1 6 49.53 1.87
2 -1 6 46.06 2.13
2 -1 6 47.97 1.85
2 -1 6 50.67 1.93
-3 1 -6 15.44 0.86
-3 1 -6 16.1 0.75
-3 1 -6 15.5 0.68
-3 1 -6 15.32 0.92
-3 1 -6 15.64 0.86
-3 1 -6 14.11 0.99
3 -1 6 14.62 0.81
3 -1 6 13.96 1.47
3 -1 6 14.27 0.9
-4 1 -6 18.29 0.99
-4 1 -6 18.11 0.78
-4 1 -6 19.41 0.92
-4 1 -6 18.91 0.88
4 -1 6 18.26 0.87
4 -1 6 17.47 0.98
4 -1 6 17.44 1.13
-5 1 -6 0.95 0.33
-5 1 -6 0.5 0.24
-5 1 -6 0.62 0.23
-5 1 -6 0.56 0.26
5 -1 6 0.64 0.27
5 -1 6 0.23 0.45
5 -1 6 0.68 0.26
-6 1 -6 5.17 0.4
6 -1 6 5.77 0.57
6 -1 6 5.24 0.57
6 0 -6 2.89 0.42
-6 0 6 2.24 0.52
-6 0 6 3.04 0.42
-6 0 6 3.17 0.48
5 0 -6 29.8 2.57
5 0 -6 35.37 1.33
5 0 -6 32.98 1.35
5 0 -6 34.87 1.38
-5 0 6 34.84 1.33
-5 0 6 34.6 1.31
-5 0 6 34.15 1.33
-5 0 6 34.57 1.48
-5 0 6 29.22 3.09
-5 0 6 35.78 1.5
-5 0 6 36.03 1.45
-5 0 6 32.62 1.34
4 0 -6 3.16 0.45
4 0 -6 3.07 1.17
4 0 -6 2.75 0.43
4 0 -6 4.01 0.56
4 0 -6 3.73 0.49
-4 0 6 3.19 0.74
-4 0 6 3.44 0.44
-4 0 6 3.51 0.6
-4 0 6 3.48 0.46
-4 0 6 3.59 0.63
-4 0 6 3.36 1.35
-4 0 6 3.48 0.44
-4 0 6 2.58 0.47
3 0 -6 102.08 3.57
3 0 -6 95.23 3.88
3 0 -6 99.81 3.55
3 0 -6 103.36 3.51
3 0 -6 100.98 3.51
3 0 -6 101.33 3.85
-3 0 6 101.35 4.19
-3 0 6 93.32 3.69
-3 0 6 100.75 3.51
-3 0 6 99.94 3.64
-3 0 6 99.3 3.63
-3 0 6 97.3 3.57
2 0 -6 5.78 0.78
2 0 -6 6.42 0.95
2 0 -6 6.94 0.48
2 0 -6 6.13 0.47
2 0 -6 6.38 0.64
2 0 -6 6.73 0.65
-2 0 6 5.81 0.63
-2 0 6 5.79 0.63
-2 0 6 6.37 0.69
-2 0 6 6.57 0.55
-2 0 6 6.41 0.98
-2 0 6 6.71 1.21
-2 0 6 5.96 0.6
-2 0 6 5.75 1.07
1 0 -6 1.35 0.27
1 0 -6 0.86 0.49
1 0 -6 1.99 0.36
1 0 -6 0.66 0.36
1 0 -6 1.13 0.33
1 0 -6 1.21 0.31
1 0 -6 1.22 0.42
-1 0 6 1.8 0.54
-1 0 6 0.98 0.26
-1 0 6 2.05 0.49
-1 0 6 1.19 0.35
-1 0 6 2.15 0.88
-1 0 6 1.5 0.37
-1 0 6 2.08 0.34
0 0 -6 0.4 0.47
0 0 -6 0.47 0.28
0 0 -6 0.33 0.28
0 0 -6 0.84 0.33
0 0 -6 0.16 0.52
0 0 -6 0.33 0.3
0 0 -6 0.58 0.25
0 0 6 0.6 0.27
0 0 6 1.3 0.85
0 0 6 0.65 0.38
0 0 6 -0.01 0.41
0 0 6 0.86 0.24
0 0 6 -0.04 0.44
0 0 6 0.75 0.36
0 0 6 0.72 0.33
0 0 6 -0.2 0.42
0 0 6 0.47 0.29
-1 0 -6 27.05 1.44
-1 0 -6 26.54 1.5
-1 0 -6 27.23 1.2
-1 0 -6 26.64 1.11
-1 0 -6 27.24 1.08
-1 0 -6 26.67 1.11
-1 0 -6 25.81 1.17
-1 0 -6 26.03 1.24
1 0 6 24.09 1.53
1 0 6 25.76 1.19
1 0 6 25.88 1.52
1 0 6 25.38 1.53
1 0 6 26.57 1.29
1 0 6 27.46 1.1
1 0 6 27.84 1.11
1 0 6 26.69 1.18
-2 0 -6 24.69 1.16
-2 0 -6 25.01 1.19
-2 0 -6 26.54 1.17
-2 0 -6 25.34 1.01
-2 0 -6 25.92 1.07
-2 0 -6 25.89 2.96
-2 0 -6 26.13 1.27
-2 0 -6 25.43 1.2
2 0 6 25.5 1.23
2 0 6 25.78 1.55
2 0 6 25.09 1.15
2 0 6 25.13 1.3
2 0 6 25.44 1.07
-3 0 -6 22.14 1.07
-3 0 -6 22.7 1.14
-3 0 -6 21.6 1.05
-3 0 -6 21.33 0.92
-3 0 -6 21.93 1.04
-3 0 -6 22.66 0.9
3 0 6 22.89 0.99
3 0 6 22.26 1.08
3 0 6 22.52 1.81
3 0 6 23.11 1.02
-4 0 -6 7.94 0.62
-4 0 -6 8.53 0.69
-4 0 -6 7.1 0.44
-4 0 -6 7.95 0.71
-4 0 -6 7.62 0.57
4 0 6 6.66 0.71
4 0 6 6.96 0.58
4 0 6 8.44 1.03
-5 0 -6 0.41 0.32
-5 0 -6 0.79 0.26
-5 0 -6 0.37 0.21
-5 0 -6 -0.1 0.29
-5 0 -6 0.26 0.33
5 0 6 0.51 0.29
5 0 6 0.83 0.47
6 -1 -6 1.11 0.44
6 -1 -6 1.13 0.3
6 -1 -6 1.21 0.28
-6 1 6 1.02 0.23
-6 1 6 1.52 0.41
-6 1 6 1.2 0.46
5 -1 -6 24.57 1.51
5 -1 -6 27.74 1.13
5 -1 -6 28.02 1.15
5 -1 -6 29.62 1.16
-5 1 6 27.55 1.14
-5 1 6 29.81 1.11
-5 1 6 28.22 1.35
-5 1 6 29.9 1.15
-5 1 6 29.08 1.27
4 -1 -6 63.36 2.24
4 -1 -6 62.34 2.32
4 -1 -6 57.93 2.4
4 -1 -6 61.8 2.75
4 -1 -6 60.45 2.24
-4 1 6 64.66 2.29
-4 1 6 54.45 3.8
-4 1 6 66.73 2.27
-4 1 6 60.48 2.37
-4 1 6 60.87 2.26
3 -1 -6 21.8 1
3 -1 -6 19.12 1.71
3 -1 -6 21.74 1.28
3 -1 -6 21.01 0.98
3 -1 -6 20.14 1.4
3 -1 -6 21.54 0.93
-3 1 6 20.33 2.72
-3 1 6 22.07 0.98
-3 1 6 21.55 0.97
-3 1 6 21.35 1.06
-3 1 6 23.07 1.03
-3 1 6 21.93 1.49
2 -1 -6 65.31 2.28
2 -1 -6 62 2.61
2 -1 -6 61.46 2.71
2 -1 -6 63.3 2.33
-2 1 6 66.78 2.38
-2 1 6 58.06 2.69
-2 1 6 59.01 3.32
-2 1 6 62.38 2.33
-2 1 6 62.03 2.53
-2 1 6 63.34 2.4
1 -1 -6 2.24 0.69
1 -1 -6 4.76 0.86
1 -1 -6 3.32 0.68
1 -1 -6 2.57 0.56
1 -1 -6 2.95 0.39
1 -1 -6 3.51 0.53
-1 1 6 2.29 1.42
-1 1 6 3.92 0.51
-1 1 6 2.5 0.4
-1 1 6 2.25 0.52
-1 1 6 3.25 0.46
-1 1 6 2.4 0.45
-1 1 6 3.35 0.66
0 -1 -6 21.28 0.95
0 -1 -6 21.12 1.1
0 -1 -6 20.87 1.03
0 -1 -6 20.49 1.55
0 -1 -6 20.2 1.07
0 -1 -6 22.19 1.11
0 -1 -6 21.56 0.91
0 -1 -6 20.2 1.3
0 1 6 22.07 0.94
0 1 6 19.32 1.39
0 1 6 20.57 1.35
0 1 6 22.74 1.08
0 1 6 20.14 1.16
0 1 6 17.52 2.49
0 1 6 21 1
0 1 6 21.05 1.12
-1 -1 -6 48.35 1.8
-1 -1 -6 46.81 1.81
-1 -1 -6 42.14 3.3
-1 -1 -6 46.43 1.74
-1 -1 -6 44.79 1.72
-1 -1 -6 47.87 1.83
1 1 6 46.46 1.83
1 1 6 46.19 1.96
1 1 6 44.42 2.18
1 1 6 47.36 1.75
-2 -1 -6 8.8 0.58
-2 -1 -6 9.25 0.67
-2 -1 -6 7.74 0.65
-2 -1 -6 7.91 0.54
-2 -1 -6 7.98 0.81
-2 -1 -6 8.31 0.52
-2 -1 -6 8.13 0.68
-2 -1 -6 8.29 0.66
2 1 6 8.86 1.41
2 1 6 6.97 0.97
2 1 6 8.42 0.68
2 1 6 8.33 0.59
2 1 6 8.41 0.6
-3 -1 -6 1.86 0.4
3 1 6 1.2 0.62
3 1 6 1.93 0.4
3 1 6 1.65 0.31
-4 -1 -6 -0.04 0.22
-4 -1 -6 0.27 0.17
-4 -1 -6 0.68 0.27
-4 -1 -6 0.26 0.38
-4 -1 -6 0.78 0.29
4 1 6 0.61 0.28
4 1 6 0.47 0.42
-5 -1 -6 6.99 0.58
-5 -1 -6 7.65 0.51
-5 -1 -6 7.16 0.49
5 1 6 6.81 0.54
6 -2 -6 4.08 0.41
5 -2 -6 20.64 0.88
-5 2 6 20.58 0.93
-5 2 6 19.65 0.87
-5 2 6 20.23 0.85
-5 2 6 20.54 0.83
4 -2 -6 11.9 0.61
4 -2 -6 12.21 0.65
4 -2 -6 10.86 1.65
-4 2 6 12.12 0.64
-4 2 6 11.75 0.66
-4 2 6 11.98 0.73
-4 2 6 11.43 0.67
3 -2 -6 10.76 0.64
3 -2 -6 10.58 0.61
3 -2 -6 10.34 1.27
-3 2 6 11.13 0.89
-3 2 6 10.81 0.73
-3 2 6 10.46 0.73
-3 2 6 11.21 0.63
2 -2 -6 10.01 1.71
2 -2 -6 12.1 0.79
2 -2 -6 10.16 0.66
2 -2 -6 9.12 1.05
2 -2 -6 10.29 0.59
2 -2 -6 10.83 0.77
2 -2 -6 9.96 0.9
-2 2 6 10.39 0.76
-2 2 6 9.81 0.67
-2 2 6 11.14 1.8
-2 2 6 11.17 0.66
-2 2 6 11.12 0.84
1 -2 -6 16.19 0.89
1 -2 -6 17.03 1.44
1 -2 -6 17.49 0.79
1 -2 -6 15.53 1.04
1 -2 -6 17.34 0.96
1 -2 -6 16.22 0.84
1 -2 -6 14.2 1.76
-1 2 6 15.25 1.65
-1 2 6 15.04 0.88
-1 2 6 15.21 1.2
-1 2 6 16.73 0.93
-1 2 6 16.91 1.14
-1 2 6 16.95 0.81
0 -2 -6 1.26 0.31
0 -2 -6 1.45 0.25
0 -2 -6 2.5 0.4
0 -2 -6 1.69 0.27
0 -2 -6 1.22 0.29
0 2 6 1.96 0.37
0 2 6 1.7 0.31
0 2 6 1.51 0.41
0 2 6 2.07 0.57
0 2 6 2.5 0.49
0 2 6 2.43 0.91
-1 -2 -6 28.08 1.18
-1 -2 -6 27.74 1.16
-1 -2 -6 26.77 1.06
-1 -2 -6 26.64 1.12
-1 -2 -6 26.37 1.17
-1 -2 -6 27.33 1.51
1 2 6 25.35 1.23
1 2 6 27.11 1.13
1 2 6 26.79 2.42
1 2 6 25.29 1.47
-2 -2 -6 9.74 0.57
-2 -2 -6 9.49 0.77
-2 -2 -6 9.36 0.59
-2 -2 -6 9.83 0.76
-2 -2 -6 10.18 1.06
-2 -2 -6 10.13 0.5
2 2 6 8.24 1.15
2 2 6 9.88 0.62
-3 -2 -6 1.3 0.29
-3 -2 -6 2.01 0.33
-3 -2 -6 1.43 0.3
-3 -2 -6 1.13 0.21
-3 -2 -6 1.1 0.27
3 2 6 1.34 0.42
3 2 6 1.07 0.28
3 2 6 1.1 0.31
-4 -2 -6 3.92 0.3
-4 -2 -6 4.78 0.43
-4 -2 -6 4.18 0.42
4 2 6 4.05 0.49
5 -3 -6 4.99 0.42
5 -3 -6 5.03 0.38
-5 3 6 3.48 0.47
-5 3 6 3.95 0.43
-5 3 6 5.21 0.4
4 -3 -6 0.77 0.22
4 -3 -6 0.59 0.39
4 -3 -6 0.78 0.23
-4 3 6 0.42 0.21
-4 3 6 0.43 0.24
-4 3 6 0.92 0.3
3 -3 -6 5.16 0.64
3 -3 -6 5.35 0.42
3 -3 -6 5.26 0.49
-3 3 6 5.22 0.45
-3 3 6 6.15 0.53
-3 3 6 4.91 0.66
2 -3 -6 0.98 0.24
2 -3 -6 1.05 0.84
2 -3 -6 0.7 0.23
2 -3 -6 0.95 0.31
-2 3 6 1.21 0.53
-2 3 6 1.7 0.31
-2 3 6 1.42 0.84
-2 3 6 1.35 0.28
1 -3 -6 13.58 0.78
1 -3 -6 10.34 1.5
1 -3 -6 13.24 0.7
1 -3 -6 12.47 0.66
1 -3 -6 12.26 0.76
1 -3 -6 12.76 0.81
-1 3 6 11.91 1.3
-1 3 6 12.04 0.82
-1 3 6 14.16 0.72
-1 3 6 16.35 1.51
-1 3 6 13.64 0.84
0 -3 -6 16.52 0.81
0 -3 -6 15.23 0.7
0 -3 -6 16.58 0.8
0 -3 -6 15.56 0.83
0 -3 -6 15.59 0.73
0 3 6 15.97 0.8
0 3 6 14.95 1
0 3 6 15.76 0.85
0 3 6 14.76 1.31
-1 -3 -6 0.22 0.17
-1 -3 -6 0.53 0.25
-1 -3 -6 0.17 0.24
-1 -3 -6 0.41 0.26
-1 -3 -6 0.22 0.26
-1 -3 -6 0.19 0.27
1 3 6 0.19 0.26
1 3 6 0.59 0.46
1 3 6 0.04 0.77
-2 -3 -6 2.84 0.42
-2 -3 -6 3.45 0.45
-2 -3 -6 3.42 0.47
-2 -3 -6 4.02 0.45
2 3 6 3.23 0.42
2 3 6 3.27 0.5
2 3 6 3.52 0.36
-3 -3 -6 24.92 0.99
-3 -3 -6 22.68 0.92
-3 -3 -6 24.45 0.98
3 3 6 22.2 1.17
3 3 6 25.79 1
4 -4 -6 12.32 0.79
4 -4 -6 11.74 0.63
-4 4 6 12.7 0.61
-4 4 6 13.23 0.69
3 -4 -6 8.46 0.53
3 -4 -6 8.87 0.51
3 -4 -6 9.18 0.55
-3 4 6 8.62 0.54
-3 4 6 8.89 0.47
-3 4 6 8.67 0.82
2 -4 -6 2.84 0.41
2 -4 -6 3.69 0.34
2 -4 -6 3.04 0.43
2 -4 -6 3.23 0.52
2 -4 -6 2.87 0.4
-2 4 6 3.67 0.48
-2 4 6 3.85 0.62
-2 4 6 3.27 0.38
1 -4 -6 3.49 0.4
1 -4 -6 2.98 0.41
1 -4 -6 2.71 0.4
1 -4 -6 2.02 0.32
1 -4 -6 2.77 0.31
-1 4 6 2.99 0.55
-1 4 6 2.44 0.32
0 -4 -6 0.5 0.3
0 -4 -6 0.57 0.22
0 -4 -6 0.89 0.26
0 -4 -6 0.86 0.26
0 4 6 0.74 0.33
-1 -4 -6 0.36 0.24
-1 -4 -6 0.2 0.22
-1 -4 -6 0.58 0.21
1 4 6 0.46 0.18
1 4 6 0.41 0.3
-2 -4 -6 1.12 0.27
2 4 6 1.79 0.34
2 4 6 1.21 0.28
2 8 -7 7.23 0.56
-2 -8 7 7.02 0.43
-2 -8 7 6.68 0.45
1 8 -7 3.31 0.43
-1 -8 7 2.98 0.34
0 8 -7 8.79 0.8
0 8 -7 10.12 0.91
0 -8 7 9.37 0.51
0 -8 7 9.16 0.81
-1 8 -7 1.26 0.38
-1 8 -7 1.07 0.26
1 -8 7 1.51 0.26
1 -8 7 1.32 0.2
-2 8 -7 41.6 1.62
-2 8 -7 44.59 1.71
2 -8 7 40.35 1.61
2 -8 7 43.46 1.55
-3 8 -7 0.89 0.19
3 -8 7 1.26 0.22
3 7 -7 5.25 0.58
-3 -7 7 5.98 0.43
-3 -7 7 5.85 0.42
2 7 -7 1.77 0.29
2 7 -7 2.13 0.39
2 7 -7 1.57 0.4
-2 -7 7 2.34 0.37
-2 -7 7 2.39 0.39
1 7 -7 0.85 0.35
1 7 -7 0.23 0.26
1 7 -7 0.87 0.26
-1 -7 7 0.5 0.28
-1 -7 7 0.53 0.26
-1 -7 7 0.58 0.22
0 7 -7 13.13 0.7
0 7 -7 13.21 0.68
0 7 -7 15.4 1.84
0 -7 7 11.94 0.85
0 -7 7 12.98 0.65
0 -7 7 14.36 0.7
0 -7 7 13.92 0.72
0 -7 7 14.1 0.68
-1 7 -7 36.27 1.42
-1 7 -7 36.59 1.54
-1 7 -7 36.42 1.43
1 -7 7 37 1.44
1 -7 7 35.14 1.49
1 -7 7 38.49 1.42
1 -7 7 37.67 1.42
-2 7 -7 1.23 0.27
-2 7 -7 0.85 0.37
2 -7 7 0.87 0.31
2 -7 7 1.27 0.29
2 -7 7 0.89 0.25
2 -7 7 1.19 0.33
-3 7 -7 12.8 0.68
-3 7 -7 14.09 1.14
3 -7 7 14.03 0.71
3 -7 7 12.77 0.69
3 -7 7 13.6 0.68
-4 7 -7 6.8 0.54
-4 7 -7 5.9 0.76
-4 7 -7 5.89 0.78
4 -7 7 6.44 0.47
4 -7 7 7.66 0.51
4 6 -7 14.63 0.79
-4 -6 7 15.27 0.66
-4 -6 7 12.85 1.33
3 6 -7 0.37 0.36
3 6 -7 0.36 0.28
-3 -6 7 0.49 0.37
-3 -6 7 0.48 0.25
-3 -6 7 0.33 0.24
2 6 -7 5.3 1.09
2 6 -7 5.38 0.56
2 6 -7 5.85 0.52
-2 -6 7 5.31 0.72
-2 -6 7 6.3 0.47
-2 -6 7 5.7 0.52
-2 -6 7 5.29 0.59
1 6 -7 11.58 0.64
1 6 -7 10.71 0.68
1 6 -7 11.55 1.39
1 6 -7 11.14 0.64
-1 -6 7 11.32 0.6
-1 -6 7 10.17 0.69
-1 -6 7 10.02 2.37
0 6 -7 1.53 0.83
0 6 -7 1.26 0.26
0 6 -7 1.72 0.29
0 6 -7 1.52 0.35
0 -6 7 2.03 0.32
0 -6 7 0.56 1.85
0 -6 7 1.74 0.28
-1 6 -7 3.14 1
-1 6 -7 2.67 0.47
-1 6 -7 2.97 0.44
-1 6 -7 2.43 0.4
1 -6 7 1.83 1.84
1 -6 7 1.48 0.66
1 -6 7 2.55 0.51
1 -6 7 3.1 0.43
-2 6 -7 5.22 0.5
-2 6 -7 5.72 0.69
-2 6 -7 6.6 0.6
2 -6 7 6.55 1.95
-3 6 -7 1.3 1.01
-3 6 -7 -0.22 0.36
-3 6 -7 0.32 0.23
3 -6 7 0.78 0.29
3 -6 7 0.8 0.49
3 -6 7 0.46 0.29
3 -6 7 0.18 0.32
-4 6 -7 0.76 0.25
-4 6 -7 0.4 0.35
-4 6 -7 0.43 0.25
4 -6 7 0.45 0.29
4 -6 7 0.74 0.26
-5 6 -7 12.73 0.67
-5 6 -7 13.26 0.67
5 -6 7 12.58 0.8
-5 -5 7 3.8 0.35
4 5 -7 5.4 0.65
4 5 -7 5.08 0.72
-4 -5 7 4.68 0.61
-4 -5 7 4.92 0.43
-4 -5 7 4.95 0.7
3 5 -7 10.45 0.71
3 5 -7 11.68 0.67
3 5 -7 11.11 1.85
-3 -5 7 12.31 0.83
-3 -5 7 11.65 0.64
-3 -5 7 7.87 2.05
-3 -5 7 11.78 0.66
2 5 -7 1.69 0.78
2 5 -7 1.55 0.32
2 5 -7 1.48 0.28
-2 -5 7 2.44 0.42
-2 -5 7 2.77 0.4
-2 -5 7 1.77 0.3
-2 -5 7 1.69 0.29
1 5 -7 24.88 1.98
1 5 -7 28.52 1.12
1 5 -7 27.54 1.16
1 5 -7 24.85 1.65
-1 -5 7 27.42 1.16
-1 -5 7 26.77 1.15
-1 -5 7 27.45 1.14
-1 -5 7 27.32 1.32
-1 -5 7 26.55 2.21
0 5 -7 63.5 2.7
0 5 -7 71.67 2.51
0 5 -7 69.87 2.49
0 5 -7 68.82 3.07
0 5 -7 67.79 2.53
0 5 -7 66.93 2.9
0 -5 7 68.25 2.49
0 -5 7 70.69 2.54
0 -5 7 71.9 3.35
0 -5 7 68.35 2.62
-1 5 -7 13.81 0.69
-1 5 -7 10.31 1.95
-1 5 -7 13.59 0.85
-1 5 -7 14.2 0.73
-1 5 -7 13.27 1.06
-1 5 -7 13.22 1.43
1 -5 7 14.25 0.73
1 -5 7 15.92 1.91
1 -5 7 13.7 0.78
1 -5 7 12.74 0.93
1 -5 7 13.86 0.84
-2 5 -7 9.03 0.85
-2 5 -7 8.4 0.98
-2 5 -7 6.61 0.65
-2 5 -7 7.83 0.91
-2 5 -7 7.22 0.55
2 -5 7 8.27 0.66
2 -5 7 7.75 0.59
2 -5 7 8.75 0.68
-3 5 -7 19.88 1.13
-3 5 -7 20.64 1.15
-3 5 -7 20.11 0.9
-3 5 -7 20.94 1.02
3 -5 7 19.79 0.95
3 -5 7 18.04 1.14
-4 5 -7 0.16 0.22
-4 5 -7 -0.06 0.29
-4 5 -7 -0.12 0.23
-4 5 -7 0.25 0.39
4 -5 7 -0.19 0.38
4 -5 7 0.4 0.25
4 -5 7 0.73 0.5
-5 5 -7 8.51 0.57
-5 5 -7 10.06 1.08
-5 5 -7 8.77 0.59
-5 5 -7 9.5 0.47
5 -5 7 7.55 0.98
5 -5 7 8 0.52
5 4 -7 4.9 0.72
5 4 -7 4.82 0.5
-5 -4 7 4.2 0.52
-5 -4 7 4.37 0.36
-5 -4 7 3.6 0.38
4 4 -7 16.17 0.76
4 4 -7 15.5 0.83
-4 -4 7 15.26 2.19
-4 -4 7 15.52 0.91
-4 -4 7 16.1 0.78
-4 -4 7 15.95 0.73
3 4 -7 12.6 1.43
3 4 -7 14.47 0.77
3 4 -7 14.44 0.73
-3 -4 7 14.66 0.86
-3 -4 7 13.71 0.89
-3 -4 7 14.59 0.74
-3 -4 7 14.62 0.72
-3 -4 7 13.39 2.2
-3 -4 7 14.01 0.69
-3 -4 7 13.54 0.72
2 4 -7 18.45 1.37
2 4 -7 19.5 1.06
2 4 -7 19.66 0.88
2 4 -7 18.93 0.91
2 4 -7 18.76 1.77
-2 -4 7 18.34 2.02
-2 -4 7 19.95 0.92
-2 -4 7 19 1.06
-2 -4 7 19.69 1.03
-2 -4 7 19.14 0.9
-2 -4 7 19.49 0.91
-2 -4 7 19.34 0.88
1 4 -7 52.19 2.54
1 4 -7 58.12 2.04
1 4 -7 56.21 2.23
1 4 -7 53.6 2.39
1 4 -7 53.64 2.06
-1 -4 7 54.91 2.17
-1 -4 7 55.48 2.05
-1 -4 7 55.54 2.05
-1 -4 7 56.07 2.23
-1 -4 7 57.47 2.08
-1 -4 7 52.63 2.78
-1 -4 7 54.17 2.06
0 4 -7 13.54 0.68
0 4 -7 13.6 0.68
0 4 -7 13.79 1.42
0 4 -7 14.5 0.79
0 4 -7 12.41 1.14
0 -4 7 14.76 0.78
0 -4 7 14.37 0.78
0 -4 7 14.14 0.9
0 -4 7 14.39 0.81
0 -4 7 12.89 0.84
0 -4 7 13.07 0.87
-1 4 -7 100.82 3.66
-1 4 -7 100.9 3.69
-1 4 -7 93.54 4.12
-1 4 -7 100.71 3.98
-1 4 -7 110.19 3.75
-1 4 -7 107.33 3.62
1 -4 7 99.35 3.75
1 -4 7 105.99 3.65
1 -4 7 104.03 3.71
1 -4 7 106.24 3.72
-2 4 -7 0.69 0.24
-2 4 -7 1.01 0.37
-2 4 -7 0.97 0.43
-2 4 -7 0.47 0.36
2 -4 7 0.78 0.27
2 -4 7 1.43 0.34
2 -4 7 0.1 0.33
2 -4 7 1.31 0.37
-3 4 -7 1.31 0.3
-3 4 -7 1.65 0.38
-3 4 -7 0.93 0.25
-3 4 -7 1.74 0.37
3 -4 7 1.26 0.32
3 -4 7 1.55 0.35
3 -4 7 1.23 0.39
3 -4 7 1.07 0.4
-4 4 -7 7.14 0.54
-4 4 -7 8.02 0.71
-4 4 -7 7.7 0.55
-4 4 -7 8.05 0.64
4 -4 7 7.12 0.58
4 -4 7 7.18 0.94
4 -4 7 7.83 0.82
4 -4 7 7.23 0.96
-5 4 -7 17.2 1.02
-5 4 -7 19.25 0.83
-5 4 -7 18.7 0.75
-5 4 -7 19.13 0.98
-5 4 -7 17.61 0.89
-5 4 -7 19.51 0.96
5 -4 7 18.75 0.82
-6 -3 7 2.91 0.4
5 3 -7 0.85 0.26
5 3 -7 0.96 0.42
-5 -3 7 0.99 0.21
-5 -3 7 1.26 0.26
-5 -3 7 0.86 0.34
4 3 -7 15.32 0.83
4 3 -7 12.65 1.75
4 3 -7 15.89 0.74
-4 -3 7 15.58 0.76
-4 -3 7 16.16 0.94
-4 -3 7 14.64 0.77
-4 -3 7 16.23 1.91
-4 -3 7 15.28 0.75
-4 -3 7 15.64 0.72
3 3 -7 8.95 1.18
3 3 -7 7.27 1.25
3 3 -7 10.04 0.61
3 3 -7 9.68 0.66
-3 -3 7 9.95 0.57
-3 -3 7 13.58 1.98
-3 -3 7 9.73 0.6
-3 -3 7 9.69 0.64
-3 -3 7 9.34 0.6
-3 -3 7 9.56 0.78
-3 -3 7 10.86 0.8
2 3 -7 9.74 0.63
2 3 -7 8.86 1.09
2 3 -7 8.28 1.38
-2 -3 7 9.65 0.75
-2 -3 7 9.29 0.82
-2 -3 7 9.03 0.64
-2 -3 7 9.55 0.62
-2 -3 7 9.94 1.64
-2 -3 7 8.85 0.66
1 3 -7 14.85 0.73
1 3 -7 16.05 1.33
1 3 -7 15.29 0.8
1 3 -7 15.23 1.18
-1 -3 7 17.12 1.66
-1 -3 7 14.79 0.79
-1 -3 7 15.12 0.77
-1 -3 7 14.21 0.99
-1 -3 7 13.82 0.82
0 3 -7 27.67 1.21
0 3 -7 24.53 1.62
0 3 -7 23.03 1.61
0 3 -7 26.02 1.06
0 3 -7 25.29 1.46
0 3 -7 25.43 1.17
0 3 -7 27.81 1.46
0 -3 7 26.59 1.12
0 -3 7 25.74 1.09
0 -3 7 25.48 1.85
0 -3 7 26.34 1.32
0 -3 7 27.89 1.27
0 -3 7 25.93 1.2
0 -3 7 25.55 1.17
0 -3 7 22.99 1.16
-1 3 -7 117.13 3.98
-1 3 -7 98.17 4.24
-1 3 -7 103.56 4.16
-1 3 -7 115.04 3.87
-1 3 -7 114.9 3.96
-1 3 -7 110.84 3.85
1 -3 7 105.95 3.97
1 -3 7 112.28 3.88
1 -3 7 112.45 3.94
1 -3 7 108.21 3.89
-2 3 -7 130.17 4.23
-2 3 -7 120.02 4.27
-2 3 -7 116.85 4.29
-2 3 -7 116.74 4.23
2 -3 7 125.59 4.32
2 -3 7 115.12 4.31
2 -3 7 119.93 4.2
2 -3 7 111.67 4.27
-3 3 -7 2.53 0.34
-3 3 -7 2.91 0.56
-3 3 -7 3.8 0.56
-3 3 -7 2.16 0.32
3 -3 7 2.58 0.52
3 -3 7 1.64 0.49
3 -3 7 2.34 0.45
-4 3 -7 1.06 0.33
-4 3 -7 1.09 0.32
-4 3 -7 1.07 0.45
-4 3 -7 0.58 0.22
-4 3 -7 0.33 0.34
4 -3 7 0.34 0.76
4 -3 7 0.36 0.45
4 -3 7 0.37 0.44
-5 3 -7 14.12 0.7
-5 3 -7 14.41 0.8
-5 3 -7 14.83 0.69
-5 3 -7 14.16 0.75
-5 3 -7 13.88 0.59
5 -3 7 14.22 0.7
6 2 -7 26.03 1.03
-6 -2 7 25.87 1
5 2 -7 18.04 0.94
5 2 -7 17.88 0.8
-5 -2 7 17.88 0.81
-5 -2 7 18.06 0.93
-5 -2 7 16.38 1
-5 -2 7 18.65 0.77
-5 -2 7 18.59 0.8
4 2 -7 13.81 1.66
4 2 -7 14.02 0.79
4 2 -7 13.7 0.7
-4 -2 7 14.04 0.88
-4 -2 7 13.85 0.73
-4 -2 7 13.4 0.97
-4 -2 7 12.3 0.73
-4 -2 7 14.92 2.47
-4 -2 7 14.6 0.78
3 2 -7 9.7 1.69
3 2 -7 12.54 1.42
3 2 -7 14.38 0.7
3 2 -7 13.92 0.78
-3 -2 7 14.39 1.94
-3 -2 7 13.83 0.7
-3 -2 7 14.26 0.92
-3 -2 7 13.52 0.76
-3 -2 7 13.06 0.86
2 2 -7 16.23 0.75
2 2 -7 15 0.82
2 2 -7 12.55 1.41
2 2 -7 14.65 1.17
-2 -2 7 14.77 0.76
-2 -2 7 15.08 0.83
-2 -2 7 15.7 1.02
-2 -2 7 15.72 1.76
-2 -2 7 15.45 0.83
-2 -2 7 14.66 0.87
1 2 -7 0.52 0.85
1 2 -7 0.78 0.42
1 2 -7 0.27 0.48
1 2 -7 0.36 0.35
1 2 -7 -0.15 0.62
1 2 -7 0.78 0.36
1 2 -7 0.52 0.24
1 2 -7 0.14 0.62
-1 -2 7 0.35 0.29
-1 -2 7 0 0.37
-1 -2 7 0.11 0.26
-1 -2 7 -0.43 0.88
-1 -2 7 0.07 0.29
0 2 -7 9.15 0.87
0 2 -7 9.72 0.95
0 2 -7 9.93 0.6
0 2 -7 10.13 0.72
0 2 -7 7.4 1.23
0 2 -7 10.09 0.75
0 2 -7 10.89 0.63
0 2 -7 8.43 0.96
0 2 -7 9.84 0.84
0 2 -7 10.44 1.05
0 -2 7 9.38 0.69
0 -2 7 11.06 0.81
0 -2 7 9.55 0.72
0 -2 7 11.28 0.78
0 -2 7 9.8 1.51
0 -2 7 10.48 0.95
0 -2 7 10.38 0.66
-1 2 -7 9.25 0.85
-1 2 -7 11.31 0.77
-1 2 -7 12.01 0.92
-1 2 -7 10.09 0.74
-1 2 -7 10.68 0.62
-1 2 -7 9.39 0.73
-1 2 -7 9.11 1.32
1 -2 7 10.85 0.63
1 -2 7 10.05 0.91
1 -2 7 11.48 0.86
1 -2 7 9.8 0.9
1 -2 7 10.66 0.73
-2 2 -7 21.78 1.03
-2 2 -7 22.18 1.02
-2 2 -7 22.68 1.11
-2 2 -7 22.4 1.11
2 -2 7 21.59 1.12
2 -2 7 23.57 1.11
2 -2 7 21.54 1.23
2 -2 7 22.99 0.99
-3 2 -7 2.82 0.57
-3 2 -7 1.07 0.43
-3 2 -7 2.43 0.43
-3 2 -7 1.49 0.3
3 -2 7 2.21 0.4
3 -2 7 1.7 0.44
-4 2 -7 2.75 0.37
-4 2 -7 3.54 0.63
-4 2 -7 2.5 0.46
-4 2 -7 3.28 0.56
4 -2 7 2.11 0.38
4 -2 7 2.59 1.2
4 -2 7 2.48 0.51
4 -2 7 2.7 0.45
-5 2 -7 5.36 0.52
-5 2 -7 5.79 0.55
-5 2 -7 5.57 0.43
-5 2 -7 4.74 0.42
5 -2 7 5.83 0.48
5 -2 7 4.71 0.53
6 1 -7 18.5 0.87
-6 -1 7 16.34 0.81
-6 -1 7 16.42 0.74
5 1 -7 55.7 2.02
5 1 -7 54.76 2.15
-5 -1 7 55.24 2.13
-5 -1 7 55.48 1.99
-5 -1 7 55.04 2.1
-5 -1 7 58.23 2.03
-5 -1 7 55.29 2.01
4 1 -7 30.53 1.39
4 1 -7 29.47 1.32
4 1 -7 30.74 1.22
4 1 -7 30.14 1.35
-4 -1 7 26.08 2.82
-4 -1 7 32.05 1.25
-4 -1 7 32.45 1.35
-4 -1 7 30.75 1.22
-4 -1 7 31.77 1.4
3 1 -7 4.92 0.5
3 1 -7 4.9 0.73
3 1 -7 4.77 0.6
3 1 -7 3.85 0.75
3 1 -7 6.22 0.79
-3 -1 7 5.68 0.61
-3 -1 7 4.79 0.54
-3 -1 7 2.89 1.33
-3 -1 7 5.46 0.78
-3 -1 7 5.27 0.5
2 1 -7 0.66 0.38
2 1 -7 0.78 0.54
2 1 -7 1.02 0.65
2 1 -7 1.59 0.43
2 1 -7 0.92 0.57
2 1 -7 1.98 0.75
2 1 -7 1.09 0.4
-2 -1 7 1.88 1.11
-2 -1 7 0.93 0.37
-2 -1 7 1.5 0.36
-2 -1 7 1.35 0.32
-2 -1 7 2.05 1.09
-2 -1 7 1.19 0.31
-2 -1 7 0.99 0.47
1 1 -7 6.58 0.74
1 1 -7 6.2 0.64
1 1 -7 6.79 0.91
1 1 -7 5.96 0.96
1 1 -7 6.07 0.54
1 1 -7 6.83 0.56
1 1 -7 6.92 1.2
-1 -1 7 8.02 1.2
-1 -1 7 6.19 0.68
-1 -1 7 5.21 0.96
-1 -1 7 6.45 0.74
-1 -1 7 6.74 0.57
-1 -1 7 7.1 0.59
0 1 -7 24.11 1.08
0 1 -7 24.66 1.02
0 1 -7 23.02 1.07
0 1 -7 21.62 1.74
0 1 -7 24.15 1.46
0 1 -7 24.76 1.21
0 -1 7 24.57 1.16
0 -1 7 19.66 1.72
0 -1 7 24.7 2.03
0 -1 7 24.42 1.17
0 -1 7 23.21 1.14
0 -1 7 24.45 1.07
-1 1 -7 10.35 0.8
-1 1 -7 11.78 0.77
-1 1 -7 11.19 0.67
-1 1 -7 10.75 0.79
1 -1 7 10.9 0.81
1 -1 7 7.29 1.57
1 -1 7 10.48 0.65
1 -1 7 9.23 0.95
1 -1 7 10.64 1.35
1 -1 7 11.71 0.93
-2 1 -7 3.14 0.48
-2 1 -7 3.23 0.55
-2 1 -7 4.13 0.57
-2 1 -7 3.23 0.58
-2 1 -7 3.81 0.61
-2 1 -7 3.36 0.6
2 -1 7 3.19 0.41
2 -1 7 2.3 0.56
2 -1 7 1.44 0.75
2 -1 7 2.28 1.02
2 -1 7 1.68 0.67
2 -1 7 3.05 0.47
-3 1 -7 7.07 0.72
3 -1 7 5.59 0.89
3 -1 7 6.76 0.63
3 -1 7 7.16 0.59
3 -1 7 5.38 0.97
-4 1 -7 21.55 0.81
-4 1 -7 19.8 0.96
-4 1 -7 21.66 0.91
-4 1 -7 22.79 1
4 -1 7 20.34 1.3
4 -1 7 20.14 0.95
-5 1 -7 4.33 0.52
-5 1 -7 5.23 0.6
-5 1 -7 4.61 0.52
-5 1 -7 4.98 0.38
5 -1 7 4.28 0.67
5 -1 7 5.5 0.45
-6 0 7 3.65 0.5
5 0 -7 14.61 0.82
5 0 -7 14.67 0.75
5 0 -7 14.11 0.82
-5 0 7 15.1 0.68
-5 0 7 12.96 0.77
-5 0 7 14.52 0.68
4 0 -7 24.59 1.05
4 0 -7 23.56 1.07
4 0 -7 21.3 1.9
4 0 -7 19.22 1.33
4 0 -7 22.13 1
-4 0 7 19.26 2.68
-4 0 7 24.27 1.01
-4 0 7 25.43 1.1
-4 0 7 24.13 0.99
3 0 -7 0.01 0.33
3 0 -7 0.66 0.28
3 0 -7 0.24 0.69
3 0 -7 0.21 0.74
-3 0 7 0.26 1.67
-3 0 7 0.5 0.24
-3 0 7 0.62 0.3
-3 0 7 0.71 0.36
2 0 -7 -0.17 0.38
2 0 -7 0.26 0.25
2 0 -7 0.66 0.29
2 0 -7 1.11 0.95
2 0 -7 -0.17 0.39
2 0 -7 0.17 0.29
2 0 -7 0.15 0.44
-2 0 7 -1.14 1.1
-2 0 7 0.32 0.24
-2 0 7 0.15 0.3
-2 0 7 0.02 1.47
-2 0 7 0.53 0.29
1 0 -7 1.07 0.6
1 0 -7 0.72 0.33
1 0 -7 0.53 0.32
1 0 -7 0 0.92
1 0 -7 1.65 0.43
1 0 -7 0.97 0.27
1 0 -7 0.75 0.31
-1 0 7 0.77 0.34
-1 0 7 1.18 0.29
-1 0 7 0.1 0.96
-1 0 7 1.21 1.34
-1 0 7 0.6 0.35
-1 0 7 0.39 0.26
0 0 -7 16.2 0.84
0 0 -7 15.4 0.79
0 0 -7 12.88 2.02
0 0 -7 15.82 0.9
0 0 -7 15.53 0.74
0 0 -7 15.4 0.87
0 0 7 13.62 1.69
0 0 7 14.83 0.77
0 0 7 11.81 1.34
0 0 7 15.48 0.97
0 0 7 15.5 0.83
0 0 7 14.83 0.99
-1 0 -7 9.88 0.6
-1 0 -7 10.56 0.76
-1 0 -7 10.42 0.76
-1 0 -7 10.02 0.72
-1 0 -7 10.33 0.64
1 0 7 9.61 0.97
1 0 7 10.2 1.17
1 0 7 9.1 1.07
1 0 7 11.03 0.71
1 0 7 10.04 0.62
1 0 7 9.26 1.71
-2 0 -7 4.76 0.45
-2 0 -7 4.48 0.58
-2 0 -7 4.88 0.66
2 0 7 4.18 0.55
2 0 7 5.44 0.49
2 0 7 5.52 0.82
2 0 7 3.69 0.91
2 0 7 4.47 0.61
-3 0 -7 1.26 0.49
-3 0 -7 0.94 0.34
-3 0 -7 0.7 0.31
-3 0 -7 1.05 0.19
-3 0 -7 0.81 0.24
3 0 7 0.68 0.3
3 0 7 1.39 0.31
3 0 7 1.05 0.53
-4 0 -7 0.45 0.21
-4 0 -7 0.38 0.28
-4 0 -7 -0.75 0.57
-4 0 -7 0.61 0.23
-4 0 -7 0.13 0.31
4 0 7 0.3 0.3
5 -1 -7 0.27 0.57
5 -1 -7 0.29 0.29
-5 1 7 0.35 0.2
-5 1 7 0.84 0.24
4 -1 -7 0.45 0.29
4 -1 -7 0.6 0.28
4 -1 -7 0.29 0.24
-4 1 7 0.77 0.25
-4 1 7 0.45 0.22
-4 1 7 0.62 0.3
3 -1 -7 0.41 0.26
3 -1 -7 0.39 0.33
3 -1 -7 0.36 0.89
3 -1 -7 1.15 0.48
3 -1 -7 0.42 0.29
-3 1 7 0.67 0.33
-3 1 7 -0.19 0.29
-3 1 7 0.15 0.25
2 -1 -7 15.51 1.5
2 -1 -7 18.04 0.83
2 -1 -7 18.12 1.11
-2 1 7 19.92 1.17
-2 1 7 18.27 0.99
-2 1 7 17.17 0.92
1 -1 -7 17.73 1.04
1 -1 -7 19.17 0.89
1 -1 -7 17.51 1.53
1 -1 -7 19.48 0.86
1 -1 -7 20.63 0.92
-1 1 7 17.97 1
-1 1 7 19.02 0.87
-1 1 7 15.89 1.62
-1 1 7 18.92 0.88
0 -1 -7 11.66 0.64
0 -1 -7 12.03 0.63
0 -1 -7 11.98 0.75
0 -1 -7 11.74 1.08
0 1 7 11.71 0.87
0 1 7 11.61 0.64
0 1 7 9.05 1.4
-1 -1 -7 16.96 0.79
-1 -1 -7 17.09 0.96
-1 -1 -7 14.9 1.06
1 1 7 15.39 1.49
1 1 7 16.1 0.85
-2 -1 -7 11.84 0.79
-2 -1 -7 12.78 0.71
-2 -1 -7 12.9 0.72
-2 -1 -7 11.78 0.84
-2 -1 -7 11.99 0.58
-2 -1 -7 11.85 0.72
2 1 7 12.17 0.65
2 1 7 11.68 0.71
2 1 7 11.79 1.05
2 1 7 10.61 1.41
-3 -1 -7 2.41 0.35
-3 -1 -7 3.21 0.39
-3 -1 -7 3.64 0.5
-3 -1 -7 3.09 0.49
3 1 7 3.57 0.48
3 1 7 3.4 0.67
3 1 7 2.04 0.38
-4 -1 -7 1.28 0.25
-4 -1 -7 1.58 0.4
-4 -1 -7 1.87 0.33
4 1 7 1.52 0.37
4 -2 -7 1.78 0.34
4 -2 -7 1.74 0.26
4 -2 -7 1.51 0.36
4 -2 -7 3.3 1.34
4 -2 -7 0.91 0.55
-4 2 7 2.34 0.4
-4 2 7 1.43 0.27
-4 2 7 1.64 0.24
3 -2 -7 -0.52 0.6
3 -2 -7 0.18 0.21
3 -2 -7 0.44 0.27
3 -2 -7 0.13 0.21
3 -2 -7 0.32 0.34
-3 2 7 0.14 0.31
-3 2 7 -0.37 0.23
-3 2 7 0.02 0.21
2 -2 -7 0.81 0.27
2 -2 -7 0.22 0.24
2 -2 -7 0.67 0.25
2 -2 -7 0.27 0.57
2 -2 -7 0.44 0.32
-2 2 7 0.26 0.27
-2 2 7 0.66 0.24
-2 2 7 0.77 0.29
-2 2 7 0.35 0.39
1 -2 -7 5.15 0.46
1 -2 -7 4.27 0.56
1 -2 -7 6.19 0.77
1 -2 -7 4.66 0.42
-1 2 7 4.43 0.48
-1 2 7 3.98 0.61
-1 2 7 5.04 0.51
-1 2 7 4.17 0.61
0 -2 -7 10.83 0.54
0 -2 -7 9.71 1.64
0 -2 -7 10.28 0.65
0 -2 -7 10.14 0.56
0 -2 -7 9.39 0.81
0 -2 -7 10.44 0.61
0 2 7 8.9 0.86
0 2 7 8.45 0.86
0 2 7 8.07 1.03
0 2 7 10.35 0.58
-1 -2 -7 1.92 0.32
-1 -2 -7 1.34 0.3
-1 -2 -7 1.89 0.38
-1 -2 -7 1.67 0.26
-1 -2 -7 1.45 0.28
1 2 7 1.19 0.24
1 2 7 1.15 0.34
-2 -2 -7 0.2 0.3
-2 -2 -7 0.53 0.24
-2 -2 -7 0.27 0.25
-2 -2 -7 0.47 0.56
2 2 7 0.22 0.32
2 2 7 0.88 0.22
-3 -2 -7 1.45 0.34
-3 -2 -7 1.34 0.25
3 2 7 1 0.36
3 -3 -7 0.47 0.31
3 -3 -7 0.51 0.2
3 -3 -7 0.55 0.19
3 -3 -7 0.32 0.24
-3 3 7 0.83 0.2
-3 3 7 0.85 0.24
2 -3 -7 0.74 0.25
2 -3 -7 0.53 0.18
2 -3 -7 0.41 0.21
2 -3 -7 0.49 0.2
-2 3 7 0.58 0.5
-2 3 7 0.44 0.26
-2 3 7 0.3 0.21
1 -3 -7 0.2 0.2
1 -3 -7 0.41 0.23
1 -3 -7 0.17 0.15
1 -3 -7 0.36 0.22
-1 3 7 0.26 0.22
-1 3 7 -0.16 0.34
-1 3 7 0.31 0.28
0 -3 -7 17.79 1.65
0 -3 -7 14.44 0.71
0 -3 -7 16.1 0.72
0 -3 -7 15.24 0.7
0 -3 -7 14.16 0.6
0 3 7 14.88 0.68
-1 -3 -7 1.96 0.27
-1 -3 -7 2.04 0.47
-1 -3 -7 1.28 0.22
1 3 7 1.27 0.2
-2 -3 -7 1.02 0.21
-1 -8 8 1.11 0.18
0 8 -8 16.65 0.79
0 -8 8 18.52 0.74
1 -8 8 5.38 0.45
-3 -7 8 0.83 0.22
2 7 -8 1.95 0.33
2 7 -8 1.61 0.28
-2 -7 8 2.46 0.32
1 7 -8 4.39 0.48
1 7 -8 4.39 0.52
1 7 -8 3.62 0.6
-1 -7 8 3.96 0.42
-1 -7 8 3.15 0.61
-1 -7 8 3.7 0.37
0 7 -8 9.7 0.92
0 7 -8 9.07 0.75
0 -7 8 10.42 0.55
0 -7 8 11.17 0.59
0 -7 8 10.49 0.55
-1 7 -8 27.27 1.16
1 -7 8 30.35 1.12
1 -7 8 29.17 1.13
1 -7 8 27.59 1.11
-2 7 -8 3.54 0.43
2 -7 8 2.79 0.47
2 -7 8 3.2 0.42
2 -7 8 2.45 0.37
-3 7 -8 2.62 0.45
3 -7 8 1.96 0.3
3 -7 8 2.41 0.38
-4 -6 8 12.7 0.56
3 6 -8 3.77 0.45
-3 -6 8 3.71 0.44
-3 -6 8 2.79 0.37
2 6 -8 22.87 0.94
2 6 -8 23.14 0.94
2 6 -8 21.04 1.04
-2 -6 8 23.54 0.92
-2 -6 8 21.39 0.94
-2 -6 8 22.61 0.95
1 6 -8 43.65 1.78
1 6 -8 44.51 1.7
1 6 -8 47.68 1.71
-1 -6 8 44.14 1.73
-1 -6 8 48.91 1.71
-1 -6 8 44.42 1.68
-1 -6 8 47.15 1.7
0 6 -8 2.98 0.46
0 6 -8 2.59 0.4
0 6 -8 2.91 0.5
0 -6 8 2.32 0.38
0 -6 8 3.57 0.47
0 -6 8 2.77 3.55
0 -6 8 2.01 0.28
-1 6 -8 14.3 0.71
-1 6 -8 13.71 0.77
1 -6 8 15.59 0.76
1 -6 8 15.03 0.7
-2 6 -8 1.98 0.52
-2 6 -8 2.31 0.4
2 -6 8 2.81 0.39
2 -6 8 1.93 0.36
2 -6 8 3.16 0.33
2 -6 8 2.88 0.48
-3 6 -8 13.34 0.98
-3 6 -8 12.74 0.79
-3 6 -8 12.02 0.74
3 -6 8 14.09 0.69
3 -6 8 13.12 0.67
3 -6 8 13.28 0.72
-4 6 -8 3.98 0.55
-4 6 -8 6.17 0.56
-4 6 -8 5.21 0.42
4 -6 8 3.9 0.56
4 -6 8 5.78 0.55
4 5 -8 5.18 0.49
-4 -5 8 5.05 0.5
-4 -5 8 5.55 0.39
3 5 -8 3.26 0.45
3 5 -8 2.41 0.3
-3 -5 8 3.26 0.4
-3 -5 8 2.95 0.52
-3 -5 8 4.11 0.48
2 5 -8 24.73 1.99
2 5 -8 26.54 1.19
2 5 -8 30.36 1.41
2 5 -8 28.16 1.1
-2 -5 8 26.5 1.08
-2 -5 8 26.42 1.11
-2 -5 8 26.83 1.25
-2 -5 8 26.8 1.09
-2 -5 8 24.78 3.31
-2 -5 8 26.53 1.11
1 5 -8 11.82 0.77
1 5 -8 11.73 0.64
1 5 -8 12.55 0.65
1 5 -8 10.55 1.56
1 5 -8 11.53 0.99
-1 -5 8 12.62 0.69
-1 -5 8 12.86 0.68
-1 -5 8 12.02 0.75
-1 -5 8 11.28 1.82
0 5 -8 75.59 3.46
0 5 -8 84.71 3.04
0 5 -8 82.89 2.95
0 5 -8 83.13 3.03
0 5 -8 84.6 2.94
0 -5 8 83.44 4.04
-1 5 -8 20.22 0.87
-1 5 -8 18.37 1.32
-1 5 -8 20.77 1.07
-1 5 -8 18.37 0.93
1 -5 8 18.62 1.04
1 -5 8 18.08 1.19
1 -5 8 18.74 0.88
1 -5 8 19.49 2.59
-2 5 -8 2.4 0.46
-2 5 -8 3.31 0.43
-2 5 -8 2.81 0.54
-2 5 -8 2.91 0.43
2 -5 8 2.03 0.57
2 -5 8 3.56 0.46
2 -5 8 0.53 1.6
2 -5 8 3.08 0.39
2 -5 8 3.48 0.55
-3 5 -8 10.69 0.76
-3 5 -8 11.24 0.83
-3 5 -8 10.58 0.69
-3 5 -8 10.3 0.62
3 -5 8 11.76 0.74
3 -5 8 10.75 0.64
3 -5 8 11.22 0.65
-4 5 -8 3.3 0.36
-4 5 -8 2.67 0.35
-4 5 -8 4.68 0.89
-4 5 -8 2.78 0.43
-4 5 -8 3.45 0.47
4 -5 8 3.51 0.4
-5 -4 8 7.09 0.4
4 4 -8 13.29 0.88
4 4 -8 14.28 0.79
4 4 -8 12.96 0.68
-4 -4 8 14.49 0.78
-4 -4 8 13.87 0.64
3 4 -8 22.31 1.04
3 4 -8 20.33 1.02
3 4 -8 21.75 0.92
-3 -4 8 21.53 0.93
-3 -4 8 21.45 0.91
-3 -4 8 20.97 0.94
-3 -4 8 20.73 1.05
-3 -4 8 22.3 0.92
-3 -4 8 22.76 3.68
2 4 -8 4.38 0.61
2 4 -8 5.78 0.48
2 4 -8 5.19 0.95
2 4 -8 5.54 0.66
-2 -4 8 6.51 0.53
-2 -4 8 5.43 0.53
-2 -4 8 4.5 0.52
-2 -4 8 4.28 0.55
-2 -4 8 7.51 1.62
1 4 -8 11.9 0.66
1 4 -8 11.65 0.82
1 4 -8 10.55 1.44
-1 -4 8 12.91 0.77
-1 -4 8 10.06 0.71
-1 -4 8 10.78 2.09
-1 -4 8 12.29 0.68
-1 -4 8 11.8 0.67
0 4 -8 27.3 1.4
0 4 -8 30.48 1.24
0 4 -8 33.82 2.25
0 4 -8 28.65 1.23
0 4 -8 31.54 1.35
0 -4 8 31.97 1.26
0 -4 8 27.88 2.57
0 -4 8 31.58 1.23
-1 4 -8 27.26 1.54
-1 4 -8 32.78 1.46
-1 4 -8 28.67 1.39
1 -4 8 30.23 1.18
1 -4 8 27.32 2.39
1 -4 8 29 1.32
1 -4 8 27.26 1.39
-2 4 -8 9.17 0.82
-2 4 -8 10.19 0.74
-2 4 -8 10.63 0.73
-2 4 -8 9.05 0.61
2 -4 8 9.63 0.86
2 -4 8 8.86 0.68
2 -4 8 9.9 0.72
2 -4 8 9.02 0.6
2 -4 8 6.03 1.5
-3 4 -8 1.58 0.28
-3 4 -8 1.54 0.35
-3 4 -8 1.41 0.31
-3 4 -8 2.36 0.39
3 -4 8 1.87 0.3
3 -4 8 2.45 0.47
3 -4 8 1.78 0.52
-4 4 -8 2.66 0.5
-4 4 -8 1.8 0.29
-4 4 -8 1.99 0.32
-4 4 -8 2.06 0.45
4 -4 8 2.21 0.57
4 -4 8 2.2 0.4
5 3 -8 11.38 0.63
5 3 -8 10.35 0.62
4 3 -8 1.7 0.46
4 3 -8 2.06 0.29
4 3 -8 2.51 0.49
-4 -3 8 2.23 0.36
-4 -3 8 2.37 0.52
-4 -3 8 1.8 0.35
3 3 -8 15.29 0.76
3 3 -8 17.47 1.76
3 3 -8 17.76 0.89
3 3 -8 15.27 0.9
-3 -3 8 16.23 0.88
-3 -3 8 15.09 0.77
-3 -3 8 15.69 0.92
-3 -3 8 16 0.76
-3 -3 8 16.47 0.78
2 3 -8 5.56 0.9
2 3 -8 4.62 0.48
2 3 -8 3.79 0.64
-2 -3 8 4.11 0.59
-2 -3 8 8.16 1.56
1 3 -8 5.16 0.81
1 3 -8 6.74 0.62
1 3 -8 6.62 0.56
1 3 -8 6.59 1.22
-1 -3 8 6.72 0.55
-1 -3 8 7.57 0.59
-1 -3 8 6.38 0.77
-1 -3 8 6.4 0.65
-1 -3 8 6.44 0.58
-1 -3 8 7.23 0.54
0 3 -8 9.23 1.48
0 3 -8 11.02 0.72
0 3 -8 10.92 1.01
0 3 -8 9.3 0.62
0 3 -8 8.54 0.73
0 -3 8 8.92 0.8
0 -3 8 10.25 0.69
0 -3 8 10.03 0.69
0 -3 8 10.37 0.6
-1 3 -8 4.52 0.53
1 -3 8 5.48 0.64
1 -3 8 4.61 0.78
1 -3 8 4.64 0.45
1 -3 8 4.83 1.24
1 -3 8 3.35 0.68
-2 3 -8 14.49 0.83
-2 3 -8 15.93 0.87
-2 3 -8 16.13 0.83
-2 3 -8 15.56 0.89
2 -3 8 15.21 2.28
2 -3 8 15.78 0.76
2 -3 8 16.64 0.85
2 -3 8 15.76 0.98
2 -3 8 14.1 1.03
-3 3 -8 3.44 0.48
-3 3 -8 2.76 0.5
-3 3 -8 2.75 0.41
3 -3 8 1.95 0.5
3 -3 8 2 0.32
3 -3 8 2.12 0.36
-4 3 -8 17.68 0.77
-4 3 -8 16.92 0.82
-4 3 -8 16.62 0.7
4 -3 8 17.48 0.79
5 2 -8 22.12 0.93
-5 -2 8 19.4 1
-5 -2 8 21.25 0.86
-5 -2 8 22.99 0.87
4 2 -8 7.08 0.54
4 2 -8 7.25 0.88
4 2 -8 8.07 0.57
-4 -2 8 6.62 0.44
-4 -2 8 7.13 0.5
-4 -2 8 7.55 0.6
-4 -2 8 6.16 0.66
-4 -2 8 6.84 0.46
3 2 -8 1.1 0.29
3 2 -8 1.72 0.51
3 2 -8 -0.11 0.9
3 2 -8 1.43 0.29
-3 -2 8 1.34 0.27
-3 -2 8 0.96 0.29
-3 -2 8 0.98 0.25
-3 -2 8 0.53 0.38
-3 -2 8 2.21 1.63
-3 -2 8 1.29 0.37
2 2 -8 4.13 0.53
2 2 -8 3.45 0.87
-2 -2 8 5.54 1.5
-2 -2 8 4.65 0.55
-2 -2 8 4.55 0.77
1 2 -8 8.63 0.66
1 2 -8 7.82 0.94
1 2 -8 7.69 0.69
1 2 -8 9.08 1.32
1 2 -8 7.99 0.62
-1 -2 8 9.53 0.59
-1 -2 8 8.39 0.66
-1 -2 8 8.36 0.58
-1 -2 8 9.89 1.47
-1 -2 8 9.31 0.66
0 2 -8 32.85 2.1
0 2 -8 37.92 1.55
0 2 -8 35.42 1.45
0 2 -8 38.31 1.65
0 2 -8 31.88 1.4
0 -2 8 27.98 2.53
0 -2 8 35.78 1.5
0 -2 8 35.53 1.37
-1 2 -8 4.2 0.74
-1 2 -8 5.55 0.86
1 -2 8 4.63 0.85
1 -2 8 5.19 0.75
1 -2 8 4.5 0.79
1 -2 8 4.24 0.51
1 -2 8 5.24 1.39
-2 2 -8 5.49 0.52
-2 2 -8 5.58 0.59
2 -2 8 5.7 0.62
2 -2 8 5.6 0.47
2 -2 8 2.48 1.53
-3 2 -8 2.45 0.36
-3 2 -8 2.39 0.46
-3 2 -8 2.25 0.36
3 -2 8 2.64 0.48
3 -2 8 3.76 0.48
-4 2 -8 2.02 0.37
-4 2 -8 1.27 0.21
-4 2 -8 2.08 0.41
4 -2 8 1.49 0.27
-5 -1 8 9.74 0.5
-5 -1 8 9.4 0.47
4 1 -8 15.69 0.86
-4 -1 8 16.25 0.73
-4 -1 8 16.9 0.76
-4 -1 8 16.49 0.82
-4 -1 8 16.86 0.74
-4 -1 8 20.28 1.5
3 1 -8 2.66 0.5
3 1 -8 2.82 0.5
3 1 -8 3.02 0.41
-3 -1 8 4.12 0.85
-3 -1 8 3.54 0.51
-3 -1 8 3.41 0.47
-3 -1 8 3.62 0.39
2 1 -8 4.99 0.55
2 1 -8 3.41 0.49
2 1 -8 3.86 0.72
2 1 -8 4.35 0.56
2 1 -8 4.99 0.67
-2 -1 8 3.66 1.8
-2 -1 8 4.42 0.47
-2 -1 8 4.82 0.55
-2 -1 8 5.12 0.57
-2 -1 8 4.2 0.55
1 1 -8 30.5 1.93
1 1 -8 34.11 1.37
1 1 -8 33.86 1.36
1 1 -8 31.46 1.32
-1 -1 8 27.47 2.84
0 1 -8 7.49 0.74
0 1 -8 7.22 0.62
0 1 -8 7.7 0.64
0 -1 8 6.8 0.78
0 -1 8 8.93 0.67
0 -1 8 8.41 1.71
-1 1 -8 6.61 0.69
-1 1 -8 7.6 0.58
-1 1 -8 7.93 0.67
-1 1 -8 8.01 0.65
1 -1 8 7.72 0.95
1 -1 8 7.1 2.08
1 -1 8 7.63 0.52
1 -1 8 6.59 0.87
-2 1 -8 1.22 0.31
-2 1 -8 0.88 0.23
-2 1 -8 1.08 0.34
2 -1 8 0.66 0.24
2 -1 8 0.88 0.71
-3 1 -8 2.02 0.3
-3 1 -8 1.28 0.28
-3 1 -8 1.15 0.24
3 -1 8 1.92 0.3
3 -1 8 1.45 0.29
-4 1 -8 0.69 0.24
-4 1 -8 0.88 0.35
-4 1 -8 0.8 0.2
4 -1 8 1.07 0.34
4 0 -8 0.03 0.38
4 0 -8 0.02 0.25
-4 0 8 -0.11 0.22
-4 0 8 -0.08 0.19
-4 0 8 0.01 0.18
3 0 -8 3.03 0.52
3 0 -8 3.09 0.49
3 0 -8 3.17 0.56
3 0 -8 3.04 0.46
3 0 -8 2.69 0.9
-3 0 8 2.76 0.44
-3 0 8 2.82 0.36
-3 0 8 3.1 0.47
2 0 -8 11.84 0.71
2 0 -8 9.99 0.66
2 0 -8 11.93 0.78
2 0 -8 9.63 0.91
-2 0 8 11.65 0.69
-2 0 8 11.63 0.62
-2 0 8 11.88 0.72
-2 0 8 11.12 0.7
1 0 -8 6.48 0.64
1 0 -8 7.6 0.61
1 0 -8 7.13 0.56
1 0 -8 8.64 0.76
1 0 -8 7.93 0.59
-1 0 8 7.37 0.57
-1 0 8 8.21 0.7
-1 0 8 7.93 0.63
-1 0 8 7.79 0.53
0 0 -8 15.46 0.72
0 0 -8 16 0.8
0 0 -8 14.13 0.82
0 0 -8 14.34 0.75
0 0 8 14.48 1
0 0 8 12.76 0.89
0 0 8 14.64 0.7
-1 0 -8 3.39 0.55
-1 0 -8 3.96 0.51
-1 0 -8 3.55 0.53
-1 0 -8 2.76 0.45
-1 0 -8 3.26 0.42
1 0 8 3.75 0.4
1 0 8 3.76 0.68
-2 0 -8 2.08 0.93
-2 0 -8 2.47 0.51
-2 0 -8 1.74 0.29
-2 0 -8 1.97 0.31
2 0 8 1.75 0.26
-3 0 -8 0.91 0.21
3 0 8 1.12 0.29
4 -1 -8 1.94 0.3
4 -1 -8 2.63 0.46
-4 1 8 2.85 0.55
-4 1 8 2.44 0.34
3 -1 -8 1.55 0.27
3 -1 -8 3.31 0.82
3 -1 -8 1.57 0.3
3 -1 -8 1.58 0.39
-3 1 8 1.74 0.37
-3 1 8 1.79 0.32
-3 1 8 2.3 0.43
2 -1 -8 11.11 0.61
2 -1 -8 11.25 0.61
2 -1 -8 11.43 0.63
2 -1 -8 9.98 0.79
2 -1 -8 10.47 1.12
-2 1 8 10.41 0.77
-2 1 8 11.4 0.57
-2 1 8 11.72 0.68
-2 1 8 11.46 0.66
1 -1 -8 1.15 0.26
1 -1 -8 1.46 0.47
1 -1 -8 1.68 0.32
-1 1 8 1.21 0.3
0 -1 -8 1.55 0.27
0 -1 -8 1.78 0.43
0 -1 -8 1.46 0.21
0 -1 -8 1.37 0.3
0 -1 -8 1.14 0.28
0 1 8 1.37 0.23
0 1 8 1.89 0.58
0 1 8 0.8 0.44
-1 -1 -8 6.85 0.66
-1 -1 -8 7.53 0.51
-1 -1 -8 7.33 0.53
-1 -1 -8 7.92 0.42
1 1 8 7.78 0.45
-2 -1 -8 4.99 0.38
-2 -1 -8 4.98 0.78
2 1 8 4.11 0.4
3 -2 -8 0.88 0.2
2 -2 -8 22.96 0.96
2 -2 -8 21.87 0.91
-2 2 8 23.85 0.98
-2 2 8 24.28 0.95
-2 2 8 24.89 1.07
-2 2 8 24.08 1.26
1 -2 -8 1.02 0.24
1 -2 -8 1.76 0.34
1 -2 -8 1.61 0.29
-1 2 8 0.9 0.34
-1 2 8 1.06 0.36
-1 2 8 0.89 0.61
0 -2 -8 4.72 0.46
0 -2 -8 4.61 0.39
0 -2 -8 4.17 0.4
0 -2 -8 3.37 0.52
0 2 8 4.45 0.39
-1 -2 -8 3.61 0.36
-1 -2 -8 4.49 0.46
-1 -7 9 7.03 0.42
0 7 -9 6.65 0.59
0 -7 9 6.48 0.42
0 -7 9 5.56 0.41
-1 7 -9 0.42 0.35
1 -7 9 0.28 0.22
1 -7 9 0.25 0.19
2 6 -9 18.76 0.85
2 6 -9 19.59 0.85
-2 -6 9 18.63 0.87
-2 -6 9 18.95 0.88
1 6 -9 26.85 1.12
1 6 -9 26.71 1.09
-1 -6 9 28.75 1.07
-1 -6 9 29.4 1.13
0 6 -9 9.26 0.56
0 6 -9 9.77 0.78
0 -6 9 10.17 0.51
0 -6 9 8.87 0.49
0 -6 9 9.87 0.54
-1 6 -9 3.58 0.46
1 -6 9 4.02 0.36
1 -6 9 4.59 0.42
1 -6 9 4.35 0.37
-2 6 -9 0.54 0.26
-2 6 -9 -0.7 0.41
2 -6 9 0.21 0.28
2 -6 9 0.25 0.26
2 -6 9 0.25 0.22
3 5 -9 5.37 0.51
3 5 -9 6.22 0.55
-3 -5 9 4.66 0.41
2 5 -9 8.54 0.56
2 5 -9 6.36 0.69
2 5 -9 8.19 0.55
-2 -5 9 8.05 0.52
-2 -5 9 7.21 0.57
1 5 -9 15.05 0.78
1 5 -9 14.38 0.94
-1 -5 9 16.4 0.72
-1 -5 9 15.43 0.7
0 5 -9 7.28 1.09
0 5 -9 7.71 0.72
0 5 -9 5.9 0.47
0 -5 9 6.65 0.51
0 -5 9 7.25 0.47
-1 5 -9 1.21 0.47
-1 5 -9 1.02 0.42
1 -5 9 1.54 0.23
1 -5 9 1.5 0.27
-2 5 -9 1.43 0.45
-2 5 -9 1.22 0.38
-2 5 -9 1.39 0.29
2 -5 9 0.83 0.22
2 -5 9 1.04 0.27
-3 5 -9 23.09 0.92
-3 5 -9 21.56 0.97
-3 5 -9 20.27 1.12
3 -5 9 21.75 0.94
3 -5 9 21.32 0.94
3 -5 9 23.24 0.96
3 4 -9 9.67 0.62
3 4 -9 10.55 0.63
-3 -4 9 10.96 0.54
-3 -4 9 9.92 0.62
2 4 -9 0.93 0.32
2 4 -9 0.81 0.33
2 4 -9 0.39 0.3
-2 -4 9 1.13 0.29
-2 -4 9 0.75 0.24
-2 -4 9 0.48 0.29
1 4 -9 1.21 0.28
1 4 -9 1.09 0.45
-1 -4 9 1.32 0.27
0 4 -9 4.01 0.48
0 4 -9 4.44 0.6
0 4 -9 4.98 0.57
0 -4 9 5.23 0.52
0 -4 9 4.77 0.45
-1 4 -9 3.83 0.72
-1 4 -9 2.93 0.52
-1 4 -9 3 0.5
1 -4 9 2.61 0.38
1 -4 9 3.78 0.51
-2 4 -9 10.95 0.78
-2 4 -9 10.16 0.76
-2 4 -9 11.69 0.63
-2 4 -9 10.58 0.66
2 -4 9 10.63 0.67
2 -4 9 11.73 0.56
2 -4 9 10.82 0.89
-3 4 -9 1.95 0.34
3 -4 9 1.27 0.32
3 -4 9 1.48 0.3
3 -4 9 1.35 0.36
-4 -3 9 7.95 0.43
3 3 -9 30.76 1.53
3 3 -9 29.23 1.23
3 3 -9 30.13 1.2
-3 -3 9 30.49 1.21
-3 -3 9 29.72 1.15
-3 -3 9 31.26 1.15
-3 -3 9 30.26 1.15
2 3 -9 1.7 0.42
2 3 -9 0.85 0.29
2 3 -9 1.3 0.29
-2 -3 9 0.86 0.28
-2 -3 9 1.34 0.32
-2 -3 9 0.56 0.22
-2 -3 9 0.89 0.23
-2 -3 9 0.61 0.27
1 3 -9 10.06 1.1
1 3 -9 10.53 0.66
-1 -3 9 10.68 0.6
-1 -3 9 11.55 0.76
-1 -3 9 10.87 0.67
-1 -3 9 12.03 1.23
0 3 -9 0.1 0.5
0 3 -9 0.39 0.27
0 3 -9 0.99 0.37
0 -3 9 0.64 0.22
-1 3 -9 4.58 0.49
-1 3 -9 3.95 0.46
1 -3 9 5.25 0.62
1 -3 9 3.91 0.4
-2 3 -9 15.39 0.79
-2 3 -9 15.38 0.76
-2 3 -9 14.86 0.71
2 -3 9 14.51 0.99
2 -3 9 14.92 0.69
-3 3 -9 0.26 0.17
-3 3 -9 0.32 0.28
3 -3 9 0.84 0.28
3 -3 9 0.46 0.58
3 -3 9 0.92 0.29
-4 -2 9 2.81 0.3
3 2 -9 2.18 0.39
-3 -2 9 2.13 0.42
-3 -2 9 1.93 0.35
-3 -2 9 2.72 0.39
-3 -2 9 2.69 0.33
2 2 -9 13.58 1.36
2 2 -9 13.94 0.7
-2 -2 9 13.65 0.71
-2 -2 9 12.57 0.72
-2 -2 9 13.71 0.68
-2 -2 9 13.05 0.68
-2 -2 9 13.62 0.64
1 2 -9 1.49 0.38
1 2 -9 1.22 0.3
-1 -2 9 0.43 0.25
-1 -2 9 0.82 0.24
-1 -2 9 0.91 0.28
-1 -2 9 1.06 0.29
0 2 -9 -0.31 0.23
0 2 -9 -0.08 0.28
0 -2 9 0.22 0.32
0 -2 9 0.17 0.2
0 -2 9 0.21 0.4
0 -2 9 -0.07 0.29
-1 2 -9 1.91 0.32
-1 2 -9 2.91 0.43
-1 2 -9 2.68 0.41
1 -2 9 2.13 0.39
1 -2 9 2.64 0.34
-2 2 -9 32.16 1.29
-2 2 -9 33.63 1.22
-2 2 -9 32.76 1.26
2 -2 9 31.69 1.38
2 -2 9 31.81 1.86
2 -2 9 32.48 1.22
-3 2 -9 0.48 0.24
3 -2 9 -0.22 0.35
3 1 -9 4.71 0.97
3 1 -9 6.14 0.58
-3 -1 9 6.3 0.47
-3 -1 9 6.78 0.45
-3 -1 9 6.29 0.4
-3 -1 9 6.52 0.46
2 1 -9 1.7 1.67
2 1 -9 1.6 0.29
-2 -1 9 2.11 0.27
-2 -1 9 1.94 0.31
-2 -1 9 2.18 0.41
-2 -1 9 2.17 0.34
1 1 -9 7.57 0.8
1 1 -9 6.73 0.57
1 1 -9 6.49 0.52
-1 -1 9 6.64 0.56
-1 -1 9 5.52 0.56
-1 -1 9 5.96 0.57
-1 -1 9 6.57 0.45
0 1 -9 3.15 0.43
0 1 -9 2.92 0.46
0 -1 9 3.24 0.36
0 -1 9 3.26 0.57
0 -1 9 2.36 0.43
-1 1 -9 1.19 0.25
-1 1 -9 0.87 0.19
1 -1 9 1.08 0.21
-2 1 -9 1.38 0.23
-2 1 -9 0.88 0.25
2 0 -9 3.12 0.93
2 0 -9 3.05 0.44
2 0 -9 2.9 0.46
2 0 -9 4.01 0.44
-2 0 9 4.46 0.38
-2 0 9 4.14 0.5
1 0 -9 3.61 0.39
1 0 -9 4.14 0.51
-1 0 9 4.47 0.64
-1 0 9 4.23 0.54
0 0 -9 3.31 0.33
0 0 -9 3.52 0.49
0 0 -9 2.33 0.44
0 0 -9 3.31 0.48
0 0 9 2.53 0.44
0 0 9 2.62 0.32
-1 0 -9 4.38 0.3
1 0 9 4.65 0.52
0 -5 10 4.32 0.34
0 4 -10 4.76 0.52
0 4 -10 4.39 0.76
0 3 -10 1.38 0.29
