#------------------------------------------------------------------------------
#$Date: 2019-11-25 14:41:24 +0200 (Mon, 25 Nov 2019) $
#$Revision: 241113 $
#$URL: file:///home/coder/svn-repositories/cod/cif/4/13/07/4130733.cif $
#------------------------------------------------------------------------------
#
# This file is available in the Crystallography Open Database (COD),
# http://www.crystallography.net/
#
# All data on this site have been placed in the public domain by the
# contributors.
#
data_4130733
loop_
_publ_author_name
'Wu, Xuesong'
'Chen, Zhiwei'
'Bai, Yu-Bin'
'Dong, Vy M.'
_publ_section_title
;
 Diastereodivergent Construction of Bicyclic \g-Lactones via
 Enantioselective Ketone Hydroacylation.
;
_journal_issue                   37
_journal_name_full               'Journal of the American Chemical Society'
_journal_page_first              12013
_journal_page_last               12016
_journal_paper_doi               10.1021/jacs.6b06227
_journal_volume                  138
_journal_year                    2016
_chemical_absolute_configuration ad
_chemical_formula_moiety         'C17 H20 O3'
_chemical_formula_sum            'C17 H20 O3'
_chemical_formula_weight         272.33
_chemical_name_systematic
(3aR,7aS)-3a-Benzyl-6,6-dimethylhexahydrobenzofuran-2,4-dione
_space_group_crystal_system      monoclinic
_space_group_IT_number           4
_space_group_name_Hall           'P 2yb'
_space_group_name_H-M_alt        'P 1 21 1'
_atom_sites_solution_hydrogens   geom
_audit_creation_date             2016-05-20
_audit_creation_method
;
Olex2 1.2-beta
(compiled 2016.02.19 svn.r3266 for OlexSys, GUI svn.r5155)
;
_cell_angle_alpha                90
_cell_angle_beta                 109.9660(10)
_cell_angle_gamma                90
_cell_formula_units_Z            2
_cell_length_a                   10.7939(2)
_cell_length_b                   6.10190(10)
_cell_length_c                   11.6030(3)
_cell_measurement_reflns_used    9666
_cell_measurement_temperature    125.0
_cell_measurement_theta_max      70.31
_cell_measurement_theta_min      4.05
_cell_volume                     718.28(3)
_computing_cell_refinement       'SAINT v8.37A (Bruker, 2016)'
_computing_data_collection       'APEX3 v2016.1-0 (Bruker, 2016)'
_computing_data_reduction        'SAINT v8.37A (Bruker, 2016)'
_computing_molecular_graphics    'Olex2 (Dolomanov et al., 2009)'
_computing_publication_material  'Olex2 (Dolomanov et al., 2009)'
_computing_structure_refinement  'XL (Sheldrick, 2008)'
_computing_structure_solution    'ShelXT (Sheldrick, 2015)'
_diffrn_ambient_temperature      125.0
_diffrn_detector                 'Bruker Platinum135 CCD'
_diffrn_detector_area_resol_mean 7.9
_diffrn_detector_type            'CCD Area Detector'
_diffrn_measured_fraction_theta_full 0.999
_diffrn_measured_fraction_theta_max 0.997
_diffrn_measurement_device       'Fixed Chi Three-Circle Diffractometer'
_diffrn_measurement_device_type  'Bruker D8 Pt-135'
_diffrn_measurement_method       '\w and \f scans'
_diffrn_radiation_monochromator  'Multilayer Mirrors'
_diffrn_radiation_probe          x-ray
_diffrn_radiation_type           CuK\a
_diffrn_radiation_wavelength     1.54178
_diffrn_reflns_av_R_equivalents  0.0437
_diffrn_reflns_av_unetI/netI     0.0309
_diffrn_reflns_Laue_measured_fraction_full 0.999
_diffrn_reflns_Laue_measured_fraction_max 0.997
_diffrn_reflns_limit_h_max       12
_diffrn_reflns_limit_h_min       -13
_diffrn_reflns_limit_k_max       7
_diffrn_reflns_limit_k_min       -7
_diffrn_reflns_limit_l_max       14
_diffrn_reflns_limit_l_min       -14
_diffrn_reflns_number            11781
_diffrn_reflns_point_group_measured_fraction_full 0.997
_diffrn_reflns_point_group_measured_fraction_max 0.991
_diffrn_reflns_theta_full        67.500
_diffrn_reflns_theta_max         70.309
_diffrn_reflns_theta_min         4.053
_diffrn_source                   'Micro Focus Rotating Anode'
_diffrn_source_type              'Bruker FR-591'
_diffrn_standards_number         0
_exptl_absorpt_coefficient_mu    0.683
_exptl_absorpt_correction_T_max  0.5220
_exptl_absorpt_correction_T_min  0.4092
_exptl_absorpt_correction_type   multi-scan
_exptl_absorpt_process_details
;
SADABS-2014/5 (Bruker,2014/5) was used for absorption correction.
wR2(int) was 0.1126 before and 0.0625 after correction.
The Ratio of minimum to maximum transmission is 0.7839.
The \l/2 correction factor is Not present.
;
_exptl_crystal_colour            colourless
_exptl_crystal_colour_primary    colourless
_exptl_crystal_density_diffrn    1.259
_exptl_crystal_description       block
_exptl_crystal_F_000             292
_exptl_crystal_size_max          0.2
_exptl_crystal_size_mid          0.18
_exptl_crystal_size_min          0.125
_refine_diff_density_max         0.159
_refine_diff_density_min         -0.140
_refine_diff_density_rms         0.029
_refine_ls_abs_structure_details
;
 Flack x determined using 1152 quotients [(I+)-(I-)]/[(I+)+(I-)]
 (Parsons, Flack and Wagner, Acta Cryst. B69 (2013) 249-259).
;
_refine_ls_abs_structure_Flack   -0.02(7)
_refine_ls_extinction_coef       0.0054(10)
_refine_ls_extinction_expression Fc^*^=kFc[1+0.001xFc^2^\l^3^/sin(2\q)]^-1/4^
_refine_ls_extinction_method     'SHELXL-2014/7 (Sheldrick 2014'
_refine_ls_goodness_of_fit_ref   1.047
_refine_ls_hydrogen_treatment    constr
_refine_ls_matrix_type           full
_refine_ls_number_parameters     184
_refine_ls_number_reflns         2719
_refine_ls_number_restraints     1
_refine_ls_restrained_S_all      1.046
_refine_ls_R_factor_all          0.0270
_refine_ls_R_factor_gt           0.0261
_refine_ls_shift/su_max          0.000
_refine_ls_shift/su_mean         0.000
_refine_ls_structure_factor_coef Fsqd
_refine_ls_weighting_details
'w=1/[\s^2^(Fo^2^)+(0.0256P)^2^+0.1323P] where P=(Fo^2^+2Fc^2^)/3'
_refine_ls_weighting_scheme      calc
_refine_ls_wR_factor_gt          0.0639
_refine_ls_wR_factor_ref         0.0646
_reflns_Friedel_coverage         0.807
_reflns_Friedel_fraction_full    0.994
_reflns_Friedel_fraction_max     0.985
_reflns_number_gt                2645
_reflns_number_total             2719
_reflns_threshold_expression     'I > 2\s(I)'
_cod_data_source_file            ja6b06227_si_002.cif
_cod_data_source_block           uci_xw176-1_compound_2g
_cod_depositor_comments
;
The following automatic conversions were performed:

data item '_diffrn_radiation_probe' value 'X-ray' was changed to
'x-ray' in accordance with the
/home/saulius/struct/COD-crude-data/automatic-downloads/DataCite-retrospective/ACS/depositions/lib/dictionaries/cif_core.dic
dictionary named 'cif_core.dic' version 2.4.2 last updated on
2011-04-26.

Automatic conversion script
Id: cif_fix_values 6909 2019-04-08 15:41:33Z antanas 
;
_cod_database_code               4130733
_shelx_space_group_comment
;
The symmetry employed for this shelxl refinement is uniquely defined
by the following loop, which should always be used as a source of
symmetry information in preference to the above space-group names.
They are only intended as comments.
;
_olex2_refinement_description
;
1. Fixed Uiso
 At 1.2 times of:
  All C(H) groups, All C(H,H) groups
 At 1.5 times of:
  All C(H,H,H) groups
2.a Ternary CH refined with riding coordinates:
 C8(H8)
2.b Secondary CH2 refined with riding coordinates:
 C2(H2A,H2B), C5(H5A,H5B), C7(H7A,H7B), C11(H11A,H11B)
2.c Aromatic/amide H refined with riding coordinates:
 C13(H13), C14(H14), C15(H15), C16(H16), C17(H17)
2.d Idealised Me refined as rotating group:
 C9(H9A,H9B,H9C), C10(H10A,H10B,H10C)
;
_shelx_res_file
;
    uci_xw176-1.res created by SHELXL-2014/7

TITL UCI_XW176-1_a.res in P2(1)
REM Old TITL UCI_XW176-1 in P2(1)
REM SHELXT solution in P2(1)
REM R1 0.090, Rweak 0.029, Alpha 0.003, Orientation as input
REM Flack x = 0.034 ( 0.071 ) from Parsons' quotients
REM Formula found by SHELXT: C17 O3
CELL 1.54178 10.7939 6.1019 11.603 90 109.966 90
ZERR 2 0.0002 0.0001 0.0003 0 0.001 0
LATT -1
SYMM -X,0.5+Y,-Z
SFAC C H O
UNIT 34 40 6

L.S. 10
PLAN  3
TEMP -148.15
BOND $H
ACTA 135
fmap 2
MORE -1
CONF
OMIT 1 0 2
REM <olex2.extras>
REM <HklSrc "%.\\UCI_XW176-1.hkl">
REM </olex2.extras>

WGHT    0.025600    0.132300
EXTI    0.005390
FVAR       0.25294
O1    3    0.072268    0.309420    0.560245    11.00000    0.01458    0.02477 =
         0.01653    0.00058    0.00196   -0.00413
O2    3    0.066772    0.389881    0.370778    11.00000    0.01900    0.02917 =
         0.01849    0.00061    0.00301    0.00180
O3    3    0.359673    0.808520    0.789150    11.00000    0.02706    0.01472 =
         0.03253   -0.00081    0.01074   -0.00361
C1    1    0.111921    0.426189    0.478993    11.00000    0.01257    0.02093 =
         0.01986    0.00436    0.00438    0.00406
C2    1    0.218765    0.588330    0.547525    11.00000    0.01405    0.01979 =
         0.02086    0.00477    0.00377   -0.00028
AFIX  23
H2A   2    0.181616    0.735055    0.552189    11.00000   -1.20000
H2B   2    0.287494    0.601323    0.509173    11.00000   -1.20000
AFIX   0
C3    1    0.272472    0.479702    0.673718    11.00000    0.01214    0.01531 =
         0.01915    0.00302    0.00416    0.00004
C4    1    0.332117    0.616434    0.789257    11.00000    0.01084    0.01767 =
         0.02420    0.00107    0.00482    0.00011
C5    1    0.349247    0.487276    0.905275    11.00000    0.02151    0.02248 =
         0.01864    0.00112   -0.00059   -0.00624
AFIX  23
H5A   2    0.380632    0.588032    0.976231    11.00000   -1.20000
H5B   2    0.418546    0.375422    0.915103    11.00000   -1.20000
AFIX   0
C6    1    0.221981    0.370402    0.908354    11.00000    0.02217    0.02607 =
         0.01743    0.00166    0.00381   -0.00505
C7    1    0.151606    0.247430    0.786608    11.00000    0.01459    0.01981 =
         0.01975    0.00089    0.00486   -0.00405
AFIX  23
H7A   2    0.202939    0.115945    0.780909    11.00000   -1.20000
H7B   2    0.062924    0.199557    0.783615    11.00000   -1.20000
AFIX   0
C8    1    0.139957    0.400157    0.681629    11.00000    0.01173    0.01888 =
         0.01628   -0.00114    0.00217   -0.00200
AFIX  13
H8    2    0.089625    0.532184    0.691530    11.00000   -1.20000
AFIX   0
C9    1    0.261284    0.203053    1.012832    11.00000    0.03640    0.04022 =
         0.02210    0.00689    0.00347   -0.01416
AFIX 137
H9A   2    0.317440    0.090280    0.995949    11.00000   -1.50000
H9B   2    0.181861    0.134537    1.019430    11.00000   -1.50000
H9C   2    0.309724    0.277155    1.090035    11.00000   -1.50000
AFIX   0
C10   1    0.130331    0.542765    0.932621    11.00000    0.03537    0.03865 =
         0.02603   -0.00618    0.01299   -0.00263
AFIX 137
H10A  2    0.175481    0.615381    1.011126    11.00000   -1.50000
H10B  2    0.050194    0.471230    0.935605    11.00000   -1.50000
H10C  2    0.106781    0.651772    0.866630    11.00000   -1.50000
AFIX   0
C11   1    0.366305    0.289312    0.671349    11.00000    0.01496    0.01397 =
         0.02577    0.00211    0.00607    0.00008
AFIX  23
H11A  2    0.372276    0.188914    0.740067    11.00000   -1.20000
H11B  2    0.326153    0.206218    0.594268    11.00000   -1.20000
AFIX   0
C12   1    0.505533    0.354071    0.680505    11.00000    0.01434    0.01772 =
         0.01369   -0.00058    0.00290    0.00025
C13   1    0.541206    0.559926    0.650575    11.00000    0.01588    0.01782 =
         0.02269    0.00102    0.00612    0.00069
AFIX  43
H13   2    0.476583    0.672106    0.624514    11.00000   -1.20000
AFIX   0
C14   1    0.670484    0.603393    0.658377    11.00000    0.02056    0.02440 =
         0.02249   -0.00092    0.00986   -0.00605
AFIX  43
H14   2    0.693240    0.744607    0.637451    11.00000   -1.20000
AFIX   0
C15   1    0.766080    0.442025    0.696456    11.00000    0.01339    0.03502 =
         0.02120   -0.00600    0.00776   -0.00158
AFIX  43
H15   2    0.853998    0.471331    0.700787    11.00000   -1.20000
AFIX   0
C16   1    0.732322    0.238118    0.728064    11.00000    0.01554    0.03069 =
         0.02194   -0.00014    0.00439    0.00742
AFIX  43
H16   2    0.797582    0.127128    0.755177    11.00000   -1.20000
AFIX   0
C17   1    0.603423    0.194374    0.720431    11.00000    0.01970    0.01973 =
         0.01859    0.00110    0.00534    0.00346
AFIX  43
H17   2    0.581616    0.053545    0.742745    11.00000   -1.20000
AFIX   0
HKLF 4

REM  UCI_XW176-1_a.res in P2(1)
REM R1 =  0.0261 for    2645 Fo > 4sig(Fo)  and  0.0270 for all    2719 data
REM    184 parameters refined using      1 restraints

END

WGHT      0.0256      0.1323

REM Highest difference peak  0.159,  deepest hole -0.140,  1-sigma level  0.029
Q1    1   0.2943  0.5476  0.7243  11.00000  0.05    0.16
Q2    1   0.1824  0.3154  0.8456  11.00000  0.05    0.16
Q3    1   0.2130  0.4304  0.6838  11.00000  0.05    0.14
;
_shelx_res_checksum              86173
_shelx_hkl_file
;
   1   0   0    2.52    0.16
   1   0   0    2.48    0.12
   1   0   0    2.45    0.12
   2   0   0  127.06    5.73
   2   0   0  124.79    5.65
  -2   0   0  129.29    5.74
   2   0   0  123.15    5.65
   3   0   0    4.17    0.24
   3   0   0    4.92    0.33
   4   0   0   30.13    1.41
   4   0   0   23.17    1.21
   4   0   0   26.16    1.26
   4   0   0   28.85    1.26
   4   0   0   25.25    1.21
   5   0   0   23.89    1.23
   5   0   0   27.49    1.25
   5   0   0   25.47    1.18
   6   0   0    1.82    0.12
   6   0   0    1.48    0.28
   6   0   0    1.78    0.18
  -6   0   0    1.72    0.14
  -7   0   0   27.15    1.32
   7   0   0   29.52    1.32
  -7   0   0   27.52    1.33
   7   0   0   26.76    1.39
  -7   0   0   27.49    1.32
  -7   0   0   28.84    1.33
  -8   0   0    9.36    0.49
   8   0   0    8.87    0.49
  -8   0   0    8.93    0.49
  -8   0   0    8.47    0.48
  -8   0   0    9.86    0.50
  -8   0   0    8.89    0.50
  -8   0   0    7.91    0.49
  -9   0   0   -0.08    0.08
  -9   0   0    0.05    0.09
  -9   0   0    0.01    0.07
  -9   0   0   -0.06    0.09
  -9   0   0   -0.03    0.07
  -9   0   0   -0.05    0.08
   9   0   0    0.01    0.08
 -10   0   0   11.27    0.58
 -10   0   0   11.74    0.58
 -10   0   0   10.88    0.59
 -10   0   0   10.68    0.59
 -10   0   0   11.26    0.59
  10   0   0   10.37    0.51
 -10   0   0   10.64    0.57
  11   0   0    0.60    0.07
 -11   0   0    0.51    0.11
 -11   0   0    0.57    0.11
 -11   0   0    0.42    0.10
 -11   0   0    0.68    0.12
 -12   0   0    0.21    0.07
 -12   0   0    0.14    0.07
 -12   0   0    0.18    0.08
   0  -1   0    0.00    0.02
   0  -1   0    0.00    0.02
   0   1   0    0.01    0.04
   0   1   0    0.01    0.02
   0   1   0    0.00    0.02
   0   1   0   -0.01    0.02
   1  -1   0  155.74    6.74
  -1  -1   0  147.54    6.65
   1  -1   0  145.89    6.69
   1  -1   0  140.89    6.65
   1  -1   0  165.21    6.70
  -1  -1   0  160.98    6.76
   1   1   0  133.55    6.64
   1   1   0  134.39    6.66
   1   1   0  148.99    6.75
  -1   1   0  143.20    6.69
  -1   1   0  154.65    6.68
   2  -1   0  147.26    6.73
   2  -1   0  150.01    6.69
  -2  -1   0  159.40    6.78
   2  -1   0  145.44    6.63
  -2   1   0  142.80    6.73
  -2   1   0  151.21    6.67
   2   1   0  150.13    6.63
   2   1   0  135.22    6.76
   3  -1   0   50.65    2.27
   3  -1   0   41.23    2.18
   3  -1   0   52.07    2.21
   3  -1   0   47.45    2.14
  -3   1   0   39.57    2.23
   3   1   0   49.24    2.11
   3   1   0   48.11    2.30
   3   1   0   46.13    2.11
   4  -1   0   30.02    1.53
   4  -1   0   31.30    1.46
   4  -1   0   31.29    1.62
   4   1   0   31.65    1.67
   4   1   0   32.25    1.43
   4   1   0   32.22    1.43
   5  -1   0    4.01    0.31
   5  -1   0    3.70    0.23
   5  -1   0    3.26    0.17
   5  -1   0    3.21    0.34
   5   1   0    3.39    0.38
   5   1   0    3.54    0.20
   5   1   0    3.83    0.20
  -6  -1   0    1.15    0.11
   6  -1   0    1.27    0.19
   6  -1   0    1.39    0.13
   6  -1   0    1.06    0.07
  -6   1   0    0.98    0.11
   6   1   0    1.06    0.07
   6   1   0    1.10    0.25
   6   1   0    1.02    0.09
   6   1   0    1.06    0.09
  -7  -1   0    6.51    0.38
   7  -1   0    6.56    0.33
   7  -1   0    7.62    0.42
  -7  -1   0    6.28    0.39
  -7  -1   0    6.74    0.39
  -7  -1   0    7.02    0.38
  -7   1   0    6.98    0.39
  -7   1   0    6.63    0.40
  -7   1   0    6.60    0.39
  -7   1   0    6.94    0.38
  -7   1   0    6.34    0.38
   7   1   0    7.08    0.35
  -7   1   0    7.07    0.39
  -8  -1   0    0.18    0.09
   8  -1   0    0.19    0.10
  -8  -1   0    0.16    0.08
   8  -1   0    0.17    0.04
  -8  -1   0    0.15    0.09
  -8  -1   0    0.12    0.09
  -8  -1   0    0.33    0.08
  -8   1   0    0.30    0.09
  -8   1   0    0.37    0.09
  -8   1   0    0.27    0.09
   8   1   0    0.20    0.06
  -8   1   0    0.13    0.08
  -8   1   0    0.19    0.09
  -8   1   0    0.06    0.07
  -9  -1   0    0.38    0.11
   9  -1   0    0.45    0.06
  -9  -1   0    0.49    0.11
  -9  -1   0    0.41    0.11
  -9  -1   0    0.49    0.11
  -9  -1   0    0.51    0.11
   9  -1   0    0.26    0.12
  -9   1   0    0.49    0.11
   9   1   0    0.36    0.09
  -9   1   0    0.46    0.12
  -9   1   0    0.51    0.11
  -9   1   0    0.70    0.12
  -9   1   0    0.28    0.10
  -9   1   0    0.50    0.11
 -10  -1   0    1.35    0.15
  10  -1   0    1.01    0.09
 -10  -1   0    0.84    0.16
  10  -1   0    1.23    0.09
 -10  -1   0    1.04    0.15
 -10  -1   0    0.99    0.15
 -10   1   0    0.90    0.16
 -10   1   0    0.99    0.15
 -10   1   0    1.11    0.14
 -10   1   0    1.17    0.16
 -10   1   0    0.94    0.15
 -10   1   0    1.14    0.17
  11  -1   0    2.72    0.16
  11  -1   0    2.95    0.16
 -11  -1   0    2.84    0.22
 -11  -1   0    2.59    0.21
 -11  -1   0    2.72    0.21
 -11   1   0    3.13    0.23
 -11   1   0    3.05    0.21
 -11   1   0    3.08    0.22
 -11   1   0    2.92    0.22
 -11   1   0    3.06    0.22
 -12   1   0    0.83    0.12
 -12   1   0    0.83    0.10
 -12   1   0    0.66    0.11
   0  -2   0   17.73    0.90
   0  -2   0   19.38    1.02
   0   2   0   16.86    0.85
   0   2   0   19.17    0.90
   0   2   0   15.86    0.91
  -1  -2   0   37.74    2.00
   1  -2   0   44.55    2.06
   1  -2   0   45.63    2.15
   1  -2   0   36.22    1.97
  -1  -2   0   45.13    2.16
   1   2   0   45.28    1.98
   1   2   0   42.64    2.03
  -1   2   0   45.37    2.04
   1   2   0   46.52    2.02
  -1   2   0   41.11    1.99
   2  -2   0   25.87    1.35
  -2  -2   0   26.11    1.39
   2  -2   0   25.73    1.28
   2  -2   0   24.02    1.19
   2   2   0   26.08    1.21
  -2   2   0   25.05    1.25
   2   2   0   23.54    1.22
   2   2   0   24.31    1.16
   3  -2   0   15.57    0.93
  -3  -2   0   16.09    0.99
   3  -2   0   15.97    0.88
   3  -2   0   15.27    0.72
   3  -2   0   15.66    0.79
   3   2   0   17.03    0.78
  -3   2   0   15.28    0.83
   3   2   0   14.54    0.79
   3   2   0   16.49    0.74
   4  -2   0    3.57    0.37
   4  -2   0    3.89    0.19
   4  -2   0    3.84    0.26
   4  -2   0    4.27    0.35
   4   2   0    3.81    0.20
   4   2   0    4.11    0.23
   4   2   0    3.54    0.24
   5  -2   0    5.75    0.46
   5  -2   0    5.76    0.29
   5  -2   0    6.17    0.38
   5   2   0    5.90    0.29
   5   2   0    6.33    0.32
   5   2   0    5.67    0.58
  -5   2   0    5.78    0.32
   6  -2   0    6.16    0.30
   6  -2   0    6.67    0.41
   6  -2   0    5.81    0.30
   6  -2   0    5.88    0.50
  -6   2   0    5.98    0.38
  -6   2   0    6.37    0.35
   7  -2   0   12.73    0.59
   7  -2   0   13.02    0.71
   7  -2   0   12.20    0.58
  -7  -2   0   11.67    0.62
  -7  -2   0   11.58    0.62
  -7   2   0   12.40    0.64
  -7   2   0   11.87    0.64
   7   2   0   11.48    0.59
  -7   2   0   12.65    0.65
  -7   2   0   12.22    0.64
  -7   2   0   13.51    0.65
  -7   2   0   12.67    0.66
  -7   2   0   12.67    0.63
  -8  -2   0    3.64    0.26
   8  -2   0    3.76    0.34
   8  -2   0    4.06    0.22
  -8  -2   0    4.14    0.27
   8  -2   0    4.33    0.22
  -8   2   0    3.89    0.28
  -8   2   0    4.07    0.30
  -8   2   0    3.77    0.27
  -8   2   0    4.43    0.28
  -8   2   0    4.14    0.29
  -8   2   0    4.14    0.28
  -8   2   0    4.08    0.27
   9  -2   0   17.38    0.82
  -9  -2   0   16.88    0.86
  -9  -2   0   16.75    0.86
   9  -2   0   17.93    0.82
  -9   2   0   16.51    0.87
  -9   2   0   18.49    0.89
  -9   2   0   18.15    0.89
  -9   2   0   17.54    0.88
  -9   2   0   17.89    0.89
  -9   2   0   18.01    0.90
  10  -2   0    0.31    0.05
  10  -2   0    0.28    0.05
 -10   2   0    0.13    0.11
 -10   2   0    0.16    0.08
 -10   2   0    0.34    0.10
 -10   2   0    0.30    0.10
 -10   2   0    0.46    0.11
  11  -2   0    0.97    0.08
 -11   2   0    0.94    0.13
 -11   2   0    0.90    0.14
 -11   2   0    0.93    0.13
 -11   2   0    0.92    0.12
 -11   2   0    1.03    0.14
   0  -3   0    0.00    0.10
   0   3   0    0.00    0.05
   0   3   0   -0.01    0.02
   0   3   0    0.01    0.06
   1  -3   0    0.23    0.15
  -1  -3   0    0.16    0.14
  -1   3   0    0.20    0.07
   1   3   0    0.24    0.04
  -1   3   0    0.20    0.10
  -1   3   0    0.33    0.05
   1   3   0    0.26    0.10
   1   3   0    0.33    0.08
   2  -3   0    9.78    0.74
   2  -3   0    9.69    0.66
  -2  -3   0   10.42    0.79
   2   3   0   10.68    0.55
   2   3   0   11.50    0.62
  -2   3   0    9.64    0.62
   2   3   0   10.14    0.48
   3  -3   0   15.07    1.02
   3  -3   0   14.95    0.72
   3  -3   0   14.93    0.93
  -3  -3   0   15.14    1.07
   3  -3   0   15.05    0.81
   3   3   0   14.29    0.71
   3   3   0   17.59    0.85
   3   3   0   17.30    0.79
   4  -3   0    3.19    0.17
   4  -3   0    3.11    0.17
   4  -3   0    2.92    0.35
   4  -3   0    3.04    0.26
   4   3   0    3.05    0.21
   4   3   0    3.07    0.25
   5  -3   0   11.15    0.51
   5  -3   0   10.73    0.63
  -5  -3   0    9.94    0.53
   5  -3   0   10.09    0.77
   5  -3   0   11.48    0.51
   5   3   0   10.10    0.58
  -5   3   0   10.24    0.57
  -5   3   0   10.24    0.55
  -5   3   0   10.36    0.56
  -5   3   0   11.07    0.57
   5   3   0   11.80    0.57
  -6  -3   0    5.92    0.33
  -6  -3   0    6.05    0.34
   6  -3   0    6.39    0.31
   6  -3   0    5.96    0.44
   6  -3   0    6.55    0.31
  -6   3   0    5.83    0.37
  -6   3   0    5.53    0.35
  -6   3   0    5.81    0.34
  -6   3   0    5.78    0.36
  -6   3   0    6.41    0.37
  -6   3   0    5.82    0.35
   6   3   0    6.12    0.35
  -7  -3   0    0.06    0.07
   7  -3   0    0.03    0.13
  -7  -3   0   -0.05    0.05
   7  -3   0    0.08    0.05
   7  -3   0    0.03    0.04
  -7   3   0    0.05    0.07
  -7   3   0   -0.01    0.07
   7   3   0    0.00    0.05
  -7   3   0   -0.05    0.08
  -7   3   0    0.12    0.08
  -7   3   0   -0.02    0.08
  -7   3   0    0.03    0.08
   8  -3   0    0.44    0.09
   8  -3   0    0.55    0.08
   8  -3   0    0.47    0.07
  -8  -3   0    0.59    0.11
  -8   3   0    0.39    0.11
  -8   3   0    0.51    0.11
  -8   3   0    0.48    0.11
  -8   3   0    0.45    0.10
  -8   3   0    0.47    0.12
  -8   3   0    0.41    0.11
   9  -3   0    3.77    0.20
   9  -3   0    3.83    0.21
   9  -3   0    3.52    0.23
  -9   3   0    3.25    0.25
  -9   3   0    3.87    0.27
  -9   3   0    3.76    0.26
  -9   3   0    4.02    0.26
  -9   3   0    3.34    0.27
  -9   3   0    3.87    0.26
  10  -3   0    0.92    0.09
  10  -3   0    1.12    0.09
  10  -3   0    1.00    0.12
 -10   3   0    1.05    0.14
 -10   3   0    1.09    0.16
 -10   3   0    1.36    0.14
 -10   3   0    1.01    0.15
 -10   3   0    1.29    0.14
  11  -3   0    0.34    0.05
 -11   3   0    0.57    0.09
 -11   3   0    0.59    0.09
 -11   3   0    0.45    0.09
 -11   3   0    0.51    0.09
   0   4   0    5.83    0.30
   0   4   0    5.69    0.29
   0   4   0    5.45    0.46
   0   4   0    5.53    0.38
   1   4   0    4.92    0.43
  -1   4   0    5.65    0.28
   1   4   0    5.44    0.37
  -1   4   0    4.91    0.37
   1   4   0    5.39    0.28
  -1   4   0    5.44    0.28
   1   4   0    5.63    0.28
   2  -4   0    7.43    0.39
  -2  -4   0    7.43    0.37
   2   4   0    7.11    0.36
   2   4   0    6.96    0.52
   2   4   0    7.44    0.37
  -2   4   0    6.84    0.36
   2   4   0    8.31    0.46
  -2   4   0    6.50    0.40
  -3  -4   0    2.69    0.18
  -3  -4   0    2.56    0.18
   3  -4   0    2.79    0.18
  -3  -4   0    2.42    0.17
  -3   4   0    2.30    0.21
   3   4   0    2.69    0.23
  -3   4   0    2.10    0.20
   3   4   0    2.55    0.15
  -4  -4   0    1.83    0.14
  -4  -4   0    1.95    0.15
  -4  -4   0    2.03    0.16
   4  -4   0    1.81    0.15
  -4   4   0    1.99    0.19
   4   4   0    2.10    0.20
   4   4   0    1.88    0.13
  -4   4   0    1.91    0.17
  -4   4   0    1.91    0.20
  -5  -4   0    0.27    0.08
  -5  -4   0    0.34    0.07
   5  -4   0    0.26    0.05
   5  -4   0    0.27    0.07
  -5  -4   0    0.35    0.07
  -5   4   0    0.34    0.11
   5   4   0    0.32    0.06
   5   4   0    0.41    0.12
  -5   4   0    0.47    0.11
  -5   4   0    0.42    0.11
  -6  -4   0    5.88    0.32
  -6  -4   0    6.09    0.35
  -6  -4   0    6.28    0.34
   6  -4   0    6.07    0.34
   6  -4   0    6.37    0.30
   6   4   0    5.72    0.30
  -6   4   0    5.94    0.37
  -6   4   0    5.70    0.37
  -6   4   0    5.99    0.36
   6   4   0    5.47    0.37
   7  -4   0   18.22    0.88
   7  -4   0   16.97    0.84
  -7  -4   0   17.95    0.86
  -7  -4   0   18.50    0.88
  -7   4   0   18.47    0.92
  -7   4   0   18.13    0.90
  -7   4   0   18.04    0.90
   8  -4   0    5.33    0.30
  -8  -4   0    4.92    0.28
   8  -4   0    4.65    0.26
  -8   4   0    4.87    0.31
  -8   4   0    5.74    0.34
  -8   4   0    5.12    0.32
   9  -4   0    5.35    0.29
   9  -4   0    4.81    0.26
  -9   4   0    5.61    0.33
  -9   4   0    5.28    0.31
  10  -4   0    2.85    0.16
  10  -4   0    2.23    0.16
 -10   4   0    2.86    0.19
   0  -5   0    0.04    0.05
   0  -5   0    0.06    0.06
   0  -5   0    0.02    0.06
   0   5   0    0.02    0.09
   0   5   0    0.04    0.05
   0   5   0    0.00    0.05
   1  -5   0    0.70    0.11
   1  -5   0    0.73    0.09
  -1  -5   0    0.44    0.08
  -1  -5   0    0.81    0.10
  -1  -5   0    0.79    0.11
  -1   5   0    0.68    0.09
  -1   5   0    0.66    0.13
   1   5   0    0.74    0.09
   1   5   0    0.60    0.09
   1   5   0    0.53    0.13
   1   5   0    0.78    0.19
  -2  -5   0    9.44    0.47
  -2  -5   0    9.21    0.47
  -2  -5   0    9.07    0.49
   2  -5   0    9.33    0.49
   2   5   0    8.75    0.58
   2   5   0    8.56    0.50
   2   5   0    9.34    0.47
   2   5   0    9.50    0.46
  -2   5   0    8.98    0.52
  -3  -5   0    4.09    0.26
  -3  -5   0    4.13    0.25
   3  -5   0    4.18    0.26
  -3  -5   0    4.20    0.25
   3   5   0    4.41    0.24
   3   5   0    3.94    0.24
  -3   5   0    3.78    0.27
  -3   5   0    3.95    0.31
   3   5   0    3.82    0.34
  -4  -5   0    0.54    0.09
  -4  -5   0    0.45    0.09
   4  -5   0    0.38    0.09
   4  -5   0    0.66    0.10
  -4  -5   0    0.40    0.10
   4   5   0    0.29    0.14
   4   5   0    0.29    0.07
  -4   5   0    0.54    0.14
   4   5   0    0.53    0.08
  -5  -5   0    4.44    0.27
  -5  -5   0    4.01    0.24
   5  -5   0    4.00    0.25
  -5  -5   0    4.25    0.25
   5  -5   0    4.34    0.27
   5   5   0    4.04    0.24
  -5   5   0    4.23    0.31
   5   5   0    4.13    0.24
  -5   5   0    3.85    0.29
  -6  -5   0    2.70    0.18
   6  -5   0    2.80    0.20
   6  -5   0    2.62    0.19
  -6  -5   0    2.71    0.19
  -6  -5   0    2.71    0.21
   6   5   0    2.65    0.17
  -6   5   0    2.91    0.24
  -6   5   0    2.45    0.23
  -7  -5   0    1.39    0.13
  -7  -5   0    1.56    0.13
   7  -5   0    1.44    0.13
  -7  -5   0    1.49    0.15
   7  -5   0    1.49    0.13
   7   5   0    1.33    0.11
  -7   5   0    1.79    0.18
  -7   5   0    1.57    0.18
   8  -5   0    0.79    0.09
   8  -5   0    0.64    0.09
  -8  -5   0    0.63    0.10
  -8   5   0    0.45    0.10
  -8   5   0    0.84    0.13
   9  -5   0    0.47    0.09
   9  -5   0    0.66    0.09
  -9   5   0    0.77    0.11
   0  -6   0    2.49    0.19
   0   6   0    2.22    0.15
   0   6   0    2.11    0.21
   1  -6   0    3.73    0.24
  -1  -6   0    3.91    0.24
  -1  -6   0    3.41    0.22
  -1  -6   0    3.07    0.21
   1   6   0    3.51    0.26
  -1   6   0    3.45    0.25
  -1   6   0    3.54    0.27
   1   6   0    3.32    0.20
   1   6   0    3.10    0.21
  -2  -6   0    3.50    0.22
  -2  -6   0    3.40    0.22
   2  -6   0    3.69    0.24
  -2  -6   0    4.03    0.25
  -2   6   0    3.77    0.26
   2   6   0    3.23    0.35
   2   6   0    3.63    0.21
  -2   6   0    3.84    0.28
   2   6   0    3.39    0.22
   3  -6   0   15.08    0.73
  -3  -6   0   15.08    0.73
  -3  -6   0   14.59    0.71
  -3  -6   0   14.42    0.71
  -3   6   0   13.04    0.72
   3   6   0   14.19    0.70
   3   6   0   15.01    0.70
  -3   6   0   14.87    0.75
  -4  -6   0    3.19    0.20
   4  -6   0    3.20    0.21
  -4  -6   0    3.34    0.23
  -4  -6   0    3.48    0.21
   4   6   0    3.01    0.20
   4   6   0    3.61    0.20
  -4   6   0    3.36    0.26
  -5  -6   0    0.08    0.06
  -5  -6   0   -0.01    0.07
  -5  -6   0    0.11    0.05
   5  -6   0    0.05    0.06
  -5   6   0    0.14    0.09
   5   6   0    0.04    0.05
   5   6   0    0.01    0.04
  -6  -6   0    0.86    0.10
   6  -6   0    0.99    0.10
   6   6   0    0.82    0.08
  -6   6   0    0.87    0.14
  -7  -6   0    4.13    0.21
   7  -6   0    3.92    0.22
  -7   6   0    4.00    0.23
   0  -7   0   -0.01    0.05
   0   7   0    0.03    0.09
   0   7   0   -0.08    0.07
  -1  -7   0    0.48    0.09
   1  -7   0    0.45    0.09
  -1   7   0    0.52    0.10
   1   7   0    0.63    0.11
  -1   7   0    0.70    0.10
   2  -7   0    2.36    0.16
  -2   7   0    2.02    0.18
  -2   7   0    2.02    0.16
   2   7   0    2.31    0.17
   3  -7   0    4.14    0.23
  -3  -7   0    3.90    0.23
  -3  -7   0    4.01    0.22
  -3   7   0    4.37    0.25
   4  -7   0    0.60    0.07
  -4  -7   0    0.54    0.06
   4   7   0    0.53    0.10
  -4   7   0    0.69    0.10
 -12   0   1    0.80    0.12
 -12   0   1    0.98    0.12
 -12   0   1    1.03    0.13
 -12   0   1    0.96    0.13
 -11   0   1    0.84    0.14
 -11   0   1    1.04    0.15
 -11   0   1    1.02    0.14
 -11   0   1    0.71    0.13
  11   0  -1    0.90    0.08
 -11   0   1    1.10    0.15
  10   0  -1    1.40    0.10
 -10   0   1    1.45    0.17
 -10   0   1    1.56    0.18
 -10   0   1    1.57    0.18
 -10   0   1    1.61    0.17
 -10   0   1    1.46    0.18
  -9   0   1    3.36    0.24
  -9   0   1    3.04    0.24
  -9   0   1    3.07    0.23
  -9   0   1    3.18    0.23
  -9   0   1    3.01    0.24
   9   0  -1    2.90    0.16
   9   0  -1    2.85    0.24
  -9   0   1    2.39    0.23
  -8   0   1    5.39    0.31
  -8   0   1    4.51    0.32
  -8   0   1    5.11    0.31
  -8   0   1    5.34    0.33
   8   0  -1    5.45    0.33
  -8   0   1    5.20    0.31
  -8   0   1    5.09    0.32
  -7   0   1    5.30    0.30
   7   0  -1    5.13    0.30
   7   0  -1    4.91    0.37
   6   0  -1    3.10    0.25
  -6   0   1    3.05    0.19
   6   0  -1    2.87    0.38
   6   0  -1    3.17    0.19
   5   0  -1  195.91    9.01
   5   0  -1  187.30    8.95
   5   0  -1  215.13    9.02
   4   0  -1    9.69    0.65
   4   0  -1   10.02    0.49
   4   0  -1   11.05    0.53
   4   0  -1   10.16    0.53
   3   0  -1    0.70    0.07
   3   0  -1    0.70    0.13
  -3   0   1    0.57    0.11
   3   0  -1    0.59    0.07
   3   0  -1    0.69    0.05
   2   0  -1   59.45    2.81
   2   0  -1   60.32    2.84
   2   0  -1   67.16    2.92
  -2   0   1   59.72    2.83
  -2   0   1   62.70    2.92
   2   0  -1   66.43    2.84
   1   0  -1  130.43    5.25
  -1   0   1  130.12    5.25
   1   0  -1  109.56    5.25
  -1   0   1  113.60    5.29
   1   0  -1  109.65    5.23
  -1   0   1  107.47    5.24
   0   0   1   69.25    2.85
   0   0  -1   59.38    2.85
   0   0  -1   64.09    2.84
   0   0   1   59.85    2.84
   1   0   1   13.12    0.62
   1   0   1   14.01    0.64
   1   0   1   14.23    0.66
  -1   0  -1   13.44    0.64
   1   0   1   14.80    0.65
  -1   0  -1   13.36    0.63
   2   0   1   27.94    1.25
   2   0   1   25.21    1.24
   2   0   1   27.86    1.30
   2   0   1   27.17    1.29
   3   0   1   14.59    0.64
   3   0   1   12.52    0.71
   3   0   1   13.49    0.71
   3   0   1   12.52    0.62
   3   0   1   12.40    0.58
   3   0   1   12.44    0.58
   4   0   1    0.91    0.10
   4   0   1    0.79    0.06
   4   0   1    0.79    0.15
   4   0   1    0.84    0.09
   4   0   1    0.72    0.06
   4   0   1    0.74    0.13
   5   0   1   27.27    1.25
   5   0   1   24.54    1.44
   5   0   1   29.99    1.33
   6   0   1   20.37    1.01
  -6   0  -1   19.29    0.95
   6   0   1   19.52    0.94
  -7   0  -1    6.79    0.42
  -7   0  -1    8.18    0.43
   7   0   1    7.89    0.42
  -7   0  -1    7.69    0.42
  -7   0  -1    7.51    0.43
  -7   0  -1    7.35    0.42
   8   0   1    1.38    0.15
  -8   0  -1    1.36    0.16
  -8   0  -1    1.33    0.16
  -8   0  -1    1.46    0.15
  -8   0  -1    1.16    0.15
  -8   0  -1    1.38    0.15
  -9   0  -1    7.75    0.47
  -9   0  -1    8.36    0.47
  -9   0  -1    8.40    0.47
  -9   0  -1    8.78    0.47
  -9   0  -1    8.65    0.48
 -10   0  -1    0.33    0.11
  10   0   1    0.28    0.06
 -10   0  -1    0.48    0.12
 -10   0  -1    0.20    0.09
 -10   0  -1    0.43    0.10
 -10   0  -1    0.43    0.11
 -11   0  -1    0.82    0.13
 -11   0  -1    0.91    0.14
 -11   0  -1    1.04    0.13
 -11   0  -1    0.81    0.13
 -12  -1   1   -0.04    0.07
  12  -1  -1   -0.01    0.03
 -12  -1   1    0.09    0.07
 -12   1   1    0.12    0.07
 -12   1   1    0.10    0.08
 -12   1   1    0.00    0.07
 -12   1   1    0.02    0.06
 -11  -1   1    1.69    0.19
 -11  -1   1    1.59    0.18
 -11  -1   1    1.92    0.18
  11  -1  -1    1.99    0.12
  11  -1  -1    1.97    0.12
 -11  -1   1    1.99    0.18
 -11   1   1    2.06    0.20
 -11   1   1    1.93    0.20
 -11   1   1    1.83    0.18
 -11   1   1    2.09    0.18
 -11   1   1    2.09    0.18
 -11   1   1    1.87    0.18
 -10  -1   1    2.43    0.21
  10  -1  -1    2.42    0.14
 -10  -1   1    2.14    0.19
 -10  -1   1    2.35    0.21
  10  -1  -1    2.17    0.14
 -10  -1   1    1.94    0.20
 -10  -1   1    2.35    0.21
 -10   1   1    2.48    0.21
 -10   1   1    2.45    0.21
 -10   1   1    2.05    0.21
 -10   1   1    2.24    0.19
 -10   1   1    2.27    0.21
 -10   1   1    2.37    0.20
  -9  -1   1   17.82    0.86
  -9  -1   1   17.10    0.85
  -9  -1   1   17.43    0.86
  -9  -1   1   16.68    0.86
   9  -1  -1   16.01    0.91
  -9  -1   1   16.62    0.85
   9  -1  -1   17.77    0.80
  -9   1   1   18.47    0.87
  -9   1   1   17.34    0.87
   9   1  -1   15.92    0.84
  -9   1   1   17.39    0.88
  -9   1   1   16.69    0.87
  -9   1   1   16.51    0.86
  -9   1   1   17.28    0.86
  -8  -1   1   16.46    0.82
   8  -1  -1   17.41    0.88
  -8  -1   1   16.20    0.83
  -8  -1   1   15.74    0.81
  -8  -1   1   16.75    0.83
  -8  -1   1   16.95    0.84
   8  -1  -1   16.17    0.77
  -8   1   1   16.91    0.84
  -8   1   1   16.71    0.83
  -8   1   1   17.00    0.84
  -8   1   1   16.99    0.85
   8   1  -1   16.35    0.81
  -8   1   1   16.79    0.83
  -8   1   1   16.52    0.83
   7  -1  -1    5.66    0.46
   7  -1  -1    5.41    0.28
  -7  -1   1    5.58    0.32
   7  -1  -1    5.78    0.36
   7   1  -1    6.55    0.31
  -7   1   1    5.40    0.33
   7   1  -1    5.34    0.34
  -7   1   1    5.66    0.34
  -7   1   1    5.65    0.33
  -7   1   1    5.68    0.33
   6  -1  -1    8.22    0.52
   6  -1  -1    7.26    0.34
  -6  -1   1    6.99    0.38
   6  -1  -1    6.37    0.59
   6  -1  -1    7.84    0.42
   6   1  -1    7.86    0.41
  -6   1   1    7.19    0.39
   6   1  -1    7.01    0.36
   6   1  -1    6.99    0.64
   5  -1  -1   45.57    2.26
   5  -1  -1   48.06    2.55
   5  -1  -1   54.33    2.42
   5  -1  -1   52.95    2.32
   5   1  -1   51.08    2.60
   5   1  -1   54.94    2.32
   5   1  -1   47.01    2.26
   5   1  -1   48.12    2.32
   4  -1  -1   18.66    1.06
   4  -1  -1   24.03    1.22
   4  -1  -1   20.50    1.01
   4  -1  -1   22.40    1.09
   4   1  -1   20.79    1.01
   4   1  -1   21.86    1.01
   4   1  -1   22.56    1.22
   4   1  -1   20.09    0.96
   3  -1  -1  286.36   11.50
   3  -1  -1  266.16   11.37
   3  -1  -1  225.65   11.35
   3  -1  -1  249.84   11.31
   3   1  -1  235.22   11.27
   3   1  -1  244.82   11.31
  -3   1   1  239.84   11.34
   3   1  -1  255.07   11.48
   3   1  -1  266.13   11.31
  -2  -1   1  137.04    5.67
   2  -1  -1  114.61    5.57
   2  -1  -1  134.73    5.66
  -2  -1   1  115.64    5.51
   2  -1  -1  132.04    5.58
   2  -1  -1  125.21    5.53
  -2   1   1  122.75    5.66
   2   1  -1  129.11    5.53
   2   1  -1  115.28    5.54
   2   1  -1  114.19    5.65
   2   1  -1  110.85    5.51
   1  -1  -1   19.53    0.87
   1  -1  -1   16.06    0.86
  -1  -1   1   18.74    0.92
  -1  -1   1   18.25    0.86
   1  -1  -1   16.50    0.83
   1  -1  -1   19.18    0.93
  -1   1   1   17.23    0.84
   1   1  -1   18.74    0.85
   1   1  -1   17.33    0.86
  -1   1   1   18.28    0.93
   1   1  -1   16.97    0.92
   1   1  -1   18.04    0.83
  -1   1   1   16.21    0.86
  -1   1   1   19.16    0.87
   0  -1   1  196.43    9.74
   0  -1  -1  233.33    9.83
   0  -1   1  216.80    9.76
   0  -1  -1  209.03    9.74
   0   1   1  232.89    9.74
   0   1   1  218.40    9.74
   0   1  -1  206.13    9.72
   0   1   1  197.61    9.80
   0   1  -1  213.69    9.78
   0   1  -1  216.83    9.76
   0   1   1  223.32    9.72
   0   1  -1  238.43    9.75
   1  -1   1    7.69    0.39
   1  -1   1    7.01    0.34
   1  -1   1    7.19    0.38
  -1  -1  -1    6.19    0.31
   1  -1   1    6.27    0.37
  -1  -1  -1    7.23    0.43
   1   1   1    7.36    0.34
   1   1   1    6.43    0.34
  -1   1  -1    6.84    0.38
   1   1   1    6.17    0.31
  -1   1  -1    6.88    0.36
   1   1   1    6.69    0.31
   1   1   1    6.28    0.42
   2  -1   1    0.12    0.05
   2  -1   1    0.16    0.06
   2  -1   1    0.16    0.06
  -2  -1  -1    0.16    0.08
   2  -1   1    0.20    0.04
   2   1   1    0.14    0.08
   2   1   1    0.18    0.03
  -2   1  -1    0.14    0.05
  -2   1  -1    0.15    0.06
   2   1   1    0.17    0.03
   3  -1   1   12.82    0.75
   3  -1   1   15.50    0.71
   3  -1   1   15.79    0.78
   3  -1   1   15.15    0.79
   3   1   1   15.46    0.67
   3   1   1   15.68    0.67
  -3   1  -1   12.66    0.77
   4  -1   1   67.23    2.94
   4  -1   1   62.35    2.84
   4  -1   1   59.25    2.94
   4   1   1   59.67    3.03
   5  -1   1    0.12    0.08
   5  -1   1    0.11    0.05
   5  -1   1    0.15    0.03
  -5   1  -1    0.13    0.06
   5   1   1    0.13    0.12
   6  -1   1    7.29    0.36
   6  -1   1    7.78    0.53
  -6  -1  -1    7.16    0.40
   6  -1   1    7.95    0.44
  -6   1  -1    7.76    0.41
  -7  -1  -1    9.11    0.47
  -7  -1  -1    8.83    0.47
  -7  -1  -1    8.99    0.48
  -7  -1  -1    8.02    0.46
   7  -1   1    9.72    0.52
   7  -1   1    8.98    0.42
  -7  -1  -1    7.53    0.48
  -7   1  -1    9.02    0.48
   7   1   1    8.52    0.43
  -7   1  -1    8.76    0.48
  -7   1  -1    9.45    0.49
  -7   1  -1    8.83    0.49
  -7   1  -1    9.39    0.49
  -7   1  -1    8.11    0.47
  -7   1  -1    8.05    0.46
  -8  -1  -1    7.36    0.41
   8  -1   1    7.63    0.36
   8  -1   1    7.81    0.47
  -8  -1  -1    7.55    0.42
  -8  -1  -1    7.67    0.43
  -8  -1  -1    7.42    0.43
  -8   1  -1    7.78    0.45
  -8   1  -1    7.60    0.45
  -8   1  -1    7.84    0.44
   8   1   1    7.08    0.39
  -8   1  -1    6.67    0.42
  -8   1  -1    6.91    0.41
  -8   1  -1    7.67    0.43
  -8   1  -1    7.72    0.43
  -9  -1  -1   12.40    0.67
  -9  -1  -1   12.10    0.67
   9  -1   1   12.93    0.61
  -9  -1  -1   11.84    0.65
  -9  -1  -1   12.24    0.66
  -9   1  -1   13.51    0.69
  -9   1  -1   13.37    0.67
  -9   1  -1   13.14    0.68
  -9   1  -1   13.97    0.70
  -9   1  -1   13.35    0.67
  10  -1   1    6.36    0.32
 -10  -1  -1    6.52    0.37
 -10  -1  -1    6.11    0.37
  10  -1   1    6.36    0.32
 -10  -1  -1    6.27    0.38
 -10  -1  -1    5.95    0.36
 -10   1  -1    6.63    0.40
 -10   1  -1    6.65    0.37
 -10   1  -1    6.66    0.39
 -10   1  -1    6.80    0.39
 -10   1  -1    6.65    0.38
  11  -1   1    2.16    0.13
 -11  -1  -1    2.16    0.18
 -11   1  -1    2.22    0.19
 -11   1  -1    2.32    0.18
 -11   1  -1    2.38    0.18
 -11   1  -1    2.06    0.19
 -11   1  -1    2.32    0.18
  12  -2  -1    1.76    0.12
 -12   2   1    1.62    0.15
 -12   2   1    1.70    0.18
 -12   2   1    1.78    0.14
 -12   2   1    2.09    0.14
  11  -2  -1    1.26    0.09
 -11  -2   1    1.26    0.14
  11  -2  -1    1.18    0.09
 -11   2   1    1.11    0.15
 -11   2   1    1.40    0.15
 -11   2   1    0.99    0.16
 -11   2   1    1.30    0.14
 -11   2   1    1.19    0.14
  10  -2  -1    0.73    0.08
 -10  -2   1    0.44    0.11
 -10  -2   1    0.62    0.13
  10  -2  -1    0.66    0.07
 -10   2   1    0.91    0.16
 -10   2   1    0.68    0.13
 -10   2   1    0.73    0.13
 -10   2   1    0.51    0.12
 -10   2   1    0.56    0.12
 -10   2   1    0.70    0.14
   9  -2  -1    0.93    0.08
  -9  -2   1    1.11    0.14
   9  -2  -1    0.81    0.08
  -9  -2   1    0.61    0.12
  -9  -2   1    0.70    0.12
  -9   2   1    0.96    0.14
  -9   2   1    0.96    0.15
  -9   2   1    1.21    0.17
   9   2  -1    0.78    0.13
  -9   2   1    0.98    0.14
  -9   2   1    0.77    0.15
  -9   2   1    0.98    0.14
  -8  -2   1   11.81    0.60
   8  -2  -1   11.99    0.56
   8  -2  -1   11.55    0.69
  -8  -2   1   11.76    0.61
   8  -2  -1   11.87    0.55
  -8  -2   1   11.88    0.60
  -8   2   1   11.81    0.63
   8   2  -1   11.19    0.58
  -8   2   1   11.83    0.62
  -8   2   1   10.94    0.61
  -8   2   1   11.41    0.61
  -8   2   1   11.33    0.61
  -8   2   1   11.57    0.63
  -7  -2   1    0.24    0.08
   7  -2  -1    0.21    0.04
  -7  -2   1    0.21    0.08
  -7  -2   1    0.34    0.09
   7  -2  -1    0.23    0.10
   7  -2  -1    0.29    0.05
  -7   2   1    0.36    0.09
   7   2  -1    0.29    0.07
  -7   2   1    0.28    0.09
  -7   2   1    0.29    0.08
  -7   2   1    0.36    0.09
  -7   2   1    0.29    0.09
  -7   2   1    0.28    0.08
   6  -2  -1   14.36    0.91
  -6  -2   1   13.67    0.72
   6  -2  -1   15.93    0.80
   6  -2  -1   14.00    0.68
   6  -2  -1   15.20    0.69
   6   2  -1   14.91    0.74
  -6   2   1   15.17    0.73
   6   2  -1   14.90    0.71
   5  -2  -1   55.72    2.53
   5  -2  -1   55.40    2.44
   5  -2  -1   52.89    2.65
   5  -2  -1   50.19    2.76
   5   2  -1   54.08    2.86
   5   2  -1   56.26    2.46
   5   2  -1   57.45    2.51
  -5   2   1   49.68    2.46
   4  -2  -1   47.38    2.64
   4  -2  -1   52.82    2.45
   4  -2  -1   51.78    2.55
   4  -2  -1   50.46    2.37
   4   2  -1   56.79    2.73
   4   2  -1   53.68    2.40
   4   2  -1   55.30    2.44
  -3  -2   1   43.61    2.31
   3  -2  -1   47.88    2.31
   3  -2  -1   44.34    2.10
   3  -2  -1   46.43    2.20
   3   2  -1   47.45    2.07
  -3   2   1   43.13    2.15
   3   2  -1   45.93    2.10
   3   2  -1   42.03    2.12
   2  -2  -1   15.34    0.83
   2  -2  -1   17.10    0.91
  -2  -2   1   19.07    1.02
   2  -2  -1   18.45    1.02
   2   2  -1   15.57    0.87
  -2   2   1   15.34    0.83
   2   2  -1   17.29    0.82
  -2   2   1   17.80    0.89
   2   2  -1   17.72    0.86
  -1  -2   1   86.76    3.85
   1  -2  -1   84.60    3.86
   1  -2  -1   79.91    3.74
  -1  -2   1   67.68    3.69
   1   2  -1   82.90    3.67
   1   2  -1   72.98    3.66
   1   2  -1   89.22    3.71
  -1   2   1   84.54    3.68
   1   2  -1   74.04    3.72
  -1   2   1   84.55    3.72
   0  -2  -1   18.41    0.96
   0  -2   1   18.43    0.97
   0  -2  -1   20.30    1.09
   0  -2   1   20.83    1.06
   0   2  -1   16.27    0.97
   0   2  -1   20.96    0.97
   0   2  -1   19.86    0.92
   0   2   1   20.19    0.92
   0   2   1   17.10    0.96
   1  -2   1    9.47    0.57
   1  -2   1    8.63    0.46
  -1  -2  -1    8.58    0.60
   1  -2   1    8.97    0.53
   1   2   1    8.03    0.49
  -1   2  -1    8.78    0.50
  -1   2  -1    8.55    0.45
   1   2   1    9.09    0.44
   2  -2   1   71.11    3.18
   2  -2   1   66.93    3.08
  -2  -2  -1   67.46    3.28
   2  -2   1   65.94    3.19
  -2   2  -1   64.08    3.12
   2   2   1   67.44    3.04
   2   2   1   66.64    3.09
   3  -2   1    7.04    0.34
   3  -2   1    7.39    0.41
  -3  -2  -1    7.00    0.57
   3  -2   1    7.90    0.51
   3  -2   1    6.87    0.50
   3   2   1    6.94    0.40
   3   2   1    7.98    0.40
   3   2   1    7.03    0.35
   4  -2   1    5.22    0.42
   4  -2   1    5.34    0.33
   4  -2   1    5.11    0.25
   4   2   1    5.12    0.24
   4   2   1    4.68    0.28
   4   2   1    5.38    0.29
   5  -2   1    6.99    0.41
   5  -2   1    6.46    0.31
   5  -2   1    6.56    0.51
   5   2   1    5.49    0.60
  -5   2  -1    6.48    0.35
   6  -2   1    1.72    0.32
   6  -2   1    1.95    0.20
   6  -2   1    1.99    0.12
   6  -2   1    1.86    0.12
  -6   2  -1    2.00    0.18
  -6   2  -1    2.17    0.17
  -6   2  -1    2.00    0.17
  -6   2  -1    1.85    0.18
  -6   2  -1    1.79    0.18
  -6   2  -1    1.89    0.16
  -6   2  -1    1.73    0.17
   7  -2   1    9.99    0.46
   7  -2   1    9.49    0.46
   7  -2   1    9.72    0.59
  -7   2  -1    9.43    0.54
  -7   2  -1   10.01    0.52
  -7   2  -1    9.08    0.52
  -7   2  -1    9.25    0.51
  -7   2  -1    9.42    0.52
  -7   2  -1    8.94    0.51
  -7   2  -1   10.14    0.53
   8  -2   1    2.64    0.16
   8  -2   1    2.41    0.27
   8  -2   1    2.41    0.15
  -8   2  -1    2.48    0.22
  -8   2  -1    2.80    0.22
  -8   2  -1    2.40    0.21
  -8   2  -1    2.68    0.23
  -8   2  -1    2.68    0.21
  -8   2  -1    2.81    0.22
  -8   2  -1    2.90    0.23
   9  -2   1   11.82    0.57
   9  -2   1   12.41    0.56
  -9   2  -1   11.55    0.62
  -9   2  -1   11.33    0.61
  -9   2  -1   12.24    0.65
  -9   2  -1   11.67    0.62
  -9   2  -1   11.98    0.63
  -9   2  -1   11.37    0.63
  10  -2   1    0.14    0.04
  10  -2   1    0.10    0.04
 -10   2  -1    0.16    0.08
 -10   2  -1    0.10    0.08
 -10   2  -1    0.09    0.09
 -10   2  -1    0.24    0.09
 -10   2  -1    0.20    0.09
  11  -2   1    0.62    0.06
 -11   2  -1    0.56    0.11
 -11   2  -1    0.75    0.11
 -11   2  -1    0.76    0.11
 -11   2  -1    0.86    0.12
  11  -3  -1    0.48    0.08
  11  -3  -1    0.36    0.05
 -11   3   1    0.38    0.08
 -11   3   1    0.36    0.09
 -11   3   1    0.44    0.08
 -11   3   1    0.27    0.08
 -10  -3   1    4.46    0.28
  10  -3  -1    5.06    0.28
  10  -3  -1    4.90    0.24
  10  -3  -1    4.20    0.25
 -10   3   1    4.54    0.29
 -10   3   1    5.29    0.32
 -10   3   1    4.88    0.30
 -10   3   1    4.92    0.30
 -10   3   1    4.63    0.29
   9  -3  -1    0.41    0.07
   9  -3  -1    0.27    0.08
  -9  -3   1    0.27    0.09
   9  -3  -1    0.43    0.06
  -9   3   1    0.37    0.10
  -9   3   1    0.24    0.11
  -9   3   1    0.42    0.11
  -9   3   1    0.38    0.10
  -9   3   1    0.33    0.10
   8  -3  -1    0.29    0.05
  -8  -3   1    0.38    0.11
   8  -3  -1    0.32    0.06
  -8  -3   1    0.42    0.10
   8  -3  -1    0.16    0.18
  -8   3   1    0.28    0.09
  -8   3   1    0.20    0.08
   8   3  -1    0.23    0.09
  -8   3   1    0.37    0.12
  -8   3   1    0.31    0.10
  -8   3   1    0.25    0.11
  -8   3   1    0.31    0.10
   7  -3  -1    0.53    0.07
  -7  -3   1    0.46    0.09
  -7  -3   1    0.55    0.10
   7  -3  -1    0.47    0.18
  -7  -3   1    0.41    0.08
   7  -3  -1    0.53    0.06
  -7   3   1    0.77    0.14
  -7   3   1    0.50    0.11
  -7   3   1    0.34    0.09
  -7   3   1    0.59    0.13
   7   3  -1    0.40    0.10
  -7   3   1    0.67    0.12
  -7   3   1    0.53    0.12
   6  -3  -1   12.65    0.74
  -6  -3   1   13.24    0.65
   6  -3  -1   13.63    0.61
  -6  -3   1   11.67    0.64
   6  -3  -1   13.72    0.60
  -6  -3   1   12.10    0.62
   6   3  -1   13.98    0.66
  -6   3   1   12.29    0.67
  -6   3   1   12.52    0.66
  -6   3   1   11.98    0.64
  -6   3   1   12.28    0.65
  -6   3   1   13.18    0.67
  -6   3   1   12.56    0.66
   5  -3  -1    9.45    0.44
   5  -3  -1    8.86    0.56
   5  -3  -1    8.58    0.69
   5  -3  -1    9.35    0.44
   5   3  -1    9.75    0.50
   5   3  -1    8.83    0.54
   4  -3  -1    1.27    0.09
   4  -3  -1    1.34    0.30
   4  -3  -1    1.20    0.16
   4  -3  -1    1.25    0.08
   4  -3  -1    1.25    0.23
   4   3  -1    1.18    0.16
   4   3  -1    1.30    0.13
   4   3  -1    1.05    0.08
   3  -3  -1   62.29    3.11
   3  -3  -1   61.34    3.24
  -3  -3   1   59.74    3.26
   3   3  -1   71.03    2.94
   3   3  -1   65.89    3.01
   3   3  -1   61.98    2.87
  -2  -3   1   11.27    0.83
   2  -3  -1   11.52    0.83
  -2   3   1   10.60    0.67
   2   3  -1   11.64    0.59
   2   3  -1   11.46    0.53
   2   3  -1   12.28    0.66
  -2   3   1   10.53    0.53
  -2   3   1   10.24    0.60
  -2   3   1   11.39    0.62
  -1  -3   1    7.31    0.60
   1  -3  -1    6.54    0.59
   1   3  -1    7.37    0.40
  -1   3   1    6.73    0.46
   1   3  -1    7.14    0.46
   1   3  -1    6.48    0.34
  -1   3   1    7.05    0.41
  -1   3   1    6.65    0.34
   0  -3   1   30.62    1.68
   0  -3  -1   30.63    1.72
   0   3   1   30.99    1.46
   0   3  -1   29.49    1.52
   0   3   1   30.27    1.38
   0   3  -1   29.31    1.45
   0   3   1   30.77    1.52
   0   3  -1   30.41    1.38
   1  -3   1   10.91    0.77
  -1  -3  -1   11.25    0.82
   1   3   1   11.31    0.59
  -1   3  -1   10.94    0.59
  -1   3  -1   11.00    0.66
  -1   3  -1   10.49    0.52
   1   3   1   11.31    0.52
   1   3   1   11.43    0.65
   2  -3   1    5.86    0.48
   2  -3   1    6.35    0.54
  -2  -3  -1    6.51    0.60
   2   3   1    6.98    0.43
   2   3   1    6.29    0.31
   2   3   1    6.89    0.38
   3  -3   1    1.10    0.08
  -3  -3  -1    0.95    0.26
   3  -3   1    1.14    0.23
   3  -3   1    1.11    0.16
   3   3   1    1.21    0.15
   3   3   1    1.28    0.13
   4  -3   1   19.87    1.04
   4  -3   1   20.44    0.92
   4  -3   1   20.15    0.92
   4  -3   1   17.59    1.16
   4   3   1   19.64    1.01
   4   3   1   22.31    0.98
  -4   3  -1   19.40    0.96
   5  -3   1    1.28    0.13
   5  -3   1    1.53    0.10
   5  -3   1    1.55    0.21
   5  -3   1    1.03    0.28
   5  -3   1    1.59    0.11
  -5  -3  -1    1.50    0.13
  -5  -3  -1    1.30    0.13
  -5   3  -1    1.53    0.17
   5   3   1    1.63    0.14
  -5   3  -1    1.69    0.16
  -5   3  -1    1.79    0.15
  -5   3  -1    1.51    0.17
  -5   3  -1    1.62    0.17
  -5   3  -1    1.36    0.17
   6  -3   1   17.73    1.00
   6  -3   1   19.36    0.86
  -6  -3  -1   18.14    0.87
   6  -3   1   18.78    0.85
   6  -3   1   18.07    0.88
  -6  -3  -1   18.35    0.87
   6   3   1   17.71    0.89
  -6   3  -1   19.21    0.92
  -6   3  -1   17.66    0.92
  -6   3  -1   17.63    0.89
  -6   3  -1   18.15    0.91
  -6   3  -1   17.82    0.91
  -6   3  -1   18.70    0.91
   7  -3   1    0.91    0.09
   7  -3   1    0.69    0.19
  -7  -3  -1    0.89    0.11
   7  -3   1    1.07    0.09
   7  -3   1    0.89    0.11
  -7   3  -1    1.13    0.16
  -7   3  -1    0.95    0.14
   7   3   1    0.89    0.10
  -7   3  -1    0.90    0.13
  -7   3  -1    1.10    0.14
  -7   3  -1    1.03    0.14
  -7   3  -1    1.14    0.17
   8  -3   1    7.89    0.40
   8  -3   1    7.51    0.42
   8  -3   1    8.28    0.40
  -8   3  -1    7.96    0.45
  -8   3  -1    8.19    0.46
  -8   3  -1    7.78    0.45
  -8   3  -1    8.39    0.46
  -8   3  -1    8.74    0.48
  -8   3  -1    7.70    0.46
   9  -3   1    2.68    0.15
   9  -3   1    2.41    0.16
   9  -3   1    2.49    0.18
  -9   3  -1    2.61    0.20
  -9   3  -1    2.67    0.23
  -9   3  -1    2.70    0.22
  -9   3  -1    2.31    0.21
  -9   3  -1    2.54    0.20
  -9   3  -1    2.40    0.20
  10  -3   1    1.12    0.08
 -10   3  -1    0.98    0.13
 -10   3  -1    1.21    0.15
 -10   3  -1    0.69    0.13
 -10   3  -1    1.19    0.13
 -10   3  -1    1.02    0.13
  10  -4  -1    1.45    0.12
 -10   4   1    1.38    0.15
   9  -4  -1    0.29    0.07
   9  -4  -1    0.19    0.04
  -9  -4   1    0.22    0.08
  -9   4   1    0.20    0.09
  -9   4   1    0.20    0.10
  -9   4   1    0.11    0.09
  -8  -4   1    4.52    0.27
   8  -4  -1    4.18    0.26
   8  -4  -1    3.71    0.22
  -8  -4   1    4.08    0.24
  -8   4   1    4.11    0.28
  -8   4   1    4.39    0.28
  -8   4   1    4.39    0.31
  -7  -4   1   17.11    0.82
   7  -4  -1   17.19    0.83
   7  -4  -1   17.49    0.79
  -7  -4   1   17.05    0.84
  -7   4   1   16.62    0.85
  -7   4   1   16.15    0.85
  -7   4   1   17.29    0.87
   7   4  -1   16.14    0.79
  -6  -4   1    7.48    0.40
   6  -4  -1    7.92    0.43
  -6  -4   1    7.65    0.41
   6  -4  -1    7.81    0.38
  -6  -4   1    8.20    0.44
  -6   4   1    8.14    0.46
   6   4  -1    8.10    0.39
   6   4  -1    7.47    0.47
  -6   4   1    7.42    0.46
  -6   4   1    7.86    0.45
   5  -4  -1    0.46    0.07
  -5  -4   1    0.65    0.11
   5  -4  -1    0.56    0.10
  -5  -4   1    0.59    0.09
  -5  -4   1    0.63    0.11
  -5   4   1    0.69    0.12
  -5   4   1    0.79    0.14
   5   4  -1    0.71    0.14
   5   4  -1    0.58    0.07
  -5   4   1    0.78    0.14
   4  -4  -1   16.24    0.77
  -4  -4   1   15.25    0.77
  -4  -4   1   16.18    0.76
  -4  -4   1   15.35    0.76
   4   4  -1   15.50    0.74
   4   4  -1   15.86    0.84
  -4   4   1   15.35    0.80
  -4   4   1   16.03    0.80
   3  -4  -1    7.93    0.42
  -3  -4   1    7.95    0.41
  -3  -4   1    7.80    0.41
  -3  -4   1    7.80    0.42
   3   4  -1    8.43    0.49
  -3   4   1    8.16    0.45
   3   4  -1    7.38    0.39
   3   4  -1    7.91    0.40
   2  -4  -1    1.26    0.13
  -2  -4   1    1.31    0.12
  -2  -4   1    1.55    0.13
  -2   4   1    1.37    0.11
   2   4  -1    1.37    0.10
  -2   4   1    1.29    0.16
   2   4  -1    1.28    0.22
   2   4  -1    1.31    0.11
   2   4  -1    1.46    0.17
   1   4  -1    4.58    0.24
   1   4  -1    4.59    0.33
  -1   4   1    4.65    0.25
  -1   4   1    4.35    0.33
   1   4  -1    4.20    0.40
  -1   4   1    4.14    0.40
  -1   4   1    4.55    0.24
   1   4  -1    4.54    0.24
   0   4  -1    5.39    0.37
   0   4   1    5.24    0.28
   0   4  -1    4.80    0.44
   0   4  -1    5.29    0.27
   0   4   1    5.24    0.37
   0   4   1    5.12    0.28
   0   4   1    4.95    0.43
   0   4  -1    5.42    0.28
  -1   4  -1   15.59    0.72
   1   4   1   15.53    0.73
   1   4   1   14.43    0.72
   1   4   1   16.62    0.84
  -1   4  -1   14.08    0.72
   1   4   1   15.59    0.92
   2  -4   1    4.06    0.24
  -2  -4  -1    4.21    0.25
  -2  -4  -1    3.87    0.24
  -2  -4  -1    4.07    0.24
   2  -4   1    4.34    0.25
  -2   4  -1    3.72    0.26
   2   4   1    4.44    0.23
   2   4   1    3.61    0.22
  -2   4  -1    3.87    0.27
   2   4   1    4.35    0.32
   2   4   1    4.33    0.38
  -3  -4  -1    3.22    0.21
  -3  -4  -1    3.41    0.22
   3  -4   1    3.23    0.21
   3  -4   1    3.62    0.22
  -3  -4  -1    3.24    0.22
  -3  -4  -1    3.53    0.21
   3   4   1    3.30    0.19
  -3   4  -1    3.63    0.25
   3   4   1    3.67    0.28
  -3   4  -1    2.99    0.23
   4  -4   1    0.79    0.11
   4  -4   1    0.82    0.08
  -4  -4  -1    0.67    0.11
  -4  -4  -1    0.90    0.10
  -4  -4  -1    0.88    0.11
   4   4   1    0.83    0.08
   4   4   1    0.69    0.14
  -4   4  -1    0.73    0.15
  -4   4  -1    0.95    0.15
   5  -4   1    4.04    0.22
   5  -4   1    4.10    0.26
  -5  -4  -1    3.88    0.26
  -5  -4  -1    4.13    0.25
  -5  -4  -1    4.37    0.25
  -5   4  -1    4.41    0.29
  -5   4  -1    4.25    0.29
   5   4   1    4.28    0.31
  -5   4  -1    4.43    0.30
   5   4   1    4.08    0.23
  -6  -4  -1   14.19    0.68
   6  -4   1   13.46    0.68
   6  -4   1   13.74    0.65
  -6  -4  -1   13.72    0.67
  -6   4  -1   13.38    0.72
  -6   4  -1   14.14    0.72
  -6   4  -1   14.70    0.73
   6   4   1   12.72    0.72
  -7  -4  -1    0.23    0.07
   7  -4   1    0.25    0.05
   7  -4   1    0.19    0.07
  -7  -4  -1    0.28    0.07
  -7   4  -1    0.30    0.10
  -7   4  -1    0.30    0.11
  -7   4  -1    0.19    0.10
   8  -4   1    0.49    0.09
  -8  -4  -1    0.56    0.08
   8  -4   1    0.37    0.06
  -8   4  -1    0.46    0.12
  -8   4  -1    0.50    0.12
   9  -4   1    0.48    0.06
   9  -4   1    0.44    0.09
  -9   4  -1    0.59    0.12
  -9   4  -1    0.74    0.13
  10  -4   1    3.69    0.20
 -10   4  -1    3.56    0.22
   9  -5  -1    1.94    0.13
   9  -5  -1    1.88    0.16
  -9   5   1    1.82    0.16
  -9   5   1    1.58    0.21
  -8  -5   1    1.01    0.13
   8  -5  -1    1.02    0.11
  -8  -5   1    0.85    0.11
   8  -5  -1    0.89    0.10
  -8   5   1    0.99    0.15
  -8   5   1    1.07    0.15
  -7  -5   1    1.26    0.12
   7  -5  -1    1.14    0.12
   7  -5  -1    1.27    0.13
  -7  -5   1    1.32    0.14
  -7   5   1    1.12    0.17
   7   5  -1    1.07    0.17
   7   5  -1    1.04    0.10
  -7   5   1    0.91    0.17
  -6  -5   1    6.38    0.35
   6  -5  -1    5.68    0.34
  -6  -5   1    6.37    0.34
   6  -5  -1    5.49    0.33
  -6  -5   1    5.94    0.32
   6   5  -1    6.43    0.32
   6   5  -1    5.87    0.32
  -6   5   1    6.18    0.38
  -6   5   1    5.88    0.38
  -5  -5   1    2.65    0.18
  -5  -5   1    2.61    0.19
   5  -5  -1    2.80    0.21
  -5  -5   1    2.80    0.21
  -5   5   1    2.72    0.24
   5   5  -1    2.65    0.18
  -5   5   1    2.88    0.24
   5   5  -1    2.93    0.18
  -4  -5   1    0.48    0.09
  -4  -5   1    0.55    0.10
   4  -5  -1    0.50    0.10
  -4  -5   1    0.60    0.09
   4   5  -1    0.31    0.14
  -4   5   1    0.55    0.13
   4   5  -1    0.51    0.08
  -4   5   1    0.34    0.10
   4   5  -1    0.51    0.09
  -3  -5   1    1.86    0.15
  -3  -5   1    2.03    0.17
   3  -5  -1    2.06    0.17
  -3  -5   1    2.04    0.15
   3   5  -1    2.13    0.15
  -3   5   1    1.93    0.21
  -3   5   1    1.71    0.19
   3   5  -1    1.93    0.14
   3   5  -1    1.85    0.25
   2  -5  -1   16.68    0.82
  -2  -5   1   16.31    0.80
   2  -5  -1   16.51    0.80
  -2  -5   1   17.58    0.81
  -2  -5   1   16.95    0.82
   2   5  -1   17.68    0.80
   2   5  -1   13.83    0.90
   2   5  -1   16.86    0.80
  -2   5   1   16.63    0.81
  -2   5   1   16.99    0.85
   1  -5  -1    2.35    0.18
  -1  -5   1    2.36    0.18
  -1  -5   1    2.40    0.17
  -1  -5   1    2.23    0.17
   1  -5  -1    2.43    0.17
  -1   5   1    2.54    0.17
  -1   5   1    2.47    0.16
   1   5  -1    1.94    0.27
   1   5  -1    1.95    0.21
   1   5  -1    2.42    0.16
  -1   5   1    2.29    0.21
   1   5  -1    2.59    0.17
   0  -5  -1    5.89    0.33
   0  -5  -1    6.18    0.34
   0  -5  -1    5.23    0.31
   0  -5   1    5.86    0.32
   0  -5   1    6.20    0.34
   0   5   1    5.81    0.36
   0   5   1    5.11    0.43
   0   5   1    6.05    0.32
   0   5  -1    6.12    0.31
   0   5  -1    5.85    0.31
   0   5   1    6.05    0.32
   0   5  -1    5.64    0.36
   1  -5   1    8.33    0.45
  -1  -5  -1    8.41    0.43
  -1  -5  -1    8.64    0.44
   1  -5   1    8.20    0.44
  -1  -5  -1    8.69    0.45
  -1   5  -1    8.20    0.41
   1   5   1    6.75    0.53
   1   5   1    8.44    0.43
   1   5   1    9.02    0.43
  -1   5  -1    8.71    0.48
  -2  -5  -1    5.31    0.30
  -2  -5  -1    5.55    0.31
  -2  -5  -1    5.81    0.33
   2  -5   1    5.14    0.30
   2  -5   1    5.60    0.33
  -2   5  -1    5.50    0.35
   2   5   1    4.88    0.40
  -2   5  -1    5.26    0.34
   2   5   1    5.66    0.30
   2   5   1    5.45    0.30
  -3  -5  -1    5.24    0.31
  -3  -5  -1    5.73    0.33
   3  -5   1    5.30    0.31
  -3  -5  -1    5.07    0.30
   3  -5   1    5.88    0.33
   3   5   1    5.81    0.30
   3   5   1    5.29    0.41
  -3   5  -1    5.13    0.33
   3   5   1    5.25    0.30
  -3   5  -1    5.66    0.37
   4  -5   1    5.70    0.34
  -4  -5  -1    5.64    0.32
  -4  -5  -1    5.61    0.33
   4  -5   1    5.70    0.32
  -4  -5  -1    5.66    0.34
   4   5   1    5.81    0.31
  -4   5  -1    5.51    0.34
   4   5   1    6.15    0.31
  -4   5  -1    5.98    0.38
   5  -5   1    0.12    0.06
  -5  -5  -1    0.08    0.07
   5  -5   1    0.06    0.06
  -5  -5  -1    0.01    0.05
  -5  -5  -1    0.01    0.06
  -5   5  -1    0.01    0.09
   5   5   1    0.14    0.05
   5   5   1    0.05    0.05
  -6  -5  -1    5.27    0.29
   6  -5   1    5.20    0.30
  -6  -5  -1    5.12    0.29
   6  -5   1    5.02    0.29
   6   5   1    4.86    0.27
  -6   5  -1    5.35    0.34
  -6   5  -1    5.19    0.33
   7  -5   1    0.08    0.06
  -7  -5  -1    0.07    0.06
  -7  -5  -1    0.11    0.05
   7  -5   1    0.16    0.06
   7   5   1    0.08    0.04
  -7   5  -1    0.04    0.09
  -7   5  -1    0.15    0.10
   8  -5   1    0.21    0.05
  -8  -5  -1    0.06    0.05
   8  -5   1   -0.01    0.05
  -8   5  -1    0.03    0.08
  -8   5  -1    0.15    0.08
  -7  -6   1    0.26    0.10
   7  -6  -1    0.19    0.05
  -7  -6   1    0.16    0.05
   7   6  -1    0.29    0.05
  -7   6   1    0.13    0.08
  -6  -6   1    0.12    0.06
   6  -6  -1    0.19    0.06
  -6  -6   1    0.13    0.07
  -6   6   1    0.24    0.09
   6   6  -1    0.20    0.05
   5  -6  -1    2.44    0.18
  -5  -6   1    2.50    0.17
  -5  -6   1    2.66    0.19
   5   6  -1    2.43    0.16
   5   6  -1    2.40    0.16
  -5   6   1    2.41    0.21
   4  -6  -1    8.22    0.44
  -4  -6   1    8.57    0.45
  -4  -6   1    8.25    0.43
   4   6  -1    7.62    0.42
  -4   6   1    8.58    0.47
   4   6  -1    8.50    0.42
   3  -6  -1    2.62    0.20
  -3  -6   1    2.77    0.19
  -3  -6   1    3.01    0.21
  -3   6   1    2.18    0.21
   3   6  -1    2.82    0.18
  -3   6   1    3.19    0.25
   3   6  -1    2.71    0.18
  -2  -6   1   18.41    0.89
   2  -6  -1   19.11    0.89
  -2  -6   1   17.85    0.87
   2   6  -1   18.28    0.86
   2   6  -1   17.41    0.86
  -2   6   1   18.58    0.89
  -2   6   1   18.40    0.91
   2   6  -1   17.25    0.86
  -1  -6   1    8.08    0.41
  -1  -6   1    7.18    0.39
   1  -6  -1    7.66    0.41
   1   6  -1    6.64    0.42
  -1   6   1    7.07    0.43
   1   6  -1    7.48    0.37
   0  -6  -1    4.76    0.29
   0  -6  -1    4.67    0.27
   0  -6   1    4.61    0.29
   0   6   1    4.44    0.25
   0   6  -1    4.58    0.31
   0   6  -1    5.16    0.28
   0   6   1    4.62    0.32
   0   6  -1    4.41    0.31
  -1  -6  -1    1.45    0.14
  -1  -6  -1    1.66    0.16
   1  -6   1    1.54    0.15
  -1  -6  -1    1.67    0.14
  -1   6  -1    1.32    0.16
   1   6   1    1.68    0.13
  -1   6  -1    1.71    0.19
   1   6   1    1.57    0.14
   1   6   1    1.30    0.18
  -2  -6  -1    7.46    0.39
   2  -6   1    7.37    0.39
  -2  -6  -1    6.65    0.37
  -2  -6  -1    7.35    0.38
   2   6   1    6.89    0.37
   2   6   1    7.05    0.37
  -2   6  -1    7.12    0.42
   2   6   1    6.70    0.41
  -2   6  -1    6.94    0.40
  -3  -6  -1    3.79    0.24
   3  -6   1    4.02    0.24
  -3  -6  -1    3.62    0.23
  -3  -6  -1    3.64    0.22
  -3   6  -1    3.81    0.25
   3   6   1    3.36    0.22
   3   6   1    3.66    0.22
  -3   6  -1    3.79    0.28
  -4  -6  -1    2.48    0.17
  -4  -6  -1    2.38    0.18
   4  -6   1    2.50    0.18
  -4  -6  -1    2.33    0.17
   4   6   1    2.28    0.16
   4   6   1    2.54    0.16
  -4   6  -1    2.50    0.22
  -5  -6  -1    2.70    0.17
  -5  -6  -1    2.81    0.17
   5  -6   1    2.14    0.17
   5  -6   1    2.63    0.18
   5   6   1    2.80    0.16
  -5   6  -1    2.66    0.21
   5   6   1    2.47    0.16
  -6  -6  -1    3.01    0.18
   6  -6   1    3.12    0.21
   6  -6   1    3.26    0.19
  -6  -6  -1    3.65    0.19
  -6   6  -1    3.66    0.23
   6   6   1    3.10    0.18
  -4  -7   1    1.88    0.11
  -4  -7   1    1.42    0.13
   4  -7  -1    1.79    0.12
   4   7  -1    2.01    0.14
  -4   7   1    1.83    0.14
   3  -7  -1    4.17    0.23
  -3  -7   1    4.29    0.22
  -3  -7   1    3.93    0.24
   3   7  -1    4.49    0.25
  -3   7   1    4.19    0.26
   2  -7  -1    0.36    0.07
  -2  -7   1    0.22    0.06
  -2   7   1    0.26    0.09
  -2   7   1    0.22    0.08
   2   7  -1    0.43    0.09
   1  -7  -1    1.41    0.13
  -1  -7   1    1.41    0.13
  -1   7   1    1.30    0.14
  -1   7   1    1.81    0.16
   1   7  -1    1.64    0.15
   0  -7   1    0.72    0.10
   0  -7  -1    0.85    0.10
   0   7  -1    0.91    0.11
   0   7   1    0.73    0.12
   0   7   1    1.19    0.14
  -1  -7  -1    5.09    0.27
   1  -7   1    4.95    0.28
  -1   7  -1    4.84    0.29
   1   7   1    4.87    0.29
   1   7   1    5.25    0.29
  -1   7  -1    5.11    0.28
   2  -7   1    0.63    0.09
  -2  -7  -1    0.49    0.09
  -2  -7  -1    0.88    0.12
  -2   7  -1    0.66    0.12
  -2   7  -1    0.72    0.11
   2   7   1    0.74    0.11
  -3  -7  -1    1.98    0.13
   3  -7   1    1.87    0.13
  -3   7  -1    2.06    0.15
   3   7   1    2.36    0.16
 -12   0   2    0.08    0.08
  12   0  -2    0.10    0.04
 -12   0   2    0.00    0.08
 -12   0   2    0.03    0.08
 -12   0   2    0.04    0.08
 -12   0   2    0.00    0.07
  11   0  -2    1.15    0.09
 -11   0   2    1.21    0.16
 -11   0   2    1.14    0.16
 -11   0   2    1.12    0.15
 -11   0   2    1.05    0.15
 -11   0   2    1.31    0.16
 -10   0   2    0.07    0.08
 -10   0   2    0.19    0.10
  10   0  -2    0.13    0.04
 -10   0   2    0.05    0.08
 -10   0   2    0.20    0.08
 -10   0   2    0.10    0.09
  -9   0   2    1.33    0.16
  -9   0   2    1.24    0.15
  -9   0   2    1.37    0.16
  -9   0   2    1.08    0.15
   9   0  -2    1.20    0.09
   9   0  -2    1.04    0.16
  -9   0   2    1.31    0.15
  -8   0   2    1.23    0.13
   8   0  -2    1.25    0.14
  -8   0   2    1.04    0.14
  -8   0   2    1.21    0.13
  -8   0   2    1.14    0.13
  -8   0   2    0.92    0.13
   8   0  -2    0.89    0.07
  -7   0   2    8.12    0.43
   7   0  -2    8.50    0.44
   7   0  -2    7.86    0.51
   7   0  -2    7.09    0.37
   6   0  -2   24.54    1.20
   6   0  -2   22.06    1.41
  -6   0   2   22.48    1.10
   6   0  -2   24.31    1.11
   5   0  -2    0.60    0.17
   5   0  -2    0.59    0.10
   4   0  -2    2.94    0.21
   4   0  -2    3.11    0.31
   4   0  -2    2.74    0.21
   4   0  -2    2.94    0.17
   3   0  -2   68.00    3.11
   3   0  -2   74.11    3.28
  -3   0   2   64.98    3.14
  -3   0   2   61.41    3.25
   3   0  -2   68.00    3.16
   3   0  -2   76.37    3.16
  -2   0   2   19.41    0.88
   2   0  -2   19.29    0.88
   2   0  -2   17.55    0.88
  -2   0   2   16.24    0.94
   2   0  -2   18.98    0.95
   2   0  -2   18.11    0.85
  -1   0   2    8.36    0.42
  -1   0   2    8.03    0.43
   1   0  -2    8.36    0.44
   1   0  -2    9.00    0.44
   1   0  -2    7.92    0.41
  -1   0   2    9.13    0.45
  -1   0   2    7.80    0.46
   1   0  -2    9.87    0.49
   0   0   2   80.01    3.57
   0   0  -2   78.98    3.59
   0   0  -2   74.14    3.59
   0   0  -2   86.41    3.60
   0   0   2   80.28    3.60
   0   0   2   77.25    3.59
   0   0   2   77.21    3.59
   1   0   2 1000.00   41.60
   1   0   2  857.35   40.53
  -1   0  -2  798.75   40.43
   2   0   2    1.92    0.14
   2   0   2    1.65    0.13
   2   0   2    1.85    0.13
   2   0   2    1.61    0.10
   2   0   2    1.71    0.13
   3   0   2    0.19    0.06
   3   0   2    0.09    0.03
   3   0   2    0.13    0.05
   3   0   2    0.13    0.06
   3   0   2    0.15    0.03
   3   0   2    0.12    0.07
   4   0   2    7.63    0.37
   4   0   2    8.23    0.44
   4   0   2    6.81    0.41
   5   0   2    2.26    0.20
   5   0   2    2.19    0.15
  -5   0  -2    2.07    0.16
   6   0   2    8.77    0.53
  -6   0  -2    9.08    0.48
   6   0   2    9.23    0.48
  -7   0  -2    1.20    0.14
  -7   0  -2    1.13    0.16
  -7   0  -2    1.33    0.16
   7   0   2    1.22    0.14
  -7   0  -2    1.53    0.15
  -7   0  -2    1.57    0.15
  -7   0  -2    1.34    0.14
  -8   0  -2   20.95    1.02
  -8   0  -2   20.73    1.00
  -8   0  -2   18.44    0.98
   8   0   2   20.27    1.02
  -8   0  -2   21.67    1.02
  -8   0  -2   20.65    1.00
  -8   0  -2   20.30    1.02
  -9   0  -2    7.57    0.45
  -9   0  -2    8.27    0.45
  -9   0  -2    7.30    0.43
  -9   0  -2    8.00    0.45
  -9   0  -2    8.07    0.45
 -10   0  -2    9.42    0.49
  10   0   2    8.26    0.42
 -10   0  -2    8.70    0.48
 -10   0  -2    8.06    0.46
 -10   0  -2    9.52    0.48
 -10   0  -2    9.06    0.48
 -11   0  -2    0.29    0.08
 -11   0  -2    0.35    0.08
 -12  -1   2    0.35    0.08
  12  -1  -2    0.26    0.05
 -12  -1   2    0.38    0.09
 -12  -1   2    0.22    0.08
 -12   1   2    0.16    0.08
 -12   1   2    0.34    0.09
 -12   1   2    0.34    0.08
 -12   1   2    0.33    0.09
 -12   1   2    0.27    0.09
 -11  -1   2    1.45    0.17
 -11  -1   2    1.26    0.16
 -11  -1   2    1.29    0.15
  11  -1  -2    1.48    0.10
 -11  -1   2    1.33    0.17
  11  -1  -2    1.37    0.10
 -11   1   2    1.32    0.16
 -11   1   2    1.14    0.17
 -11   1   2    1.23    0.16
 -11   1   2    1.28    0.17
  11   1  -2    1.28    0.09
 -11   1   2    1.20    0.16
 -11   1   2    1.38    0.16
 -10  -1   2    3.10    0.25
 -10  -1   2    3.85    0.26
  10  -1  -2    3.57    0.20
 -10  -1   2    3.43    0.26
  10  -1  -2    3.36    0.19
 -10  -1   2    3.68    0.26
 -10  -1   2    3.58    0.26
 -10   1   2    3.54    0.26
 -10   1   2    3.65    0.26
 -10   1   2    3.60    0.25
 -10   1   2    3.53    0.27
 -10   1   2    3.25    0.26
 -10   1   2    3.42    0.27
  -9  -1   2    2.31    0.19
   9  -1  -2    2.00    0.13
  -9  -1   2    2.24    0.19
   9  -1  -2    2.00    0.23
   9  -1  -2    2.28    0.13
  -9  -1   2    2.24    0.20
  -9  -1   2    2.20    0.19
  -9  -1   2    2.30    0.19
  -9   1   2    2.19    0.19
  -9   1   2    2.04    0.21
  -9   1   2    2.10    0.20
  -9   1   2    1.99    0.19
   9   1  -2    2.13    0.19
  -9   1   2    2.16    0.19
  -9   1   2    2.31    0.20
  -8  -1   2   32.04    1.46
  -8  -1   2   31.26    1.45
  -8  -1   2   26.71    1.43
  -8  -1   2   30.88    1.46
   8  -1  -2   30.81    1.40
  -8  -1   2   30.21    1.46
   8  -1  -2   32.42    1.52
  -8   1   2   30.03    1.46
  -8   1   2   31.61    1.47
  -8   1   2   29.31    1.47
  -8   1   2   29.18    1.46
   8   1  -2   32.79    1.46
  -8   1   2   31.01    1.46
  -8   1   2   30.88    1.45
  -7  -1   2    8.16    0.42
   7  -1  -2    8.82    0.46
   7  -1  -2    7.33    0.56
   7  -1  -2    7.24    0.37
   7   1  -2    7.80    0.47
  -7   1   2    6.98    0.42
   7   1  -2    7.95    0.42
   6  -1  -2    1.01    0.12
   6  -1  -2    0.95    0.25
   6  -1  -2    1.09    0.18
   6  -1  -2    1.04    0.07
  -6  -1   2    1.14    0.10
  -6   1   2    1.01    0.11
   6   1  -2    1.44    0.11
   6   1  -2    1.28    0.14
   6   1  -2    1.16    0.27
   5  -1  -2   27.76    1.26
   5  -1  -2   26.27    1.34
   5  -1  -2   26.13    1.52
   5  -1  -2   24.62    1.20
   5   1  -2   25.86    1.23
   5   1  -2   27.05    1.53
   5   1  -2   27.35    1.28
   4  -1  -2   92.30    4.26
   4  -1  -2  100.03    4.34
   4  -1  -2   89.11    4.48
   4   1  -2   95.10    4.49
   4   1  -2   87.72    4.29
   4   1  -2   93.49    4.23
   4   1  -2   99.81    4.29
   3  -1  -2   30.51    1.40
  -3  -1   2   24.59    1.34
   3  -1  -2   32.19    1.53
   3  -1  -2   28.96    1.34
   3   1  -2   31.49    1.52
   3   1  -2   29.78    1.36
   3   1  -2   26.94    1.37
   3   1  -2   26.99    1.32
  -3   1   2   27.04    1.38
   2  -1  -2   64.25    2.92
  -2  -1   2   65.61    2.95
   2  -1  -2   71.60    2.98
   2  -1  -2   67.97    3.07
   2  -1  -2   57.61    2.96
   2   1  -2   70.16    3.05
  -2   1   2   57.40    2.92
   2   1  -2   61.89    2.91
   2   1  -2   63.64    3.06
   2   1  -2   61.44    2.96
   2   1  -2   67.49    2.95
  -2   1   2   61.42    3.07
  -2   1   2   66.62    2.97
  -1  -1   2  183.09    7.94
   1  -1  -2  179.07    8.02
   1  -1  -2  174.96    7.93
  -1   1   2  185.58    7.90
   1   1  -2  181.57    7.92
   1   1  -2  174.12    7.89
  -1   1   2  193.80    7.94
  -1   1   2  163.60    7.92
   1   1  -2  170.52    7.94
  -1   1   2  151.32    7.99
   0  -1   2   20.06    0.92
   0  -1  -2   19.31    0.98
   0  -1   2   17.68    0.88
   0  -1   2   19.72    0.93
   0  -1  -2   17.82    0.89
   0   1   2   18.11    0.97
   0   1  -2   17.69    0.92
   0   1   2   20.02    0.88
   0   1  -2   19.79    0.91
   0   1   2   18.21    0.90
   0   1  -2   16.07    0.87
   0   1   2   19.95    0.91
   1  -1   2    7.92    0.40
   1  -1   2    8.37    0.46
  -1  -1  -2    7.57    0.48
   1  -1   2    8.16    0.40
   1  -1   2    6.97    0.43
   1   1   2    7.60    0.38
  -1   1  -2    8.22    0.43
   1   1   2    7.42    0.48
   1   1   2    8.07    0.41
  -1   1  -2    8.02    0.40
   1   1   2    8.50    0.41
   2  -1   2   18.34    0.99
   2  -1   2   21.05    0.95
   2  -1   2   21.41    1.02
  -2  -1  -2   20.75    1.06
   2  -1   2   19.99    0.93
  -2   1  -2   19.37    0.93
   2   1   2   20.25    0.94
  -2   1  -2   18.38    0.96
   2   1   2   22.05    0.95
   2   1   2   17.96    1.05
   3  -1   2    7.25    0.38
   3  -1   2    7.11    0.44
   3  -1   2    6.44    0.38
   3   1   2    6.69    0.35
   3   1   2    7.44    0.36
   4  -1   2    9.12    0.55
   4  -1   2    7.72    0.40
   4  -1   2    9.05    0.46
   4   1   2    9.40    0.43
   4   1   2    7.76    0.59
   4   1   2    8.45    0.42
   5  -1   2    4.00    0.20
   5  -1   2    4.54    0.28
   5  -1   2    4.45    0.35
  -5  -1  -2    3.94    0.24
   5   1   2    4.05    0.22
  -5   1  -2    4.40    0.25
   6  -1   2    3.87    0.38
   6  -1   2    4.36    0.22
   6  -1   2    4.75    0.31
  -6  -1  -2    4.03    0.26
  -6   1  -2    4.79    0.28
  -6   1  -2    4.23    0.29
   6   1   2    4.66    0.23
  -6   1  -2    4.33    0.28
  -6   1  -2    4.12    0.28
  -6   1  -2    4.73    0.28
  -6   1  -2    4.22    0.28
  -7  -1  -2    6.78    0.42
   7  -1   2    7.59    0.36
  -7  -1  -2    7.04    0.41
  -7  -1  -2    7.73    0.42
   7  -1   2    7.25    0.46
  -7  -1  -2    7.12    0.42
  -7   1  -2    7.60    0.44
  -7   1  -2    8.17    0.43
  -7   1  -2    7.59    0.42
   7   1   2    7.15    0.38
  -7   1  -2    7.96    0.43
  -7   1  -2    7.55    0.43
  -7   1  -2    7.26    0.43
   8  -1   2    5.50    0.40
  -8  -1  -2    5.70    0.34
  -8  -1  -2    5.35    0.34
   8  -1   2    5.84    0.29
  -8  -1  -2    5.61    0.36
  -8  -1  -2    5.76    0.35
   8   1   2    5.37    0.32
  -8   1  -2    5.97    0.35
  -8   1  -2    6.05    0.36
  -8   1  -2    6.27    0.38
  -8   1  -2    6.05    0.36
  -8   1  -2    6.13    0.37
  -8   1  -2    5.59    0.35
  -9  -1  -2    3.18    0.24
   9  -1   2    3.18    0.18
  -9  -1  -2    2.82    0.24
  -9  -1  -2    2.97    0.22
  -9  -1  -2    2.99    0.23
  -9   1  -2    3.33    0.24
  -9   1  -2    2.86    0.23
  -9   1  -2    3.46    0.26
  -9   1  -2    3.16    0.23
  -9   1  -2    2.98    0.23
  -9   1  -2    3.34    0.26
  10  -1   2    1.78    0.12
 -10  -1  -2    1.73    0.17
  10  -1   2    1.78    0.12
 -10  -1  -2    1.93    0.17
 -10   1  -2    1.95    0.18
 -10   1  -2    1.97    0.18
 -10   1  -2    2.27    0.19
 -10   1  -2    1.94    0.17
 -10   1  -2    1.74    0.19
  11  -1   2    0.69    0.07
 -11   1  -2    0.63    0.10
 -11   1  -2    0.78    0.12
 -11   1  -2    0.78    0.12
 -11   1  -2    0.90    0.11
 -12  -2   2    1.98    0.14
  12  -2  -2    1.66    0.13
  12  -2  -2    1.86    0.11
 -12   2   2    1.52    0.15
 -12   2   2    1.97    0.15
 -12   2   2    2.11    0.15
 -12   2   2    1.50    0.14
 -11  -2   2    0.43    0.10
  11  -2  -2    0.50    0.06
  11  -2  -2    0.41    0.07
 -11  -2   2    0.52    0.10
 -11   2   2    0.38    0.12
 -11   2   2    0.32    0.10
 -11   2   2    0.51    0.11
 -11   2   2    0.54    0.11
 -11   2   2    0.63    0.11
  10  -2  -2    1.41    0.10
 -10  -2   2    1.33    0.16
  10  -2  -2    1.40    0.11
 -10  -2   2    1.32    0.16
 -10  -2   2    1.08    0.17
 -10  -2   2    1.24    0.16
 -10   2   2    1.23    0.16
 -10   2   2    1.43    0.17
 -10   2   2    1.49    0.16
 -10   2   2    1.25    0.16
 -10   2   2    1.26    0.16
 -10   2   2    1.36    0.17
  -9  -2   2    3.53    0.24
  -9  -2   2    3.54    0.24
   9  -2  -2    3.51    0.19
  -9  -2   2    3.14    0.23
   9  -2  -2    3.31    0.19
   9  -2  -2    2.70    0.31
  -9  -2   2    3.36    0.26
  -9   2   2    3.17    0.25
  -9   2   2    3.25    0.24
   9   2  -2    2.99    0.23
  -9   2   2    3.38    0.24
  -9   2   2    3.34    0.27
  -9   2   2    3.55    0.25
  -9   2   2    3.03    0.25
   8  -2  -2   31.26    1.36
   8  -2  -2   28.78    1.35
  -8  -2   2   28.13    1.40
   8  -2  -2   28.44    1.49
  -8  -2   2   30.09    1.40
  -8  -2   2   29.87    1.40
  -8  -2   2   30.19    1.41
   8   2  -2   30.02    1.41
  -8   2   2   28.03    1.41
  -8   2   2   27.39    1.40
  -8   2   2   31.02    1.42
  -8   2   2   28.26    1.40
  -8   2   2   29.65    1.43
  -8   2   2   31.35    1.42
   7  -2  -2    3.01    0.17
   7  -2  -2    3.23    0.27
   7  -2  -2    3.03    0.16
  -7  -2   2    2.75    0.23
  -7  -2   2    2.81    0.20
  -7  -2   2    2.72    0.20
  -7  -2   2    2.97    0.21
  -7   2   2    3.03    0.22
  -7   2   2    2.92    0.22
  -7   2   2    2.96    0.22
  -7   2   2    3.02    0.21
  -7   2   2    2.65    0.21
   7   2  -2    3.31    0.21
  -7   2   2    3.01    0.22
   6  -2  -2   24.76    1.14
  -6  -2   2   23.71    1.17
   6  -2  -2   26.34    1.25
   6  -2  -2   26.64    1.15
   6  -2  -2   24.84    1.39
   6  -2  -2   20.93    1.50
   6   2  -2   25.87    1.24
   6   2  -2   27.10    1.19
  -6   2   2   24.37    1.18
   5  -2  -2   24.37    1.56
   5  -2  -2   26.40    1.44
   5  -2  -2   27.93    1.32
   5  -2  -2   26.75    1.23
   5   2  -2   27.35    1.33
   5   2  -2   28.03    1.27
   5   2  -2   27.72    1.63
   4  -2  -2   54.86    2.79
   4  -2  -2   52.17    2.63
   4  -2  -2   52.80    2.44
   4  -2  -2   54.34    2.52
   4   2  -2   53.07    2.48
   4   2  -2   58.48    2.55
   3  -2  -2   36.53    1.72
   3  -2  -2   36.50    1.82
   3  -2  -2   37.55    1.95
   3   2  -2   38.41    1.76
  -3   2   2   34.50    1.78
   3   2  -2   36.76    1.70
   2  -2  -2    0.35    0.13
   2  -2  -2    0.34    0.07
  -2  -2   2    0.29    0.08
  -2  -2   2    0.29    0.11
   2  -2  -2    0.28    0.09
   2   2  -2    0.33    0.06
   2   2  -2    0.36    0.08
   2   2  -2    0.31    0.10
  -2   2   2    0.29    0.07
  -2   2   2    0.33    0.09
   1  -2  -2   15.87    0.99
   1  -2  -2   16.47    0.88
  -1  -2   2   18.04    0.97
  -1  -2   2   16.57    0.88
   1   2  -2   17.77    0.87
   1   2  -2   17.76    0.82
  -1   2   2   17.38    0.88
   1   2  -2   13.91    0.88
  -1   2   2   18.28    0.84
   0  -2  -2   20.20    1.07
   0  -2   2   23.61    1.17
   0  -2   2   22.20    1.12
   0  -2   2   20.31    1.04
   0  -2  -2   23.57    1.24
   0   2   2   23.86    1.10
   0   2   2   20.26    1.09
   0   2  -2   22.16    1.04
   0   2  -2   22.54    1.10
   0   2   2   22.84    1.05
   0   2  -2   18.83    1.15
   1  -2   2    1.37    0.13
   1  -2   2    1.36    0.17
   1  -2   2    1.51    0.18
  -1  -2  -2    1.53    0.23
  -1   2  -2    1.66    0.16
   1   2   2    1.58    0.15
  -1   2  -2    1.26    0.17
   1   2   2    1.47    0.15
   1   2   2    1.62    0.12
  -1   2  -2    1.49    0.13
   2  -2   2   24.70    1.17
  -2  -2  -2   24.57    1.36
   2  -2   2   25.39    1.27
   2  -2   2   23.05    1.09
   2  -2   2   23.34    1.22
  -2   2  -2   21.73    1.20
   2   2   2   23.91    1.12
   2   2   2   22.62    1.17
   2   2   2   27.12    1.18
  -3  -2  -2   17.02    1.06
   3  -2   2   17.97    0.87
   3  -2   2   17.09    0.79
   3  -2   2   16.71    0.97
   3   2   2   17.01    0.81
   3   2   2   18.37    0.86
   3   2   2   16.24    0.86
   4  -2   2   20.88    1.00
   4  -2   2   19.44    0.90
   4  -2   2   19.63    1.11
  -4   2  -2   19.27    0.95
   4   2   2   19.41    0.91
   5  -2   2    6.48    0.52
   5  -2   2    5.92    0.31
   5  -2   2    6.93    0.42
   5  -2   2    6.28    0.31
  -5   2  -2    6.08    0.36
   5   2   2    6.32    0.31
  -6  -2  -2    9.77    0.55
   6  -2   2   11.65    0.66
   6  -2   2   11.59    0.54
   6  -2   2   11.29    0.53
  -6   2  -2   11.20    0.59
  -6   2  -2   11.11    0.59
  -6   2  -2   11.87    0.59
  -6   2  -2   11.10    0.60
  -6   2  -2   11.59    0.60
  -6   2  -2   11.68    0.59
   6   2   2   10.96    0.53
   7  -2   2    2.19    0.13
   7  -2   2    1.80    0.23
   7  -2   2    2.09    0.13
  -7   2  -2    1.90    0.18
  -7   2  -2    2.08    0.19
  -7   2  -2    2.15    0.21
  -7   2  -2    2.09    0.19
  -7   2  -2    2.20    0.19
  -7   2  -2    2.14    0.21
   8  -2   2   12.17    0.57
   8  -2   2   11.75    0.57
  -8   2  -2   11.59    0.63
  -8   2  -2   11.23    0.62
  -8   2  -2   11.84    0.65
  -8   2  -2   12.52    0.63
  -8   2  -2   11.91    0.64
  -8   2  -2   11.90    0.63
   9  -2   2    0.12    0.04
   9  -2   2    0.12    0.05
  -9   2  -2    0.20    0.08
  -9   2  -2    0.11    0.09
  -9   2  -2    0.07    0.08
  -9   2  -2    0.03    0.10
  -9   2  -2    0.11    0.10
  -9   2  -2    0.12    0.08
  10  -2   2    0.45    0.06
  10  -2   2    0.27    0.05
 -10   2  -2    0.62    0.11
 -10   2  -2    0.37    0.09
 -10   2  -2    0.56    0.11
 -10   2  -2    0.46    0.10
 -10   2  -2    0.56    0.11
 -11   2  -2    0.87    0.11
 -11   2  -2    0.83    0.10
 -11   2  -2    0.86    0.11
 -11  -3   2    2.00    0.16
  11  -3  -2    2.30    0.15
  11  -3  -2    2.11    0.12
 -11   3   2    2.22    0.17
 -11   3   2    2.17    0.17
 -11   3   2    1.90    0.18
 -11   3   2    2.33    0.17
  10  -3  -2    1.62    0.14
 -10  -3   2    1.62    0.16
  10  -3  -2    1.46    0.11
 -10  -3   2    1.47    0.16
  10  -3  -2    1.53    0.10
 -10   3   2    1.44    0.18
 -10   3   2    1.42    0.16
 -10   3   2    1.14    0.15
 -10   3   2    1.67    0.16
 -10   3   2    1.58    0.17
   9  -3  -2    0.49    0.08
  -9  -3   2    0.43    0.11
  -9  -3   2    0.74    0.12
   9  -3  -2    0.39    0.06
  -9   3   2    0.34    0.10
  -9   3   2    0.34    0.11
  -9   3   2    0.36    0.10
  -9   3   2    0.45    0.11
  -9   3   2    0.65    0.12
  -8  -3   2   11.94    0.60
   8  -3  -2   12.19    0.55
   8  -3  -2   12.02    0.56
  -8  -3   2   11.60    0.60
  -8   3   2   11.42    0.62
  -8   3   2   11.36    0.60
  -8   3   2   10.51    0.60
  -8   3   2   10.94    0.61
  -8   3   2   13.25    0.65
   8   3  -2   10.68    0.61
  -8   3   2   10.92    0.60
   7  -3  -2   14.34    0.65
  -7  -3   2   13.69    0.68
   7  -3  -2   14.84    0.64
  -7  -3   2   14.14    0.70
   7  -3  -2   12.26    0.79
  -7  -3   2   12.82    0.66
  -7   3   2   14.15    0.73
  -7   3   2   13.80    0.70
  -7   3   2   12.47    0.69
  -7   3   2   12.89    0.69
  -7   3   2   13.47    0.69
   7   3  -2   13.99    0.71
  -7   3   2   13.93    0.71
  -6  -3   2    6.94    0.39
  -6  -3   2    7.01    0.37
   6  -3  -2    6.67    0.47
   6  -3  -2    7.47    0.35
  -6  -3   2    7.00    0.38
   6  -3  -2    7.52    0.35
  -6   3   2    6.68    0.40
   6   3  -2    7.31    0.41
  -6   3   2    6.57    0.40
  -6   3   2    6.97    0.42
  -6   3   2    7.40    0.41
  -6   3   2    6.27    0.39
   5  -3  -2    6.99    0.35
   5  -3  -2    7.39    0.35
   5   3  -2    7.63    0.42
   5   3  -2    6.64    0.46
   5   3  -2    6.91    0.35
   4  -3  -2   20.38    1.41
   4  -3  -2   22.22    1.01
   4  -3  -2   19.72    1.01
   4   3  -2   22.66    1.02
   4   3  -2   24.06    1.17
   4   3  -2   24.04    1.09
   3  -3  -2   18.16    1.23
  -3  -3   2   17.09    1.20
   3   3  -2   20.49    1.02
   3   3  -2   18.23    0.87
   3   3  -2   20.33    0.95
   2  -3  -2   10.09    0.80
  -2  -3   2   10.51    0.78
  -2   3   2    9.81    0.49
   2   3  -2   10.40    0.62
   2   3  -2   11.14    0.56
  -2   3   2   10.22    0.57
   2   3  -2    9.65    0.48
  -2   3   2    9.88    0.63
  -1  -3   2    7.68    0.62
   1  -3  -2    7.93    0.66
  -1   3   2    7.04    0.49
   1   3  -2    7.26    0.49
  -1   3   2    7.66    0.37
   1   3  -2    7.82    0.44
  -1   3   2    7.55    0.44
   1   3  -2    7.76    0.37
   0  -3   2   22.01    1.32
   0  -3  -2   22.69    1.40
   0   3   2   23.00    1.05
   0   3   2   23.80    1.20
   0   3  -2   21.64    1.12
   0   3   2   24.69    1.14
   0   3  -2   22.89    1.05
   0   3  -2   22.26    1.20
   1  -3   2    4.25    0.41
  -1  -3  -2    4.04    0.47
  -1   3  -2    4.07    0.34
   1   3   2    4.42    0.33
   1   3   2    4.21    0.22
   1   3   2    4.58    0.29
  -2  -3  -2    5.93    0.59
   2  -3   2    6.04    0.30
   2  -3   2    6.18    0.50
   2   3   2    5.74    0.30
   2   3   2    6.44    0.42
   2   3   2    6.66    0.37
   3  -3   2    4.11    0.22
   3  -3   2    4.34    0.22
   3  -3   2    4.07    0.32
   3  -3   2    3.90    0.41
  -3   3  -2    3.93    0.25
   3   3   2    4.41    0.32
   3   3   2    4.31    0.27
   4  -3   2    2.55    0.37
   4  -3   2    3.27    0.18
  -4  -3  -2    3.20    0.20
  -4  -3  -2    3.03    0.20
   4  -3   2    3.28    0.29
   4  -3   2    3.34    0.17
  -4   3  -2    3.12    0.24
   4   3   2    3.10    0.25
  -4   3  -2    3.45    0.23
  -4   3  -2    3.24    0.22
   4   3   2    3.27    0.22
   5  -3   2    4.67    0.28
  -5  -3  -2    4.93    0.28
  -5  -3  -2    4.25    0.28
  -5  -3  -2    4.80    0.27
   5  -3   2    4.53    0.37
   5  -3   2    5.05    0.25
   5  -3   2    5.32    0.26
   5   3   2    5.13    0.30
  -5   3  -2    4.87    0.32
  -5   3  -2    4.85    0.31
  -5   3  -2    5.01    0.30
  -5   3  -2    4.92    0.32
  -5   3  -2    4.53    0.29
  -5   3  -2    5.17    0.32
   6  -3   2   15.90    0.71
   6  -3   2   13.64    0.85
   6  -3   2   14.28    0.73
  -6  -3  -2   15.31    0.73
   6  -3   2   15.65    0.71
  -6  -3  -2   15.32    0.73
  -6   3  -2   14.82    0.76
   6   3   2   14.42    0.74
  -6   3  -2   15.52    0.77
  -6   3  -2   15.00    0.75
  -6   3  -2   14.43    0.78
  -6   3  -2   14.94    0.77
  -6   3  -2   15.33    0.77
  -7  -3  -2   14.87    0.76
   7  -3   2   16.40    0.75
   7  -3   2   14.91    0.77
   7  -3   2   16.58    0.76
  -7  -3  -2   15.02    0.76
  -7   3  -2   16.70    0.82
  -7   3  -2   15.92    0.80
  -7   3  -2   16.06    0.82
  -7   3  -2   16.60    0.83
  -7   3  -2   15.57    0.81
  -7   3  -2   17.00    0.82
   8  -3   2    0.46    0.07
   8  -3   2    0.44    0.07
  -8   3  -2    0.54    0.13
  -8   3  -2    0.59    0.13
  -8   3  -2    0.41    0.11
  -8   3  -2    0.32    0.10
  -8   3  -2    0.49    0.10
  -8   3  -2    0.48    0.11
   9  -3   2    0.96    0.08
   9  -3   2    0.84    0.09
  -9   3  -2    1.10    0.14
  -9   3  -2    0.98    0.14
  -9   3  -2    1.22    0.14
  -9   3  -2    0.92    0.14
  -9   3  -2    0.94    0.13
  -9   3  -2    1.05    0.15
  10  -3   2    2.88    0.16
 -10   3  -2    3.34    0.20
 -10   3  -2    2.98    0.21
 -10   3  -2    3.31    0.20
  10  -4  -2    0.31    0.07
 -10  -4   2    0.27    0.08
 -10   4   2    0.40    0.10
   9  -4  -2    4.57    0.26
   9  -4  -2    4.07    0.22
  -9  -4   2    4.30    0.27
   9   4  -2    4.01    0.22
  -9   4   2    4.69    0.28
  -9   4   2    4.89    0.31
  -9   4   2    4.10    0.28
   8  -4  -2    4.90    0.26
  -8  -4   2    4.99    0.28
   8  -4  -2    5.23    0.30
  -8  -4   2    5.30    0.31
  -8   4   2    4.97    0.32
   8   4  -2    4.73    0.26
  -8   4   2    5.01    0.32
  -8   4   2    5.22    0.35
  -7  -4   2    1.78    0.14
  -7  -4   2    1.84    0.17
   7  -4  -2    1.53    0.11
   7  -4  -2    1.87    0.17
  -7  -4   2    1.56    0.16
  -7   4   2    1.90    0.20
   7   4  -2    1.70    0.13
  -7   4   2    1.71    0.20
  -7   4   2    1.99    0.18
  -6  -4   2   10.52    0.52
   6  -4  -2   11.02    0.54
  -6  -4   2   10.70    0.54
   6  -4  -2    8.59    0.48
  -6  -4   2    9.84    0.52
  -6   4   2    9.80    0.55
   6   4  -2   11.16    0.50
  -6   4   2   10.13    0.56
  -6   4   2   10.03    0.57
   6   4  -2   10.21    0.59
  -5  -4   2    6.19    0.33
  -5  -4   2    5.28    0.33
  -5  -4   2    5.78    0.32
  -5  -4   2    5.63    0.34
   5  -4  -2    6.24    0.34
  -5   4   2    6.49    0.38
  -5   4   2    6.01    0.38
   5   4  -2    6.13    0.41
   5   4  -2    6.16    0.31
  -4  -4   2    6.65    0.38
   4  -4  -2    7.60    0.39
  -4  -4   2    7.27    0.40
  -4  -4   2    6.97    0.37
  -4  -4   2    7.10    0.38
   4   4  -2    7.50    0.37
  -4   4   2    7.12    0.43
   4   4  -2    7.60    0.47
  -4   4   2    7.65    0.42
   4   4  -2    7.13    0.37
   3  -4  -2    0.78    0.10
  -3  -4   2    0.65    0.10
  -3  -4   2    0.77    0.10
  -3  -4   2    0.70    0.09
  -3  -4   2    0.87    0.10
   3   4  -2    0.89    0.15
   3   4  -2    0.92    0.08
  -3   4   2    0.70    0.14
   3   4  -2    0.86    0.09
  -3   4   2    0.98    0.14
  -2  -4   2    2.01    0.16
  -2  -4   2    1.95    0.14
   2  -4  -2    1.83    0.15
  -2  -4   2    1.77    0.15
  -2   4   2    1.69    0.13
   2   4  -2    1.94    0.13
   2   4  -2    1.69    0.27
   2   4  -2    2.16    0.13
   2   4  -2    2.12    0.21
  -2   4   2    1.92    0.13
  -1  -4   2    5.96    0.34
  -1  -4   2    6.51    0.33
   1  -4  -2    6.52    0.36
  -1   4   2    6.54    0.33
  -1   4   2    6.46    0.44
   1   4  -2    6.43    0.33
  -1   4   2    5.77    0.50
  -1   4   2    6.70    0.33
   1   4  -2    5.86    0.50
   1   4  -2    6.72    0.33
   1   4  -2    5.84    0.41
   0  -4   2    0.94    0.12
   0  -4   2    0.86    0.10
   0   4   2    0.78    0.08
   0   4  -2    0.74    0.08
   0   4   2    0.68    0.20
   0   4   2    0.87    0.15
   0   4   2    0.81    0.08
   0   4  -2    0.96    0.09
   1  -4   2    7.66    0.40
  -1  -4  -2    8.32    0.41
  -1  -4  -2    8.05    0.41
  -1  -4  -2    7.30    0.41
   1  -4   2    7.82    0.41
  -1   4  -2    7.00    0.46
   1   4   2    8.42    0.40
   1   4   2    7.63    0.57
  -1   4  -2    8.52    0.43
   1   4   2    7.80    0.39
   1   4   2    7.80    0.49
  -1   4  -2    7.93    0.38
  -2  -4  -2    7.18    0.41
   2  -4   2    7.87    0.41
  -2  -4  -2    8.02    0.41
  -2  -4  -2    7.90    0.41
  -2  -4  -2    7.69    0.40
   2  -4   2    8.01    0.41
   2   4   2    8.13    0.39
  -2   4  -2    7.85    0.44
   2   4   2    8.53    0.50
   2   4   2    7.20    0.39
  -2   4  -2    7.86    0.43
  -3  -4  -2    3.98    0.24
  -3  -4  -2    4.00    0.24
   3  -4   2    4.02    0.25
   3  -4   2    4.23    0.25
  -3  -4  -2    4.29    0.25
   3   4   2    4.17    0.23
  -3   4  -2    3.99    0.26
   3   4   2    4.32    0.32
  -3   4  -2    4.00    0.28
  -4  -4  -2    7.79    0.40
  -4  -4  -2    7.06    0.40
   4  -4   2    8.06    0.41
  -4  -4  -2    8.06    0.41
   4  -4   2    7.44    0.37
   4   4   2    7.87    0.48
  -4   4  -2    7.23    0.42
  -4   4  -2    6.96    0.43
  -4   4  -2    7.86    0.45
   4   4   2    7.66    0.38
   5  -4   2    8.90    0.45
  -5  -4  -2    8.38    0.44
  -5  -4  -2    8.76    0.45
   5  -4   2    8.85    0.41
   5   4   2    8.00    0.41
  -5   4  -2    8.82    0.49
  -5   4  -2    8.22    0.49
   5   4   2    7.78    0.50
   6  -4   2   21.66    1.04
   6  -4   2   21.24    1.01
  -6  -4  -2   22.39    1.04
  -6   4  -2   21.22    1.08
  -6   4  -2   22.55    1.08
  -7  -4  -2    4.11    0.24
  -7  -4  -2    3.96    0.24
   7  -4   2    4.05    0.25
   7  -4   2    4.20    0.22
  -7   4  -2    4.34    0.30
  -7   4  -2    4.03    0.28
  -7   4  -2    4.26    0.30
  -7   4  -2    3.46    0.27
   8  -4   2    0.25    0.07
  -8  -4  -2    0.23    0.07
   8  -4   2    0.28    0.05
  -8   4  -2    0.45    0.12
  -8   4  -2    0.21    0.08
  -8   4  -2    0.45    0.11
   9  -4   2    4.17    0.22
  -9   4  -2    3.71    0.24
  -9   4  -2    3.99    0.25
  -9  -5   2    2.25    0.17
  -9  -5   2    2.45    0.15
   9  -5  -2    2.80    0.17
  -9   5   2    2.84    0.19
  -8  -5   2    0.73    0.11
  -8  -5   2    0.47    0.08
   8  -5  -2    0.65    0.10
  -8   5   2    0.51    0.11
   8   5  -2    0.64    0.07
   8   5  -2    0.55    0.07
  -8   5   2    0.40    0.10
  -7  -5   2   15.23    0.71
   7  -5  -2   14.57    0.70
  -7  -5   2   14.70    0.69
  -7   5   2   13.44    0.72
   7   5  -2   13.86    0.67
  -7   5   2   14.59    0.73
   7   5  -2   12.97    0.67
   7   5  -2   13.37    0.67
  -6  -5   2    6.30    0.35
   6  -5  -2    6.65    0.37
  -6  -5   2    6.54    0.36
  -6  -5   2    7.41    0.39
  -6   5   2    6.52    0.40
  -6   5   2    6.58    0.40
   6   5  -2    6.39    0.35
   6   5  -2    6.88    0.35
  -5  -5   2    2.94    0.20
  -5  -5   2    2.90    0.19
   5  -5  -2    2.62    0.20
  -5  -5   2    2.55    0.21
  -5   5   2    2.74    0.23
  -5   5   2    2.80    0.25
   5   5  -2    2.70    0.18
   5   5  -2    2.72    0.18
   4  -5  -2    2.28    0.18
  -4  -5   2    2.16    0.15
  -4  -5   2    2.14    0.18
  -4  -5   2    1.98    0.16
  -4   5   2    1.81    0.20
   4   5  -2    1.66    0.25
  -4   5   2    2.09    0.22
   4   5  -2    1.96    0.15
   4   5  -2    2.22    0.15
  -3  -5   2    3.37    0.23
   3  -5  -2    3.62    0.23
  -3  -5   2    3.39    0.22
  -3  -5   2    3.30    0.21
  -3   5   2    2.17    0.32
   3   5  -2    2.76    0.31
   3   5  -2    3.49    0.21
  -3   5   2    3.49    0.26
   3   5  -2    3.21    0.20
   2  -5  -2    4.54    0.27
  -2  -5   2    4.93    0.29
   2  -5  -2    4.67    0.29
  -2  -5   2    4.49    0.28
  -2  -5   2    4.75    0.28
  -2  -5   2    4.95    0.28
  -2   5   2    4.81    0.26
   2   5  -2    4.43    0.39
  -2   5   2    4.73    0.32
   2   5  -2    4.76    0.27
   2   5  -2    4.93    0.27
   1  -5  -2    9.28    0.47
   1  -5  -2    9.42    0.48
  -1  -5   2    9.18    0.48
  -1  -5   2    8.95    0.47
  -1  -5   2    8.84    0.48
  -1   5   2    8.88    0.51
   1   5  -2    8.08    0.49
  -1   5   2    9.19    0.46
   1   5  -2    9.32    0.46
  -1   5   2    9.68    0.46
   1   5  -2    9.46    0.46
   0  -5  -2    1.51    0.14
   0  -5  -2    1.59    0.13
   0  -5   2    1.57    0.14
   0  -5   2    1.53    0.14
   0  -5  -2    1.35    0.14
   0   5   2    1.59    0.13
   0   5   2    1.20    0.22
   0   5  -2    1.52    0.11
   0   5  -2    1.43    0.16
   0   5   2    1.52    0.13
   0   5  -2    1.15    0.17
   1  -5   2    0.48    0.09
  -1  -5  -2    0.55    0.09
  -1  -5  -2    0.57    0.09
   1  -5   2    0.58    0.10
  -1  -5  -2    0.49    0.09
  -1  -5  -2    0.44    0.10
   1   5   2    0.46    0.16
   1   5   2    0.49    0.08
   1   5   2    0.56    0.09
  -1   5  -2    0.64    0.13
  -1   5  -2    0.58    0.14
   2  -5   2    4.82    0.30
  -2  -5  -2    5.05    0.31
  -2  -5  -2    5.27    0.30
  -2  -5  -2    5.35    0.30
   2  -5   2    5.69    0.32
  -2  -5  -2    5.15    0.30
  -2   5  -2    5.47    0.33
   2   5   2    4.85    0.42
   2   5   2    5.02    0.41
  -2   5  -2    5.24    0.34
   2   5   2    5.47    0.29
   2   5   2    5.58    0.29
   3  -5   2    8.41    0.45
   3  -5   2    8.69    0.46
  -3  -5  -2    8.15    0.45
  -3  -5  -2    8.50    0.45
  -3  -5  -2    9.32    0.46
   3   5   2    8.15    0.44
  -3   5  -2    8.72    0.47
  -3   5  -2    8.73    0.50
   3   5   2    9.68    0.45
   3   5   2    7.77    0.54
  -4  -5  -2    2.08    0.17
  -4  -5  -2    2.15    0.17
   4  -5   2    2.48    0.17
  -4  -5  -2    2.37    0.17
   4  -5   2    2.30    0.18
   4   5   2    2.17    0.16
  -4   5  -2    1.95    0.19
   4   5   2    2.27    0.16
  -4   5  -2    2.16    0.21
   5  -5   2    8.51    0.46
   5  -5   2    8.61    0.46
  -5  -5  -2    8.91    0.46
  -5  -5  -2    9.41    0.46
   5   5   2    8.37    0.44
  -5   5  -2    9.36    0.51
   6  -5   2    4.53    0.26
  -6  -5  -2    4.48    0.25
   6  -5   2    4.47    0.26
  -6  -5  -2    4.56    0.26
  -6   5  -2    4.49    0.30
   6   5   2    4.21    0.24
   7  -5   2    1.17    0.11
   7  -5   2    1.25    0.11
  -7  -5  -2    1.09    0.11
  -7  -5  -2    0.97    0.10
  -7   5  -2    0.93    0.15
  -7   5  -2    1.13    0.15
  -8  -5  -2    1.28    0.14
   8  -5   2    1.20    0.10
  -8   5  -2    1.07    0.12
   7  -6  -2    1.71    0.13
  -7  -6   2    2.01    0.13
  -7  -6   2    1.73    0.14
   7   6  -2    1.95    0.12
  -7   6   2    1.91    0.16
  -6  -6   2    0.48    0.10
   6  -6  -2    0.51    0.09
  -6  -6   2    0.51    0.09
   6   6  -2    0.44    0.11
   6   6  -2    0.45    0.07
  -6   6   2    0.62    0.12
  -5  -6   2    4.12    0.25
  -5  -6   2    3.91    0.23
   5  -6  -2    3.86    0.23
   5   6  -2    3.57    0.25
   5   6  -2    3.88    0.21
  -5   6   2    3.55    0.27
   5   6  -2    3.61    0.21
   4  -6  -2    0.65    0.11
  -4  -6   2    0.78    0.11
  -4  -6   2    0.71    0.10
   4   6  -2    0.76    0.08
   4   6  -2    0.70    0.09
  -4   6   2    0.81    0.15
  -3  -6   2    0.32    0.07
  -3  -6   2    0.48    0.09
   3  -6  -2    0.45    0.09
   3   6  -2    0.39    0.11
   3   6  -2    0.49    0.08
   3   6  -2    0.51    0.08
  -3   6   2    0.40    0.13
  -2  -6   2    8.77    0.44
   2  -6  -2    9.18    0.46
  -2  -6   2    8.36    0.46
   2   6  -2    8.26    0.44
  -2   6   2    8.50    0.49
   2   6  -2    8.31    0.47
   2   6  -2    8.51    0.42
  -1  -6   2    3.19    0.22
   1  -6  -2    3.39    0.20
   1  -6  -2    3.19    0.21
  -1  -6   2    2.86    0.20
  -1   6   2    2.93    0.18
   1   6  -2    2.85    0.18
  -1   6   2    3.15    0.24
   1   6  -2    3.12    0.23
   0  -6   2    0.50    0.10
   0  -6  -2    0.66    0.12
   0  -6  -2    0.70    0.10
   0   6   2    0.89    0.15
   0   6   2    0.36    0.12
   0   6   2    0.62    0.09
   0   6  -2    0.92    0.14
   0   6  -2    0.74    0.14
   1  -6   2    0.14    0.08
  -1  -6  -2    0.20    0.06
  -1  -6  -2    0.09    0.08
  -1  -6  -2    0.10    0.06
   1  -6   2    0.09    0.06
   1   6   2    0.19    0.06
  -1   6  -2    0.01    0.09
   1   6   2    0.19    0.07
  -1   6  -2    0.49    0.12
   1   6   2    0.17    0.10
   2  -6   2    2.45    0.17
  -2  -6  -2    2.14    0.18
  -2  -6  -2    2.41    0.17
  -2  -6  -2    2.57    0.17
   2  -6   2    2.50    0.18
   2   6   2    2.45    0.16
  -2   6  -2    2.32    0.19
   2   6   2    2.43    0.22
   2   6   2    2.57    0.17
  -2   6  -2    2.36    0.21
   3  -6   2    5.65    0.31
  -3  -6  -2    5.58    0.30
   3  -6   2    5.51    0.30
  -3  -6  -2    5.58    0.30
  -3   6  -2    4.69    0.31
   3   6   2    5.61    0.29
  -3   6  -2    5.71    0.34
   3   6   2    5.48    0.30
   3   6   2    5.21    0.33
   4  -6   2    0.93    0.11
   4  -6   2    0.79    0.11
  -4  -6  -2    0.87    0.11
  -4  -6  -2    0.98    0.10
   4   6   2    0.99    0.10
  -4   6  -2    1.16    0.15
   4   6   2    1.11    0.10
  -5  -6  -2    8.29    0.40
   5  -6   2    7.67    0.40
   5  -6   2    7.24    0.40
  -5  -6  -2    8.18    0.40
   5   6   2    8.19    0.39
  -5   6  -2    8.02    0.43
   6  -6   2    2.27    0.15
   6  -6   2    2.41    0.16
  -6  -6  -2    2.68    0.15
  -6  -6  -2    2.53    0.15
  -6   6  -2    2.60    0.18
   4  -7  -2    0.93    0.09
  -4  -7   2    0.86    0.09
  -4   7   2    0.88    0.11
   4   7  -2    1.02    0.11
  -3  -7   2    0.49    0.08
   3  -7  -2    0.51    0.08
  -3   7   2    0.61    0.10
   3   7  -2    0.63    0.11
  -2  -7   2    2.49    0.17
   2  -7  -2    2.04    0.16
  -2   7   2    2.86    0.19
   2   7  -2    2.69    0.18
   1  -7  -2    0.46    0.09
  -1  -7   2    0.46    0.09
  -1   7   2    0.68    0.12
  -1   7   2    0.60    0.11
   1   7  -2    0.59    0.11
   0  -7   2    6.58    0.32
   0  -7  -2    5.15    0.31
   0   7  -2    6.48    0.33
   0   7   2    6.18    0.34
   0   7   2    5.76    0.33
   1  -7   2    2.66    0.17
   1   7   2    2.45    0.19
  -1   7  -2    2.28    0.17
   1   7   2    2.71    0.18
   2  -7   2    0.18    0.05
  -2   7  -2    0.08    0.06
  -2   7  -2    0.28    0.08
   3  -7   2    2.42    0.15
  -3   7  -2    2.31    0.20
 -13   0   3    0.21    0.07
 -13   0   3    0.10    0.06
  12   0  -3    1.10    0.08
 -12   0   3    1.04    0.14
  12   0  -3    1.11    0.12
 -12   0   3    1.14    0.15
 -12   0   3    1.10    0.14
 -12   0   3    1.29    0.15
 -12   0   3    1.39    0.14
 -11   0   3    0.29    0.10
 -11   0   3    0.69    0.13
 -11   0   3    0.57    0.11
 -11   0   3    0.85    0.14
  11   0  -3    0.61    0.07
  11   0  -3    0.71    0.07
 -11   0   3    0.87    0.14
 -10   0   3    4.69    0.32
 -10   0   3    4.47    0.31
 -10   0   3    4.37    0.30
 -10   0   3    4.68    0.32
  10   0  -3    4.72    0.24
 -10   0   3    4.45    0.30
  -9   0   3    4.64    0.30
   9   0  -3    4.32    0.23
  -9   0   3    4.51    0.29
   9   0  -3    4.27    0.32
  -9   0   3    4.51    0.29
  -9   0   3    4.61    0.30
  -9   0   3    4.26    0.28
  -8   0   3    6.65    0.38
   8   0  -3    6.70    0.41
  -8   0   3    6.48    0.38
  -8   0   3    6.57    0.38
  -8   0   3    7.61    0.39
   8   0  -3    6.25    0.32
  -8   0   3    6.88    0.39
   7   0  -3   23.01    1.05
  -7   0   3   20.99    1.02
   7   0  -3   20.69    1.14
   7   0  -3   19.92    0.96
   6   0  -3   13.47    0.64
   6   0  -3   13.26    0.99
   6   0  -3   15.14    0.80
   6   0  -3   14.92    0.71
  -6   0   3   13.42    0.68
   5   0  -3   70.45    3.48
   5   0  -3   66.97    3.18
   5   0  -3   71.41    3.25
   4   0  -3   79.29    3.43
   4   0  -3   78.15    3.49
   4   0  -3   65.45    3.48
   4   0  -3   78.97    3.66
  -3   0   3    5.30    0.32
   3   0  -3    4.50    0.32
   3   0  -3    5.00    0.28
   3   0  -3    5.79    0.33
   3   0  -3    5.57    0.42
  -2   0   3    5.18    0.38
   2   0  -3    5.50    0.29
  -2   0   3    4.85    0.29
   2   0  -3    5.17    0.33
  -2   0   3    5.39    0.33
   2   0  -3    6.03    0.33
   2   0  -3    6.06    0.40
  -1   0   3  124.78    5.59
   1   0  -3  106.42    5.50
  -1   0   3  131.43    5.57
  -1   0   3  126.32    5.52
   1   0  -3  124.30    5.55
  -1   0   3  109.09    5.54
   1   0  -3  134.20    5.61
   0   0   3  156.22    7.38
   0   0   3  170.02    7.41
   0   0   3  170.56    7.36
   0   0  -3  177.87    7.40
   0   0  -3  156.29    7.38
   0   0   3  150.99    7.39
  -1   0  -3    0.37    0.06
   1   0   3    0.36    0.04
   1   0   3    0.34    0.08
   1   0   3    0.37    0.06
  -1   0  -3    0.38    0.04
   1   0   3    0.33    0.06
   2   0   3    1.15    0.13
   2   0   3    0.99    0.11
   2   0   3    0.98    0.09
   3   0   3    7.55    0.40
   3   0   3    7.93    0.46
   4   0   3    4.44    0.31
   4   0   3    4.24    0.25
  -4   0  -3    3.86    0.24
   5   0   3    2.65    0.19
   5   0   3    2.53    0.24
  -5   0  -3    2.42    0.18
   6   0   3    0.76    0.11
  -6   0  -3    0.45    0.13
  -6   0  -3    0.59    0.11
  -6   0  -3    0.69    0.12
  -6   0  -3    0.61    0.10
  -6   0  -3    0.70    0.12
  -6   0  -3    0.62    0.12
  -7   0  -3    2.45    0.21
  -7   0  -3    2.36    0.20
  -7   0  -3    2.47    0.20
   7   0   3    2.59    0.22
  -7   0  -3    2.32    0.21
  -7   0  -3    2.25    0.20
  -7   0  -3    2.52    0.20
  -8   0  -3    0.72    0.13
  -8   0  -3    0.71    0.13
  -8   0  -3    0.99    0.14
  -8   0  -3    0.72    0.14
  -8   0  -3    0.78    0.13
   8   0   3    0.41    0.16
  -8   0  -3    0.80    0.14
  -9   0  -3    8.52    0.47
   9   0   3    8.22    0.42
  -9   0  -3    8.97    0.49
  -9   0  -3    9.27    0.48
  -9   0  -3    8.73    0.49
  -9   0  -3    9.11    0.49
 -10   0  -3    0.25    0.09
 -10   0  -3    0.32    0.09
 -10   0  -3    0.48    0.10
 -10   0  -3    0.27    0.08
 -11   0  -3    0.48    0.11
 -12  -1   3    1.26    0.14
  12  -1  -3    1.40    0.09
 -12  -1   3    1.24    0.14
 -12  -1   3    1.41    0.16
 -12  -1   3    0.96    0.14
 -12   1   3    1.47    0.16
 -12   1   3    1.06    0.14
 -12   1   3    1.33    0.14
 -12   1   3    1.54    0.15
 -12   1   3    1.20    0.14
 -11  -1   3    0.20    0.09
 -11  -1   3    0.25    0.09
 -11  -1   3    0.23    0.08
  11  -1  -3    0.30    0.05
 -11  -1   3    0.07    0.09
  11  -1  -3    0.10    0.04
 -11   1   3    0.26    0.10
 -11   1   3    0.24    0.09
 -11   1   3    0.16    0.08
 -11   1   3    0.18    0.09
  11   1  -3    0.16    0.04
 -11   1   3    0.13    0.09
  10  -1  -3    7.03    0.34
 -10  -1   3    7.17    0.41
 -10  -1   3    7.12    0.40
 -10  -1   3    6.51    0.39
 -10  -1   3    6.65    0.40
  10  -1  -3    6.60    0.34
 -10  -1   3    6.94    0.40
 -10   1   3    6.46    0.41
 -10   1   3    7.00    0.41
  10   1  -3    6.40    0.33
 -10   1   3    6.65    0.39
 -10   1   3    6.25    0.40
 -10   1   3    6.62    0.41
 -10   1   3    6.99    0.40
  -9  -1   3   11.38    0.60
  -9  -1   3   11.20    0.60
   9  -1  -3   11.27    0.67
  -9  -1   3   11.73    0.61
   9  -1  -3   11.12    0.54
  -9  -1   3   12.37    0.61
   9  -1  -3   11.79    0.55
  -9  -1   3   10.76    0.59
   9   1  -3   10.87    0.62
  -9   1   3   11.08    0.60
  -9   1   3   10.83    0.61
  -9   1   3   11.64    0.61
  -9   1   3   11.71    0.60
  -9   1   3   11.75    0.61
   9   1  -3   10.99    0.54
  -9   1   3   12.00    0.62
  -8  -1   3   32.49    1.51
  -8  -1   3   33.46    1.52
  -8  -1   3   32.23    1.52
   8  -1  -3   32.28    1.57
  -8  -1   3   31.82    1.51
   8  -1  -3   29.60    1.45
   8  -1  -3   31.37    1.46
  -8  -1   3   29.41    1.49
  -8   1   3   31.77    1.51
  -8   1   3   31.22    1.51
  -8   1   3   32.19    1.52
  -8   1   3   33.61    1.52
  -8   1   3   30.11    1.52
   8   1  -3   33.58    1.54
  -8   1   3   34.87    1.52
   8   1  -3   30.68    1.45
   7  -1  -3   13.38    0.59
  -7  -1   3   13.10    0.63
   7  -1  -3   12.72    0.80
   7  -1  -3   11.65    0.58
   7  -1  -3   12.89    0.68
   7   1  -3   12.66    0.73
   7   1  -3   10.55    0.59
   7   1  -3   13.59    0.65
  -7   1   3   12.46    0.64
  -6  -1   3    5.71    0.31
   6  -1  -3    5.18    0.56
   6  -1  -3    5.10    0.27
   6  -1  -3    5.57    0.43
   6  -1  -3    6.14    0.35
   6   1  -3    4.92    0.26
   6   1  -3    5.30    0.56
   6   1  -3    6.16    0.33
   6   1  -3    5.76    0.38
  -6   1   3    5.55    0.31
   5  -1  -3   10.06    0.50
   5  -1  -3   11.08    0.65
   5  -1  -3   10.90    0.57
   5  -1  -3   10.81    0.81
   5   1  -3   11.52    0.61
   5   1  -3   10.38    0.79
   5   1  -3   11.40    0.55
   4  -1  -3    5.21    0.47
   4  -1  -3    4.96    0.35
   4  -1  -3    5.15    0.29
   4   1  -3    5.15    0.33
   4   1  -3    4.67    0.28
   4   1  -3    5.68    0.47
  -4   1   3    4.32    0.33
   3  -1  -3   20.61    1.11
   3  -1  -3   19.16    0.90
   3  -1  -3   19.90    0.97
  -3  -1   3   16.81    0.92
   3   1  -3   16.23    0.95
   3   1  -3   18.64    1.06
   3   1  -3   20.39    0.95
  -3   1   3   18.18    0.96
   3   1  -3   19.03    0.89
   2  -1  -3   15.87    0.82
   2  -1  -3   14.38    0.76
  -2  -1   3   15.31    0.81
   2  -1  -3   17.07    0.93
   2   1  -3   13.83    0.82
  -2   1   3   17.02    0.83
   2   1  -3   17.30    0.89
  -2   1   3   15.38    0.77
   2   1  -3   17.47    0.82
   2   1  -3   15.06    0.89
   2   1  -3   16.11    0.76
   1  -1  -3   47.81    2.16
  -1  -1   3   38.41    2.00
  -1  -1   3   44.95    2.07
   1  -1  -3   46.02    2.06
  -1   1   3   46.16    2.06
   1   1  -3   41.58    2.00
   1   1  -3   39.08    2.08
   1   1  -3   48.59    2.09
   1   1  -3   44.72    2.05
  -1   1   3   44.31    2.01
  -1   1   3   38.77    2.13
   0  -1  -3   58.14    2.60
   0  -1   3   58.47    2.55
   0  -1  -3   49.78    2.49
   0  -1   3   54.06    2.47
   0   1  -3   52.62    2.49
   0   1  -3   45.60    2.45
   0   1  -3   59.35    2.49
   0   1   3   56.55    2.47
   0   1   3   58.02    2.51
   0   1  -3   53.90    2.51
   0   1   3   51.53    2.50
   0   1   3   49.82    2.57
  -1  -1  -3   24.61    1.25
   1  -1   3   24.53    1.15
   1  -1   3   27.02    1.23
  -1   1  -3   22.23    1.18
   1   1   3   25.64    1.14
   1   1   3   25.90    1.18
   1   1   3   23.01    1.16
   1   1   3   21.73    1.24
  -2  -1  -3   49.31    2.46
   2  -1   3   55.41    2.45
   2  -1   3   51.22    2.36
   2   1   3   48.25    2.32
   2   1   3   54.73    2.38
   2   1   3   48.36    2.36
   3  -1   3   18.22    0.95
   3  -1   3   17.79    0.86
   3  -1   3   16.05    0.79
   3   1   3   18.46    0.87
   3   1   3   15.43    0.84
   3   1   3   18.06    0.81
   4  -1   3   15.31    0.73
   4  -1   3   16.55    0.81
   4  -1   3   15.55    0.90
  -4   1  -3   15.62    0.77
   4   1   3   16.02    0.80
   4   1   3   16.26    0.75
   5  -1   3    8.79    0.42
  -5  -1  -3    8.12    0.46
   5  -1   3    9.16    0.62
   5  -1   3    9.57    0.52
  -5   1  -3    9.03    0.48
   5   1   3    9.70    0.46
   5   1   3    8.68    0.48
  -6  -1  -3    0.21    0.08
  -6  -1  -3    0.33    0.08
   6  -1   3    0.25    0.05
  -6  -1  -3    0.23    0.07
   6  -1   3    0.34    0.11
  -6  -1  -3    0.16    0.08
  -6  -1  -3    0.42    0.11
  -6  -1  -3    0.37    0.07
  -6   1  -3    0.45    0.10
  -6   1  -3    0.30    0.09
  -6   1  -3    0.35    0.10
  -6   1  -3    0.32    0.09
   6   1   3    0.29    0.07
  -6   1  -3    0.31    0.10
  -6   1  -3    0.31    0.09
  -7  -1  -3   11.63    0.65
   7  -1   3   12.36    0.71
  -7  -1  -3   12.45    0.64
  -7  -1  -3   12.69    0.66
  -7  -1  -3   12.45    0.65
   7  -1   3   12.72    0.59
  -7  -1  -3   11.70    0.64
  -7   1  -3   13.10    0.68
  -7   1  -3   12.51    0.65
  -7   1  -3   12.67    0.65
  -7   1  -3   13.17    0.67
  -7   1  -3   13.22    0.66
  -7   1  -3   12.84    0.65
   7   1   3   12.13    0.63
  -8  -1  -3    8.83    0.49
  -8  -1  -3    9.08    0.50
  -8  -1  -3    9.19    0.50
  -8  -1  -3    8.36    0.50
  -8  -1  -3    9.06    0.51
   8  -1   3    9.29    0.45
  -8   1  -3    9.84    0.53
  -8   1  -3    9.59    0.52
  -8   1  -3    9.49    0.52
  -8   1  -3    9.62    0.51
  -8   1  -3    9.00    0.50
  -8   1  -3    9.24    0.50
  -9  -1  -3    0.51    0.10
   9  -1   3    0.74    0.07
   9  -1   3    0.72    0.07
  -9  -1  -3    0.38    0.11
  -9  -1  -3    0.62    0.12
  -9   1  -3    0.67    0.13
  -9   1  -3    0.76    0.15
  -9   1  -3    0.71    0.12
  -9   1  -3    0.70    0.13
  -9   1  -3    0.57    0.11
  -9   1  -3    0.72    0.14
  10  -1   3    2.77    0.16
 -10  -1  -3    2.59    0.19
 -10   1  -3    2.66    0.19
 -10   1  -3    3.04    0.21
 -10   1  -3    3.13    0.22
 -10   1  -3    2.72    0.21
 -10   1  -3    2.76    0.20
 -11   1  -3    1.57    0.12
 -11   1  -3    1.57    0.13
  12  -2  -3    0.61    0.05
 -12  -2   3    0.54    0.11
 -12  -2   3    0.62    0.10
 -12   2   3    0.42    0.09
 -12   2   3    0.75    0.12
 -12   2   3    0.65    0.11
 -12   2   3    0.72    0.10
 -11  -2   3    1.04    0.16
 -11  -2   3    0.73    0.14
  11  -2  -3    0.73    0.09
  11  -2  -3    0.92    0.08
 -11  -2   3    0.95    0.13
 -11  -2   3    0.96    0.13
 -11   2   3    0.87    0.14
  11   2  -3    0.82    0.08
 -11   2   3    0.80    0.15
 -11   2   3    0.89    0.12
 -11   2   3    0.84    0.15
 -11   2   3    0.93    0.14
 -11   2   3    0.80    0.14
  10  -2  -3   10.62    0.49
  10  -2  -3   10.03    0.49
 -10  -2   3   10.07    0.54
 -10  -2   3   10.21    0.54
 -10  -2   3   10.41    0.54
 -10  -2   3    9.73    0.54
 -10   2   3    9.76    0.54
 -10   2   3   10.28    0.56
 -10   2   3   10.15    0.56
 -10   2   3    9.76    0.54
 -10   2   3   10.23    0.55
 -10   2   3    9.96    0.55
  10   2  -3    9.44    0.48
   9  -2  -3    6.64    0.33
  -9  -2   3    6.93    0.38
  -9  -2   3    6.49    0.39
  -9  -2   3    6.80    0.39
  -9  -2   3    6.99    0.39
   9  -2  -3    6.72    0.33
   9   2  -3    5.89    0.32
  -9   2   3    6.68    0.39
  -9   2   3    6.88    0.41
  -9   2   3    6.85    0.40
  -9   2   3    6.12    0.38
  -9   2   3    6.29    0.38
  -9   2   3    6.27    0.40
   9   2  -3    6.08    0.40
   8  -2  -3    3.90    0.34
   8  -2  -3    4.47    0.23
  -8  -2   3    4.42    0.28
   8  -2  -3    4.22    0.22
  -8  -2   3    4.16    0.27
  -8  -2   3    3.95    0.29
  -8  -2   3    4.53    0.27
  -8   2   3    4.28    0.30
  -8   2   3    4.22    0.29
  -8   2   3    4.42    0.28
   8   2  -3    4.26    0.29
  -8   2   3    4.26    0.29
  -8   2   3    4.41    0.28
  -8   2   3    4.30    0.28
   7  -2  -3    8.04    0.39
  -7  -2   3    8.18    0.44
   7  -2  -3    7.89    0.51
  -7  -2   3    8.40    0.44
  -7  -2   3    7.99    0.43
  -7  -2   3    7.74    0.44
   7  -2  -3    8.35    0.40
  -7   2   3    8.23    0.44
  -7   2   3    8.29    0.44
  -7   2   3    7.87    0.44
   7   2  -3    8.79    0.47
  -7   2   3    8.24    0.45
  -7   2   3    8.14    0.46
  -7   2   3    7.12    0.44
   6  -2  -3    0.66    0.13
   6  -2  -3    0.68    0.06
   6  -2  -3    0.74    0.06
   6  -2  -3    0.66    0.22
  -6  -2   3    0.52    0.09
  -6   2   3    0.67    0.09
   6   2  -3    0.60    0.06
   6   2  -3    0.72    0.10
   6   2  -3    0.70    0.14
   5  -2  -3   16.42    1.14
   5  -2  -3   16.28    0.96
   5  -2  -3   16.84    0.76
   5  -2  -3   17.76    0.85
  -5  -2   3   15.74    0.78
   5   2  -3   17.06    0.82
   5   2  -3   14.77    0.75
   5   2  -3   15.74    1.11
   5   2  -3   16.78    0.88
   4  -2  -3    6.46    0.59
   4  -2  -3    6.29    0.38
   4  -2  -3    6.34    0.30
   4  -2  -3    6.50    0.47
   4   2  -3    6.92    0.42
   4   2  -3    5.97    0.56
   4   2  -3    6.61    0.36
   4   2  -3    5.63    0.30
   3  -2  -3    1.22    0.13
   3  -2  -3    1.48    0.25
   3  -2  -3    1.22    0.17
   3   2  -3    1.16    0.08
  -3   2   3    1.35    0.18
   3   2  -3    1.43    0.12
   3   2  -3    1.32    0.15
   3   2  -3    1.50    0.23
  -3   2   3    1.09    0.13
   2  -2  -3    2.04    0.21
   2  -2  -3    2.19    0.30
  -2  -2   3    1.71    0.18
   2   2  -3    2.20    0.20
  -2   2   3    2.12    0.17
  -2   2   3    2.23    0.22
   2   2  -3    2.08    0.25
   2   2  -3    2.31    0.16
   1  -2  -3    6.58    0.52
   1  -2  -3    4.86    0.37
  -1  -2   3    5.65    0.39
  -1   2   3    6.27    0.39
   1   2  -3    5.83    0.33
  -1   2   3    6.01    0.34
   1   2  -3    5.53    0.38
   0  -2   3    9.40    0.52
   0  -2   3   10.00    0.60
   0  -2   3   10.24    0.61
   0  -2  -3   10.32    0.70
   0   2   3   10.42    0.57
   0   2  -3    8.87    0.51
   0   2  -3    9.91    0.57
   0   2   3    9.56    0.51
   1  -2   3   18.75    1.00
   1  -2   3   19.80    1.07
  -1  -2  -3   19.82    1.16
   1  -2   3   18.41    0.97
   1   2   3   20.49    0.95
   1   2   3   20.90    1.01
  -1   2  -3   19.42    1.02
   2  -2   3    0.55    0.14
   2  -2   3    0.50    0.10
   2  -2   3    0.47    0.05
  -2  -2  -3    0.45    0.15
   2   2   3    0.44    0.07
   2   2   3    0.48    0.09
  -3  -2  -3   18.57    1.22
   3  -2   3   21.38    0.96
   3  -2   3   21.96    1.06
   3  -2   3   21.32    1.18
   3   2   3   21.52    1.05
  -3   2  -3   20.75    1.00
   3   2   3   20.89    0.99
   4  -2   3    6.12    0.30
   4  -2   3    5.60    0.29
   4  -2   3    5.89    0.50
   4  -2   3    6.11    0.39
  -4   2  -3    5.58    0.34
   4   2   3    6.12    0.35
   4   2   3    6.29    0.33
  -5  -2  -3   20.02    0.99
   5  -2   3   21.45    0.96
   5  -2   3   21.87    0.97
  -5  -2  -3   20.41    1.00
   5  -2   3   22.49    1.10
  -5  -2  -3   19.16    0.98
  -5  -2  -3   18.23    1.00
  -5   2  -3   21.18    1.02
  -5   2  -3   20.44    1.01
   5   2   3   21.90    0.99
  -5   2  -3   21.31    1.02
  -5   2  -3   20.99    1.03
  -5   2  -3   21.95    1.03
  -5   2  -3   21.44    1.02
   6  -2   3    1.29    0.10
  -6  -2  -3    1.05    0.12
  -6  -2  -3    1.02    0.13
   6  -2   3    1.26    0.20
  -6  -2  -3    1.24    0.15
   6  -2   3    1.36    0.10
  -6  -2  -3    1.23    0.15
  -6   2  -3    1.09    0.15
  -6   2  -3    1.31    0.15
  -6   2  -3    1.39    0.15
  -6   2  -3    1.43    0.17
  -6   2  -3    1.48    0.15
  -6   2  -3    1.67    0.17
   6   2   3    1.32    0.11
   7  -2   3    2.39    0.14
  -7  -2  -3    1.83    0.22
  -7  -2  -3    2.09    0.19
   7  -2   3    2.18    0.14
   7  -2   3    2.03    0.26
  -7   2  -3    2.19    0.22
  -7   2  -3    2.28    0.20
  -7   2  -3    2.44    0.19
  -7   2  -3    2.19    0.21
  -7   2  -3    2.15    0.19
  -7   2  -3    2.45    0.22
   8  -2   3    4.34    0.22
   8  -2   3    3.99    0.23
  -8   2  -3    3.97    0.29
  -8   2  -3    4.27    0.29
  -8   2  -3    3.91    0.28
  -8   2  -3    4.13    0.27
  -8   2  -3    4.22    0.28
  -8   2  -3    3.88    0.29
   9  -2   3    4.90    0.25
   9  -2   3    4.64    0.25
  -9   2  -3    4.64    0.31
  -9   2  -3    4.54    0.29
  -9   2  -3    4.68    0.31
  -9   2  -3    4.92    0.31
  -9   2  -3    4.76    0.30
  -9   2  -3    5.02    0.29
  10  -2   3    0.01    0.03
 -10   2  -3    0.05    0.07
 -10   2  -3   -0.05    0.07
 -10   2  -3    0.14    0.08
 -10   2  -3    0.13    0.08
 -11  -3   3    1.35    0.14
  11  -3  -3    1.45    0.09
 -11  -3   3    1.49    0.14
  11  -3  -3    1.54    0.13
 -11   3   3    1.10    0.15
 -11   3   3    1.35    0.15
 -11   3   3    1.33    0.14
 -11   3   3    1.41    0.14
 -10  -3   3    0.64    0.12
  10  -3  -3    0.55    0.06
  10  -3  -3    0.46    0.08
 -10  -3   3    0.55    0.11
 -10   3   3    0.62    0.11
 -10   3   3    0.51    0.11
 -10   3   3    0.56    0.11
 -10   3   3    0.62    0.12
  10   3  -3    0.56    0.07
 -10   3   3    0.56    0.12
   9  -3  -3    3.26    0.19
  -9  -3   3    3.54    0.23
  -9  -3   3    3.57    0.24
   9  -3  -3    3.43    0.18
  -9   3   3    3.40    0.25
  -9   3   3    2.91    0.23
  -9   3   3    3.36    0.25
  -9   3   3    2.95    0.25
   9   3  -3    3.01    0.18
  -9   3   3    3.47    0.26
   8  -3  -3    1.50    0.12
  -8  -3   3    1.33    0.14
   8  -3  -3    1.40    0.10
  -8  -3   3    1.52    0.15
  -8  -3   3    1.40    0.15
  -8   3   3    1.16    0.21
   8   3  -3    1.29    0.10
  -8   3   3    1.24    0.16
  -8   3   3    1.44    0.17
  -8   3   3    1.44    0.16
   8   3  -3    1.28    0.17
  -8   3   3    1.53    0.18
   7  -3  -3   27.90    1.25
  -7  -3   3   25.52    1.27
  -7  -3   3   27.06    1.30
  -7  -3   3   27.51    1.31
   7  -3  -3   28.83    1.26
   7   3  -3   27.37    1.35
  -7   3   3   26.48    1.31
  -7   3   3   28.95    1.34
  -7   3   3   26.76    1.32
   7   3  -3   26.72    1.26
  -7   3   3   27.50    1.30
   6  -3  -3    0.41    0.06
   6  -3  -3    0.41    0.07
  -6  -3   3    0.50    0.10
  -6  -3   3    0.49    0.09
  -6  -3   3    0.50    0.09
  -6   3   3    0.25    0.12
  -6   3   3    0.38    0.10
  -6   3   3    0.41    0.10
  -6   3   3    0.57    0.11
   6   3  -3    0.39    0.10
   6   3  -3    0.37    0.06
  -5  -3   3    2.27    0.17
   5  -3  -3    2.04    0.13
   5  -3  -3    2.17    0.13
  -5   3   3    2.18    0.18
   5   3  -3    1.96    0.24
   5   3  -3    2.22    0.19
  -5   3   3    2.88    0.22
   5   3  -3    2.14    0.13
   4   3  -3    3.54    0.20
   4   3  -3    3.99    0.27
   4   3  -3    3.67    0.32
   3  -3  -3   17.62    1.22
   3   3  -3   17.66    0.97
   3   3  -3   19.27    0.90
   3   3  -3   15.47    1.13
   3   3  -3   17.88    0.82
   2  -3  -3    7.88    0.71
  -2   3   3    7.90    0.48
   2   3  -3    8.09    0.54
   2   3  -3    8.65    0.47
   2   3  -3    8.39    0.40
  -2   3   3    8.10    0.40
   1  -3  -3    0.31    0.20
  -1  -3   3    0.22    0.15
   1   3  -3    0.14    0.10
   1   3  -3    0.20    0.04
  -1   3   3    0.40    0.11
   1   3  -3    0.27    0.09
  -1   3   3    0.24    0.05
   0  -3   3    8.77    0.66
   0  -3  -3    9.28    0.77
   0   3  -3    8.89    0.51
   0   3  -3    8.95    0.59
   0   3   3   10.12    0.60
   0   3   3    9.47    0.52
   0   3   3    9.46    0.44
   0   3  -3    8.35    0.43
  -1  -3  -3   16.04    1.15
   1  -3   3   16.24    0.82
   1   3   3   17.58    0.80
   1   3   3   18.87    0.89
   1   3   3   17.79    0.96
   2  -3   3    7.49    0.36
   2  -3   3    7.28    0.36
   2   3   3    7.67    0.43
   2   3   3    7.05    0.35
  -2   3  -3    7.30    0.39
  -3  -3  -3    7.55    0.38
   3  -3   3    6.52    0.33
   3  -3   3    6.40    0.45
   3  -3   3    6.46    0.33
  -3  -3  -3    6.91    0.37
  -3   3  -3    6.21    0.37
  -3   3  -3    6.45    0.38
   3   3   3    6.76    0.40
  -4  -3  -3    3.48    0.21
   4  -3   3    3.10    0.30
   4  -3   3    3.56    0.18
   4  -3   3    3.39    0.19
  -4  -3  -3    3.09    0.21
  -4  -3  -3    3.20    0.22
   4   3   3    3.30    0.24
  -4   3  -3    3.19    0.23
  -4   3  -3    3.41    0.24
  -4   3  -3    2.62    0.23
  -4   3  -3    3.38    0.23
  -4   3  -3    3.16    0.22
  -4   3  -3    3.30    0.24
   5  -3   3    8.99    0.42
  -5  -3  -3    8.16    0.44
   5  -3   3    7.79    0.56
  -5  -3  -3    8.86    0.46
   5  -3   3    8.97    0.42
  -5  -3  -3    9.11    0.44
   5   3   3    8.24    0.47
  -5   3  -3    8.81    0.48
  -5   3  -3    8.54    0.48
  -5   3  -3    8.11    0.47
  -5   3  -3    7.98    0.47
  -5   3  -3    8.49    0.47
  -5   3  -3    7.78    0.45
  -5   3  -3    8.37    0.48
  -6  -3  -3   21.40    1.01
   6  -3   3   22.23    1.00
   6  -3   3   23.10    1.00
   6  -3   3   18.02    1.14
  -6  -3  -3   21.41    1.02
  -6  -3  -3   20.74    1.02
  -6   3  -3   21.54    1.04
  -6   3  -3   21.17    1.07
  -6   3  -3   22.93    1.06
  -6   3  -3   22.52    1.06
  -6   3  -3   21.08    1.05
   6   3   3   19.33    1.03
  -6   3  -3   22.36    1.06
   7  -3   3    1.16    0.11
  -7  -3  -3    1.18    0.12
  -7  -3  -3    1.11    0.12
   7  -3   3    1.24    0.10
  -7   3  -3    1.53    0.19
  -7   3  -3    1.27    0.16
  -7   3  -3    1.36    0.17
  -7   3  -3    1.22    0.18
  -7   3  -3    1.46    0.16
  -7   3  -3    1.00    0.15
   8  -3   3    0.45    0.06
   8  -3   3    0.35    0.06
  -8   3  -3    0.53    0.12
  -8   3  -3    0.49    0.10
  -8   3  -3    0.44    0.11
  -8   3  -3    0.50    0.12
  -8   3  -3    0.59    0.11
  -8   3  -3    0.35    0.10
   9  -3   3    2.53    0.14
  -9   3  -3    2.39    0.19
  -9   3  -3    2.44    0.20
  -9   3  -3    2.52    0.18
  -9   3  -3    2.38    0.18
  -9   3  -3    2.64    0.20
  10  -3   3    0.26    0.05
 -10   3  -3    0.49    0.08
 -10   3  -3    0.49    0.09
 -10   3  -3    0.34    0.07
  11  -4  -3    7.01    0.36
 -11   4   3    7.59    0.38
  10  -4  -3    0.75    0.10
 -10  -4   3    0.58    0.10
 -10   4   3    0.49    0.09
 -10   4   3    0.75    0.14
  -9  -4   3    4.83    0.29
   9  -4  -3    5.04    0.28
  -9  -4   3    4.66    0.28
  -9   4   3    5.15    0.33
  -9   4   3    4.32    0.28
   9   4  -3    4.58    0.24
  -9   4   3    4.30    0.29
  -8  -4   3    0.97    0.12
   8  -4  -3    0.95    0.13
  -8  -4   3    0.89    0.13
  -8  -4   3    1.04    0.13
   8  -4  -3    0.70    0.09
  -8   4   3    0.96    0.16
  -8   4   3    0.92    0.16
   8   4  -3    1.06    0.09
  -7  -4   3    0.47    0.10
  -7  -4   3    0.56    0.11
  -7  -4   3    0.54    0.10
   7  -4  -3    0.38    0.09
  -7   4   3    0.46    0.12
   7   4  -3    0.61    0.08
  -7   4   3    0.45    0.12
  -6  -4   3   10.96    0.56
  -6  -4   3   11.29    0.56
   6  -4  -3   10.74    0.56
  -6  -4   3   11.17    0.58
   6   4  -3   10.47    0.64
  -6   4   3   11.44    0.61
   6   4  -3   11.44    0.54
  -6   4   3   10.43    0.59
   6   4  -3   10.50    0.54
  -5  -4   3   11.48    0.57
  -5  -4   3   10.58    0.55
  -5  -4   3   11.10    0.54
   5  -4  -3   10.71    0.55
  -5  -4   3   10.11    0.53
   5   4  -3   10.66    0.63
  -5   4   3   10.76    0.58
   5   4  -3   11.24    0.53
  -5   4   3   10.63    0.59
   5   4  -3   10.34    0.53
  -4  -4   3    5.80    0.33
  -4  -4   3    5.95    0.33
   4  -4  -3    5.98    0.33
  -4  -4   3    5.58    0.34
  -4  -4   3    5.60    0.32
  -4   4   3    5.93    0.36
   4   4  -3    6.28    0.31
   4   4  -3    6.11    0.32
  -4   4   3    6.00    0.37
   4   4  -3    6.28    0.42
  -3  -4   3    3.92    0.23
   3  -4  -3    4.09    0.24
  -3  -4   3    3.74    0.22
  -3  -4   3    3.46    0.23
  -3  -4   3    3.75    0.23
  -3   4   3    3.78    0.27
  -3   4   3    3.57    0.21
   3   4  -3    3.92    0.22
  -3   4   3    3.91    0.27
   3   4  -3    3.62    0.21
   3   4  -3    3.73    0.31
  -2  -4   3    6.33    0.34
  -2  -4   3    6.12    0.34
  -2  -4   3    6.04    0.33
  -2  -4   3    6.36    0.33
   2  -4  -3    6.45    0.34
   2  -4  -3    5.64    0.33
   2   4  -3    6.33    0.42
  -2   4   3    6.19    0.32
  -2   4   3    6.40    0.32
  -2   4   3    5.57    0.36
   2   4  -3    5.43    0.49
   2   4  -3    6.42    0.32
   2   4  -3    6.81    0.32
  -1  -4   3    3.71    0.25
  -1  -4   3    4.02    0.25
   1  -4  -3    4.01    0.25
  -1  -4   3    4.03    0.25
   1  -4  -3    4.10    0.25
  -1   4   3    4.39    0.24
  -1   4   3    3.86    0.40
   1   4  -3    4.31    0.23
  -1   4   3    4.21    0.23
   1   4  -3    4.29    0.23
   1   4  -3    4.17    0.33
  -1   4   3    4.23    0.34
   1   4  -3    4.67    0.23
   0  -4  -3    3.12    0.20
   0  -4   3    2.93    0.20
   0  -4   3    2.90    0.19
   0  -4  -3    2.86    0.19
   0  -4  -3    2.83    0.19
   0   4   3    2.98    0.27
   0   4   3    3.18    0.18
   0   4  -3    3.13    0.21
   0   4   3    2.95    0.33
   0   4  -3    2.89    0.17
   0   4   3    2.98    0.18
  -1  -4  -3    2.25    0.16
   1  -4   3    2.17    0.17
   1  -4   3    2.15    0.16
  -1  -4  -3    2.25    0.16
  -1  -4  -3    2.45    0.17
   1   4   3    2.07    0.14
   1   4   3    2.31    0.15
   1   4   3    2.10    0.23
  -1   4  -3    2.23    0.20
  -1   4  -3    2.22    0.19
  -2  -4  -3   60.38    2.75
   2  -4   3   59.24    2.75
  -2  -4  -3   60.11    2.75
   2  -4   3   62.77    2.75
  -2  -4  -3   59.07    2.75
  -2   4  -3   59.90    2.78
   2   4   3   62.58    2.86
   2   4   3   54.95    2.72
  -2   4  -3   60.78    2.77
   2   4   3   62.01    2.73
   3  -4   3    9.49    0.49
   3  -4   3    9.08    0.48
  -3  -4  -3    9.91    0.49
  -3  -4  -3    9.58    0.49
  -3  -4  -3    8.90    0.49
   3   4   3    9.52    0.46
  -3   4  -3    9.38    0.51
  -3   4  -3    8.85    0.52
   3   4   3    9.92    0.58
  -4  -4  -3   15.30    0.77
   4  -4   3   15.53    0.74
   4  -4   3   16.92    0.78
  -4  -4  -3   16.66    0.78
  -4  -4  -3   16.92    0.77
   4  -4   3   15.04    0.77
  -4   4  -3   15.19    0.79
  -4   4  -3   15.32    0.81
   4   4   3   14.79    0.84
   4   4   3   16.07    0.75
   5  -4   3    0.07    0.07
  -5  -4  -3    0.05    0.07
  -5  -4  -3    0.12    0.06
  -5  -4  -3    0.11    0.07
   5  -4   3    0.17    0.07
   5  -4   3    0.15    0.05
   5   4   3    0.05    0.05
  -5   4  -3    0.18    0.10
  -5   4  -3    0.06    0.10
  -5   4  -3    0.19    0.10
   5   4   3    0.09    0.10
  -5   4  -3    0.17    0.11
  -6  -4  -3    7.05    0.38
  -6  -4  -3    7.05    0.38
   6  -4   3    6.93    0.35
   6  -4   3    7.23    0.38
  -6   4  -3    7.12    0.40
  -6   4  -3    6.53    0.42
  -6   4  -3    7.00    0.42
   7  -4   3    0.60    0.10
  -7  -4  -3    0.52    0.09
   7  -4   3    0.48    0.07
  -7  -4  -3    0.56    0.10
  -7   4  -3    0.57    0.11
  -7   4  -3    0.66    0.11
  -7   4  -3    0.64    0.12
   8  -4   3    0.21    0.08
   8  -4   3    0.27    0.04
   8  -4   3    0.27    0.07
  -8   4  -3    0.32    0.09
  -8   4  -3    0.13    0.07
  -8   4  -3    0.23    0.09
   9  -4   3    0.66    0.07
  -9   4  -3    0.64    0.10
  -9   4  -3    0.70    0.11
  -9  -5   3    0.70    0.11
   9  -5  -3    0.80    0.09
  -9   5   3    0.68    0.13
   9   5  -3    0.78    0.07
  -8  -5   3    2.85    0.18
  -8  -5   3    2.91    0.20
   8  -5  -3    2.86    0.19
  -8   5   3    2.45    0.21
   8   5  -3    2.74    0.16
   8   5  -3    2.61    0.16
  -8   5   3    3.07    0.23
  -7  -5   3    1.56    0.16
   7  -5  -3    1.48    0.14
  -7  -5   3    1.58    0.14
  -7   5   3    1.69    0.19
  -7   5   3    1.52    0.18
   7   5  -3    1.44    0.12
   7   5  -3    1.53    0.12
  -6  -5   3    0.66    0.11
  -6  -5   3    0.70    0.11
  -6  -5   3    0.60    0.12
   6  -5  -3    0.66    0.11
   6   5  -3    0.62    0.08
  -6   5   3    0.64    0.13
   6   5  -3    0.54    0.09
  -6   5   3    0.80    0.15
   5  -5  -3   11.18    0.57
  -5  -5   3   11.03    0.55
  -5  -5   3   10.94    0.57
  -5  -5   3   10.75    0.56
  -5   5   3    9.94    0.59
   5   5  -3   10.92    0.54
   5   5  -3   10.99    0.54
  -5   5   3   10.73    0.59
   5   5  -3   11.19    0.54
   4  -5  -3    7.22    0.40
  -4  -5   3    7.27    0.39
  -4  -5   3    7.19    0.38
  -4  -5   3    6.98    0.40
   4   5  -3    7.38    0.37
   4   5  -3    5.96    0.49
  -4   5   3    6.88    0.42
  -4   5   3    6.82    0.42
   4   5  -3    7.00    0.37
   4   5  -3    7.19    0.37
  -3  -5   3    4.30    0.27
  -3  -5   3    4.47    0.26
   3  -5  -3    4.54    0.28
  -3  -5   3    4.41    0.28
   3   5  -3    4.39    0.25
  -3   5   3    4.17    0.31
   3   5  -3    4.29    0.25
  -3   5   3    4.22    0.30
   3   5  -3    3.94    0.38
   3   5  -3    4.43    0.25
  -2  -5   3    7.16    0.38
   2  -5  -3    6.60    0.36
  -2  -5   3    6.71    0.38
   2  -5  -3    7.12    0.38
  -2  -5   3    7.05    0.39
  -2   5   3    6.68    0.36
  -2   5   3    6.74    0.41
   2   5  -3    7.26    0.36
   2   5  -3    6.73    0.36
   1  -5  -3    9.05    0.45
  -1  -5   3    8.58    0.45
  -1  -5   3    9.01    0.47
   1  -5  -3    8.28    0.46
  -1  -5   3    8.69    0.46
  -1   5   3    8.60    0.44
   1   5  -3    8.46    0.43
   1   5  -3    9.24    0.49
  -1   5   3    8.61    0.45
   0  -5  -3   21.72    1.04
   0  -5  -3   21.54    1.04
   0  -5  -3   21.83    1.04
   0  -5   3   21.96    1.05
   0  -5   3   22.01    1.04
   0  -5  -3   20.81    1.03
   0   5  -3   24.05    1.08
   0   5  -3   19.88    1.06
   0   5   3   22.24    1.03
   0   5   3   22.82    1.03
   0   5   3   20.37    1.18
   1  -5   3    4.48    0.26
   1  -5   3    4.18    0.27
  -1  -5  -3    4.43    0.26
  -1  -5  -3    4.06    0.25
  -1  -5  -3    4.23    0.26
  -1   5  -3    4.35    0.29
  -1   5  -3    4.45    0.30
   1   5   3    4.04    0.38
   1   5   3    4.52    0.25
   1   5   3    4.42    0.25
  -2  -5  -3   28.65    1.32
   2  -5   3   28.18    1.33
   2  -5   3   29.54    1.33
  -2  -5  -3   28.44    1.32
  -2  -5  -3   28.84    1.33
   2   5   3   23.97    1.44
   2   5   3   27.99    1.31
  -2   5  -3   27.22    1.36
   2   5   3   28.95    1.32
  -2   5  -3   29.86    1.36
  -3  -5  -3    7.33    0.38
  -3  -5  -3    7.07    0.38
  -3  -5  -3    6.74    0.38
   3  -5   3    7.38    0.39
   3  -5   3    6.88    0.38
  -3   5  -3    7.01    0.42
   3   5   3    7.12    0.37
  -3   5  -3    6.97    0.41
   3   5   3    6.84    0.37
  -4  -5  -3    8.06    0.42
   4  -5   3    8.14    0.42
   4  -5   3    7.51    0.41
  -4  -5  -3    7.17    0.41
  -4  -5  -3    8.41    0.41
  -4   5  -3    7.37    0.42
   4   5   3    7.54    0.40
  -4   5  -3    7.94    0.45
   4   5   3    7.73    0.40
  -5  -5  -3    1.44    0.13
   5  -5   3    1.54    0.14
  -5  -5  -3    1.51    0.14
  -5  -5  -3    1.44    0.14
   5  -5   3    1.56    0.13
  -5   5  -3    1.66    0.18
   5   5   3    1.54    0.12
  -6  -5  -3    0.64    0.10
  -6  -5  -3    0.81    0.10
   6  -5   3    0.88    0.10
  -6   5  -3    0.95    0.14
   6   5   3    0.84    0.09
  -7  -5  -3    1.31    0.11
   7  -5   3    1.40    0.11
  -7  -5  -3    1.30    0.10
  -7   5  -3    1.33    0.15
  -7  -6   3    0.13    0.05
   7  -6  -3    0.10    0.05
  -7  -6   3    0.03    0.06
  -7   6   3    0.10    0.08
   7   6  -3    0.06    0.03
  -7   6   3    0.17    0.08
  -6  -6   3    0.02    0.06
  -6  -6   3    0.08    0.05
   6  -6  -3    0.05    0.06
   6   6  -3    0.07    0.04
  -6   6   3   -0.03    0.09
  -6   6   3    0.16    0.10
  -5  -6   3    0.38    0.07
   5  -6  -3    0.36    0.08
  -5  -6   3    0.28    0.08
  -5   6   3    0.25    0.11
   5   6  -3    0.35    0.06
   5   6  -3    0.21    0.05
   5   6  -3    0.28    0.11
  -4  -6   3    0.01    0.06
   4  -6  -3    0.01    0.07
  -4  -6   3    0.01    0.06
   4   6  -3    0.02    0.04
   4   6  -3    0.14    0.09
   4   6  -3    0.03    0.05
  -4   6   3    0.08    0.10
  -3  -6   3    9.50    0.47
   3  -6  -3    9.66    0.49
  -3  -6   3    9.95    0.50
   3   6  -3    9.05    0.46
   3   6  -3    8.26    0.46
   3   6  -3    9.68    0.51
  -3   6   3   10.04    0.53
  -2  -6   3    9.50    0.50
  -2  -6   3    9.56    0.49
  -2  -6   3   10.09    0.52
   2  -6  -3   10.01    0.51
  -2   6   3   10.30    0.55
   2   6  -3    9.52    0.47
   2   6  -3    9.86    0.53
  -1  -6   3    1.14    0.14
  -1  -6   3    1.03    0.13
   1  -6  -3    1.28    0.12
   1  -6  -3    1.26    0.13
  -1  -6   3    0.94    0.13
  -1   6   3    0.98    0.10
   1   6  -3    1.20    0.15
  -1   6   3    1.19    0.17
   0  -6   3    3.89    0.25
   0  -6   3    3.80    0.24
   0  -6  -3    3.89    0.24
   0  -6  -3    4.35    0.24
   0   6   3    3.96    0.22
   0   6  -3    4.00    0.27
   0   6   3    3.70    0.28
   0   6   3    3.51    0.23
   1  -6   3    1.77    0.15
  -1  -6  -3    1.62    0.14
  -1  -6  -3    1.63    0.13
   1  -6   3    1.46    0.14
   1   6   3    1.57    0.18
  -1   6  -3    1.57    0.16
   1   6   3    1.39    0.12
  -1   6  -3    1.42    0.18
   1   6   3    1.45    0.13
  -2  -6  -3    0.12    0.06
  -2  -6  -3    0.18    0.06
   2  -6   3    0.14    0.07
   2  -6   3    0.13    0.07
   2   6   3    0.11    0.06
   2   6   3    0.10    0.10
   2   6   3    0.12    0.05
  -2   6  -3    0.12    0.09
  -2   6  -3   -0.02    0.09
  -3  -6  -3    2.45    0.16
  -3  -6  -3    2.48    0.17
   3  -6   3    2.55    0.17
   3  -6   3    2.39    0.17
  -3   6  -3    1.96    0.18
   3   6   3    2.20    0.16
  -3   6  -3    2.29    0.20
   3   6   3    2.44    0.21
   3   6   3    2.44    0.16
   4  -6   3    1.69    0.14
   4  -6   3    1.88    0.14
  -4  -6  -3    1.97    0.14
  -4  -6  -3    1.94    0.14
  -4   6  -3    1.78    0.18
  -4   6  -3    1.74    0.17
   4   6   3    1.96    0.13
  -5  -6  -3    6.32    0.32
   5  -6   3    6.19    0.32
  -5  -6  -3    6.83    0.32
  -5   6  -3    6.26    0.34
   5   6   3    5.88    0.31
  -4  -7   3    0.53    0.08
   4   7  -3    0.74    0.10
  -4   7   3    0.83    0.11
  -3  -7   3    0.79    0.09
   3  -7  -3    0.59    0.11
   3   7  -3    0.84    0.11
   3   7  -3    0.89    0.13
  -2  -7   3    1.02    0.10
   2  -7  -3    0.72    0.11
  -2   7   3    1.22    0.13
   2   7  -3    1.06    0.12
  -1  -7   3    0.65    0.09
   1   7  -3    0.64    0.10
  -1   7   3    0.55    0.09
  -1   7   3    0.47    0.10
   0  -7   3    1.97    0.14
   0   7   3    1.74    0.16
   0   7   3    1.77    0.14
   0   7  -3    1.86    0.15
   1  -7   3    1.64    0.12
  -1   7  -3    1.39    0.13
   1   7   3    1.46    0.15
   2  -7   3    2.19    0.14
 -13   0   4    1.00    0.11
 -13   0   4    0.73    0.09
  12   0  -4    3.73    0.21
 -12   0   4    4.07    0.27
 -12   0   4    4.44    0.26
 -12   0   4    4.29    0.26
  12   0  -4    4.02    0.21
 -12   0   4    3.63    0.26
 -12   0   4    3.84    0.26
 -11   0   4    4.80    0.29
  11   0  -4    4.38    0.23
  11   0  -4    4.45    0.23
 -11   0   4    4.29    0.30
 -11   0   4    4.30    0.29
 -11   0   4    4.49    0.29
 -11   0   4    4.33    0.31
 -10   0   4    0.00    0.08
  10   0  -4    0.01    0.03
 -10   0   4   -0.03    0.08
 -10   0   4    0.10    0.08
  10   0  -4   -0.03    0.04
 -10   0   4    0.03    0.09
 -10   0   4    0.00    0.09
   9   0  -4    4.42    0.33
  -9   0   4    4.26    0.29
  -9   0   4    4.41    0.30
   9   0  -4    4.49    0.24
   9   0  -4    4.23    0.24
  -9   0   4    4.70    0.31
  -9   0   4    4.77    0.29
  -9   0   4    4.73    0.30
   8   0  -4    0.17    0.04
  -8   0   4    0.13    0.08
  -8   0   4    0.13    0.07
  -8   0   4    0.14    0.08
  -8   0   4    0.01    0.07
   8   0  -4    0.11    0.08
  -8   0   4    0.13    0.07
  -7   0   4   30.55    1.47
   7   0  -4   29.81    1.42
   7   0  -4   31.64    1.63
   7   0  -4   32.82    1.51
  -6   0   4    3.75    0.23
   6   0  -4    4.16    0.27
   6   0  -4    3.90    0.20
   6   0  -4    3.85    0.49
   6   0  -4    4.10    0.34
   5   0  -4   35.88    2.01
   5   0  -4   34.14    1.65
   5   0  -4   38.26    1.72
   5   0  -4   37.59    1.80
   4   0  -4    0.03    0.05
   4   0  -4    0.01    0.10
   4   0  -4   -0.01    0.02
   3   0  -4    1.21    0.20
   3   0  -4    1.06    0.10
   3   0  -4    1.11    0.14
  -3   0   4    1.09    0.14
   2   0  -4   94.35    4.12
   2   0  -4   86.46    3.95
   2   0  -4   84.13    4.01
  -2   0   4   83.01    3.96
  -2   0   4   87.63    4.03
  -1   0   4   29.48    1.40
   1   0  -4   28.96    1.37
   1   0  -4   25.12    1.31
  -1   0   4   25.35    1.39
  -1   0   4   29.16    1.34
   1   0  -4   31.64    1.43
   0   0   4    3.93    0.28
   0   0   4    4.50    0.26
   0   0   4    4.87    0.32
   0   0  -4    4.70    0.29
   0   0   4    3.96    0.27
   0   0  -4    4.11    0.28
   1   0   4   19.90    0.86
  -1   0  -4   16.22    0.86
   1   0   4   16.31    0.90
   2   0   4    7.20    0.40
   2   0   4    7.57    0.47
   3   0   4    0.62    0.09
   3   0   4    0.59    0.13
   3   0   4    0.53    0.04
   4   0   4    3.68    0.31
   4   0   4    4.03    0.26
  -4   0  -4    3.66    0.23
  -5   0  -4    1.91    0.16
  -5   0  -4    1.77    0.17
  -5   0  -4    1.99    0.17
  -5   0  -4    1.80    0.16
  -5   0  -4    1.96    0.17
   5   0   4    2.04    0.18
  -5   0  -4    1.81    0.17
  -6   0  -4    9.47    0.50
  -6   0  -4    9.55    0.52
  -6   0  -4    9.35    0.51
  -6   0  -4    9.86    0.52
  -6   0  -4    9.42    0.53
   6   0   4    9.80    0.55
  -6   0  -4    9.94    0.52
  -7   0  -4    0.29    0.11
   7   0   4    0.20    0.10
  -7   0  -4    0.16    0.08
  -7   0  -4    0.16    0.08
  -7   0  -4    0.10    0.08
   7   0   4    0.12    0.04
  -7   0  -4    0.11    0.08
  -8   0  -4   17.10    0.84
   8   0   4   15.44    0.78
  -8   0  -4   17.10    0.83
  -8   0  -4   16.73    0.84
  -8   0  -4   17.90    0.86
   9   0   4    0.56    0.07
  -9   0  -4    0.36    0.10
  -9   0  -4    0.73    0.13
  -9   0  -4    0.50    0.11
  -9   0  -4    0.59    0.12
  -9   0  -4    0.52    0.11
 -10   0  -4    1.46    0.13
 -10   0  -4    1.21    0.13
 -10   0  -4    1.32    0.14
 -13  -1   4    0.73    0.11
 -13  -1   4    0.89    0.10
 -13   1   4    0.94    0.10
 -13   1   4    0.75    0.10
 -13   1   4    0.68    0.10
  12  -1  -4    0.87    0.07
  12  -1  -4    0.75    0.11
 -12  -1   4    0.52    0.11
 -12  -1   4    0.92    0.14
 -12  -1   4    0.63    0.12
 -12  -1   4    0.76    0.12
 -12   1   4    0.57    0.11
  12   1  -4    0.82    0.07
 -12   1   4    0.76    0.13
 -12   1   4    0.81    0.12
 -12   1   4    0.83    0.14
 -12   1   4    0.86    0.13
 -11  -1   4    1.64    0.19
  11  -1  -4    1.57    0.11
 -11  -1   4    1.71    0.17
  11  -1  -4    1.67    0.11
 -11  -1   4    1.55    0.18
 -11  -1   4    1.63    0.16
  11   1  -4    1.46    0.11
 -11   1   4    1.50    0.16
 -11   1   4    1.55    0.18
 -11   1   4    1.71    0.17
 -11   1   4    1.97    0.18
 -11   1   4    1.68    0.18
 -10  -1   4    0.88    0.14
  10  -1  -4    0.80    0.08
 -10  -1   4    1.11    0.16
 -10  -1   4    1.04    0.15
 -10  -1   4    0.96    0.14
 -10  -1   4    0.89    0.13
  10  -1  -4    0.97    0.09
 -10   1   4    0.93    0.16
 -10   1   4    0.79    0.14
 -10   1   4    1.02    0.15
 -10   1   4    0.73    0.21
 -10   1   4    0.94    0.14
  10   1  -4    0.88    0.08
 -10   1   4    0.85    0.13
  -9  -1   4    0.77    0.12
  -9  -1   4    0.80    0.14
  -9  -1   4    0.97    0.14
  -9  -1   4    0.77    0.14
   9  -1  -4    1.08    0.08
  -9  -1   4    0.85    0.12
   9  -1  -4    0.86    0.08
   9  -1  -4    0.65    0.17
   9   1  -4    0.85    0.08
  -9   1   4    0.83    0.14
  -9   1   4    0.91    0.13
  -9   1   4    0.58    0.12
  -9   1   4    0.86    0.14
  -9   1   4    0.82    0.13
  -9   1   4    0.68    0.13
   9   1  -4    0.98    0.15
  -8  -1   4   38.87    1.86
  -8  -1   4   40.09    1.86
  -8  -1   4   39.64    1.87
   8  -1  -4   41.90    1.81
   8  -1  -4   40.38    1.93
   8  -1  -4   38.89    1.80
  -8  -1   4   36.61    1.84
  -8  -1   4   39.70    1.85
   8   1  -4   43.23    1.91
   8   1  -4   38.81    1.80
  -8   1   4   38.21    1.87
  -8   1   4   42.15    1.87
  -8   1   4   37.64    1.87
  -8   1   4   40.16    1.87
  -8   1   4   38.23    1.85
  -8   1   4   40.80    1.86
   7  -1  -4    9.40    0.46
  -7  -1   4    9.05    0.50
  -7  -1   4    9.88    0.53
   7  -1  -4    8.88    0.66
  -7  -1   4    9.31    0.50
   7  -1  -4   10.42    0.56
  -7  -1   4   10.10    0.50
   7  -1  -4    9.97    0.46
  -7   1   4    9.09    0.50
   7   1  -4    9.41    0.45
  -7   1   4    9.05    0.50
   7   1  -4   10.13    0.53
  -7   1   4    9.52    0.51
   7   1  -4    9.68    0.62
   6  -1  -4    4.45    0.22
   6  -1  -4    4.36    0.38
   6  -1  -4    3.53    0.49
  -6  -1   4    4.43    0.25
   6  -1  -4    4.33    0.29
   6   1  -4    4.43    0.28
   6   1  -4    4.03    0.34
  -6   1   4    4.36    0.25
   6   1  -4    4.20    0.21
   5  -1  -4   21.06    1.02
   5  -1  -4   20.83    1.32
   5  -1  -4   20.94    1.13
   5  -1  -4   21.03    0.95
   5   1  -4   19.20    1.26
   5   1  -4   19.50    0.95
   5   1  -4   21.16    1.09
   5   1  -4   22.52    1.02
   4  -1  -4   16.34    0.76
   4  -1  -4   16.10    1.05
   4  -1  -4   16.62    0.91
   4  -1  -4   17.16    0.83
   4   1  -4   15.42    0.76
   4   1  -4   16.34    1.03
   4   1  -4   17.00    0.89
   4   1  -4   18.23    0.83
   3  -1  -4    2.72    0.32
   3  -1  -4    2.65    0.19
  -3  -1   4    2.47    0.22
   3  -1  -4    2.93    0.24
   3   1  -4    2.91    0.23
  -3   1   4    2.34    0.19
   3   1  -4    2.71    0.29
  -3   1   4    2.63    0.23
   3   1  -4    2.92    0.19
   2  -1  -4   16.09    0.92
   2  -1  -4   18.52    0.99
  -2  -1   4   18.60    1.00
   2  -1  -4   20.99    1.12
   2   1  -4   21.60    1.07
  -2   1   4   19.26    0.94
   2   1  -4   20.36    0.99
   2   1  -4   18.59    0.93
  -2   1   4   19.63    1.00
  -1  -1   4  139.98    6.52
  -1  -1   4  153.36    6.61
   1  -1  -4  156.65    6.70
   1   1  -4  146.97    6.59
  -1   1   4  147.10    6.59
   1   1  -4  148.65    6.58
  -1   1   4  147.81    6.53
   1   1  -4  138.19    6.51
   1   1  -4  120.18    6.57
   0  -1   4  124.77    5.69
   0  -1  -4  108.15    5.70
   0  -1   4  134.66    5.79
   0  -1  -4  134.71    5.84
   0   1   4  113.30    5.72
   0   1  -4  121.05    5.73
   0   1  -4  134.33    5.68
   0   1  -4  120.14    5.67
   0   1   4  133.26    5.69
   0   1   4  131.70    5.75
  -1  -1  -4    3.08    0.28
   1  -1   4    2.97    0.16
   1  -1   4    3.26    0.22
   1  -1   4    3.58    0.29
   1   1   4    3.32    0.25
   1   1   4    3.41    0.21
   2  -1   4   51.81    2.35
   2  -1   4   48.47    2.24
   2  -1   4   45.91    2.16
  -2  -1  -4   44.63    2.31
   2   1   4   47.96    2.21
   2   1   4   49.22    2.28
   3  -1   4    9.58    0.52
   3  -1   4    9.50    0.61
   3  -1   4    8.58    0.43
   3   1   4    9.44    0.48
   3   1   4    9.12    0.53
  -3   1  -4    8.78    0.47
   4  -1   4    3.18    0.25
   4  -1   4    2.96    0.16
  -4  -1  -4    2.88    0.20
   4  -1   4    3.04    0.32
   4   1   4    3.13    0.25
  -4   1  -4    2.96    0.21
   4   1   4    3.33    0.21
  -5  -1  -4    6.60    0.38
  -5  -1  -4    6.41    0.37
  -5  -1  -4    6.33    0.37
   5  -1   4    7.16    0.43
   5  -1   4    6.68    0.32
  -5  -1  -4    6.14    0.36
  -5  -1  -4    6.70    0.36
  -5   1  -4    6.48    0.39
  -5   1  -4    6.16    0.37
  -5   1  -4    6.85    0.38
  -5   1  -4    6.69    0.37
  -5   1  -4    6.32    0.38
  -5   1  -4    6.58    0.36
  -5   1  -4    6.29    0.38
   5   1   4    7.00    0.38
  -6  -1  -4   17.91    0.84
   6  -1   4   17.06    0.79
  -6  -1  -4   16.32    0.82
  -6  -1  -4   16.26    0.85
  -6  -1  -4   17.08    0.84
   6  -1   4   17.30    0.92
  -6  -1  -4   15.87    0.83
  -6   1  -4   17.35    0.85
  -6   1  -4   18.19    0.86
  -6   1  -4   17.20    0.87
  -6   1  -4   16.70    0.84
  -6   1  -4   17.83    0.85
   6   1   4   16.05    0.84
  -6   1  -4   15.57    0.83
  -6   1  -4   17.99    0.86
  -7  -1  -4    1.53    0.17
  -7  -1  -4    1.96    0.18
  -7  -1  -4    1.80    0.17
  -7  -1  -4    1.87    0.17
   7  -1   4    2.01    0.12
   7  -1   4    1.62    0.22
  -7  -1  -4    1.70    0.20
  -7   1  -4    1.83    0.18
  -7   1  -4    1.92    0.20
  -7   1  -4    1.64    0.17
  -7   1  -4    2.04    0.19
  -7   1  -4    1.99    0.19
  -7   1  -4    1.88    0.18
   7   1   4    1.55    0.17
  -8  -1  -4   13.32    0.70
  -8  -1  -4   14.34    0.70
  -8  -1  -4   14.69    0.72
   8  -1   4   14.17    0.66
   8  -1   4   13.34    0.66
  -8   1  -4   12.68    0.70
  -8   1  -4   14.69    0.73
  -8   1  -4   14.68    0.72
  -8   1  -4   13.90    0.71
  -8   1  -4   13.53    0.73
  -8   1  -4   14.64    0.73
   9  -1   4    0.63    0.07
  -9  -1  -4    0.53    0.11
   9  -1   4    0.69    0.08
  -9  -1  -4    0.59    0.11
  -9   1  -4    0.89    0.14
  -9   1  -4    0.74    0.13
  -9   1  -4    0.81    0.14
  -9   1  -4    0.90    0.13
  -9   1  -4    0.74    0.14
  -9   1  -4    0.65    0.12
  10  -1   4    3.99    0.21
 -10   1  -4    4.28    0.25
 -10   1  -4    4.32    0.26
 -10   1  -4    4.47    0.25
 -12  -2   4    0.99    0.12
  12  -2  -4    1.22    0.08
 -12  -2   4    1.34    0.13
 -12  -2   4    1.10    0.14
 -12   2   4    1.10    0.14
 -12   2   4    1.25    0.13
 -12   2   4    1.21    0.13
 -12   2   4    0.80    0.14
  11  -2  -4    0.10    0.04
 -11  -2   4    0.10    0.10
 -11  -2   4    0.26    0.09
 -11  -2   4   -0.01    0.07
 -11  -2   4    0.16    0.08
  11  -2  -4    0.02    0.04
 -11   2   4    0.03    0.08
 -11   2   4    0.19    0.09
 -11   2   4    0.26    0.10
  11   2  -4    0.10    0.04
 -11   2   4    0.07    0.08
 -11   2   4    0.06    0.07
 -11   2   4    0.03    0.09
  10  -2  -4   18.65    0.84
 -10  -2   4   17.72    0.90
  10  -2  -4   17.90    0.85
 -10  -2   4   17.96    0.90
 -10  -2   4   18.51    0.90
 -10  -2   4   17.72    0.90
 -10   2   4   17.29    0.91
 -10   2   4   18.20    0.91
  10   2  -4   17.30    0.84
 -10   2   4   17.99    0.90
 -10   2   4   19.40    0.90
 -10   2   4   18.64    0.91
 -10   2   4   17.48    0.90
   9  -2  -4    3.49    0.37
  -9  -2   4    4.66    0.30
  -9  -2   4    5.03    0.31
  -9  -2   4    4.59    0.30
  -9  -2   4    5.08    0.30
   9  -2  -4    4.99    0.25
   9  -2  -4    4.81    0.24
  -9   2   4    4.75    0.30
  -9   2   4    4.39    0.30
  -9   2   4    4.85    0.31
   9   2  -4    4.29    0.33
   9   2  -4    4.33    0.24
  -9   2   4    5.07    0.33
  -9   2   4    4.42    0.31
  -9   2   4    4.41    0.31
   8  -2  -4   10.69    0.49
  -8  -2   4   10.56    0.54
  -8  -2   4   10.40    0.54
  -8  -2   4   10.23    0.54
   8  -2  -4    9.70    0.62
   8  -2  -4   10.03    0.49
  -8  -2   4    9.89    0.54
  -8   2   4    9.83    0.54
   8   2  -4   10.13    0.58
  -8   2   4    9.59    0.54
  -8   2   4    9.87    0.54
   8   2  -4   10.06    0.48
  -8   2   4    9.79    0.54
  -8   2   4   10.05    0.55
  -8   2   4   10.56    0.57
  -7  -2   4    0.95    0.13
   7  -2  -4    0.92    0.08
   7  -2  -4    0.98    0.08
  -7  -2   4    0.95    0.10
   7  -2  -4    0.89    0.17
  -7  -2   4    0.93    0.11
  -7  -2   4    0.90    0.12
  -7   2   4    0.77    0.11
   7   2  -4    0.80    0.13
  -7   2   4    0.95    0.12
  -7   2   4    0.79    0.12
  -7   2   4    0.81    0.14
   7   2  -4    0.89    0.07
  -7   2   4    0.87    0.14
  -7   2   4    1.02    0.14
   6  -2  -4   12.45    0.57
  -6  -2   4   12.64    0.61
   6  -2  -4   12.45    0.57
   6  -2  -4   10.55    0.79
   6  -2  -4   12.15    0.68
  -6   2   4   11.36    0.60
   6   2  -4   11.92    0.73
   6   2  -4   12.25    0.57
   6   2  -4   12.59    0.65
   5  -2  -4    3.02    0.33
   5  -2  -4    2.79    0.43
   5  -2  -4    3.46    0.17
  -5  -2   4    3.30    0.20
   5  -2  -4    3.12    0.17
   5  -2  -4    3.12    0.25
   5   2  -4    2.78    0.41
   5   2  -4    3.31    0.17
   5   2  -4    3.64    0.24
   5   2  -4    3.25    0.29
   4  -2  -4   12.15    0.65
   4  -2  -4   10.82    0.57
   4  -2  -4   12.59    0.93
   4  -2  -4   12.57    0.77
   4   2  -4   11.95    0.57
   4   2  -4   11.81    0.87
   4   2  -4   13.16    0.65
   4   2  -4   13.25    0.73
   3  -2  -4   24.15    1.27
   3  -2  -4   23.44    1.43
   3   2  -4   25.90    1.16
   3   2  -4   23.08    1.09
  -3   2   4   23.41    1.25
   3   2  -4   23.80    1.23
   3   2  -4   25.21    1.38
  -3   2   4   21.61    1.17
   2  -2  -4   12.54    0.88
  -2   2   4   12.61    0.67
  -2   2   4   12.29    0.59
   2   2  -4   12.37    0.65
  -2   2   4   12.97    0.74
   2   2  -4   13.44    0.73
   2   2  -4   12.17    0.59
   2   2  -4   13.06    0.81
   1  -2  -4   53.07    2.66
  -1  -2   4   46.26    2.48
   1   2  -4   51.21    2.51
   1   2  -4   51.05    2.39
  -1   2   4   49.66    2.33
  -1   2   4   53.59    2.41
   1   2  -4   51.73    2.47
  -1   2   4   55.75    2.49
   0  -2   4   47.79    2.26
   0  -2  -4   47.22    2.38
   0  -2   4   39.87    2.13
   0   2   4   49.66    2.22
   0   2   4   45.08    2.06
   0   2   4   48.56    2.14
   0   2  -4   44.42    2.18
   0   2  -4   43.00    2.20
   1  -2   4   50.99    2.32
   1  -2   4   49.41    2.43
  -1  -2  -4   48.56    2.52
   1  -2   4   50.11    2.22
   1   2   4   48.60    2.29
   1   2   4   51.72    2.36
   1   2   4   45.22    2.22
   2  -2   4   10.57    0.71
  -2  -2  -4    9.22    0.73
   2  -2   4   11.19    0.60
   2  -2   4   11.04    0.50
   2   2   4   10.89    0.62
  -2   2  -4   10.41    0.54
   2   2   4   10.84    0.56
   3  -2   4    6.06    0.30
   3  -2   4    5.82    0.50
   3  -2   4    5.74    0.29
   3  -2   4    6.18    0.40
  -3   2  -4    5.87    0.34
   3   2   4    5.74    0.39
   3   2   4    6.42    0.35
  -4  -2  -4   10.63    0.57
   4  -2   4   10.02    0.76
   4  -2   4   11.68    0.53
  -4  -2  -4   10.64    0.55
  -4  -2  -4   11.18    0.57
  -4  -2  -4   10.80    0.55
   4  -2   4   11.65    0.53
   4  -2   4   11.78    0.66
  -4   2  -4   10.83    0.58
  -4   2  -4   11.92    0.59
  -4   2  -4   10.58    0.56
   4   2   4   10.76    0.61
  -4   2  -4   10.88    0.59
   4   2   4   11.87    0.59
  -4   2  -4   11.33    0.58
  -4   2  -4   10.82    0.58
  -4   2  -4   10.73    0.57
  -5  -2  -4    6.22    0.35
   5  -2   4    6.77    0.33
   5  -2   4    6.63    0.46
  -5  -2  -4    6.94    0.36
  -5  -2  -4    6.86    0.38
  -5  -2  -4    6.47    0.39
   5  -2   4    6.69    0.33
  -5   2  -4    6.17    0.39
  -5   2  -4    6.37    0.40
  -5   2  -4    6.74    0.39
  -5   2  -4    6.65    0.38
   5   2   4    6.30    0.38
  -5   2  -4    6.92    0.38
  -5   2  -4    6.30    0.38
  -5   2  -4    6.73    0.39
   6  -2   4    2.03    0.13
   6  -2   4    1.85    0.25
  -6  -2  -4    1.79    0.18
   6  -2   4    1.76    0.12
  -6  -2  -4    1.88    0.18
  -6  -2  -4    1.62    0.15
  -6  -2  -4    1.74    0.15
  -6   2  -4    1.87    0.19
  -6   2  -4    1.75    0.18
  -6   2  -4    2.07    0.19
  -6   2  -4    1.73    0.17
  -6   2  -4    2.09    0.20
  -6   2  -4    1.76    0.18
   6   2   4    1.87    0.16
  -7  -2  -4    4.90    0.30
   7  -2   4    4.86    0.26
  -7  -2  -4    4.60    0.30
  -7  -2  -4    4.17    0.27
   7  -2   4    4.81    0.25
  -7   2  -4    4.86    0.32
  -7   2  -4    4.58    0.30
  -7   2  -4    4.84    0.32
  -7   2  -4    5.11    0.33
  -7   2  -4    4.85    0.32
  -7   2  -4    4.87    0.31
  -8  -2  -4    1.63    0.17
   8  -2   4    1.80    0.12
  -8  -2  -4    1.41    0.16
   8  -2   4    1.61    0.12
  -8   2  -4    1.57    0.16
  -8   2  -4    1.74    0.18
  -8   2  -4    1.78    0.19
  -8   2  -4    1.96    0.18
  -8   2  -4    1.54    0.16
  -8   2  -4    1.88    0.19
   9  -2   4    6.28    0.31
   9  -2   4    5.58    0.31
  -9   2  -4    5.67    0.35
  -9   2  -4    6.39    0.36
  -9   2  -4    6.41    0.35
  -9   2  -4    6.50    0.34
  -9   2  -4    6.53    0.36
 -10   2  -4    2.76    0.17
 -10   2  -4    2.91    0.19
 -10   2  -4    2.82    0.18
  12  -3  -4    5.76    0.28
 -12  -3   4    4.71    0.30
 -12   3   4    5.59    0.28
 -11  -3   4    0.49    0.09
  11  -3  -4    0.57    0.10
  11  -3  -4    0.59    0.06
 -11  -3   4    0.56    0.10
 -11   3   4    0.89    0.12
 -11   3   4    0.66    0.13
 -11   3   4    0.54    0.09
 -10  -3   4    1.09    0.14
  10  -3  -4    0.94    0.08
 -10  -3   4    1.15    0.14
  10  -3  -4    0.87    0.10
  10   3  -4    0.93    0.08
 -10   3   4    0.80    0.14
 -10   3   4    1.12    0.15
 -10   3   4    0.80    0.16
  -9  -3   4    1.20    0.14
  -9  -3   4    1.30    0.14
   9  -3  -4    1.08    0.11
   9  -3  -4    1.09    0.09
   9   3  -4    1.17    0.10
  -9   3   4    0.97    0.14
  -9   3   4    1.19    0.16
  -9   3   4    1.12    0.15
  -9   3   4    1.24    0.16
  -8  -3   4    7.71    0.41
   8  -3  -4    6.84    0.37
  -8  -3   4    6.69    0.38
   8  -3  -4    7.47    0.36
  -8  -3   4    7.84    0.43
  -8   3   4    7.65    0.44
  -8   3   4    7.10    0.42
  -8   3   4    7.56    0.45
   8   3  -4    7.21    0.46
   8   3  -4    7.55    0.37
  -8   3   4    7.39    0.42
  -7  -3   4    8.31    0.43
  -7  -3   4    8.21    0.45
  -7  -3   4    8.57    0.46
   7  -3  -4    8.60    0.41
   7  -3  -4    8.20    0.42
  -7   3   4    8.31    0.48
   7   3  -4    8.27    0.41
  -7   3   4    8.23    0.46
   7   3  -4    8.55    0.51
  -7   3   4    8.34    0.49
  -6  -3   4    7.76    0.41
  -6  -3   4    7.20    0.41
   6  -3  -4    7.43    0.36
  -6  -3   4    7.19    0.39
  -6  -3   4    7.19    0.41
  -6   3   4    7.85    0.43
   6   3  -4    7.96    0.47
  -6   3   4    7.84    0.45
   6   3  -4    7.93    0.38
  -6   3   4    6.62    0.40
   6   3  -4    7.56    0.37
  -5  -3   4    4.76    0.28
  -5  -3   4    5.43    0.29
   5  -3  -4    4.87    0.24
  -5  -3   4    4.94    0.27
  -5  -3   4    4.79    0.28
   5   3  -4    5.25    0.26
  -5   3   4    4.93    0.31
   5   3  -4    4.49    0.26
   5   3  -4    4.89    0.34
  -5   3   4    4.94    0.32
   5   3  -4    4.36    0.41
  -4  -3   4    3.56    0.22
   4   3  -4    3.45    0.20
   4   3  -4    3.97    0.28
   4   3  -4    3.73    0.20
   4   3  -4    3.70    0.34
  -3  -3   4   12.87    0.66
   3   3  -4   14.86    0.65
   3   3  -4   11.75    0.95
   3   3  -4   14.78    0.64
   3   3  -4   14.63    0.74
  -3   3   4   12.88    0.64
   3   3  -4   13.86    0.82
  -3   3   4   13.16    0.64
   3   3  -4   13.61    0.64
  -2  -3   4   10.00    0.54
   2   3  -4   11.64    0.72
  -2   3   4   11.23    0.54
  -2   3   4   11.67    0.54
  -2   3   4   12.11    0.65
   2   3  -4   10.50    0.80
  -2   3   4   11.12    0.73
   2   3  -4   10.96    0.53
   2   3  -4   11.47    0.62
   2   3  -4   11.60    0.53
   1  -3  -4   13.36    1.03
  -1  -3   4   13.17    0.66
  -1   3   4   15.02    0.66
   1   3  -4   13.63    0.83
  -1   3   4   13.24    0.66
   1   3  -4   14.23    0.65
  -1   3   4   14.37    0.85
  -1   3   4   13.86    0.75
   1   3  -4   13.47    0.74
   1   3  -4   13.73    0.65
   0  -3  -4   12.20    0.99
   0  -3   4   13.20    0.65
   0   3   4   13.55    0.81
   0   3   4   14.81    0.74
   0   3   4   13.59    0.64
   1  -3   4   29.13    1.31
   1  -3   4   27.27    1.29
   1   3   4   28.32    1.48
   1   3   4   30.22    1.40
   1   3   4   26.78    1.29
   2  -3   4    4.44    0.22
  -2  -3  -4    3.47    0.25
   2  -3   4    3.78    0.25
  -2  -3  -4    3.82    0.26
   2  -3   4    4.25    0.22
  -2  -3  -4    4.17    0.24
  -2   3  -4    3.98    0.29
   2   3   4    4.46    0.30
   2   3   4    4.19    0.36
   2   3   4    4.32    0.22
   3  -3   4    7.64    0.37
  -3  -3  -4    7.40    0.40
  -3  -3  -4    7.49    0.39
  -3  -3  -4    7.51    0.39
  -3  -3  -4    6.66    0.40
   3  -3   4    6.95    0.50
   3  -3   4    7.96    0.37
   3   3   4    7.16    0.36
  -3   3  -4    8.02    0.42
  -3   3  -4    7.35    0.41
   3   3   4    7.34    0.45
  -3   3  -4    7.10    0.42
  -3   3  -4    7.50    0.42
   4  -3   4    1.77    0.12
  -4  -3  -4    1.59    0.16
  -4  -3  -4    1.70    0.14
   4  -3   4    1.45    0.24
  -4  -3  -4    1.54    0.16
   4  -3   4    1.62    0.12
  -4  -3  -4    1.67    0.14
  -4   3  -4    1.63    0.16
  -4   3  -4    1.40    0.17
  -4   3  -4    1.45    0.16
   4   3   4    1.66    0.18
  -4   3  -4    1.60    0.18
  -4   3  -4    1.55    0.16
  -5  -3  -4    5.64    0.33
   5  -3   4    5.98    0.29
  -5  -3  -4    5.68    0.32
  -5  -3  -4    5.60    0.32
   5  -3   4    5.78    0.30
   5  -3   4    5.26    0.45
  -5   3  -4    5.58    0.35
  -5   3  -4    5.44    0.35
  -5   3  -4    5.53    0.36
   5   3   4    5.17    0.35
  -5   3  -4    5.39    0.35
  -5   3  -4    5.93    0.34
  -5   3  -4    5.21    0.33
  -6  -3  -4    5.42    0.32
  -6  -3  -4    5.55    0.34
  -6  -3  -4    5.61    0.32
   6  -3   4    6.11    0.30
   6  -3   4    5.93    0.31
  -6   3  -4    6.09    0.37
  -6   3  -4    5.50    0.36
  -6   3  -4    5.80    0.34
  -6   3  -4    6.08    0.37
  -6   3  -4    5.71    0.36
   7  -3   4    3.26    0.19
  -7  -3  -4    3.25    0.21
  -7  -3  -4    3.34    0.22
   7  -3   4    3.25    0.20
  -7   3  -4    3.24    0.23
  -7   3  -4    3.58    0.25
  -7   3  -4    3.40    0.26
  -7   3  -4    3.78    0.26
  -7   3  -4    3.25    0.26
   8  -3   4    0.96    0.08
   8  -3   4    0.73    0.09
   8  -3   4    1.02    0.11
  -8   3  -4    0.96    0.14
  -8   3  -4    1.20    0.14
  -8   3  -4    0.90    0.14
  -8   3  -4    0.87    0.13
   9  -3   4    0.73    0.09
   9  -3   4    0.68    0.06
  -9   3  -4    0.59    0.11
  -9   3  -4    0.88    0.11
  -9   3  -4    0.93    0.12
  -9   3  -4    0.61    0.09
  11  -4  -4    0.65    0.08
 -11  -4   4    0.53    0.08
 -11   4   4    0.67    0.11
 -10  -4   4    1.12    0.13
  10  -4  -4    1.09    0.11
 -10  -4   4    1.28    0.13
 -10   4   4    1.28    0.16
  10   4  -4    1.04    0.08
 -10   4   4    1.09    0.13
   9  -4  -4    1.09    0.13
  -9  -4   4    1.27    0.14
  -9  -4   4    1.18    0.14
  -9  -4   4    1.04    0.11
  -9   4   4    1.41    0.17
   9   4  -4    1.09    0.10
   9   4  -4    1.28    0.10
  -9   4   4    1.02    0.14
  -8  -4   4    9.03    0.47
  -8  -4   4    9.01    0.48
   8  -4  -4    8.68    0.47
  -8  -4   4    8.70    0.45
   8   4  -4    8.98    0.44
   8   4  -4    8.50    0.44
  -8   4   4    8.90    0.51
   7  -4  -4    1.51    0.14
  -7  -4   4    1.33    0.14
  -7  -4   4    1.62    0.15
  -7  -4   4    1.34    0.15
   7   4  -4    1.39    0.11
  -7   4   4    1.55    0.18
  -7   4   4    1.39    0.18
   7   4  -4    1.36    0.12
  -6  -4   4    5.08    0.30
  -6  -4   4    4.67    0.28
  -6  -4   4    4.67    0.30
   6  -4  -4    4.99    0.29
   6   4  -4    4.62    0.37
  -6   4   4    4.65    0.33
   6   4  -4    5.15    0.27
  -6   4   4    4.72    0.32
   6   4  -4    4.64    0.26
  -5  -4   4    0.54    0.10
  -5  -4   4    0.61    0.10
   5  -4  -4    0.36    0.09
  -5  -4   4    0.51    0.10
   5   4  -4    0.44    0.14
  -5   4   4    0.35    0.11
  -5   4   4    0.54    0.13
   5   4  -4    0.50    0.08
   5   4  -4    0.44    0.07
   4  -4  -4    3.90    0.24
  -4  -4   4    3.74    0.24
  -4  -4   4    3.53    0.24
  -4  -4   4    3.66    0.23
   4   4  -4    3.77    0.32
  -4   4   4    3.67    0.27
   4   4  -4    3.60    0.21
  -4   4   4    3.48    0.26
   4   4  -4    4.06    0.22
  -3  -4   4    6.17    0.35
   3  -4  -4    5.86    0.34
  -3  -4   4    6.07    0.34
  -3  -4   4    6.28    0.34
   3   4  -4    6.56    0.33
   3   4  -4    6.32    0.32
  -3   4   4    6.11    0.38
  -3   4   4    6.47    0.32
   3   4  -4    6.09    0.43
   2  -4  -4    8.44    0.51
  -2  -4   4    9.47    0.51
  -2  -4   4   10.12    0.51
  -2  -4   4   10.21    0.50
   2  -4  -4   10.13    0.51
   2   4  -4   10.62    0.49
   2   4  -4    9.82    0.60
  -2   4   4   10.22    0.49
   2   4  -4    9.69    0.52
  -2   4   4    9.67    0.49
   2   4  -4   10.34    0.49
  -2   4   4    9.87    0.53
  -1  -4   4    4.69    0.27
   1  -4  -4    4.46    0.26
  -1  -4   4    4.59    0.27
   1  -4  -4    4.58    0.27
  -1  -4   4    4.55    0.27
   1  -4  -4    3.97    0.26
  -1   4   4    4.87    0.25
   1   4  -4    4.26    0.29
  -1   4   4    4.29    0.29
   1   4  -4    4.51    0.24
   1   4  -4    4.98    0.25
  -1   4   4    5.00    0.26
  -1   4   4    4.63    0.37
   0  -4  -4    5.26    0.29
   0  -4   4    4.99    0.29
   0  -4  -4    5.24    0.29
   0  -4  -4    5.46    0.30
   0  -4   4    5.38    0.30
   0  -4   4    5.06    0.29
   0   4  -4    5.48    0.32
   0   4   4    5.26    0.28
   0   4   4    4.77    0.27
   0   4   4    4.79    0.31
   0   4  -4    5.01    0.36
   0   4   4    5.27    0.40
  -1  -4  -4    4.60    0.26
  -1  -4  -4    4.39    0.27
  -1  -4  -4    4.34    0.25
   1  -4   4    4.49    0.26
   1  -4   4    4.39    0.27
   1   4   4    4.59    0.25
   1   4   4    4.21    0.24
  -1   4  -4    4.27    0.30
  -1   4  -4    4.57    0.28
   1   4   4    4.01    0.35
   2  -4   4    5.63    0.32
  -2  -4  -4    5.57    0.32
  -2  -4  -4    6.06    0.33
   2  -4   4    6.01    0.32
  -2  -4  -4    5.59    0.32
   2  -4   4    5.53    0.32
   2   4   4    5.79    0.31
  -2   4  -4    6.13    0.35
  -2   4  -4    5.97    0.36
   2   4   4    5.51    0.30
   2   4   4    5.41    0.30
   2   4   4    5.84    0.42
  -3  -4  -4    1.37    0.13
  -3  -4  -4    1.30    0.12
   3  -4   4    1.24    0.14
  -3  -4  -4    1.38    0.13
   3  -4   4    1.11    0.12
   3  -4   4    1.44    0.13
  -3   4  -4    1.14    0.15
  -3   4  -4    1.14    0.18
   3   4   4    1.21    0.20
   3   4   4    1.36    0.11
   4  -4   4    9.11    0.48
   4  -4   4    9.04    0.48
  -4  -4  -4    9.07    0.48
  -4  -4  -4    9.64    0.48
   4  -4   4    9.23    0.45
  -4  -4  -4    9.65    0.48
  -4   4  -4    8.63    0.49
   4   4   4    8.61    0.55
   4   4   4    9.60    0.46
  -4   4  -4    9.27    0.52
  -4   4  -4    9.48    0.51
  -5  -4  -4    0.32    0.07
  -5  -4  -4    0.44    0.09
   5  -4   4    0.31    0.08
   5  -4   4    0.36    0.09
  -5  -4  -4    0.32    0.08
   5  -4   4    0.37    0.07
  -5   4  -4    0.50    0.12
  -5   4  -4    0.58    0.12
  -5   4  -4    0.39    0.11
  -5   4  -4    0.37    0.11
   5   4   4    0.38    0.07
  -6  -4  -4    1.69    0.16
   6  -4   4    1.79    0.15
   6  -4   4    1.63    0.11
  -6  -4  -4    1.84    0.15
   6  -4   4    1.73    0.14
  -6  -4  -4    1.81    0.15
  -6   4  -4    1.79    0.18
  -6   4  -4    1.85    0.19
  -6   4  -4    1.86    0.20
   7  -4   4    4.97    0.30
  -7  -4  -4    5.60    0.30
   7  -4   4    6.19    0.31
   7  -4   4    5.21    0.27
  -7  -4  -4    5.15    0.29
  -7   4  -4    5.49    0.33
  -7   4  -4    6.28    0.34
  -7   4  -4    5.83    0.32
   8  -4   4    2.78    0.16
  -8   4  -4    2.31    0.18
  -8   4  -4    2.64    0.18
  -8   4  -4    2.57    0.17
   9  -5  -4    1.31    0.11
  -9  -5   4    1.17    0.12
  -9   5   4    1.27    0.15
   9   5  -4    1.24    0.09
  -8  -5   4    5.66    0.30
   8  -5  -4    5.70    0.31
  -8  -5   4    5.03    0.31
  -8  -5   4    6.02    0.32
  -8   5   4    5.81    0.35
   8   5  -4    5.90    0.29
   8   5  -4    5.02    0.28
  -7  -5   4    3.01    0.22
  -7  -5   4    3.03    0.19
   7  -5  -4    2.99    0.21
  -7  -5   4    2.79    0.21
   7   5  -4    2.91    0.18
  -7   5   4    3.08    0.24
   7   5  -4    3.03    0.18
  -7   5   4    2.58    0.23
  -6  -5   4    5.11    0.30
  -6  -5   4    5.17    0.31
   6  -5  -4    4.99    0.30
  -6  -5   4    5.50    0.32
  -6   5   4    5.17    0.34
   6   5  -4    5.38    0.29
  -6   5   4    5.25    0.34
   6   5  -4    5.47    0.28
  -5  -5   4    7.28    0.40
   5  -5  -4    6.98    0.39
  -5  -5   4    7.02    0.39
  -5  -5   4    6.94    0.38
  -5   5   4    7.36    0.43
  -5   5   4    6.69    0.42
   5   5  -4    6.37    0.40
   5   5  -4    6.86    0.36
   5   5  -4    7.02    0.36
   4  -5  -4    1.38    0.14
  -4  -5   4    1.30    0.13
  -4  -5   4    1.34    0.14
  -4  -5   4    1.29    0.14
   4   5  -4    1.17    0.11
   4   5  -4    1.37    0.12
   4   5  -4    1.05    0.17
  -4   5   4    1.48    0.19
  -4   5   4    1.16    0.17
  -3  -5   4   14.24    0.70
  -3  -5   4   14.27    0.69
   3  -5  -4   14.12    0.70
  -3  -5   4   14.35    0.71
   3   5  -4   13.68    0.72
   3   5  -4   13.94    0.67
   3   5  -4   13.97    0.67
  -3   5   4   14.43    0.74
  -3   5   4   13.10    0.73
  -2  -5   4    0.07    0.06
   2  -5  -4   -0.02    0.06
  -2  -5   4    0.01    0.06
  -2  -5   4   -0.01    0.06
   2  -5  -4    0.08    0.08
  -2   5   4    0.09    0.10
  -2   5   4    0.13    0.10
   2   5  -4    0.02    0.09
   2   5  -4    0.08    0.05
   2   5  -4   -0.05    0.04
  -2   5   4   -0.01    0.05
  -1  -5   4   13.49    0.66
  -1  -5   4   13.66    0.65
   1  -5  -4   13.39    0.64
  -1  -5   4   13.06    0.64
   1   5  -4   10.84    0.61
  -1   5   4   13.15    0.63
   1   5  -4   13.20    0.67
  -1   5   4   12.63    0.63
   0  -5  -4    0.69    0.10
   0  -5  -4    0.76    0.12
   0  -5   4    0.56    0.10
   0  -5   4    0.80    0.11
   0  -5  -4    0.71    0.11
   0   5   4    0.69    0.22
   0   5   4    0.78    0.10
   0   5  -4    0.86    0.14
   0   5   4    0.70    0.09
   1  -5   4    0.66    0.11
  -1  -5  -4    0.69    0.10
   1  -5   4    0.66    0.10
  -1  -5  -4    0.61    0.11
  -1  -5  -4    0.65    0.11
   1   5   4    0.65    0.09
   1   5   4    0.69    0.23
   1   5   4    0.67    0.09
  -1   5  -4    0.49    0.12
  -1   5  -4    0.73    0.14
  -2  -5  -4   20.09    0.96
   2  -5   4   20.05    0.97
  -2  -5  -4   20.18    0.97
   2  -5   4   19.73    0.97
  -2  -5  -4   20.09    0.96
   2   5   4   19.97    0.95
   2   5   4   20.84    0.96
  -2   5  -4   19.97    0.99
  -2   5  -4   19.64    0.99
  -3  -5  -4    2.72    0.19
   3  -5   4    2.46    0.18
  -3  -5  -4    2.38    0.18
   3  -5   4    2.46    0.18
  -3  -5  -4    2.60    0.19
  -3   5  -4    2.43    0.23
  -3   5  -4    2.50    0.20
   3   5   4    2.75    0.18
   3   5   4    2.43    0.17
   4  -5   4    0.79    0.10
  -4  -5  -4    0.81    0.10
   4  -5   4    0.79    0.11
  -4  -5  -4    0.75    0.12
  -4  -5  -4    0.79    0.11
   4   5   4    0.66    0.09
  -4   5  -4    0.75    0.14
   4   5   4    0.74    0.09
  -4   5  -4    0.91    0.14
  -5  -5  -4    3.26    0.21
  -5  -5  -4    3.30    0.20
  -5  -5  -4    3.31    0.21
   5  -5   4    3.42    0.21
  -5   5  -4    3.43    0.24
   5   5   4    2.95    0.19
   5   5   4    3.12    0.19
  -6  -5  -4    4.94    0.27
   6  -5   4    4.84    0.27
  -6  -5  -4    4.74    0.26
  -6   5  -4    5.35    0.30
  -7  -5  -4    0.35    0.06
   7  -5   4    0.35    0.06
  -7   5  -4    0.50    0.10
   7  -6  -4    0.69    0.09
  -7  -6   4    0.94    0.10
  -7   6   4    0.83    0.12
  -7   6   4    0.79    0.12
   7   6  -4    0.93    0.07
  -6  -6   4    0.50    0.09
  -6  -6   4    0.39    0.08
   6  -6  -4    0.22    0.07
   6   6  -4    0.40    0.06
  -6   6   4    0.36    0.10
  -6   6   4    0.74    0.13
  -5  -6   4    1.74    0.15
  -5  -6   4    1.84    0.14
   5  -6  -4    1.46    0.14
   5   6  -4    1.65    0.11
  -5   6   4    1.56    0.18
   5   6  -4    1.77    0.17
  -5   6   4    1.74    0.19
   5   6  -4    1.54    0.16
  -4  -6   4    0.36    0.07
  -4  -6   4    0.27    0.08
   4  -6  -4    0.27    0.07
  -4  -6   4    0.16    0.08
   4   6  -4    0.13    0.10
   4   6  -4    0.38    0.06
  -4   6   4    0.28    0.11
  -3  -6   4    8.63    0.45
  -3  -6   4    8.79    0.45
   3  -6  -4    8.24    0.45
  -3  -6   4    9.27    0.47
   3   6  -4    9.25    0.48
   3   6  -4    8.16    0.42
  -3   6   4    9.41    0.49
   2  -6  -4    8.80    0.47
  -2  -6   4    8.55    0.46
  -2  -6   4    9.14    0.48
  -2   6   4    9.39    0.51
   2   6  -4    9.54    0.49
   1  -6  -4    7.14    0.37
  -1  -6   4    7.65    0.40
  -1  -6   4    6.85    0.38
  -1   6   4    6.56    0.36
   1   6  -4    7.50    0.41
  -1   6   4    7.09    0.42
   0  -6   4    0.78    0.11
   0  -6  -4    0.71    0.10
   0  -6   4    0.64    0.10
   0   6   4    0.70    0.09
   0   6   4    0.80    0.15
   0   6  -4    0.84    0.13
   0   6   4    0.76    0.10
  -1  -6  -4    0.86    0.11
   1  -6   4    0.70    0.10
  -1  -6  -4    0.71    0.10
   1  -6   4    0.69    0.11
   1   6   4    0.69    0.09
   1   6   4    0.87    0.15
  -1   6  -4    0.84    0.14
   1   6   4    0.67    0.10
  -1   6  -4    0.69    0.12
   2  -6   4    0.40    0.08
  -2  -6  -4    0.63    0.10
   2  -6   4    0.54    0.09
  -2  -6  -4    0.51    0.09
  -2   6  -4    0.46    0.11
   2   6   4    0.52    0.08
   2   6   4    0.65    0.13
   2   6   4    0.43    0.09
  -2   6  -4    0.54    0.11
  -3  -6  -4    3.01    0.18
   3  -6   4    2.61    0.18
  -3  -6  -4    3.05    0.18
   3  -6   4    3.05    0.18
   3   6   4    2.89    0.17
   3   6   4    2.43    0.22
   3   6   4    2.78    0.22
  -3   6  -4    2.85    0.20
  -3   6  -4    2.74    0.21
  -4  -6  -4    0.55    0.09
   4  -6   4    0.45    0.08
  -4  -6  -4    0.50    0.08
  -4   6  -4    0.41    0.09
  -4   6  -4    0.21    0.09
   4   6   4    0.49    0.07
  -5  -6  -4    0.73    0.07
   5  -6   4    0.82    0.08
  -5  -6  -4    0.91    0.08
  -5   6  -4    0.95    0.11
  -3  -7   4    0.82    0.09
  -3   7   4    0.92    0.12
   3   7  -4    0.97    0.10
  -2  -7   4    0.04    0.05
   2   7  -4    0.17    0.07
  -2   7   4    0.14    0.07
  -1  -7   4    1.12    0.10
  -1   7   4    1.26    0.13
   1   7  -4    1.46    0.12
   0  -7   4   -0.01    0.04
   0   7  -4    0.01    0.06
   0   7   4   -0.03    0.07
   0   7   4   -0.05    0.07
  -1   7  -4    2.60    0.16
 -13   0   5    1.94    0.15
 -13   0   5    1.75    0.14
 -13   0   5    1.66    0.14
  12   0  -5   17.79    0.80
 -12   0   5   17.70    0.85
 -12   0   5   17.62    0.85
  12   0  -5   16.65    0.80
 -12   0   5   16.52    0.85
 -12   0   5   18.83    0.86
 -12   0   5   16.31    0.84
 -11   0   5   11.03    0.60
 -11   0   5   10.75    0.58
  11   0  -5   11.01    0.53
 -11   0   5   11.57    0.59
 -11   0   5   11.10    0.60
 -11   0   5   10.76    0.59
  11   0  -5   11.28    0.53
 -10   0   5    6.47    0.39
 -10   0   5    6.72    0.40
 -10   0   5    6.63    0.40
 -10   0   5    6.02    0.40
  10   0  -5    6.35    0.33
  10   0  -5    7.02    0.34
 -10   0   5    6.96    0.39
  -9   0   5    0.03    0.07
   9   0  -5    0.01    0.04
   9   0  -5    0.09    0.10
   9   0  -5   -0.01    0.03
  -9   0   5    0.00    0.07
  -9   0   5   -0.05    0.07
  -9   0   5    0.12    0.08
  -9   0   5   -0.06    0.06
  -8   0   5    0.04    0.06
   8   0  -5   -0.01    0.03
   8   0  -5    0.03    0.08
  -8   0   5   -0.06    0.06
  -8   0   5   -0.02    0.05
  -8   0   5    0.01    0.07
  -8   0   5    0.01    0.07
   8   0  -5    0.03    0.04
  -7   0   5   33.62    1.57
  -7   0   5   31.20    1.56
   7   0  -5   35.07    1.62
   7   0  -5   31.69    1.52
   7   0  -5   35.00    1.52
   6   0  -5    0.15    0.03
   6   0  -5    0.15    0.08
  -6   0   5    0.13    0.05
   6   0  -5    0.12    0.10
   5   0  -5    2.58    0.37
  -5   0   5    2.43    0.16
   5   0  -5    2.63    0.20
   5   0  -5    2.46    0.26
   5   0  -5    2.67    0.14
   4   0  -5   17.93    0.97
   4   0  -5   18.20    1.12
   4   0  -5   18.28    0.88
   4   0  -5   16.72    0.81
   3   0  -5    1.00    0.15
   3   0  -5    0.97    0.11
  -3   0   5    1.06    0.15
   3   0  -5    1.22    0.21
   2   0  -5    0.30    0.10
  -2   0   5    0.29    0.08
   2   0  -5    0.27    0.07
   2   0  -5    0.33    0.11
  -2   0   5    0.38    0.10
  -1   0   5    0.97    0.11
   1   0  -5    0.75    0.12
  -1   0   5    0.94    0.15
   1   0  -5    1.11    0.16
  -1   0   5    0.79    0.14
   0   0   5   25.46    1.19
   0   0  -5   23.06    1.19
   0   0   5   23.38    1.11
   0   0   5   25.78    1.27
   1   0   5   23.61    1.12
   1   0   5   22.57    1.04
   1   0   5   22.26    1.19
   2   0   5   20.55    0.95
   2   0   5   21.41    1.12
  -2   0  -5   18.87    0.98
   2   0   5   22.06    1.03
   3   0   5   36.46    1.69
   3   0   5   40.64    1.79
  -3   0  -5   35.77    1.73
   3   0   5   36.76    1.88
   4   0   5    0.11    0.11
  -4   0  -5    0.19    0.08
  -4   0  -5    0.05    0.10
  -4   0  -5    0.12    0.07
   4   0   5    0.15    0.08
  -4   0  -5    0.11    0.07
  -4   0  -5    0.20    0.08
   4   0   5    0.15    0.03
  -4   0  -5    0.17    0.07
  -5   0  -5    0.74    0.13
  -5   0  -5    0.85    0.12
  -5   0  -5    0.85    0.14
   5   0   5    0.91    0.15
   5   0   5    0.80    0.07
  -5   0  -5    0.86    0.13
  -5   0  -5    0.87    0.13
  -5   0  -5    0.93    0.13
  -6   0  -5    6.97    0.40
  -6   0  -5    6.26    0.36
  -6   0  -5    6.37    0.38
  -6   0  -5    6.52    0.38
   6   0   5    6.26    0.42
   6   0   5    6.33    0.32
  -6   0  -5    6.01    0.38
  -6   0  -5    6.90    0.39
  -7   0  -5    8.77    0.48
  -7   0  -5    8.45    0.44
   7   0   5    8.12    0.41
  -7   0  -5    8.65    0.47
  -7   0  -5    8.25    0.47
  -7   0  -5    8.07    0.46
  -7   0  -5    8.83    0.48
  -8   0  -5   45.50    2.01
  -8   0  -5   43.95    2.03
  -8   0  -5   43.32    2.01
  -8   0  -5   41.26    2.01
   8   0   5   42.45    1.96
  -8   0  -5   43.14    2.01
  -9   0  -5    3.23    0.21
  -9   0  -5    3.49    0.23
  -9   0  -5    3.16    0.21
  -9   0  -5    3.02    0.21
 -13  -1   5    7.15    0.43
 -13  -1   5    8.80    0.41
 -13  -1   5    7.07    0.40
 -13   1   5    7.92    0.40
 -13   1   5    8.90    0.41
 -13   1   5    8.13    0.40
 -13   1   5    8.16    0.41
  12  -1  -5    2.56    0.14
 -12  -1   5    2.70    0.19
 -12  -1   5    2.50    0.19
 -12  -1   5    2.56    0.20
 -12  -1   5    2.46    0.20
  12   1  -5    2.43    0.14
 -12   1   5    2.68    0.19
 -12   1   5    2.51    0.20
 -12   1   5    2.58    0.20
 -12   1   5    2.70    0.19
 -12   1   5    2.54    0.20
 -11  -1   5    6.84    0.38
  11  -1  -5    6.24    0.32
  11  -1  -5    6.29    0.32
 -11  -1   5    6.40    0.38
 -11  -1   5    6.09    0.37
 -11  -1   5    6.16    0.38
  11   1  -5    5.87    0.31
 -11   1   5    6.56    0.37
 -11   1   5    6.53    0.38
 -11   1   5    6.20    0.38
  11   1  -5    6.36    0.32
 -11   1   5    6.30    0.38
 -11   1   5    6.79    0.38
  10  -1  -5    3.97    0.22
 -10  -1   5    4.26    0.28
  10  -1  -5    4.09    0.23
 -10  -1   5    4.04    0.28
 -10  -1   5    3.72    0.28
 -10  -1   5    4.37    0.30
 -10  -1   5    4.35    0.29
 -10   1   5    4.29    0.29
 -10   1   5    4.08    0.29
 -10   1   5    3.75    0.28
 -10   1   5    4.07    0.28
  10   1  -5    4.13    0.22
 -10   1   5    4.49    0.29
  10   1  -5    4.03    0.22
   9  -1  -5    7.46    0.53
  -9  -1   5    8.45    0.47
   9  -1  -5    8.29    0.40
   9  -1  -5    8.20    0.41
  -9  -1   5    7.95    0.45
  -9  -1   5    8.31    0.46
  -9  -1   5    8.74    0.47
  -9  -1   5    8.33    0.46
  -9   1   5    8.41    0.46
   9   1  -5    6.87    0.49
   9   1  -5    8.86    0.41
  -9   1   5    7.95    0.47
  -9   1   5    8.55    0.47
  -9   1   5    8.41    0.47
   9   1  -5    7.73    0.40
  -9   1   5    8.70    0.47
  -8  -1   5    4.66    0.30
   8  -1  -5    4.62    0.25
  -8  -1   5    4.92    0.31
   8  -1  -5    4.93    0.37
  -8  -1   5    5.22    0.31
  -8  -1   5    4.85    0.31
  -8  -1   5    4.65    0.30
   8  -1  -5    5.12    0.26
  -8   1   5    5.26    0.31
  -8   1   5    4.85    0.32
  -8   1   5    4.85    0.31
  -8   1   5    4.49    0.31
   8   1  -5    5.19    0.35
   8   1  -5    4.89    0.26
  -8   1   5    5.18    0.31
   8   1  -5    5.07    0.26
  -8   1   5    4.73    0.30
  -7  -1   5    1.45    0.14
   7  -1  -5    1.49    0.10
   7  -1  -5    1.10    0.26
   7  -1  -5    1.30    0.17
  -7  -1   5    1.45    0.13
   7  -1  -5    1.40    0.09
  -7  -1   5    1.30    0.13
  -7  -1   5    1.40    0.14
   7   1  -5    1.42    0.09
   7   1  -5    1.25    0.10
  -7   1   5    1.28    0.13
   7   1  -5    1.28    0.16
   7   1  -5    1.29    0.25
  -7   1   5    1.06    0.14
  -7   1   5    1.20    0.14
  -7   1   5    1.39    0.13
   6  -1  -5   22.30    1.29
   6  -1  -5   24.17    1.07
   6  -1  -5   24.80    1.18
  -6  -1   5   23.23    1.11
   6  -1  -5   23.19    1.07
  -6   1   5   22.85    1.11
   6   1  -5   24.92    1.16
   6   1  -5   22.87    1.26
   6   1  -5   22.31    1.07
  -5  -1   5   27.05    1.29
   5  -1  -5   29.43    1.35
   5  -1  -5   27.59    1.46
   5  -1  -5   25.59    1.64
   5  -1  -5   29.44    1.26
   5   1  -5   25.60    1.60
   5   1  -5   28.68    1.44
   5   1  -5   27.02    1.26
  -5   1   5   26.05    1.29
   5   1  -5   30.34    1.35
   4  -1  -5    0.08    0.07
   4  -1  -5    0.05    0.13
   4  -1  -5    0.07    0.03
   4  -1  -5    0.10    0.06
   4   1  -5    0.08    0.03
   4   1  -5    0.08    0.07
   4   1  -5    0.09    0.06
   4   1  -5    0.08    0.12
   3  -1  -5    0.82    0.14
   3  -1  -5    0.59    0.10
   3  -1  -5    0.71    0.19
   3   1  -5    0.68    0.17
   3   1  -5    0.70    0.10
  -3   1   5    0.57    0.11
  -3   1   5    0.67    0.14
   3   1  -5    0.77    0.13
   3   1  -5    0.69    0.06
   2  -1  -5   43.34    2.09
  -2  -1   5   37.68    1.93
   2  -1  -5   35.22    1.91
   2   1  -5   41.37    1.93
  -2   1   5   38.72    1.86
   2   1  -5   38.21    1.97
  -2   1   5   39.43    1.79
   2   1  -5   39.28    1.84
  -2   1   5   41.12    1.95
  -1  -1   5   10.00    0.63
   1  -1  -5   10.46    0.70
  -1  -1   5   10.26    0.56
   1   1  -5    9.69    0.59
  -1   1   5   10.45    0.62
  -1   1   5   10.31    0.48
   1   1  -5   10.11    0.60
  -1   1   5   10.56    0.56
   0  -1   5    9.17    0.59
   0  -1  -5    8.62    0.60
   0  -1   5    8.63    0.43
   0  -1   5    9.07    0.51
   0   1   5    9.53    0.50
   0   1   5    8.83    0.43
   0   1   5    9.97    0.57
   1  -1   5   69.28    3.19
   1  -1   5   70.64    3.28
   1  -1   5   69.97    3.39
   1   1   5   71.77    3.35
  -1   1  -5   75.27    3.24
   1   1   5   68.04    3.19
   1   1   5   71.41    3.27
   2  -1   5    2.38    0.28
   2  -1   5    2.18    0.13
   2  -1   5    2.22    0.20
   2   1   5    2.31    0.19
   2   1   5    2.34    0.24
   2   1   5    2.19    0.12
  -2   1  -5    2.35    0.17
   3  -1   5    2.51    0.15
   3  -1   5    2.63    0.15
   3  -1   5    2.52    0.31
   3  -1   5    3.05    0.25
   3   1   5    2.78    0.26
  -3   1  -5    2.82    0.19
   3   1   5    3.07    0.22
   3   1   5    2.55    0.14
   4  -1   5    0.48    0.13
  -4  -1  -5    0.61    0.10
  -4  -1  -5    0.44    0.10
  -4  -1  -5    0.50    0.09
  -4  -1  -5    0.54    0.11
   4  -1   5    0.55    0.06
   4  -1   5    0.52    0.06
  -4  -1  -5    0.38    0.08
  -4   1  -5    0.46    0.10
  -4   1  -5    0.56    0.10
  -4   1  -5    0.64    0.11
   4   1   5    0.56    0.11
  -4   1  -5    0.54    0.11
  -4   1  -5    0.57    0.10
  -4   1  -5    0.40    0.10
   5  -1   5   19.19    1.00
   5  -1   5   17.74    0.86
   5  -1   5   18.84    0.86
  -5  -1  -5   18.53    0.91
  -5  -1  -5   19.14    0.92
  -5  -1  -5   18.40    0.90
  -5  -1  -5   18.02    0.89
  -5   1  -5   18.76    0.92
  -5   1  -5   17.22    0.90
  -5   1  -5   17.73    0.93
  -5   1  -5   18.96    0.92
  -5   1  -5   16.59    0.89
  -5   1  -5   18.76    0.90
   5   1   5   19.19    0.95
  -5   1  -5   19.67    0.93
  -6  -1  -5    5.58    0.33
  -6  -1  -5    5.74    0.35
   6  -1   5    5.67    0.28
   6  -1   5    4.72    0.40
  -6  -1  -5    5.53    0.31
   6  -1   5    5.33    0.28
  -6  -1  -5    5.67    0.33
  -6   1  -5    5.62    0.34
  -6   1  -5    5.65    0.35
  -6   1  -5    4.83    0.32
  -6   1  -5    5.16    0.32
  -6   1  -5    5.31    0.34
   6   1   5    5.55    0.36
  -6   1  -5    5.50    0.34
  -6   1  -5    5.62    0.35
  -7  -1  -5   10.69    0.57
  -7  -1  -5   10.43    0.58
   7  -1   5   10.61    0.52
   7  -1   5   10.99    0.53
  -7  -1  -5   11.33    0.57
  -7  -1  -5   10.29    0.55
  -7   1  -5   11.25    0.59
  -7   1  -5   11.04    0.60
  -7   1  -5   11.17    0.58
  -7   1  -5   11.38    0.59
  -7   1  -5   10.35    0.57
  -8  -1  -5   19.01    0.92
   8  -1   5   18.44    0.87
   8  -1   5   18.39    0.87
  -8  -1  -5   18.27    0.90
  -8  -1  -5   18.14    0.90
  -8   1  -5   19.88    0.92
  -8   1  -5   17.77    0.92
  -8   1  -5   19.59    0.92
  -8   1  -5   18.62    0.92
  -8   1  -5   18.73    0.93
  -9  -1  -5    1.82    0.15
  -9  -1  -5    2.03    0.17
   9  -1   5    1.75    0.11
  -9   1  -5    1.93    0.17
  -9   1  -5    2.01    0.16
  -9   1  -5    1.76    0.16
  -9   1  -5    1.94    0.16
 -12  -2   5    0.19    0.08
 -12  -2   5    0.16    0.08
  12  -2  -5    0.10    0.03
 -12  -2   5    0.14    0.08
 -12   2   5    0.03    0.07
 -12   2   5    0.09    0.07
 -12   2   5    0.00    0.08
  12   2  -5    0.12    0.03
 -11  -2   5    6.99    0.38
 -11  -2   5    6.83    0.38
 -11  -2   5    6.02    0.38
  11  -2  -5    6.11    0.34
  11  -2  -5    6.88    0.33
 -11  -2   5    7.23    0.40
 -11   2   5    6.47    0.38
 -11   2   5    6.96    0.39
  11   2  -5    6.95    0.33
 -11   2   5    7.01    0.38
  11   2  -5    6.58    0.33
 -11   2   5    7.17    0.38
 -11   2   5    6.25    0.39
 -11   2   5    6.48    0.39
  10  -2  -5    8.34    0.42
  10  -2  -5    8.16    0.42
 -10  -2   5    8.91    0.47
 -10  -2   5    9.05    0.49
 -10  -2   5    8.41    0.48
 -10  -2   5    8.96    0.48
  10   2  -5    7.95    0.42
 -10   2   5    8.97    0.48
 -10   2   5    8.85    0.49
 -10   2   5    8.31    0.48
 -10   2   5    8.21    0.46
  10   2  -5    8.75    0.42
 -10   2   5    8.53    0.49
 -10   2   5    8.84    0.48
   9  -2  -5    4.17    0.43
  -9  -2   5    5.74    0.34
   9  -2  -5    5.65    0.28
  -9  -2   5    5.55    0.33
   9  -2  -5    5.42    0.27
  -9  -2   5    5.26    0.33
  -9  -2   5    5.41    0.34
  -9   2   5    5.33    0.33
  -9   2   5    5.21    0.35
  -9   2   5    5.60    0.35
  -9   2   5    5.46    0.34
   9   2  -5    5.54    0.29
  -9   2   5    4.76    0.32
   9   2  -5    4.49    0.37
  -9   2   5    5.18    0.33
   9   2  -5    5.65    0.28
   8  -2  -5   10.21    0.46
  -8  -2   5    9.60    0.52
  -8  -2   5    9.63    0.52
  -8  -2   5    9.90    0.51
   8  -2  -5    9.75    0.47
  -8  -2   5   10.13    0.52
   8   2  -5    9.27    0.56
  -8   2   5    9.04    0.51
  -8   2   5    9.39    0.54
  -8   2   5    9.71    0.52
  -8   2   5    9.29    0.51
  -8   2   5    9.45    0.53
   8   2  -5    9.16    0.47
   8   2  -5    9.88    0.47
  -8   2   5    8.73    0.52
  -7  -2   5    0.54    0.09
   7  -2  -5    0.45    0.06
  -7  -2   5    0.48    0.09
   7  -2  -5    0.55    0.06
  -7  -2   5    0.50    0.09
   7  -2  -5    0.39    0.14
  -7  -2   5    0.74    0.11
  -7   2   5    0.48    0.10
   7   2  -5    0.44    0.07
  -7   2   5    0.29    0.08
   7   2  -5    0.39    0.06
   7   2  -5    0.36    0.11
  -7   2   5    0.51    0.11
  -7   2   5    0.49    0.11
  -7   2   5    0.69    0.14
   6  -2  -5   16.22    0.73
  -6  -2   5   16.96    0.77
   6  -2  -5   16.49    0.72
  -6  -2   5   15.02    0.76
  -6  -2   5   15.33    0.76
   6  -2  -5   15.36    0.85
   6   2  -5   14.71    0.73
   6   2  -5   15.78    0.73
  -6   2   5   15.41    0.79
  -6   2   5   14.52    0.75
   6   2  -5   16.75    0.83
   6   2  -5   14.49    0.91
  -6   2   5   14.60    0.76
   5  -2  -5    8.19    0.39
   5  -2  -5    8.03    0.39
  -5  -2   5    8.43    0.43
   5   2  -5    8.44    0.40
   5   2  -5    7.66    0.40
   5   2  -5    8.09    0.48
   5   2  -5    8.17    0.56
  -4  -2   5   32.48    1.46
   4  -2  -5   30.25    1.86
   4   2  -5   32.44    1.53
   4   2  -5   33.71    1.44
   4   2  -5   31.68    1.62
   4   2  -5   28.81    1.77
  -3  -2   5    2.82    0.17
   3  -2  -5    3.07    0.41
   3   2  -5    3.32    0.24
  -3   2   5    2.73    0.24
  -3   2   5    2.59    0.16
   3   2  -5    2.77    0.35
   3   2  -5    2.89    0.29
   3   2  -5    3.05    0.16
  -3   2   5    3.08    0.30
   2  -2  -5   33.27    1.90
  -2  -2   5   32.41    1.53
  -2   2   5   33.71    1.62
  -2   2   5   32.09    1.70
   2   2  -5   34.37    1.76
   2   2  -5   31.89    1.51
  -2   2   5   33.96    1.52
   2   2  -5   34.17    1.60
   2   2  -5   34.30    1.70
  -1  -2   5   18.56    0.90
   1  -2  -5   19.99    1.23
   1   2  -5   18.78    1.05
  -1   2   5   19.43    0.98
  -1   2   5   18.36    1.05
  -1   2   5   20.18    0.89
   0  -2   5   44.30    2.19
   0  -2   5   46.27    2.33
   0  -2   5   44.10    2.09
   0  -2  -5   45.34    2.43
   0  -2   5   48.32    2.12
   0   2   5   49.44    2.20
   0   2   5   44.71    2.10
   0   2   5   48.22    2.28
   1  -2   5    1.15    0.22
  -1  -2  -5    0.83    0.23
   1  -2   5    0.86    0.07
   1  -2   5    0.98    0.14
   1  -2   5    1.00    0.08
   1  -2   5    0.94    0.08
   1   2   5    0.96    0.16
   1   2   5    0.93    0.07
   1   2   5    1.02    0.13
   2  -2   5   15.41    1.01
   2  -2   5   17.06    0.77
   2  -2   5   16.55    0.77
   2  -2   5   17.07    0.89
   2   2   5   16.37    0.76
   2   2   5   17.71    0.86
  -2   2  -5   16.09    0.81
   2   2   5   16.00    0.92
   3  -2   5   16.01    0.88
  -3  -2  -5   15.16    0.79
  -3  -2  -5   15.45    0.78
   3  -2   5   15.72    0.74
  -3  -2  -5   14.93    0.76
   3  -2   5   16.47    0.75
  -3  -2  -5   15.45    0.77
   3   2   5   15.54    0.73
  -3   2  -5   15.32    0.78
   3   2   5   17.20    0.83
  -3   2  -5   16.10    0.78
  -3   2  -5   16.66    0.80
  -3   2  -5   16.47    0.80
  -3   2  -5   15.35    0.79
  -4  -2  -5   -0.02    0.05
   4  -2   5    0.00    0.04
   4  -2   5    0.08    0.04
  -4  -2  -5    0.07    0.07
   4  -2   5    0.06    0.11
  -4  -2  -5   -0.01    0.06
  -4  -2  -5    0.01    0.06
  -4   2  -5    0.04    0.08
  -4   2  -5    0.06    0.08
  -4   2  -5   -0.04    0.08
  -4   2  -5    0.08    0.08
  -4   2  -5    0.07    0.07
  -4   2  -5    0.07    0.08
   4   2   5    0.02    0.07
  -4   2  -5    0.03    0.06
   5  -2   5   10.83    0.50
  -5  -2  -5   10.69    0.53
  -5  -2  -5    9.41    0.52
   5  -2   5   10.39    0.50
   5  -2   5    9.23    0.64
  -5  -2  -5   10.45    0.54
  -5  -2  -5   10.53    0.55
  -5   2  -5   10.63    0.54
  -5   2  -5   10.16    0.54
  -5   2  -5   10.19    0.56
   5   2   5    9.91    0.57
  -5   2  -5   10.11    0.56
  -5   2  -5    9.97    0.56
  -5   2  -5   10.02    0.56
  -5   2  -5   10.10    0.54
   6  -2   5    0.47    0.07
  -6  -2  -5    0.31    0.08
  -6  -2  -5    0.42    0.10
   6  -2   5    0.42    0.07
  -6  -2  -5    0.23    0.08
  -6  -2  -5    0.50    0.10
  -6   2  -5    0.50    0.11
  -6   2  -5    0.27    0.10
  -6   2  -5    0.64    0.12
  -6   2  -5    0.33    0.10
  -6   2  -5    0.36    0.11
  -6   2  -5    0.54    0.11
   7  -2   5    0.33    0.06
  -7  -2  -5    0.44    0.10
  -7  -2  -5    0.36    0.10
   7  -2   5    0.36    0.06
  -7  -2  -5    0.31    0.08
  -7   2  -5    0.33    0.09
  -7   2  -5    0.26    0.10
  -7   2  -5    0.36    0.11
  -7   2  -5    0.32    0.10
  -7   2  -5    0.30    0.11
  -8  -2  -5    2.33    0.19
   8  -2   5    2.42    0.16
  -8  -2  -5    2.39    0.19
   8  -2   5    2.19    0.17
   8  -2   5    2.82    0.15
  -8   2  -5    2.79    0.20
  -8   2  -5    3.02    0.21
  -8   2  -5    2.84    0.21
  -8   2  -5    2.58    0.21
  -8   2  -5    2.77    0.21
   9  -2   5    5.96    0.30
  -9   2  -5    6.18    0.34
  -9   2  -5    5.71    0.32
  -9   2  -5    6.35    0.32
  -9   2  -5    6.20    0.33
  12  -3  -5    0.19    0.05
 -12  -3   5    0.13    0.05
 -12  -3   5    0.49    0.12
 -12   3   5    0.37    0.07
 -11  -3   5    2.63    0.18
 -11  -3   5    2.45    0.18
  11  -3  -5    2.07    0.13
  11  -3  -5    2.72    0.17
 -11   3   5    2.22    0.19
  11   3  -5    2.16    0.13
 -11   3   5    2.71    0.18
 -10  -3   5    4.03    0.25
  10  -3  -5    3.47    0.20
 -10  -3   5    3.92    0.26
 -10   3   5    3.86    0.26
  10   3  -5    4.02    0.21
 -10   3   5    3.64    0.27
  10   3  -5    3.87    0.21
  -9  -3   5    1.29    0.14
   9  -3  -5    1.13    0.09
  -9  -3   5    1.11    0.20
  -9  -3   5    1.15    0.14
  -9   3   5    1.40    0.18
   9   3  -5    1.13    0.10
  -9   3   5    0.96    0.16
   9   3  -5    1.18    0.10
  -8  -3   5   17.98    0.89
  -8  -3   5   17.72    0.89
  -8  -3   5   18.38    0.89
  -8  -3   5   17.81    0.89
   8  -3  -5   18.36    0.83
  -8  -3   5   16.12    0.85
   8   3  -5   18.05    0.85
  -8   3   5   18.28    0.91
  -8   3   5   19.33    0.93
   8   3  -5   18.36    0.84
  -8   3   5   18.73    0.90
   8   3  -5   16.55    0.95
  -7  -3   5    4.75    0.29
  -7  -3   5    4.56    0.30
  -7  -3   5    4.87    0.30
   7  -3  -5    4.59    0.24
  -7  -3   5    4.63    0.27
  -7  -3   5    4.82    0.29
  -7   3   5    4.72    0.30
  -7   3   5    5.04    0.32
  -7   3   5    4.65    0.33
   7   3  -5    4.47    0.35
   7   3  -5    4.51    0.26
   7   3  -5    5.32    0.26
  -6  -3   5   31.81    1.46
  -6  -3   5   29.68    1.45
  -6  -3   5   31.05    1.43
  -6  -3   5   30.91    1.45
  -6  -3   5   28.70    1.45
   6   3  -5   33.12    1.42
   6   3  -5   30.99    1.53
  -6   3   5   31.46    1.47
  -6   3   5   32.04    1.49
   6   3  -5   30.76    1.42
  -6   3   5   28.43    1.45
  -5  -3   5    4.86    0.30
  -5  -3   5    4.64    0.30
  -5  -3   5    5.06    0.29
  -5  -3   5    4.83    0.29
  -5  -3   5    5.08    0.28
   5   3  -5    5.52    0.27
  -5   3   5    5.31    0.32
   5   3  -5    5.32    0.27
   5   3  -5    5.14    0.36
  -5   3   5    4.74    0.29
  -4  -3   5   17.51    0.94
  -4  -3   5   19.91    0.93
  -4  -3   5   19.51    0.93
  -4  -3   5   20.23    0.92
   4   3  -5   18.19    1.11
   4   3  -5   19.71    0.90
   4   3  -5   19.90    0.91
   4   3  -5   20.39    1.02
  -4   3   5   19.01    0.96
  -3  -3   5    7.76    0.41
  -3   3   5    7.73    0.40
  -3   3   5    8.12    0.39
   3   3  -5    6.77    0.55
   3   3  -5    8.15    0.39
   3   3  -5    7.85    0.49
   3   3  -5    8.58    0.39
  -2  -3   5    3.81    0.23
   2   3  -5    3.83    0.21
  -2   3   5    3.91    0.39
   2   3  -5    3.50    0.29
  -2   3   5    4.02    0.32
   2   3  -5    4.02    0.21
  -2   3   5    4.06    0.22
  -2   3   5    3.81    0.22
  -1  -3   5   23.24    1.08
   1   3  -5   20.11    1.05
  -1   3   5   23.54    1.29
  -1   3   5   23.09    1.06
  -1   3   5   23.93    1.07
  -1   3   5   24.09    1.19
   0  -3   5    1.71    0.13
   0   3   5    1.52    0.11
   0   3   5    1.61    0.12
   0   3   5    1.66    0.25
   0   3   5    1.70    0.19
   1  -3   5   12.91    0.66
  -1  -3  -5   13.64    0.66
  -1  -3  -5   13.06    0.68
   1  -3   5   14.75    0.67
  -1  -3  -5   13.44    0.67
   1  -3   5   13.57    0.63
  -1  -3  -5   13.52    0.66
  -1   3  -5   13.72    0.68
   1   3   5   13.10    0.64
   1   3   5   13.21    0.83
   1   3   5   13.94    0.64
   1   3   5   13.97    0.76
  -1   3  -5   12.87    0.70
   2  -3   5    7.52    0.38
  -2  -3  -5    6.88    0.41
  -2  -3  -5    7.64    0.40
  -2  -3  -5    7.59    0.41
   2  -3   5    7.89    0.40
  -2  -3  -5    7.42    0.40
   2  -3   5    7.84    0.37
   2  -3   5    7.69    0.40
   2   3   5    7.97    0.49
   2   3   5    7.43    0.37
  -2   3  -5    7.52    0.43
  -2   3  -5    6.91    0.42
  -2   3  -5    7.48    0.42
   3  -3   5    3.22    0.19
   3  -3   5    3.04    0.21
  -3  -3  -5    3.14    0.21
  -3  -3  -5    3.30    0.23
  -3  -3  -5    3.49    0.22
  -3  -3  -5    3.49    0.23
   3  -3   5    3.16    0.18
  -3   3  -5    3.15    0.23
   3   3   5    3.28    0.18
  -3   3  -5    3.65    0.25
   3   3   5    3.26    0.28
  -3   3  -5    2.98    0.24
  -4  -3  -5    0.01    0.06
   4  -3   5    0.02    0.04
  -4  -3  -5    0.01    0.06
   4  -3   5    0.00    0.05
  -4  -3  -5   -0.03    0.07
  -4  -3  -5    0.08    0.06
   4  -3   5    0.03    0.06
  -4   3  -5   -0.04    0.07
   4   3   5    0.14    0.10
   4   3   5    0.03    0.04
  -4   3  -5   -0.01    0.07
  -4   3  -5    0.03    0.09
  -4   3  -5   -0.03    0.09
  -4   3  -5   -0.06    0.07
   5  -3   5    1.23    0.10
   5  -3   5    1.20    0.12
  -5  -3  -5    1.06    0.15
  -5  -3  -5    1.32    0.13
  -5  -3  -5    1.17    0.16
   5  -3   5    1.19    0.11
  -5  -3  -5    1.36    0.13
  -5   3  -5    1.12    0.16
  -5   3  -5    1.25    0.15
  -5   3  -5    1.50    0.17
  -5   3  -5    1.27    0.15
  -5   3  -5    1.23    0.18
  -5   3  -5    1.27    0.18
   6  -3   5    2.43    0.18
   6  -3   5    2.38    0.14
  -6  -3  -5    2.19    0.19
   6  -3   5    2.20    0.15
  -6  -3  -5    2.33    0.17
  -6  -3  -5    2.37    0.19
  -6  -3  -5    2.12    0.17
  -6   3  -5    2.47    0.21
  -6   3  -5    2.55    0.22
  -6   3  -5    2.15    0.19
  -6   3  -5    2.41    0.21
  -6   3  -5    1.98    0.18
   7  -3   5    4.43    0.23
  -7  -3  -5    3.87    0.25
  -7  -3  -5    3.89    0.24
  -7  -3  -5    4.22    0.26
   7  -3   5    3.86    0.23
   7  -3   5    4.20    0.25
  -7   3  -5    4.54    0.28
  -7   3  -5    4.50    0.28
  -7   3  -5    4.16    0.26
  -7   3  -5    4.71    0.28
   8  -3   5    1.46    0.10
   8  -3   5    1.18    0.12
   8  -3   5    1.55    0.12
  -8   3  -5    1.57    0.15
  -8   3  -5    1.66    0.15
  -8   3  -5    1.40    0.13
  -8   3  -5    1.56    0.14
 -11  -4   5    4.10    0.23
  11  -4  -5    4.06    0.23
 -11   4   5    4.74    0.25
  10  -4  -5    0.05    0.05
 -10  -4   5    0.20    0.08
 -10  -4   5    0.18    0.07
 -10   4   5    0.11    0.07
  10   4  -5    0.16    0.04
 -10   4   5    0.07    0.08
  -9  -4   5    0.29    0.09
   9  -4  -5    0.05    0.07
  -9  -4   5    0.22    0.08
  -9   4   5    0.06    0.08
  -9   4   5    0.29    0.09
   9   4  -5    0.20    0.05
   9   4  -5    0.23    0.05
  -8  -4   5    2.95    0.20
  -8  -4   5    2.81    0.22
  -8  -4   5    3.13    0.22
   8  -4  -5    3.33    0.22
   8   4  -5    3.20    0.18
  -8   4   5    3.49    0.27
   8   4  -5    2.96    0.18
  -8   4   5    2.98    0.26
  -7  -4   5    0.60    0.10
  -7  -4   5    0.68    0.11
  -7  -4   5    0.63    0.12
   7  -4  -5    0.64    0.12
  -7   4   5    0.53    0.12
   7   4  -5    0.64    0.08
   7   4  -5    0.54    0.08
  -6  -4   5    4.42    0.26
   6  -4  -5    4.16    0.27
  -6  -4   5    4.09    0.27
  -6  -4   5    4.19    0.27
   6   4  -5    4.52    0.24
  -6   4   5    4.35    0.31
   6   4  -5    4.19    0.24
   6   4  -5    4.03    0.36
  -6   4   5    4.05    0.30
   5  -4  -5    6.05    0.34
  -5  -4   5    6.26    0.34
  -5  -4   5    6.00    0.35
  -5  -4   5    6.11    0.35
   5   4  -5    5.91    0.32
   5   4  -5    6.51    0.32
   5   4  -5    5.22    0.43
  -5   4   5    5.84    0.38
  -5   4   5    5.92    0.37
  -4  -4   5   10.38    0.53
  -4  -4   5   10.62    0.54
   4  -4  -5    9.95    0.52
  -4  -4   5   10.56    0.52
   4   4  -5    9.29    0.62
   4   4  -5    9.42    0.53
   4   4  -5   10.55    0.51
  -4   4   5    9.81    0.56
   4   4  -5   10.91    0.51
  -4   4   5   10.60    0.56
   3  -4  -5   25.18    1.15
  -3  -4   5   25.07    1.15
  -3  -4   5   23.83    1.14
  -3  -4   5   22.71    1.15
   3   4  -5   22.80    1.16
   3   4  -5   24.73    1.12
  -3   4   5   24.56    1.12
  -3   4   5   23.92    1.18
   3   4  -5   24.78    1.13
  -2  -4   5    3.98    0.25
  -2  -4   5    3.98    0.24
   2  -4  -5    4.12    0.25
  -2  -4   5    4.16    0.25
  -2   4   5    4.25    0.28
   2   4  -5    4.13    0.27
  -2   4   5    4.00    0.24
   2   4  -5    3.77    0.22
   2   4  -5    3.93    0.22
  -2   4   5    4.12    0.23
   1  -4  -5   16.63    0.83
   1  -4  -5   16.21    0.82
   1  -4  -5   16.23    0.82
  -1  -4   5   18.08    0.83
  -1  -4   5   16.93    0.83
  -1   4   5   18.36    0.82
  -1   4   5   16.40    0.95
   1   4  -5   16.43    0.85
  -1   4   5   18.54    0.82
  -1   4   5   16.97    0.86
   0  -4   5    5.05    0.29
   0  -4   5    4.96    0.29
   0  -4  -5    5.24    0.29
   0  -4   5    5.45    0.30
   0  -4  -5    5.28    0.30
   0  -4  -5    5.01    0.29
   0   4  -5    4.95    0.32
   0   4  -5    4.72    0.30
   0   4   5    5.12    0.28
   0   4   5    5.31    0.42
   0   4   5    5.05    0.28
  -1  -4  -5   10.05    0.51
   1  -4   5   10.60    0.51
   1  -4   5    9.46    0.50
  -1  -4  -5    9.63    0.50
  -1  -4  -5    9.42    0.51
  -1  -4  -5    9.44    0.50
   1  -4   5    9.58    0.50
   1   4   5   10.21    0.49
   1   4   5    9.92    0.49
  -1   4  -5    9.90    0.53
  -1   4  -5    9.52    0.53
   1   4   5    9.72    0.63
   2  -4   5    4.41    0.27
  -2  -4  -5    4.26    0.28
  -2  -4  -5    4.84    0.28
  -2  -4  -5    4.48    0.27
   2  -4   5    4.60    0.27
  -2  -4  -5    4.46    0.28
   2   4   5    4.24    0.25
  -2   4  -5    4.50    0.29
  -2   4  -5    4.67    0.31
   2   4   5    4.50    0.25
   2   4   5    4.42    0.38
   3  -4   5    8.21    0.44
  -3  -4  -5    8.27    0.44
  -3  -4  -5    8.63    0.44
   3  -4   5    7.85    0.43
  -3  -4  -5    8.46    0.44
   3   4   5    8.49    0.42
  -3   4  -5    8.52    0.46
   3   4   5    6.92    0.52
  -3   4  -5    8.12    0.47
  -3   4  -5    8.08    0.46
   4  -4   5    3.14    0.22
  -4  -4  -5    3.55    0.23
   4  -4   5    3.16    0.19
  -4  -4  -5    3.51    0.22
  -4  -4  -5    3.10    0.22
   4  -4   5    3.63    0.22
  -4   4  -5    3.46    0.25
  -4   4  -5    3.62    0.27
  -4   4  -5    3.27    0.26
   4   4   5    3.53    0.20
   5  -4   5    3.21    0.18
  -5  -4  -5    3.54    0.22
  -5  -4  -5    3.45    0.22
   5  -4   5    3.44    0.21
  -5  -4  -5    3.35    0.22
   5  -4   5    3.18    0.22
  -5   4  -5    3.11    0.23
  -5   4  -5    3.47    0.25
  -5   4  -5    3.61    0.25
   5   4   5    3.18    0.20
  -6  -4  -5    3.10    0.19
  -6  -4  -5    3.34    0.20
   6  -4   5    2.68    0.19
   6  -4   5    3.43    0.19
   6  -4   5    2.60    0.16
  -6  -4  -5    3.02    0.19
  -6   4  -5    2.46    0.24
  -6   4  -5    2.82    0.22
  -6   4  -5    3.60    0.24
   6   4   5    2.83    0.17
  -7  -4  -5    0.61    0.08
  -7  -4  -5    0.49    0.07
   7  -4   5    0.70    0.09
  -7   4  -5    0.88    0.13
  -7   4  -5    0.85    0.12
  -9  -5   5    0.23    0.07
  -9  -5   5    0.22    0.07
   9  -5  -5    0.16    0.06
  -9   5   5    0.19    0.08
   9   5  -5    0.15    0.03
   9   5  -5    0.12    0.07
  -8  -5   5    0.36    0.08
   8  -5  -5    0.28    0.07
  -8  -5   5    0.38    0.08
   8   5  -5    0.36    0.06
  -8   5   5    0.23    0.10
   8   5  -5    0.37    0.06
  -7  -5   5    1.22    0.13
  -7  -5   5    1.01    0.13
   7  -5  -5    1.06    0.12
  -7  -5   5    0.91    0.11
  -7   5   5    0.82    0.14
   7   5  -5    1.20    0.10
   7   5  -5    0.97    0.10
  -7   5   5    1.08    0.17
  -6  -5   5    2.55    0.20
  -6  -5   5    2.62    0.19
  -6  -5   5    2.83    0.20
   6  -5  -5    2.71    0.19
  -6   5   5    2.76    0.24
  -6   5   5    2.88    0.24
   6   5  -5    2.66    0.17
   6   5  -5    2.55    0.17
  -5  -5   5    1.31    0.15
  -5  -5   5    1.36    0.13
  -5  -5   5    1.28    0.14
   5  -5  -5    1.51    0.14
   5   5  -5    1.22    0.17
  -5   5   5    1.24    0.19
   5   5  -5    1.28    0.11
   5   5  -5    1.36    0.12
  -5   5   5    1.45    0.17
  -4  -5   5    6.91    0.37
   4  -5  -5    6.11    0.36
  -4  -5   5    6.94    0.36
  -4  -5   5    6.69    0.38
  -4   5   5    6.63    0.40
   4   5  -5    6.82    0.34
  -4   5   5    6.06    0.40
   4   5  -5    6.43    0.39
   4   5  -5    6.31    0.34
  -3  -5   5    5.23    0.31
  -3  -5   5    5.23    0.30
  -3  -5   5    5.44    0.31
  -3   5   5    4.98    0.34
  -3   5   5    5.21    0.33
   3   5  -5    4.79    0.32
   3   5  -5    4.90    0.27
   3   5  -5    4.75    0.29
  -2  -5   5   24.12    1.16
  -2  -5   5   26.39    1.16
  -2  -5   5   23.84    1.14
   2   5  -5   24.74    1.18
  -2   5   5   23.70    1.18
   2   5  -5   23.20    1.12
  -2   5   5   24.25    1.13
  -1  -5   5    2.28    0.18
   1  -5  -5    2.35    0.18
  -1  -5   5    2.28    0.18
   1  -5  -5    2.28    0.17
   1   5  -5    2.76    0.22
  -1   5   5    2.18    0.22
  -1   5   5    2.31    0.17
  -1   5   5    2.31    0.16
   0  -5   5    0.42    0.09
   0  -5  -5    0.58    0.09
   0  -5   5    0.51    0.10
   0  -5  -5    0.68    0.12
   0  -5  -5    0.53    0.09
   0   5   5    0.71    0.09
   0   5  -5    0.62    0.12
   0   5   5    0.55    0.10
  -1  -5  -5   20.38    1.00
  -1  -5  -5   21.69    1.00
  -1  -5  -5   21.81    1.01
   1  -5   5   21.57    1.01
   1  -5   5   20.27    1.00
   1   5   5   20.67    1.00
  -1   5  -5   19.08    1.02
  -1   5  -5   21.90    1.03
   1   5   5   21.27    0.99
  -2  -5  -5    6.97    0.38
  -2  -5  -5    6.76    0.37
  -2  -5  -5    6.66    0.37
   2  -5   5    6.77    0.40
   2  -5   5    6.92    0.37
   2   5   5    6.47    0.36
   2   5   5    6.87    0.36
  -2   5  -5    6.96    0.40
  -2   5  -5    6.45    0.40
  -3  -5  -5    1.04    0.13
   3  -5   5    1.09    0.12
  -3  -5  -5    0.98    0.13
  -3  -5  -5    1.07    0.12
  -3   5  -5    1.19    0.17
   3   5   5    0.98    0.11
   3   5   5    1.13    0.11
  -3   5  -5    1.05    0.15
   4  -5   5    4.10    0.24
  -4  -5  -5    4.02    0.23
  -4  -5  -5    3.97    0.23
  -4  -5  -5    3.80    0.23
  -4   5  -5    3.40    0.24
   4   5   5    3.59    0.21
  -4   5  -5    3.71    0.26
   4   5   5    3.63    0.22
  -5  -5  -5    4.96    0.26
  -5  -5  -5    4.22    0.26
  -5  -5  -5    4.82    0.26
   5  -5   5    4.73    0.26
   5   5   5    4.56    0.25
  -5   5  -5    4.85    0.29
  -5   5  -5    4.79    0.33
  -6  -5  -5    3.70    0.21
   6  -5   5    3.94    0.22
  -6  -5  -5    3.79    0.21
  -6   5  -5    4.15    0.23
  -7  -6   5    1.03    0.10
   7  -6  -5    0.97    0.12
  -7   6   5    1.07    0.13
   7   6  -5    1.32    0.12
   6  -6  -5    0.62    0.09
  -6  -6   5    0.91    0.13
  -6  -6   5    0.76    0.10
  -6   6   5    0.69    0.13
  -6   6   5    0.61    0.11
   6   6  -5    0.72    0.07
  -5  -6   5    0.59    0.10
  -5  -6   5    0.39    0.08
   5  -6  -5    0.59    0.09
  -5   6   5    0.46    0.11
   5   6  -5    0.48    0.06
  -5   6   5    0.69    0.13
   5   6  -5    0.64    0.12
  -4  -6   5    3.22    0.21
  -4  -6   5    3.27    0.20
   4   6  -5    3.36    0.23
  -4   6   5    3.32    0.25
  -4   6   5    2.96    0.23
   4   6  -5    2.73    0.16
  -3  -6   5    0.55    0.11
  -3  -6   5    0.43    0.09
   3   6  -5    0.37    0.10
  -3   6   5    0.41    0.11
  -2  -6   5    1.73    0.15
  -2  -6   5    1.65    0.14
   2   6  -5    1.87    0.17
   2   6  -5    1.43    0.16
  -2   6   5    1.63    0.18
  -1  -6   5    2.57    0.18
   1  -6  -5    2.21    0.16
  -1  -6   5    2.43    0.17
  -1   6   5    2.13    0.14
   1   6  -5    2.35    0.19
  -1   6   5    2.47    0.21
   0  -6   5    0.84    0.11
   0  -6  -5    0.76    0.09
   0  -6   5    0.82    0.10
   0   6   5    0.76    0.15
   0   6   5    0.84    0.09
   0   6  -5    0.75    0.13
   1  -6   5    0.23    0.07
  -1  -6  -5    0.27    0.07
   1  -6   5    0.08    0.06
  -1  -6  -5    0.34    0.07
  -1   6  -5    0.10    0.09
   1   6   5    0.37    0.11
   1   6   5    0.26    0.06
   1   6   5    0.15    0.07
  -2  -6  -5    0.16    0.06
   2  -6   5    0.00    0.06
  -2  -6  -5    0.09    0.05
  -2   6  -5   -0.07    0.10
  -2   6  -5   -0.01    0.07
   2   6   5    0.03    0.04
  -3  -6  -5    0.77    0.08
  -3  -6  -5    0.71    0.09
   3  -6   5    0.84    0.10
  -3   6  -5    0.67    0.10
   3   6   5    0.72    0.08
  -3   6  -5    0.88    0.12
   3   6   5    0.77    0.13
  -4  -6  -5    0.16    0.05
   4  -6   5    0.13    0.05
  -4  -6  -5    0.21    0.05
  -4   6  -5    0.22    0.08
 -13   0   6    6.26    0.33
 -13   0   6    5.91    0.32
 -13   0   6    6.18    0.32
 -12   0   6    0.86    0.13
 -12   0   6    1.25    0.13
  12   0  -6    0.85    0.09
 -12   0   6    0.90    0.13
 -12   0   6    1.21    0.14
  12   0  -6    1.05    0.08
 -12   0   6    0.93    0.13
  11   0  -6    0.04    0.04
 -11   0   6   -0.03    0.07
 -11   0   6   -0.02    0.09
 -11   0   6    0.01    0.08
 -11   0   6    0.00    0.09
  11   0  -6    0.05    0.04
 -11   0   6    0.02    0.08
 -10   0   6    3.65    0.26
 -10   0   6    3.68    0.26
  10   0  -6    3.48    0.20
  10   0  -6    3.69    0.20
 -10   0   6    3.66    0.27
 -10   0   6    3.78    0.28
 -10   0   6    3.46    0.26
   9   0  -6   10.49    0.47
   9   0  -6    8.79    0.58
  -9   0   6    8.24    0.50
  -9   0   6    9.26    0.52
  -9   0   6    9.22    0.53
  -9   0   6    9.52    0.51
   9   0  -6    9.94    0.46
  -9   0   6   10.14    0.53
  -8   0   6    0.19    0.07
  -8   0   6    0.27    0.08
  -8   0   6    0.36    0.09
  -8   0   6    0.13    0.07
   8   0  -6    0.12    0.04
   8   0  -6    0.16    0.04
   8   0  -6    0.10    0.10
  -8   0   6    0.18    0.08
   7   0  -6   11.04    0.80
  -7   0   6    9.41    0.54
   7   0  -6   10.47    0.51
  -7   0   6   10.52    0.55
   7   0  -6   11.05    0.51
   7   0  -6   11.36    0.62
  -7   0   6   10.64    0.55
  -7   0   6   10.44    0.55
  -7   0   6   10.61    0.55
  -6   0   6    7.94    0.44
   6   0  -6    8.24    0.61
   6   0  -6    8.56    0.50
   6   0  -6    8.54    0.41
   6   0  -6    8.77    0.41
   5   0  -6    4.35    0.30
   5   0  -6    4.21    0.22
   5   0  -6    4.18    0.51
   5   0  -6    4.22    0.38
   5   0  -6    4.52    0.22
  -5   0   6    4.18    0.25
   4   0  -6   13.61    0.80
   4   0  -6   13.55    0.62
  -4   0   6   12.80    0.64
   4   0  -6   12.90    0.93
   4   0  -6   13.54    0.70
   3   0  -6    0.13    0.13
  -3   0   6    0.09    0.10
   3   0  -6    0.20    0.10
  -2   0   6   17.91    0.92
   2   0  -6   17.99    1.04
  -2   0   6   17.04    0.83
  -2   0   6   18.89    1.02
  -1   0   6   19.07    0.93
  -1   0   6   17.79    1.01
  -1   0   6   17.46    0.84
   0   0   6    6.85    0.41
   0   0   6    6.05    0.47
   0   0   6    6.43    0.32
   1   0   6    1.35    0.16
   1   0   6    1.37    0.21
   1   0   6    1.09    0.10
   1   0   6    1.14    0.08
   2   0   6   10.34    0.57
   2   0   6    9.61    0.46
   2   0   6    9.05    0.64
   3   0   6    2.19    0.21
  -3   0  -6    1.85    0.16
  -3   0  -6    1.48    0.17
   3   0   6    2.04    0.12
  -3   0  -6    1.82    0.16
  -3   0  -6    1.85    0.17
  -3   0  -6    1.91    0.16
  -3   0  -6    1.78    0.15
  -4   0  -6    0.10    0.08
  -4   0  -6    0.06    0.07
  -4   0  -6    0.09    0.08
   4   0   6    0.05    0.09
   4   0   6    0.05    0.04
  -4   0  -6    0.07    0.06
  -4   0  -6    0.05    0.08
  -4   0  -6    0.02    0.07
   5   0   6   37.51    1.65
  -5   0  -6   35.07    1.70
   5   0   6   37.63    1.79
  -5   0  -6   37.16    1.69
  -5   0  -6   35.38    1.70
  -5   0  -6   32.26    1.69
  -5   0  -6   36.88    1.72
  -5   0  -6   36.58    1.71
  -6   0  -6   -0.09    0.07
  -6   0  -6   -0.01    0.08
  -6   0  -6   -0.07    0.07
  -6   0  -6    0.03    0.07
  -6   0  -6   -0.10    0.08
   6   0   6   -0.02    0.04
  -6   0  -6    0.03    0.07
  -7   0  -6    0.02    0.08
  -7   0  -6    0.03    0.07
  -7   0  -6    0.00    0.08
  -7   0  -6    0.05    0.09
   7   0   6    0.01    0.04
  -7   0  -6    0.04    0.08
  -8   0  -6    6.54    0.35
  -8   0  -6    6.59    0.35
  -8   0  -6    6.11    0.35
   8   0   6    5.95    0.31
  -8   0  -6    6.13    0.36
  -9   0  -6    0.79    0.10
  -9   0  -6    0.67    0.10
  -9   0  -6    0.94    0.10
 -12  -1   6    1.07    0.14
  12  -1  -6    1.28    0.09
 -12  -1   6    1.45    0.15
 -12  -1   6    1.16    0.15
 -12  -1   6    1.35    0.14
  12   1  -6    1.21    0.09
 -12   1   6    1.31    0.14
 -12   1   6    0.99    0.15
 -12   1   6    1.19    0.14
 -12   1   6    1.55    0.14
 -12   1   6    1.35    0.14
  11  -1  -6    1.50    0.10
 -11  -1   6    1.52    0.15
 -11  -1   6    1.36    0.16
 -11  -1   6    1.59    0.16
  11  -1  -6    1.46    0.11
 -11  -1   6    1.68    0.18
 -11   1   6    1.57    0.17
 -11   1   6    1.57    0.17
  11   1  -6    1.52    0.11
 -11   1   6    1.41    0.17
 -11   1   6    1.48    0.16
  11   1  -6    1.48    0.11
 -11   1   6    1.67    0.17
 -10  -1   6    0.59    0.13
 -10  -1   6    0.75    0.14
 -10  -1   6    0.68    0.13
  10  -1  -6    0.83    0.08
  10  -1  -6    0.72    0.08
 -10  -1   6    0.80    0.14
 -10  -1   6    0.81    0.13
 -10   1   6    0.41    0.10
 -10   1   6    0.58    0.11
 -10   1   6    0.87    0.16
  10   1  -6    0.84    0.08
  10   1  -6    0.77    0.08
 -10   1   6    0.70    0.14
 -10   1   6    0.70    0.13
   9  -1  -6   10.28    0.50
  -9  -1   6   10.40    0.55
  -9  -1   6   10.49    0.55
  -9  -1   6   10.21    0.56
  -9  -1   6   10.42    0.56
   9  -1  -6   10.42    0.49
   9   1  -6   11.03    0.50
  -9   1   6   10.32    0.56
  -9   1   6    9.99    0.56
  -9   1   6    9.97    0.54
  -9   1   6   10.16    0.55
   9   1  -6   10.01    0.49
  -9   1   6    9.60    0.56
   9   1  -6    9.10    0.61
  -8  -1   6    8.25    0.46
   8  -1  -6    7.85    0.54
   8  -1  -6    8.79    0.42
  -8  -1   6    7.68    0.46
   8  -1  -6    8.85    0.42
  -8  -1   6    8.48    0.47
  -8  -1   6    8.47    0.47
  -8  -1   6    8.40    0.47
   8   1  -6    8.71    0.53
  -8   1   6    8.80    0.47
   8   1  -6    8.77    0.42
  -8   1   6    8.38    0.47
  -8   1   6    9.06    0.48
  -8   1   6    8.08    0.46
   8   1  -6    8.77    0.42
  -8   1   6    8.24    0.48
   7  -1  -6    7.85    0.37
  -7  -1   6    7.01    0.41
   7  -1  -6    7.90    0.91
   7  -1  -6    7.89    0.37
  -7  -1   6    7.99    0.42
  -7  -1   6    6.77    0.40
  -7  -1   6    7.42    0.42
   7  -1  -6    7.41    0.49
  -7  -1   6    7.08    0.41
   7   1  -6    7.81    0.37
   7   1  -6    7.92    0.48
  -7   1   6    7.11    0.42
  -7   1   6    7.62    0.43
   7   1  -6    7.45    0.37
  -7   1   6    7.72    0.42
  -7   1   6    7.46    0.41
  -6  -1   6    0.59    0.09
   6  -1  -6    0.52    0.06
   6  -1  -6    0.50    0.06
   6  -1  -6    0.50    0.18
   6  -1  -6    0.51    0.14
   6   1  -6    0.51    0.12
  -6   1   6    0.53    0.09
   6   1  -6    0.64    0.07
   6   1  -6    0.55    0.19
   6   1  -6    0.56    0.06
   5  -1  -6    3.06    0.16
  -5  -1   6    3.23    0.19
   5  -1  -6    3.16    0.16
   5  -1  -6    2.75    0.24
   5  -1  -6    2.90    0.32
   5   1  -6    3.24    0.17
   5   1  -6    3.03    0.32
  -5   1   6    2.89    0.19
   5   1  -6    2.89    0.43
   5   1  -6    3.14    0.17
   5   1  -6    3.29    0.25
  -4  -1   6    2.71    0.17
   4  -1  -6    2.36    0.36
   4   1  -6    2.76    0.29
   4   1  -6    2.58    0.36
   4   1  -6    2.75    0.22
   4   1  -6    2.64    0.15
   3  -1  -6   22.91    1.38
  -3  -1   6   23.53    1.06
  -3   1   6   21.83    1.23
  -3   1   6   20.95    1.04
   3   1  -6   22.88    1.11
   3   1  -6   22.25    1.31
   3   1  -6   24.18    1.22
   3   1  -6   22.70    1.03
  -2  -1   6   22.48    1.04
   2  -1  -6   23.02    1.32
  -2  -1   6   21.48    1.20
  -2   1   6   23.08    1.12
  -2   1   6   22.93    1.21
  -2   1   6   21.86    1.02
   2   1  -6   20.45    1.21
  -1  -1   6   47.48    2.19
   1  -1  -6   48.71    2.46
  -1  -1   6   46.69    2.37
  -1  -1   6   46.71    2.17
  -1  -1   6   47.56    2.27
  -1   1   6   49.43    2.27
  -1   1   6   50.31    2.17
  -1   1   6   46.47    2.36
   0  -1   6   66.47    2.97
   0  -1   6   65.17    3.20
   0  -1   6   65.17    3.08
   0  -1   6   63.09    2.99
   0   1   6   66.24    3.17
   0   1   6   66.39    2.97
   0   1   6   68.37    3.07
   1  -1   6    0.59    0.06
   1  -1   6    0.46    0.06
   1  -1   6    0.63    0.17
   1  -1   6    0.74    0.14
   1  -1   6    0.62    0.07
   1   1   6    0.41    0.13
   1   1   6    0.66    0.12
   1   1   6    0.55    0.06
   2  -1   6    2.86    0.34
   2  -1   6    2.93    0.26
   2  -1   6    2.89    0.16
   2  -1   6    2.70    0.16
   2   1   6    2.80    0.24
   2   1   6    2.82    0.30
   2   1   6    2.95    0.16
   3  -1   6    9.59    0.47
   3  -1   6    9.59    0.46
  -3  -1  -6    9.60    0.50
  -3  -1  -6    9.45    0.51
  -3  -1  -6   10.08    0.52
   3  -1   6   10.19    0.60
  -3  -1  -6    8.84    0.49
  -3  -1  -6    9.94    0.50
   3   1   6   10.06    0.57
  -3   1  -6   10.02    0.52
   3   1   6    9.75    0.46
  -3   1  -6    9.27    0.51
  -3   1  -6    9.44    0.52
  -3   1  -6    9.31    0.51
  -3   1  -6    9.65    0.52
  -3   1  -6    9.72    0.50
  -4  -1  -6    3.96    0.26
   4  -1   6    4.05    0.22
  -4  -1  -6    4.02    0.25
  -4  -1  -6    4.09    0.25
   4  -1   6    4.27    0.23
  -4  -1  -6    4.09    0.28
   4  -1   6    4.09    0.34
  -4  -1  -6    4.12    0.26
  -4   1  -6    4.32    0.28
   4   1   6    4.12    0.32
  -4   1  -6    4.29    0.26
  -4   1  -6    3.80    0.26
   4   1   6    4.05    0.22
  -4   1  -6    3.99    0.28
  -4   1  -6    3.77    0.28
  -4   1  -6    3.85    0.27
   5  -1   6    4.48    0.38
  -5  -1  -6    4.38    0.30
   5  -1   6    4.64    0.24
   5  -1   6    4.29    0.24
  -5  -1  -6    4.43    0.28
  -5  -1  -6    4.55    0.27
  -5  -1  -6    4.63    0.28
  -5   1  -6    4.24    0.28
  -5   1  -6    4.30    0.29
  -5   1  -6    4.30    0.31
  -5   1  -6    4.49    0.30
  -5   1  -6    4.44    0.29
   5   1   6    4.09    0.33
  -5   1  -6    4.17    0.29
   5   1   6    4.52    0.23
   6  -1   6    9.89    0.49
  -6  -1  -6   10.19    0.55
   6  -1   6   10.07    0.49
  -6  -1  -6   10.05    0.53
  -6  -1  -6   10.03    0.53
  -6  -1  -6    9.96    0.52
  -6   1  -6   10.08    0.54
  -6   1  -6   10.43    0.55
  -6   1  -6   10.09    0.52
   6   1   6    9.41    0.48
  -6   1  -6    9.67    0.54
  -6   1  -6   10.38    0.56
  -6   1  -6    9.99    0.55
  -7  -1  -6   20.51    1.00
   7  -1   6   21.14    0.97
  -7  -1  -6   20.79    1.02
   7  -1   6   21.04    0.97
  -7  -1  -6   21.79    1.01
  -7  -1  -6   19.56    0.99
  -7   1  -6   20.26    1.02
  -7   1  -6   22.01    1.03
  -7   1  -6   19.22    0.98
  -7   1  -6   22.75    1.02
  -7   1  -6   21.50    1.02
   7   1   6   19.86    0.96
   8  -1   6    5.69    0.31
  -8  -1  -6    5.68    0.33
   8  -1   6    5.75    0.29
   8  -1   6    5.36    0.29
  -8  -1  -6    5.71    0.32
  -8  -1  -6    5.28    0.31
  -8   1  -6    6.17    0.33
  -8   1  -6    5.67    0.32
  -8   1  -6    6.06    0.34
  -8   1  -6    5.43    0.33
  -9  -1  -6    0.67    0.12
  -9   1  -6    0.82    0.11
  -9   1  -6    0.70    0.10
  -9   1  -6    0.81    0.09
  -9   1  -6    1.03    0.11
 -12  -2   6    2.71    0.18
 -12  -2   6    2.66    0.19
 -12  -2   6    2.97    0.20
  12  -2  -6    2.31    0.14
 -12   2   6    2.91    0.18
  12   2  -6    2.64    0.14
 -12   2   6    2.61    0.18
 -12   2   6    2.68    0.19
  11  -2  -6    4.61    0.29
 -11  -2   6    5.51    0.34
 -11  -2   6    6.24    0.35
  11  -2  -6    5.67    0.28
 -11  -2   6    5.85    0.33
 -11  -2   6    6.26    0.34
  11   2  -6    5.89    0.29
 -11   2   6    4.97    0.33
  11   2  -6    5.68    0.28
 -11   2   6    5.90    0.34
 -11   2   6    5.06    0.32
 -11   2   6    5.60    0.34
 -11   2   6    6.20    0.34
 -10  -2   6    0.79    0.13
 -10  -2   6    0.98    0.16
 -10  -2   6    0.71    0.13
  10  -2  -6    0.80    0.09
  10  -2  -6    0.80    0.08
 -10  -2   6    0.85    0.13
  10   2  -6    0.99    0.09
 -10   2   6    1.08    0.14
 -10   2   6    1.12    0.15
  10   2  -6    0.90    0.08
 -10   2   6    0.95    0.14
 -10   2   6    0.90    0.15
 -10   2   6    0.82    0.16
 -10   2   6    1.00    0.14
  -9  -2   6    8.11    0.45
   9  -2  -6    8.34    0.41
  -9  -2   6    8.50    0.47
  -9  -2   6    8.45    0.47
  -9  -2   6    8.08    0.46
   9  -2  -6    8.61    0.40
  -9   2   6    7.58    0.46
  -9   2   6    8.01    0.47
   9   2  -6    8.07    0.41
  -9   2   6    8.16    0.48
   9   2  -6    8.60    0.41
  -9   2   6    8.08    0.46
  -9   2   6    7.43    0.45
   8  -2  -6   19.03    0.84
   8  -2  -6   18.19    0.85
  -8  -2   6   19.30    0.90
  -8  -2   6   18.46    0.90
  -8  -2   6   17.12    0.89
  -8  -2   6   17.30    0.89
  -8   2   6   17.75    0.91
  -8   2   6   18.97    0.91
   8   2  -6   19.44    0.85
   8   2  -6   17.93    0.97
   8   2  -6   18.06    0.84
  -8   2   6   15.92    0.88
  -8   2   6   17.06    0.89
  -8   2   6   17.22    0.89
  -7  -2   6    7.56    0.42
   7  -2  -6    7.98    0.37
  -7  -2   6    6.92    0.41
  -7  -2   6    7.52    0.42
  -7  -2   6    7.48    0.42
   7  -2  -6    7.56    0.37
   7   2  -6    7.48    0.48
   7   2  -6    7.74    0.38
  -7   2   6    7.69    0.43
  -7   2   6    7.08    0.44
  -7   2   6    7.22    0.41
   7   2  -6    7.69    0.38
  -7   2   6    7.04    0.42
   6  -2  -6    4.06    0.25
   6  -2  -6    4.39    0.23
  -6  -2   6    4.89    0.28
  -6  -2   6    4.56    0.27
  -6  -2   6    4.03    0.27
  -6  -2   6    4.45    0.28
  -6   2   6    4.26    0.28
  -6   2   6    4.60    0.30
  -6   2   6    4.55    0.28
   6   2  -6    4.79    0.34
   6   2  -6    4.64    0.24
   6   2  -6    4.67    0.24
  -5  -2   6    9.58    0.50
  -5  -2   6    9.50    0.47
   5  -2  -6    8.29    0.42
  -5  -2   6    9.43    0.48
   5   2  -6    9.54    0.44
   5   2  -6    8.49    0.53
   5   2  -6    9.08    0.43
   5   2  -6    7.58    0.60
  -4  -2   6    2.28    0.16
   4   2  -6    1.95    0.34
   4   2  -6    2.46    0.29
   4   2  -6    2.46    0.14
   4   2  -6    2.30    0.21
   4   2  -6    2.27    0.14
  -3  -2   6    0.82    0.09
   3  -2  -6    0.69    0.26
   3   2  -6    0.95    0.07
  -3   2   6    0.88    0.08
   3   2  -6    0.79    0.19
  -3   2   6    0.78    0.08
   3   2  -6    0.87    0.08
   3   2  -6    0.86    0.13
  -2  -2   6   17.70    0.84
   2  -2  -6   16.94    1.20
  -2   2   6   17.80    0.83
  -2   2   6   18.22    0.95
  -2   2   6   17.56    1.03
  -2   2   6   17.98    0.83
  -1  -2   6    8.83    0.45
   1  -2  -6    8.31    0.75
  -1   2   6    9.77    0.44
  -1   2   6    8.69    0.43
  -1   2   6    9.07    0.54
  -1   2   6    8.79    0.61
   0  -2   6    4.31    0.24
   0  -2   6    4.32    0.22
   0  -2   6    4.19    0.22
   0   2   6    4.32    0.23
   0   2   6    3.95    0.22
   0   2   6    4.06    0.38
   0   2   6    4.38    0.32
   1  -2   6    0.57    0.06
   1  -2   6    0.51    0.06
   1  -2   6    0.28    0.18
   1  -2   6    0.56    0.08
   1  -2   6    0.59    0.15
   1   2   6    0.47    0.15
   1   2   6    0.43    0.07
   1   2   6    0.53    0.06
   1   2   6    0.56    0.13
   2  -2   6    4.22    0.35
  -2  -2  -6    4.47    0.25
  -2  -2  -6    4.02    0.25
   2  -2   6    3.75    0.24
   2  -2   6    4.78    0.26
  -2  -2  -6    4.23    0.26
  -2  -2  -6    4.29    0.25
   2  -2   6    4.29    0.22
   2  -2   6    4.51    0.23
   2  -2   6    3.60    0.46
  -2  -2  -6    4.34    0.27
  -2   2  -6    4.37    0.28
  -2   2  -6    3.95    0.27
  -2   2  -6    3.59    0.26
   2   2   6    4.12    0.32
   2   2   6    4.19    0.22
  -2   2  -6    4.38    0.27
   3  -2   6   20.07    0.92
  -3  -2  -6   20.74    0.95
  -3  -2  -6   20.10    0.95
   3  -2   6   18.73    0.93
  -3  -2  -6   19.74    0.96
  -3  -2  -6   17.12    0.93
  -3  -2  -6   20.46    0.97
   3  -2   6   20.41    0.91
   3  -2   6   19.30    1.07
   3   2   6   20.51    0.91
  -3   2  -6   19.77    0.96
   3   2   6   20.26    1.03
  -3   2  -6   19.43    0.97
  -3   2  -6   18.26    0.96
  -3   2  -6   18.43    0.95
  -3   2  -6   19.83    0.97
   4  -2   6   13.90    0.70
   4  -2   6   15.12    0.69
  -4  -2  -6   14.03    0.71
  -4  -2  -6   13.43    0.71
  -4  -2  -6   14.39    0.71
   4  -2   6   15.05    0.68
  -4  -2  -6   14.98    0.73
  -4  -2  -6   14.90    0.74
   4  -2   6   12.80    0.83
  -4   2  -6   14.41    0.74
  -4   2  -6   13.25    0.73
   4   2   6   13.77    0.78
  -4   2  -6   14.82    0.75
  -4   2  -6   15.59    0.73
   4   2   6   14.12    0.68
  -4   2  -6   15.03    0.73
  -4   2  -6   14.33    0.74
  -5  -2  -6    0.74    0.12
  -5  -2  -6    0.28    0.08
   5  -2   6    0.22    0.18
   5  -2   6    0.36    0.07
   5  -2   6    0.45    0.08
  -5  -2  -6    0.23    0.09
  -5  -2  -6    0.50    0.11
  -5  -2  -6    0.42    0.10
   5  -2   6    0.57    0.10
  -5   2  -6    0.43    0.12
  -5   2  -6    0.34    0.11
  -5   2  -6    0.37    0.11
   5   2   6    0.40    0.07
  -5   2  -6    0.39    0.11
  -5   2  -6    0.32    0.09
   5   2   6    0.38    0.13
  -5   2  -6    0.49    0.10
   6  -2   6    3.13    0.21
  -6  -2  -6    3.02    0.20
   6  -2   6    3.21    0.19
   6  -2   6    3.43    0.19
  -6  -2  -6    3.37    0.24
  -6  -2  -6    3.31    0.22
  -6  -2  -6    3.06    0.24
  -6   2  -6    3.52    0.26
   6   2   6    3.06    0.20
  -6   2  -6    3.55    0.26
  -6   2  -6    3.07    0.24
  -6   2  -6    3.43    0.25
  -6   2  -6    3.19    0.23
   7  -2   6    0.51    0.07
  -7  -2  -6    0.66    0.12
   7  -2   6    0.57    0.08
  -7  -2  -6    0.78    0.10
  -7  -2  -6    0.82    0.13
  -7   2  -6    0.75    0.13
  -7   2  -6    0.77    0.13
  -7   2  -6    0.54    0.11
  -7   2  -6    1.05    0.14
  -8  -2  -6    2.75    0.19
   8  -2   6    2.95    0.16
   8  -2   6    2.98    0.19
  -8  -2  -6    2.49    0.18
  -8   2  -6    2.90    0.19
  -8   2  -6    2.87    0.20
  -8   2  -6    2.88    0.19
  -8   2  -6    2.98    0.20
 -11  -3   6    2.74    0.18
  11  -3  -6    2.77    0.17
 -11  -3   6    2.52    0.18
 -11   3   6    2.48    0.19
  11   3  -6    2.41    0.14
 -11   3   6    2.41    0.19
 -10  -3   6   12.37    0.62
 -10  -3   6   12.19    0.62
 -10  -3   6   12.37    0.62
  10  -3  -6   10.90    0.58
  10   3  -6   12.13    0.57
 -10   3   6   11.27    0.63
 -10   3   6   13.11    0.62
  10   3  -6   12.13    0.57
  -9  -3   6    3.36    0.25
  -9  -3   6    3.90    0.25
  -9  -3   6    3.80    0.27
   9  -3  -6    3.11    0.19
  -9  -3   6    3.83    0.26
  -9   3   6    3.84    0.26
  -9   3   6    3.95    0.29
   9   3  -6    3.76    0.21
   9   3  -6    3.99    0.21
  -8  -3   6    0.82    0.13
  -8  -3   6    0.95    0.12
   8  -3  -6    0.71    0.07
  -8  -3   6    0.95    0.14
  -8  -3   6    0.90    0.15
  -8   3   6    0.85    0.14
  -8   3   6    0.93    0.17
   8   3  -6    0.87    0.09
   8   3  -6    0.99    0.09
  -7  -3   6    9.40    0.49
  -7  -3   6    9.38    0.52
  -7  -3   6    9.63    0.52
  -7  -3   6   10.04    0.51
  -7  -3   6   10.09    0.52
   7   3  -6    8.92    0.59
  -7   3   6    9.13    0.51
  -7   3   6   10.03    0.55
   7   3  -6    9.42    0.47
   7   3  -6   10.06    0.48
  -6  -3   6   24.78    1.19
  -6  -3   6   25.27    1.17
  -6  -3   6   24.64    1.19
  -6  -3   6   24.89    1.19
  -6  -3   6   24.44    1.18
   6   3  -6   25.44    1.15
  -6   3   6   23.67    1.18
   6   3  -6   25.41    1.15
   6   3  -6   23.32    1.27
  -6   3   6   25.49    1.22
  -5  -3   6    4.47    0.26
  -5  -3   6    4.33    0.25
  -5  -3   6    3.95    0.26
  -5  -3   6    3.89    0.25
  -5  -3   6    4.00    0.26
  -5   3   6    4.23    0.29
   5   3  -6    4.18    0.34
   5   3  -6    4.31    0.23
   5   3  -6    4.64    0.24
  -5   3   6    4.05    0.26
  -4  -3   6    1.48    0.14
   4  -3  -6    1.53    0.14
  -4  -3   6    1.69    0.14
  -4  -3   6    1.73    0.14
  -4  -3   6    1.54    0.14
  -4  -3   6    1.47    0.15
  -4   3   6    1.79    0.17
   4   3  -6    1.62    0.12
  -4   3   6    1.43    0.16
   4   3  -6    1.73    0.12
   4   3  -6    1.64    0.21
  -3  -3   6   17.63    0.96
  -3  -3   6   19.46    0.97
  -3  -3   6   20.56    0.97
   3  -3  -6   19.60    0.97
  -3  -3   6   22.06    0.98
  -3  -3   6   20.30    0.97
  -3   3   6   19.93    0.95
  -3   3   6   21.04    0.95
   3   3  -6   18.47    0.97
  -3   3   6   20.85    1.00
   3   3  -6   21.22    0.95
   3   3  -6   22.64    0.95
  -2  -3   6   11.94    0.57
   2  -3  -6   10.90    0.56
  -2  -3   6   11.45    0.56
  -2  -3   6   10.64    0.56
   2  -3  -6   12.14    0.59
  -2   3   6    9.92    0.77
  -2   3   6   11.20    0.68
   2   3  -6   10.83    0.58
  -2   3   6   11.93    0.55
  -2   3   6   12.27    0.55
   2   3  -6   10.42    0.53
   1  -3  -6    7.94    0.42
  -1  -3   6    7.54    0.40
  -1  -3   6    7.84    0.40
   1  -3  -6    7.58    0.40
  -1  -3   6    7.60    0.40
   1  -3  -6    7.84    0.40
   1  -3  -6    6.73    0.38
  -1   3   6    6.37    0.57
  -1   3   6    7.19    0.50
  -1   3   6    7.25    0.38
  -1   3   6    8.00    0.39
   1   3  -6    7.54    0.40
   1   3  -6    7.64    0.42
   0  -3  -6    5.21    0.31
   0  -3   6    5.22    0.29
   0  -3  -6    4.87    0.29
   0  -3   6    5.40    0.29
   0  -3   6    5.12    0.29
   0  -3  -6    5.05    0.30
   0  -3  -6    5.16    0.29
   0   3   6    5.17    0.27
   0   3  -6    4.47    0.29
   0   3   6    5.21    0.28
   0   3   6    5.10    0.39
   0   3  -6    4.99    0.31
   1  -3   6    1.78    0.12
   1  -3   6    1.94    0.15
  -1  -3  -6    1.66    0.15
  -1  -3  -6    1.98    0.16
  -1  -3  -6    2.01    0.17
  -1  -3  -6    1.87    0.15
   1  -3   6    1.73    0.14
   1   3   6    1.90    0.13
   1   3   6    2.08    0.14
  -1   3  -6    2.14    0.18
   1   3   6    1.97    0.23
  -1   3  -6    2.07    0.20
  -1   3  -6    1.61    0.18
  -2  -3  -6    8.35    0.46
  -2  -3  -6    8.44    0.46
   2  -3   6    9.22    0.45
   2  -3   6    8.71    0.42
   2  -3   6    8.49    0.43
   2  -3   6    8.00    0.44
  -2  -3  -6    8.25    0.45
  -2  -3  -6    8.29    0.45
  -2   3  -6    8.41    0.46
   2   3   6    8.75    0.42
  -2   3  -6    7.91    0.46
  -2   3  -6    8.70    0.48
   2   3   6    7.99    0.54
  -3  -3  -6    2.06    0.18
  -3  -3  -6    2.04    0.17
  -3  -3  -6    2.03    0.19
   3  -3   6    1.91    0.15
   3  -3   6    2.14    0.15
   3  -3   6    2.09    0.13
  -3  -3  -6    2.02    0.16
   3  -3   6    1.91    0.16
  -3   3  -6    2.30    0.20
  -3   3  -6    1.83    0.20
   3   3   6    1.87    0.24
  -3   3  -6    1.87    0.19
   3   3   6    2.00    0.14
   4  -3   6    1.38    0.11
  -4  -3  -6    1.28    0.14
  -4  -3  -6    1.21    0.14
   4  -3   6    1.24    0.14
  -4  -3  -6    1.30    0.15
   4  -3   6    1.36    0.12
   4  -3   6    1.20    0.13
  -4  -3  -6    1.43    0.14
   4   3   6    1.32    0.11
  -4   3  -6    1.29    0.16
  -4   3  -6    1.29    0.18
  -4   3  -6    1.46    0.17
  -4   3  -6    1.51    0.17
  -4   3  -6    1.24    0.17
   5  -3   6   11.94    0.61
   5  -3   6   12.76    0.64
  -5  -3  -6   12.56    0.65
  -5  -3  -6   13.48    0.65
  -5  -3  -6   13.13    0.64
   5  -3   6   12.98    0.61
  -5  -3  -6   13.13    0.64
   5  -3   6   13.00    0.63
  -5   3  -6   12.59    0.66
  -5   3  -6   12.52    0.64
   5   3   6   12.11    0.61
  -5   3  -6   13.05    0.67
  -5   3  -6   12.88    0.67
  -5   3  -6   12.46    0.64
   6  -3   6    0.53    0.09
  -6  -3  -6    0.43    0.09
   6  -3   6    0.49    0.07
  -6  -3  -6    0.36    0.08
  -6  -3  -6    0.36    0.09
  -6  -3  -6    0.55    0.11
   6  -3   6    0.41    0.09
   6  -3   6    0.44    0.09
  -6   3  -6    0.49    0.11
  -6   3  -6    0.33    0.10
  -6   3  -6    0.53    0.10
   6   3   6    0.49    0.07
  -6   3  -6    0.61    0.13
  -6   3  -6    0.37    0.10
  -7  -3  -6    2.26    0.15
   7  -3   6    2.28    0.15
   7  -3   6    2.08    0.16
   7  -3   6    2.14    0.13
  -7  -3  -6    2.15    0.16
  -7   3  -6    2.14    0.18
  -7   3  -6    2.39    0.18
  -7   3  -6    2.18    0.16
  -7   3  -6    2.19    0.18
  -8   3  -6    1.59    0.13
  -8   3  -6    1.75    0.13
 -10  -4   6    0.79    0.11
  10  -4  -6    0.88    0.10
 -10  -4   6    0.88    0.11
 -10   4   6    0.89    0.11
  10   4  -6    0.81    0.07
 -10   4   6    0.72    0.12
   9  -4  -6    2.18    0.16
  -9  -4   6    2.39    0.18
  -9  -4   6    2.17    0.18
  -9   4   6    2.04    0.17
   9   4  -6    1.98    0.13
   9   4  -6    2.08    0.13
  -9   4   6    2.23    0.20
   9   4  -6    1.82    0.19
  -8  -4   6    3.34    0.23
  -8  -4   6    3.37    0.22
   8  -4  -6    3.05    0.21
   8   4  -6    3.08    0.18
  -8   4   6    2.63    0.22
  -8   4   6    3.21    0.26
   8   4  -6    3.20    0.19
  -7  -4   6    3.10    0.23
   7  -4  -6    3.12    0.22
  -7  -4   6    3.30    0.22
  -7  -4   6    3.19    0.22
   7   4  -6    3.42    0.19
   7   4  -6    3.30    0.19
  -7   4   6    3.09    0.26
  -6  -4   6   11.65    0.60
  -6  -4   6   11.59    0.61
   6  -4  -6   11.19    0.59
  -6  -4   6   11.89    0.59
  -6   4   6   11.88    0.65
   6   4  -6   12.07    0.57
   6   4  -6   11.70    0.57
  -5  -4   6   15.27    0.75
  -5  -4   6   15.74    0.73
  -5  -4   6   15.09    0.75
   5   4  -6   15.17    0.71
   5   4  -6   13.20    0.84
  -5   4   6   14.69    0.78
   5   4  -6   15.40    0.71
  -5   4   6   14.40    0.76
  -4  -4   6    7.32    0.39
  -4  -4   6    7.15    0.40
  -4  -4   6    7.30    0.41
  -4   4   6    7.53    0.44
   4   4  -6    6.73    0.40
   4   4  -6    7.83    0.37
   4   4  -6    7.25    0.37
  -3  -4   6    2.23    0.16
   3  -4  -6    2.12    0.17
  -3  -4   6    1.92    0.17
  -3  -4   6    2.12    0.16
   3   4  -6    1.96    0.14
   3   4  -6    2.10    0.13
   3   4  -6    2.02    0.19
  -3   4   6    2.04    0.20
  -3   4   6    1.78    0.14
   2  -4  -6   19.19    0.92
  -2  -4   6   16.69    0.90
  -2  -4   6   18.39    0.91
  -2  -4   6   19.47    0.92
  -2   4   6   18.95    0.90
   2   4  -6   19.04    0.93
  -2   4   6   20.86    0.90
  -2   4   6   18.70    0.94
   2   4  -6   18.24    0.87
  -1  -4   6    6.89    0.40
  -1  -4   6    7.79    0.41
   1  -4  -6    7.83    0.40
  -1  -4   6    7.73    0.41
   1  -4  -6    7.62    0.42
   1  -4  -6    7.57    0.40
   1   4  -6    7.80    0.43
   1   4  -6    7.87    0.42
  -1   4   6    7.82    0.40
  -1   4   6    7.97    0.40
  -1   4   6    7.69    0.44
  -1   4   6    6.85    0.54
   0  -4  -6    2.23    0.18
   0  -4   6    2.32    0.19
   0  -4  -6    2.28    0.17
   0  -4   6    2.40    0.18
   0  -4  -6    2.56    0.18
   0  -4   6    2.48    0.17
   0   4  -6    1.91    0.19
   0   4   6    2.28    0.30
   0   4  -6    2.53    0.21
   0   4   6    2.37    0.16
   0   4   6    2.43    0.16
  -1  -4  -6   18.66    0.85
  -1  -4  -6   17.28    0.85
  -1  -4  -6   17.67    0.86
  -1  -4  -6   17.55    0.86
   1  -4   6   17.34    0.85
   1  -4   6   17.69    0.85
   1  -4   6   16.99    0.85
   1   4   6   18.91    0.84
  -1   4  -6   17.95    0.88
   1   4   6   17.46    0.83
  -1   4  -6   15.71    0.86
   1   4   6   16.22    0.98
  -2  -4  -6    1.22    0.14
  -2  -4  -6    1.33    0.14
   2  -4   6    1.16    0.13
   2  -4   6    1.07    0.13
  -2  -4  -6    1.44    0.14
   2  -4   6    1.14    0.14
  -2  -4  -6    1.21    0.13
   2   4   6    1.75    0.40
  -2   4  -6    1.20    0.15
   2   4   6    1.29    0.12
   2   4   6    1.38    0.12
  -2   4  -6    1.53    0.19
   2   4   6    1.38    0.12
   3  -4   6    0.90    0.12
  -3  -4  -6    0.67    0.12
  -3  -4  -6    0.77    0.14
  -3  -4  -6    0.94    0.12
  -3  -4  -6    0.83    0.13
   3  -4   6    0.84    0.11
   3   4   6    0.94    0.10
   3   4   6    0.78    0.10
  -3   4  -6    0.85    0.14
  -3   4  -6    0.84    0.15
  -4  -4  -6    1.19    0.13
   4  -4   6    0.95    0.11
  -4  -4  -6    1.10    0.12
  -4  -4  -6    1.26    0.14
   4  -4   6    1.08    0.13
  -4  -4  -6    0.89    0.13
  -4   4  -6    0.86    0.14
   4   4   6    1.09    0.11
  -4   4  -6    1.04    0.16
  -5  -4  -6    4.83    0.27
   5  -4   6    5.02    0.27
  -5  -4  -6    5.01    0.28
  -5  -4  -6    4.73    0.27
   5  -4   6    4.63    0.28
  -5   4  -6    4.27    0.27
   5   4   6    4.57    0.26
  -5   4  -6    5.23    0.31
  -6  -4  -6    3.42    0.20
   6  -4   6    2.86    0.21
   6  -4   6    3.52    0.20
  -6  -4  -6    3.34    0.20
  -6  -4  -6    3.53    0.20
  -6   4  -6    3.87    0.23
   7  -4   6    0.15    0.05
   7  -4   6    0.22    0.06
  -7   4  -6    0.26    0.07
  -9  -5   6    0.76    0.10
  -9  -5   6    0.72    0.10
   9  -5  -6    0.66    0.08
   9   5  -6    0.76    0.12
  -9   5   6    0.74    0.12
   9   5  -6    0.79    0.06
  -8  -5   6    0.83    0.11
  -8  -5   6    0.89    0.11
   8  -5  -6    0.84    0.10
   8   5  -6    1.12    0.13
   8   5  -6    0.83    0.08
  -8   5   6    1.05    0.15
   7  -5  -6    4.42    0.26
  -7  -5   6    4.83    0.28
  -7  -5   6    4.83    0.29
   7   5  -6    4.92    0.25
   7   5  -6    4.31    0.25
  -7   5   6    5.41    0.32
  -6  -5   6    1.23    0.14
  -6  -5   6    1.37    0.14
   6  -5  -6    0.90    0.12
   6   5  -6    1.11    0.09
  -6   5   6    0.92    0.18
  -6   5   6    1.00    0.17
  -5  -5   6    1.81    0.16
  -5  -5   6    1.72    0.16
   5   5  -6    1.99    0.13
   5   5  -6    1.70    0.13
  -5   5   6    2.01    0.21
  -5   5   6    1.98    0.21
  -4  -5   6    3.92    0.25
  -4  -5   6    4.20    0.26
   4   5  -6    3.47    0.26
   4   5  -6    3.74    0.21
  -4   5   6    4.00    0.29
  -4   5   6    3.81    0.29
  -3  -5   6   10.46    0.51
  -3  -5   6    9.88    0.50
  -3   5   6   10.23    0.54
   3   5  -6    8.17    0.46
   3   5  -6    9.40    0.52
  -3   5   6    9.78    0.53
  -2  -5   6    5.43    0.32
  -2  -5   6    5.61    0.32
   2   5  -6    5.26    0.33
   2   5  -6    5.47    0.33
  -2   5   6    5.37    0.35
  -2   5   6    5.25    0.29
  -1  -5   6    4.44    0.27
  -1  -5   6    4.72    0.28
   1  -5  -6    4.69    0.28
   1  -5  -6    4.50    0.26
   1  -5  -6    4.31    0.27
   1   5  -6    4.66    0.30
  -1   5   6    4.48    0.30
   1   5  -6    4.49    0.28
  -1   5   6    4.99    0.26
  -1   5   6    4.27    0.26
   0  -5  -6    1.21    0.12
   0  -5   6    1.05    0.12
   0  -5  -6    1.13    0.13
   0  -5  -6    1.02    0.13
   0   5   6    1.23    0.17
   0   5  -6    1.33    0.17
   0   5   6    1.19    0.11
   0   5   6    1.35    0.13
  -1  -5  -6    1.20    0.14
  -1  -5  -6    1.33    0.14
  -1  -5  -6    1.38    0.13
   1  -5   6    1.37    0.13
   1   5   6    1.39    0.12
  -1   5  -6    1.66    0.17
   1   5   6    1.24    0.13
  -2  -5  -6    1.91    0.16
   2  -5   6    2.14    0.16
  -2  -5  -6    1.88    0.16
  -2  -5  -6    1.72    0.14
   2   5   6    1.85    0.15
  -2   5  -6    1.86    0.18
   2   5   6    1.90    0.14
  -2   5  -6    1.63    0.18
  -3  -5  -6    0.22    0.08
  -3  -5  -6    0.43    0.08
   3  -5   6    0.43    0.09
  -3  -5  -6    0.31    0.07
   3   5   6    0.22    0.06
   3   5   6    0.36    0.07
  -3   5  -6    0.15    0.09
  -3   5  -6    0.17    0.10
   4  -5   6    3.94    0.23
  -4  -5  -6    3.86    0.22
  -4  -5  -6    4.03    0.23
  -4  -5  -6    3.96    0.23
   4   5   6    3.85    0.22
  -4   5  -6    3.61    0.23
  -4   5  -6    4.13    0.25
   5  -5   6    2.56    0.16
  -5  -5  -6    2.63    0.16
  -5  -5  -6    2.67    0.16
  -5  -5  -6    2.30    0.16
  -5   5  -6    2.69    0.18
  -7  -6   6    0.13    0.04
   7   6  -6    0.25    0.06
  -6  -6   6    1.86    0.14
  -6  -6   6    1.79    0.13
  -6   6   6    1.79    0.16
   6   6  -6    2.16    0.15
  -6   6   6    1.62    0.16
  -5  -6   6    0.66    0.10
  -5  -6   6    0.58    0.10
  -5   6   6    0.98    0.14
  -5   6   6    0.69    0.14
   5   6  -6    0.77    0.11
  -4  -6   6    6.97    0.36
  -4  -6   6    7.31    0.37
   4   6  -6    6.54    0.37
   4   6  -6    6.77    0.37
  -4   6   6    6.94    0.39
  -4   6   6    6.70    0.38
  -3  -6   6    1.86    0.15
  -3  -6   6    1.62    0.15
   3   6  -6    1.89    0.16
  -3   6   6    1.92    0.18
  -3   6   6    1.65    0.18
   3   6  -6    1.88    0.17
  -2  -6   6    2.12    0.16
  -2  -6   6    2.10    0.16
   2   6  -6    1.95    0.16
  -2   6   6    2.28    0.19
   2   6  -6    2.26    0.18
   1  -6  -6    0.84    0.11
  -1  -6   6    0.75    0.11
  -1  -6   6    0.84    0.11
  -1   6   6    1.01    0.15
  -1   6   6    0.66    0.08
   1   6  -6    0.69    0.12
   0  -6  -6    1.24    0.11
   0  -6   6    1.45    0.13
   0   6   6    1.41    0.11
   0   6   6    1.68    0.17
   0   6  -6    1.72    0.15
  -1  -6  -6    0.69    0.08
   1  -6   6    0.70    0.09
  -1  -6  -6    0.73    0.09
   1   6   6    0.85    0.13
  -1   6  -6    0.77    0.12
   1   6   6    0.61    0.08
  -2  -6  -6    4.08    0.22
  -2  -6  -6    4.32    0.22
   2  -6   6    4.23    0.23
   2   6   6    3.91    0.22
  -2   6  -6    4.02    0.24
   2   6   6    4.32    0.26
  -3  -6  -6    0.40    0.07
   3  -6   6    0.41    0.07
  -3  -6  -6    0.41    0.06
   3   6   6    0.38    0.09
  -3   6  -6    0.26    0.09
  12   0  -7    0.89    0.07
 -12   0   7    0.99    0.13
 -12   0   7    1.01    0.14
 -12   0   7    0.90    0.13
 -12   0   7    1.00    0.13
 -12   0   7    1.09    0.13
  11   0  -7    0.19    0.04
 -11   0   7    0.19    0.08
 -11   0   7    0.17    0.09
  11   0  -7    0.22    0.05
 -11   0   7    0.20    0.10
 -11   0   7    0.20    0.10
 -11   0   7    0.19    0.09
 -10   0   7   24.03    1.16
 -10   0   7   23.36    1.15
 -10   0   7   23.64    1.16
  10   0  -7   24.81    1.09
  10   0  -7   23.52    1.10
 -10   0   7   22.70    1.14
 -10   0   7   23.40    1.15
   9   0  -7    6.26    0.30
   9   0  -7    5.15    0.43
   9   0  -7    6.19    0.30
  -9   0   7    5.47    0.34
  -9   0   7    5.51    0.36
  -9   0   7    5.73    0.35
  -9   0   7    5.85    0.36
  -9   0   7    5.66    0.35
   8   0  -7    4.47    0.24
  -8   0   7    4.48    0.29
  -8   0   7    4.89    0.30
   8   0  -7    4.83    0.25
  -8   0   7    4.61    0.29
   8   0  -7    4.05    0.36
  -8   0   7    4.14    0.28
  -8   0   7    4.73    0.30
   7   0  -7    4.12    0.21
   7   0  -7    3.85    0.20
  -7   0   7    3.89    0.25
  -7   0   7    3.62    0.25
  -7   0   7    3.68    0.24
   7   0  -7    3.47    0.31
  -7   0   7    3.31    0.23
  -7   0   7    3.64    0.25
   6   0  -7   39.31    1.71
  -6   0   7   37.25    1.75
  -6   0   7   35.35    1.74
  -6   0   7   36.91    1.75
   6   0  -7   36.66    1.82
   6   0  -7   39.26    1.71
   5   0  -7    2.69    0.15
   5   0  -7    2.82    0.15
   5   0  -7    2.41    0.26
  -5   0   7    2.71    0.18
  -4   0   7   11.42    0.54
   4   0  -7   10.85    0.50
   4   0  -7    9.89    0.82
  -3   0   7    8.76    0.41
   3   0  -7    7.05    0.62
  -2   0   7    5.80    0.28
  -2   0   7    5.40    0.30
  -2   0   7    5.53    0.28
  -2   0   7    5.82    0.39
  -2   0   7    5.30    0.46
  -1   0   7    0.49    0.07
  -1   0   7    0.45    0.12
  -1   0   7    0.49    0.06
  -1   0   7    0.43    0.16
  -1   0   7    0.47    0.06
   0   0   7   17.97    0.92
   0   0   7   16.46    1.02
   0   0   7   16.87    0.79
   0   0   7   16.06    0.81
   0   0   7   18.10    0.80
   1   0   7    4.76    0.25
  -1   0  -7    4.83    0.29
   1   0   7    5.02    0.25
   1   0   7    4.65    0.27
   1   0   7    4.38    0.44
   1   0   7    4.76    0.36
   2   0   7    0.35    0.13
   2   0   7    0.20    0.05
  -2   0  -7    0.17    0.08
  -2   0  -7    0.19    0.06
  -2   0  -7    0.18    0.07
   2   0   7    0.15    0.06
  -2   0  -7    0.33    0.08
   2   0   7    0.14    0.05
  -2   0  -7    0.31    0.10
  -2   0  -7    0.22    0.08
  -3   0  -7    0.16    0.07
  -3   0  -7    0.24    0.08
  -3   0  -7    0.22    0.10
   3   0   7    0.24    0.05
  -3   0  -7    0.21    0.08
   3   0   7    0.16    0.06
   3   0   7    0.22    0.12
  -3   0  -7    0.11    0.07
   3   0   7    0.19    0.05
  -3   0  -7    0.18    0.07
  -4   0  -7   19.68    0.99
   4   0   7   20.18    0.94
   4   0   7   20.06    0.97
   4   0   7   21.56    0.95
  -4   0  -7   20.73    0.99
   4   0   7   19.04    1.08
  -4   0  -7   20.31    1.01
  -4   0  -7   19.68    0.99
  -4   0  -7   20.31    0.98
  -5   0  -7    3.04    0.23
  -5   0  -7    2.73    0.23
   5   0   7    3.27    0.19
   5   0   7    2.98    0.18
  -5   0  -7    3.09    0.22
  -5   0  -7    3.22    0.25
  -5   0  -7    3.06    0.23
   5   0   7    3.31    0.22
  -6   0  -7    9.44    0.54
  -6   0  -7   10.79    0.55
  -6   0  -7   10.73    0.57
  -6   0  -7   11.02    0.55
   6   0   7    9.26    0.53
  -6   0  -7   10.13    0.53
   6   0   7   10.87    0.50
   6   0   7   10.92    0.51
  -7   0  -7    0.15    0.07
  -7   0  -7    0.02    0.08
  -7   0  -7    0.02    0.08
  -7   0  -7   -0.05    0.08
  -7   0  -7    0.07    0.08
   7   0   7   -0.03    0.04
   7   0   7    0.01    0.04
  -8   0  -7    5.57    0.31
  -8   0  -7    5.94    0.31
   8   0   7    5.27    0.29
  -8   0  -7    6.20    0.32
  12  -1  -7    1.83    0.11
 -12  -1   7    1.84    0.17
 -12  -1   7    1.87    0.17
 -12  -1   7    2.06    0.17
 -12  -1   7    1.89    0.16
 -12   1   7    2.11    0.17
 -12   1   7    1.99    0.16
 -12   1   7    1.98    0.17
 -12   1   7    1.98    0.15
 -12   1   7    1.96    0.16
  12   1  -7    2.01    0.12
  11  -1  -7    0.84    0.09
 -11  -1   7    1.11    0.15
 -11  -1   7    1.09    0.15
 -11  -1   7    0.93    0.13
  11  -1  -7    0.99    0.08
 -11  -1   7    0.99    0.13
  11   1  -7    0.94    0.09
 -11   1   7    0.85    0.14
 -11   1   7    0.88    0.14
 -11   1   7    0.82    0.14
 -11   1   7    0.82    0.14
 -11   1   7    1.09    0.14
  11   1  -7    1.07    0.08
 -10  -1   7    3.88    0.27
  10  -1  -7    4.00    0.21
 -10  -1   7    3.71    0.26
  10  -1  -7    3.50    0.21
 -10  -1   7    3.85    0.28
 -10  -1   7    4.26    0.28
 -10  -1   7    3.84    0.26
 -10   1   7    3.82    0.28
 -10   1   7    3.63    0.26
 -10   1   7    3.53    0.26
  10   1  -7    4.19    0.22
 -10   1   7    3.70    0.27
 -10   1   7    3.74    0.27
  10   1  -7    3.89    0.21
  -9  -1   7    6.56    0.41
   9  -1  -7    7.54    0.36
  -9  -1   7    7.25    0.42
  -9  -1   7    6.78    0.41
  -9  -1   7    6.83    0.40
   9  -1  -7    7.42    0.36
  -9  -1   7    7.04    0.41
  -9   1   7    7.36    0.42
  -9   1   7    7.00    0.42
   9   1  -7    7.40    0.36
   9   1  -7    6.57    0.50
  -9   1   7    7.25    0.41
  -9   1   7    7.43    0.42
   9   1  -7    7.27    0.36
  -9   1   7    6.97    0.41
  -8  -1   7    1.76    0.18
  -8  -1   7    1.91    0.18
  -8  -1   7    1.83    0.17
   8  -1  -7    1.78    0.12
   8  -1  -7    1.85    0.12
  -8  -1   7    1.66    0.16
  -8  -1   7    1.68    0.16
   8   1  -7    1.68    0.12
  -8   1   7    1.70    0.16
  -8   1   7    1.60    0.18
  -8   1   7    1.25    0.17
   8   1  -7    1.45    0.23
   8   1  -7    1.66    0.12
  -8   1   7    1.69    0.16
  -7  -1   7    2.43    0.19
  -7  -1   7    2.33    0.20
   7  -1  -7    2.49    0.15
  -7  -1   7    2.35    0.18
   7  -1  -7    2.41    0.14
  -7  -1   7    2.24    0.18
  -7  -1   7    2.23    0.19
  -7   1   7    2.07    0.18
   7   1  -7    2.21    0.24
  -7   1   7    2.37    0.21
  -7   1   7    2.38    0.18
   7   1  -7    2.48    0.15
  -7   1   7    2.33    0.19
   7   1  -7    2.43    0.15
  -6  -1   7    2.00    0.17
  -6  -1   7    2.17    0.16
   6  -1  -7    1.98    0.12
  -6  -1   7    1.77    0.23
  -6  -1   7    1.73    0.16
   6  -1  -7    1.90    0.12
  -6  -1   7    1.81    0.16
  -6   1   7    1.83    0.16
  -6   1   7    1.93    0.16
   6   1  -7    1.99    0.12
   6   1  -7    2.17    0.23
  -6   1   7    1.95    0.15
   6   1  -7    1.85    0.32
   6   1  -7    2.02    0.13
  -5  -1   7    6.79    0.37
  -5  -1   7    7.16    0.37
   5  -1  -7    6.44    0.33
   5   1  -7    5.73    0.52
  -5   1   7    7.02    0.37
   5   1  -7    7.25    0.34
   5   1  -7    7.57    0.34
   5   1  -7    6.89    0.44
  -5   1   7    6.75    0.37
  -4  -1   7    2.88    0.18
  -4   1   7    2.66    0.18
   4   1  -7    3.23    0.68
   4   1  -7    2.63    0.15
   4   1  -7    2.90    0.16
   3  -1  -7    0.19    0.20
  -3  -1   7    0.25    0.05
  -3   1   7    0.18    0.06
  -3   1   7    0.20    0.05
  -3   1   7    0.27    0.07
  -2  -1   7   13.82    0.70
  -2   1   7   13.59    0.89
  -2   1   7   15.05    0.68
  -2   1   7   15.42    0.69
  -2   1   7   14.59    0.80
  -1  -1   7    4.33    0.23
  -1  -1   7    4.36    0.25
  -1  -1   7    4.48    0.34
  -1  -1   7    4.39    0.23
  -1   1   7    4.12    0.40
  -1   1   7    4.84    0.35
  -1   1   7    4.43    0.24
  -1   1   7    4.87    0.24
   0  -1   7   22.73    0.98
   0  -1   7   22.18    0.98
   0  -1   7   20.17    1.10
   0  -1   7   18.92    1.21
   0  -1   7   20.62    1.00
   0   1   7   19.24    1.19
   0   1   7   22.22    0.98
   0   1   7   21.39    0.98
   0   1   7   21.98    1.10
   1  -1   7    7.50    0.39
   1  -1   7    8.00    0.37
  -1  -1  -7    7.28    0.40
  -1  -1  -7    7.60    0.40
  -1  -1  -7    7.80    0.40
  -1  -1  -7    7.50    0.40
  -1  -1  -7    7.41    0.41
   1  -1   7    6.74    0.58
   1  -1   7    7.31    0.37
   1  -1   7    6.92    0.49
   1   1   7    7.74    0.37
  -1   1  -7    7.47    0.40
   1   1   7    8.31    0.50
   1   1   7    6.58    0.55
   1   1   7    7.57    0.37
  -1   1  -7    7.33    0.42
  -1   1  -7    7.13    0.40
  -1   1  -7    7.18    0.40
  -2  -1  -7   14.03    0.68
  -2  -1  -7   13.20    0.70
  -2  -1  -7   14.10    0.68
  -2  -1  -7   13.82    0.69
   2  -1   7   14.13    0.80
   2  -1   7   14.21    0.68
   2  -1   7   14.56    0.66
   2  -1   7   13.41    0.65
  -2  -1  -7   14.18    0.69
  -2   1  -7   12.93    0.69
   2   1   7   14.26    0.66
  -2   1  -7   14.10    0.69
  -2   1  -7   12.85    0.70
  -2   1  -7   14.15    0.71
  -2   1  -7   13.40    0.68
  -2   1  -7   13.32    0.69
   2   1   7   13.83    0.78
   2   1   7   13.33    0.65
   3  -1   7    2.30    0.15
  -3  -1  -7    2.36    0.19
   3  -1   7    2.54    0.16
  -3  -1  -7    2.43    0.18
  -3  -1  -7    2.43    0.18
  -3  -1  -7    2.30    0.19
   3  -1   7    2.45    0.18
   3  -1   7    2.47    0.28
  -3  -1  -7    2.53    0.20
   3   1   7    2.38    0.26
  -3   1  -7    2.42    0.19
  -3   1  -7    2.39    0.21
  -3   1  -7    2.36    0.20
   3   1   7    2.37    0.15
  -3   1  -7    2.38    0.19
  -3   1  -7    2.38    0.20
   4  -1   7   15.98    0.78
   4  -1   7   16.68    0.75
  -4  -1  -7   14.91    0.78
  -4  -1  -7   16.25    0.81
  -4  -1  -7   15.06    0.77
  -4  -1  -7   15.91    0.78
   4  -1   7   13.98    0.89
   4  -1   7   15.63    0.74
  -4  -1  -7   15.82    0.78
  -4   1  -7   15.60    0.79
  -4   1  -7   15.83    0.79
  -4   1  -7   15.75    0.80
   4   1   7   14.47    0.86
  -4   1  -7   16.24    0.79
   4   1   7   17.03    0.75
  -4   1  -7   15.04    0.80
  -5  -1  -7    1.38    0.15
   5  -1   7    1.29    0.11
  -5  -1  -7    1.41    0.17
   5  -1   7    1.47    0.12
  -5  -1  -7    1.50    0.14
   5  -1   7    1.41    0.14
  -5  -1  -7    1.56    0.16
  -5  -1  -7    1.18    0.14
  -5   1  -7    1.61    0.18
  -5   1  -7    1.39    0.15
  -5   1  -7    1.42    0.17
  -5   1  -7    1.42    0.16
   5   1   7    1.52    0.11
  -5   1  -7    1.50    0.17
  -6  -1  -7    0.63    0.11
   6  -1   7    0.66    0.09
   6  -1   7    0.76    0.12
   6  -1   7    0.79    0.08
  -6  -1  -7    0.91    0.12
  -6  -1  -7    0.58    0.12
  -6  -1  -7    0.51    0.10
  -6   1  -7    0.53    0.12
   6   1   7    0.58    0.08
  -6   1  -7    0.76    0.13
  -6   1  -7    0.74    0.13
  -6   1  -7    0.78    0.14
  -6   1  -7    0.91    0.13
   7  -1   7    1.90    0.13
   7  -1   7    2.17    0.13
  -7  -1  -7    2.00    0.18
  -7  -1  -7    1.90    0.15
  -7  -1  -7    1.90    0.16
  -7  -1  -7    2.07    0.17
   7  -1   7    1.87    0.16
   7   1   7    1.82    0.13
  -7   1  -7    2.26    0.19
  -7   1  -7    2.19    0.17
  -7   1  -7    1.82    0.15
  -7   1  -7    2.02    0.17
  -7   1  -7    2.03    0.18
  -8  -1  -7    1.05    0.12
   8  -1   7    0.93    0.07
  -8  -1  -7    0.80    0.10
  -8  -1  -7    0.86    0.10
  -8   1  -7    0.92    0.11
  -8   1  -7    1.06    0.11
  -8   1  -7    0.91    0.11
 -12  -2   7    0.84    0.13
 -12  -2   7    1.04    0.11
 -12  -2   7    0.96    0.11
 -12   2   7    1.00    0.11
 -12   2   7    1.00    0.13
  12   2  -7    1.08    0.07
 -11  -2   7    2.15    0.18
 -11  -2   7    2.59    0.19
 -11  -2   7    2.24    0.19
 -11  -2   7    2.01    0.18
  11  -2  -7    1.90    0.12
 -11   2   7    1.90    0.18
 -11   2   7    2.20    0.18
  11   2  -7    2.07    0.13
 -11   2   7    2.69    0.19
 -11   2   7    2.26    0.20
  11   2  -7    2.35    0.13
  10  -2  -7    0.74    0.07
 -10  -2   7    0.82    0.14
 -10  -2   7    0.83    0.14
 -10  -2   7    0.78    0.14
 -10  -2   7    0.75    0.12
 -10   2   7    1.03    0.16
  10   2  -7    0.93    0.09
 -10   2   7    0.97    0.15
  10   2  -7    0.89    0.08
 -10   2   7    0.89    0.15
 -10   2   7    0.77    0.15
 -10   2   7    1.00    0.14
  -9  -2   7    2.74    0.22
  -9  -2   7    2.65    0.20
  -9  -2   7    2.43    0.20
  -9  -2   7    2.51    0.19
   9  -2  -7    2.55    0.15
   9   2  -7    2.55    0.15
  -9   2   7    2.39    0.20
   9   2  -7    2.57    0.16
  -9   2   7    2.23    0.20
  -9   2   7    2.15    0.21
  -9   2   7    2.40    0.21
  -9   2   7    2.26    0.20
  -8  -2   7    9.43    0.48
  -8  -2   7    9.00    0.48
  -8  -2   7    8.61    0.48
  -8  -2   7    9.26    0.49
   8  -2  -7    7.74    0.42
   8   2  -7    9.20    0.43
  -8   2   7    9.10    0.48
  -8   2   7    8.76    0.50
  -8   2   7    7.28    0.46
  -8   2   7    8.64    0.48
   8   2  -7    9.73    0.44
   8   2  -7    7.69    0.55
   7  -2  -7    0.72    0.07
  -7  -2   7    0.94    0.12
  -7  -2   7    0.84    0.12
  -7  -2   7    0.70    0.11
  -7  -2   7    0.88    0.12
   7   2  -7    0.80    0.08
   7   2  -7    0.61    0.11
  -7   2   7    0.81    0.12
  -7   2   7    0.68    0.14
   7   2  -7    0.77    0.08
  -7   2   7    0.75    0.14
   7   2  -7    0.50    0.15
  -6  -2   7   24.52    1.17
  -6  -2   7   25.74    1.17
  -6  -2   7   23.53    1.16
  -6  -2   7   25.01    1.16
   6   2  -7   25.73    1.13
   6   2  -7   25.03    1.13
   6   2  -7   22.32    1.15
  -6   2   7   24.30    1.16
  -6   2   7   23.51    1.18
   6   2  -7   23.44    1.24
  -5  -2   7    1.65    0.14
  -5  -2   7    1.75    0.15
  -5  -2   7    1.68    0.15
   5   2  -7    1.75    0.12
  -5   2   7    1.47    0.15
  -5   2   7    1.63    0.17
   5   2  -7    1.82    0.16
   5   2  -7    1.74    0.12
   5   2  -7    1.92    0.22
  -4  -2   7    4.27    0.25
  -4  -2   7    4.48    0.26
  -4  -2   7    4.35    0.26
   4   2  -7    3.94    0.27
  -4   2   7    4.26    0.26
  -4   2   7    4.45    0.28
   4   2  -7    4.10    0.23
   4   2  -7    4.51    0.23
  -3  -2   7   10.43    0.49
  -3  -2   7    9.40    0.49
   3  -2  -7    9.73    0.51
  -3   2   7    9.88    0.47
  -3   2   7    8.94    0.47
   3   2  -7    9.14    0.45
   3   2  -7    9.45    0.49
   2  -2  -7    5.23    0.32
  -2  -2   7    5.70    0.30
  -2  -2   7    5.29    0.31
  -2   2   7    5.67    0.29
  -2   2   7    5.67    0.28
  -2   2   7    4.70    0.47
  -2   2   7    5.41    0.41
   2   2  -7    5.26    0.31
  -1  -2   7    0.74    0.09
   1  -2  -7    0.74    0.10
  -1  -2   7    0.59    0.08
   1  -2  -7    0.50    0.09
  -1  -2   7    0.56    0.07
  -1   2   7    0.78    0.08
  -1   2   7    0.65    0.16
  -1   2   7    0.69    0.08
   1   2  -7    0.73    0.11
   1   2  -7    0.71    0.12
  -1   2   7    0.59    0.21
   0  -2   7    7.13    0.41
   0  -2   7    7.81    0.39
   0  -2   7    7.26    0.40
   0  -2  -7    7.87    0.42
   0  -2   7    8.63    0.43
   0  -2  -7    7.52    0.42
   0  -2  -7    7.99    0.42
   0  -2  -7    8.22    0.43
   0  -2  -7    8.27    0.44
   0   2  -7    9.21    0.46
   0   2  -7    7.72    0.43
   0   2   7    8.06    0.52
   0   2   7    8.46    0.40
   0   2   7    8.46    0.40
   0   2  -7    7.87    0.43
  -1  -2  -7    1.71    0.14
  -1  -2  -7    1.65    0.16
   1  -2   7    1.65    0.12
   1  -2   7    1.61    0.11
   1  -2   7    1.77    0.14
  -1  -2  -7    1.60    0.15
   1  -2   7    1.42    0.13
  -1  -2  -7    1.67    0.15
  -1  -2  -7    1.69    0.14
  -1   2  -7    1.59    0.17
   1   2   7    1.45    0.12
  -1   2  -7    1.65    0.16
  -1   2  -7    1.52    0.18
   1   2   7    1.55    0.12
   1   2   7    1.78    0.22
  -1   2  -7    1.58    0.17
  -1   2  -7    1.82    0.16
  -2  -2  -7    0.52    0.10
   2  -2   7    0.49    0.09
  -2  -2  -7    0.53    0.11
  -2  -2  -7    0.56    0.10
   2  -2   7    0.57    0.10
  -2  -2  -7    0.47    0.10
   2  -2   7    0.50    0.07
  -2  -2  -7    0.53    0.10
   2  -2   7    0.62    0.08
   2  -2   7    0.48    0.18
   2   2   7    0.43    0.08
   2   2   7    0.51    0.07
  -2   2  -7    0.71    0.12
  -2   2  -7    0.70    0.12
  -2   2  -7    0.51    0.11
  -2   2  -7    0.55    0.11
   2   2   7    0.74    0.18
  -3  -2  -7    6.37    0.36
  -3  -2  -7    6.56    0.36
  -3  -2  -7    6.61    0.38
   3  -2   7    6.44    0.33
  -3  -2  -7    6.54    0.36
   3  -2   7    5.41    0.48
   3  -2   7    6.56    0.33
  -3  -2  -7    6.56    0.37
   3  -2   7    5.89    0.34
   3  -2   7    6.40    0.36
   3   2   7    6.05    0.45
  -3   2  -7    5.87    0.37
  -3   2  -7    5.95    0.37
  -3   2  -7    6.32    0.37
   3   2   7    6.78    0.33
  -3   2  -7    6.18    0.38
  -3   2  -7    6.48    0.37
  -4  -2  -7    4.62    0.30
  -4  -2  -7    4.34    0.28
  -4  -2  -7    4.76    0.28
   4  -2   7    4.66    0.25
  -4  -2  -7    4.83    0.29
   4  -2   7    4.79    0.26
   4  -2   7    4.82    0.29
  -4  -2  -7    4.77    0.30
  -4   2  -7    4.60    0.31
  -4   2  -7    4.80    0.30
   4   2   7    3.92    0.46
  -4   2  -7    4.69    0.30
  -4   2  -7    4.41    0.30
   4   2   7    4.93    0.26
  -4   2  -7    4.55    0.30
   5  -2   7   12.00    0.60
  -5  -2  -7   10.63    0.59
  -5  -2  -7   11.79    0.61
  -5  -2  -7   12.10    0.62
   5  -2   7   12.23    0.57
  -5  -2  -7   12.39    0.60
   5  -2   7   12.03    0.58
  -5  -2  -7   11.72    0.59
   5   2   7   11.48    0.57
  -5   2  -7   11.83    0.63
  -5   2  -7   11.95    0.63
  -5   2  -7   11.62    0.61
  -5   2  -7   11.53    0.62
  -5   2  -7   11.71    0.60
   6  -2   7    1.40    0.13
  -6  -2  -7    1.18    0.14
  -6  -2  -7    1.16    0.15
   6  -2   7    1.25    0.11
  -6  -2  -7    1.23    0.13
   6  -2   7    1.29    0.10
  -6   2  -7    1.49    0.15
   6   2   7    1.19    0.10
  -6   2  -7    1.20    0.14
  -6   2  -7    1.22    0.16
  -6   2  -7    1.13    0.16
  -6   2  -7    1.28    0.16
  -7  -2  -7    1.63    0.13
   7  -2   7    1.80    0.14
  -7  -2  -7    1.59    0.15
   7  -2   7    1.84    0.11
  -7  -2  -7    1.60    0.15
  -7   2  -7    1.71    0.16
  -7   2  -7    1.54    0.16
  -7   2  -7    1.81    0.16
  -7   2  -7    1.79    0.15
  -8   2  -7    1.95    0.13
  -8   2  -7    2.06    0.14
  -8   2  -7    1.78    0.13
 -11  -3   7    0.54    0.09
  11  -3  -7    0.31    0.07
 -11   3   7    0.59    0.10
 -11   3   7    0.46    0.09
  11   3  -7    0.52    0.05
 -10  -3   7    0.91    0.12
 -10  -3   7    0.46    0.11
 -10  -3   7    1.00    0.14
 -10  -3   7    0.76    0.12
  10  -3  -7    0.93    0.11
  10   3  -7    0.90    0.08
 -10   3   7    0.90    0.14
  10   3  -7    0.80    0.08
 -10   3   7    0.87    0.14
  -9  -3   7    3.54    0.25
  -9  -3   7    3.52    0.26
  -9  -3   7    3.69    0.25
  -9  -3   7    3.33    0.24
   9   3  -7    3.70    0.20
  -9   3   7    3.75    0.26
   9   3  -7    3.57    0.20
  -9   3   7    3.41    0.26
  -8  -3   7   15.38    0.79
  -8  -3   7   14.74    0.79
  -8  -3   7   15.70    0.79
  -8  -3   7   16.47    0.80
   8   3  -7   16.68    0.75
  -8   3   7   15.59    0.79
   8   3  -7   16.48    0.75
   8   3  -7   14.84    0.78
  -8   3   7   16.32    0.82
  -7  -3   7   10.95    0.58
  -7  -3   7   11.17    0.58
  -7  -3   7   10.48    0.58
  -7  -3   7   11.41    0.59
   7   3  -7   11.47    0.54
  -7   3   7   11.17    0.61
  -7   3   7   10.78    0.58
   7   3  -7   10.16    0.57
   7   3  -7   11.51    0.54
  -6  -3   7   11.22    0.59
  -6  -3   7   11.53    0.60
  -6  -3   7   11.59    0.60
  -6  -3   7   11.26    0.60
   6   3  -7   12.17    0.56
   6   3  -7   11.31    0.56
  -6   3   7   11.16    0.60
  -6   3   7   11.80    0.63
  -5  -3   7   22.59    1.09
  -5  -3   7   21.58    1.08
  -5  -3   7   23.62    1.09
  -5  -3   7   21.85    1.08
  -5   3   7   21.56    1.08
  -5   3   7   22.98    1.12
   5   3  -7   23.19    1.05
   5   3  -7   23.47    1.05
  -4  -3   7    1.42    0.13
  -4  -3   7    1.27    0.13
  -4  -3   7    1.24    0.14
  -4   3   7    1.35    0.15
  -4   3   7    0.95    0.14
   4   3  -7    1.40    0.15
   4   3  -7    1.28    0.11
   4   3  -7    1.36    0.10
  -3  -3   7    9.32    0.49
   3  -3  -7    9.04    0.48
  -3  -3   7    9.19    0.48
  -3  -3   7    9.33    0.48
   3   3  -7    9.11    0.49
  -3   3   7    9.28    0.47
  -3   3   7    9.29    0.52
  -3   3   7    8.43    0.47
   3   3  -7    9.85    0.49
  -3   3   7    9.49    0.46
   3   3  -7    9.36    0.45
  -2  -3   7    2.53    0.18
  -2  -3   7    2.62    0.18
   2  -3  -7    2.37    0.18
  -2  -3   7    2.72    0.19
   2  -3  -7    2.41    0.18
   2  -3  -7    2.65    0.20
  -2   3   7    2.59    0.17
  -2   3   7    2.75    0.17
  -2   3   7    2.17    0.29
   2   3  -7    2.65    0.20
   2   3  -7    2.74    0.21
  -1  -3   7    0.87    0.11
   1  -3  -7    0.93    0.12
  -1  -3   7    0.83    0.12
   1  -3  -7    0.90    0.11
   1  -3  -7    1.02    0.12
  -1  -3   7    1.09    0.12
   1  -3  -7    1.02    0.13
  -1   3   7    0.99    0.10
   1   3  -7    1.15    0.15
  -1   3   7    0.89    0.21
  -1   3   7    0.96    0.10
   1   3  -7    0.70    0.12
   0  -3   7    4.56    0.26
   0  -3  -7    4.48    0.28
   0  -3  -7    4.41    0.26
   0  -3  -7    4.05    0.26
   0  -3   7    4.30    0.27
   0  -3   7    4.75    0.27
   0  -3  -7    4.42    0.27
   0   3   7    4.12    0.38
   0   3  -7    4.13    0.28
   0   3  -7    4.09    0.27
   0   3   7    4.57    0.25
   0   3   7    4.21    0.24
   1  -3   7    7.18    0.37
   1  -3   7    6.57    0.36
  -1  -3  -7    6.56    0.37
   1  -3   7    7.48    0.38
  -1  -3  -7    6.64    0.37
  -1  -3  -7    6.66    0.38
   1  -3   7    6.15    0.33
  -1  -3  -7    6.65    0.38
  -1   3  -7    7.01    0.39
   1   3   7    6.68    0.35
  -1   3  -7    5.81    0.38
   1   3   7    6.99    0.35
   1   3   7    6.42    0.48
  -1   3  -7    6.18    0.37
  -2  -3  -7    2.73    0.21
   2  -3   7    2.85    0.20
  -2  -3  -7    2.92    0.22
  -2  -3  -7    2.78    0.20
  -2  -3  -7    2.78    0.21
   2  -3   7    2.63    0.16
   2  -3   7    2.71    0.19
   2   3   7    2.19    0.29
   2   3   7    2.68    0.17
  -2   3  -7    2.42    0.22
   2   3   7    2.56    0.17
  -2   3  -7    2.83    0.22
  -3  -3  -7    1.20    0.14
  -3  -3  -7    1.08    0.14
  -3  -3  -7    1.10    0.15
   3  -3   7    1.02    0.12
   3  -3   7    1.12    0.13
  -3  -3  -7    1.09    0.13
   3  -3   7    0.97    0.10
   3   3   7    1.09    0.11
  -3   3  -7    1.23    0.16
  -3   3  -7    1.23    0.16
  -3   3  -7    1.06    0.15
   3   3   7    1.18    0.11
  -4  -3  -7    5.76    0.33
   4  -3   7    5.67    0.29
   4  -3   7    4.63    0.29
  -4  -3  -7    5.84    0.34
  -4  -3  -7    5.77    0.32
   4  -3   7    5.73    0.32
  -4  -3  -7    5.87    0.32
   4  -3   7    5.50    0.31
   4   3   7    5.36    0.29
  -4   3  -7    5.77    0.33
  -4   3  -7    5.47    0.35
  -4   3  -7    5.05    0.32
  -4   3  -7    5.92    0.35
   5  -3   7    2.28    0.17
  -5  -3  -7    3.07    0.20
  -5  -3  -7    3.03    0.19
  -5  -3  -7    2.94    0.19
   5  -3   7    2.81    0.16
  -5  -3  -7    2.76    0.21
   5  -3   7    2.76    0.20
   5  -3   7    2.59    0.18
  -5   3  -7    2.69    0.20
  -5   3  -7    2.86    0.20
   5   3   7    2.47    0.16
  -5   3  -7    2.83    0.21
  -5   3  -7    3.14    0.22
  -5   3  -7    2.28    0.21
  -6  -3  -7    0.49    0.09
   6  -3   7    0.67    0.09
  -6  -3  -7    0.49    0.08
   6  -3   7    0.57    0.06
   6  -3   7    0.65    0.10
  -6  -3  -7    0.77    0.10
  -6  -3  -7    0.64    0.10
  -6   3  -7    0.80    0.13
  -6   3  -7    0.41    0.10
  -6   3  -7    0.36    0.08
  -6   3  -7    0.47    0.09
  -7  -3  -7    1.81    0.13
  -7  -3  -7    1.89    0.13
  -7   3  -7    2.51    0.18
  -7   3  -7    2.19    0.15
  -7   3  -7    2.05    0.17
 -10  -4   7    1.76    0.13
  10  -4  -7    1.19    0.11
 -10  -4   7    1.76    0.14
 -10   4   7    1.62    0.15
  10   4  -7    1.42    0.09
  -9  -4   7    1.07    0.12
   9  -4  -7    0.93    0.11
  -9  -4   7    1.04    0.13
  -9   4   7    1.04    0.14
   9   4  -7    1.10    0.14
   9   4  -7    1.06    0.09
   9   4  -7    1.17    0.09
  -9   4   7    1.31    0.16
  -8  -4   7    1.96    0.16
   8  -4  -7    1.73    0.15
  -8  -4   7    1.99    0.16
  -8   4   7    1.31    0.20
   8   4  -7    1.82    0.12
   8   4  -7    1.95    0.18
  -8   4   7    1.75    0.18
   8   4  -7    1.77    0.13
  -7  -4   7    0.79    0.12
  -7  -4   7    0.82    0.13
   7   4  -7    0.82    0.08
   7   4  -7    0.71    0.12
   7   4  -7    0.66    0.09
  -7   4   7    0.80    0.15
  -6  -4   7    6.55    0.37
  -6  -4   7    6.32    0.36
  -6   4   7    6.24    0.41
   6   4  -7    5.94    0.32
   6   4  -7    6.34    0.33
  -5  -4   7    2.99    0.22
  -5  -4   7    2.97    0.21
  -5   4   7    3.21    0.25
   5   4  -7    3.34    0.18
   5   4  -7    2.73    0.18
  -5   4   7    2.93    0.25
  -4  -4   7    0.83    0.13
  -4  -4   7    1.22    0.13
  -4  -4   7    1.13    0.15
  -4  -4   7    0.90    0.12
  -4   4   7    1.22    0.17
   4   4  -7    1.22    0.15
   4   4  -7    0.84    0.15
   4   4  -7    1.12    0.09
  -3  -4   7    8.35    0.43
  -3  -4   7    7.41    0.43
  -3  -4   7    7.64    0.43
   3  -4  -7    8.43    0.43
  -3   4   7    8.45    0.47
  -3   4   7    8.00    0.40
   3   4  -7    8.75    0.44
   3   4  -7    6.66    0.40
   3   4  -7    7.99    0.45
  -2  -4   7    1.37    0.13
  -2  -4   7    1.15    0.15
   2  -4  -7    1.12    0.14
   2  -4  -7    1.52    0.15
  -2  -4   7    1.66    0.14
  -2   4   7    1.33    0.12
   2   4  -7    1.49    0.16
  -2   4   7    1.39    0.14
   2   4  -7    1.17    0.17
  -2   4   7    1.58    0.17
  -1  -4   7    3.07    0.21
  -1  -4   7    3.18    0.22
  -1  -4   7    3.10    0.21
   1  -4  -7    3.30    0.22
   1  -4  -7    3.18    0.21
   1  -4  -7    3.30    0.21
   1   4  -7    3.38    0.25
  -1   4   7    3.44    0.20
   1   4  -7    3.26    0.22
  -1   4   7    3.07    0.25
  -1   4   7    3.35    0.21
  -1   4   7    2.18    0.52
   0  -4  -7    5.48    0.31
   0  -4   7    5.52    0.32
   0  -4  -7    5.24    0.31
   0  -4   7    5.15    0.31
   0  -4   7    5.67    0.32
   0  -4  -7    5.59    0.32
   0   4   7    5.68    0.30
   0   4   7    5.41    0.30
   0   4   7    4.78    0.54
   0   4  -7    4.96    0.32
   0   4  -7    5.53    0.34
  -1  -4  -7   15.05    0.76
  -1  -4  -7   16.05    0.76
   1  -4   7   15.00    0.76
   1  -4   7   15.83    0.76
  -1  -4  -7   15.33    0.77
  -1  -4  -7   15.44    0.76
   1  -4   7   14.70    0.76
  -1   4  -7   15.16    0.78
   1   4   7   15.88    0.75
   1   4   7   15.17    0.74
   2  -4   7    2.89    0.20
   2  -4   7    2.90    0.20
  -2  -4  -7    2.75    0.20
  -2  -4  -7    3.22    0.21
  -2  -4  -7    2.73    0.22
  -2  -4  -7    3.14    0.21
   2  -4   7    2.55    0.21
  -2   4  -7    2.59    0.23
   2   4   7    2.99    0.19
   2   4   7    2.91    0.19
  -2   4  -7    2.82    0.22
  -3  -4  -7    0.75    0.12
  -3  -4  -7    0.75    0.11
   3  -4   7    0.61    0.10
  -3  -4  -7    0.64    0.12
   3  -4   7    0.61    0.12
  -3  -4  -7    0.85    0.12
   3  -4   7    0.63    0.11
  -3   4  -7    0.78    0.14
   3   4   7    0.75    0.09
   3   4   7    0.81    0.09
   3   4   7    0.53    0.09
  -3   4  -7    0.82    0.16
  -4  -4  -7    0.99    0.13
   4  -4   7    0.90    0.12
  -4  -4  -7    1.13    0.11
  -4  -4  -7    1.31    0.13
  -4  -4  -7    1.14    0.12
   4  -4   7    1.04    0.13
   4  -4   7    1.17    0.12
   4   4   7    0.96    0.10
  -4   4  -7    1.13    0.13
  -4   4  -7    1.26    0.15
   4   4   7    1.09    0.10
   5  -4   7    0.78    0.10
   5  -4   7    0.73    0.10
  -5  -4  -7    0.88    0.11
  -5  -4  -7    0.86    0.10
   5  -4   7    0.79    0.10
  -5  -4  -7    0.80    0.10
  -5   4  -7    0.77    0.10
   5   4   7    0.77    0.08
  -5   4  -7    1.07    0.13
   6  -4   7    1.93    0.14
  -6  -4  -7    2.25    0.13
   6  -4   7    1.86    0.13
  -6  -4  -7    1.68    0.15
  -6   4  -7    2.48    0.15
  -9  -5   7    3.29    0.24
  -9   5   7    4.54    0.24
  -8  -5   7    0.26    0.07
  -8  -5   7    0.51    0.09
   8   5  -7    0.28    0.07
  -8   5   7    0.67    0.12
   8   5  -7    0.46    0.05
  -7  -5   7    0.10    0.06
  -7  -5   7    0.09    0.06
   7   5  -7   -0.01    0.03
   7   5  -7   -0.02    0.07
  -7   5   7    0.17    0.09
  -6  -5   7    0.16    0.07
  -6  -5   7    0.02    0.06
   6   5  -7    0.12    0.08
   6   5  -7    0.17    0.04
  -6   5   7    0.13    0.10
  -5  -5   7    1.36    0.14
  -5  -5   7    1.49    0.14
   5   5  -7    1.24    0.15
  -5   5   7    1.25    0.18
  -5   5   7    1.21    0.18
   5   5  -7    1.02    0.09
  -4  -5   7    2.66    0.19
  -4  -5   7    2.69    0.20
  -4   5   7    2.85    0.24
   4   5  -7    2.74    0.22
   4   5  -7    2.88    0.22
  -4   5   7    2.82    0.24
  -3  -5   7    6.84    0.38
  -3  -5   7    7.17    0.38
   3   5  -7    6.81    0.39
  -3   5   7    7.05    0.42
  -3   5   7    6.90    0.41
   3   5  -7    7.13    0.40
  -2  -5   7    1.07    0.12
   2   5  -7    0.91    0.15
   2   5  -7    1.04    0.15
  -2   5   7    1.06    0.10
  -2   5   7    0.98    0.15
   1  -5  -7    2.44    0.18
   1  -5  -7    2.31    0.17
  -1  -5   7    2.23    0.17
   1  -5  -7    2.11    0.16
   1   5  -7    2.52    0.20
  -1   5   7    2.34    0.16
  -1   5   7    2.56    0.22
  -1   5   7    2.07    0.17
   1   5  -7    1.99    0.18
   0  -5   7    0.40    0.08
   0  -5  -7    0.53    0.09
   0  -5  -7    0.74    0.11
   0  -5  -7    0.67    0.11
   0   5   7    0.74    0.15
   0   5   7    0.64    0.09
   0   5  -7    0.76    0.13
   0   5   7    0.66    0.10
  -1  -5  -7    4.10    0.23
  -1  -5  -7    3.75    0.24
  -1  -5  -7    4.27    0.25
   1  -5   7    4.14    0.24
   1   5   7    3.62    0.23
   1   5   7    3.50    0.26
   1   5   7    4.07    0.23
  -1   5  -7    4.03    0.26
  -2  -5  -7    3.51    0.21
   2  -5   7    3.35    0.21
  -2  -5  -7    3.38    0.22
  -2  -5  -7    3.48    0.21
   2   5   7    3.27    0.21
   2   5   7    3.61    0.20
  -2   5  -7    3.19    0.23
  -3  -5  -7    2.47    0.17
  -3  -5  -7    2.60    0.17
   3  -5   7    2.50    0.17
  -3  -5  -7    2.64    0.16
   3   5   7    2.51    0.15
  -3   5  -7    2.29    0.18
  -3   5  -7    2.36    0.18
   4  -5   7    0.39    0.07
  -4  -5  -7    0.42    0.07
  -4  -5  -7    0.44    0.07
  -4  -5  -7    0.42    0.08
  -4   5  -7    0.30    0.07
   4   5   7    0.38    0.06
  -4   5  -7    0.37    0.08
  -6  -6   7    2.07    0.17
   6   6  -7    3.00    0.17
  -6   6   7    2.79    0.18
  -5  -6   7    2.11    0.15
  -5  -6   7    2.09    0.15
   5   6  -7    2.66    0.16
  -5   6   7    1.90    0.16
  -5   6   7    2.34    0.17
  -4  -6   7    3.22    0.20
  -4  -6   7    3.60    0.21
   4   6  -7    3.69    0.21
   4   6  -7    3.35    0.21
  -4   6   7    3.12    0.23
  -3  -6   7    3.30    0.19
  -3  -6   7    2.95    0.19
  -3   6   7    3.01    0.22
  -3   6   7    3.24    0.22
   3   6  -7    2.87    0.19
   3   6  -7    3.27    0.20
  -2  -6   7    5.32    0.28
  -2   6   7    5.58    0.31
   2   6  -7    4.43    0.27
   2   6  -7    4.98    0.28
  -1  -6   7    2.97    0.18
   1   6  -7    3.00    0.20
  -1   6   7    2.83    0.21
   0  -6  -7    1.16    0.09
   0  -6   7    1.17    0.11
   0   6   7    1.39    0.15
   0   6  -7    1.26    0.12
  -1  -6  -7    4.71    0.26
  -1  -6  -7    4.41    0.24
   1   6   7    5.17    0.28
  -1   6  -7    4.80    0.26
  12   0  -8    0.05    0.03
 -12   0   8    0.02    0.07
 -12   0   8    0.07    0.06
 -12   0   8   -0.03    0.07
 -12   0   8    0.00    0.06
 -12   0   8    0.06    0.07
  11   0  -8    0.24    0.05
 -11   0   8    0.26    0.09
 -11   0   8    0.25    0.09
 -11   0   8    0.30    0.10
 -11   0   8    0.24    0.09
  11   0  -8    0.20    0.04
 -11   0   8    0.13    0.09
 -10   0   8    0.07    0.08
  10   0  -8    0.04    0.04
  10   0  -8    0.02    0.04
 -10   0   8    0.11    0.08
 -10   0   8    0.03    0.09
 -10   0   8    0.00    0.08
 -10   0   8    0.02    0.08
   9   0  -8    3.84    0.22
  -9   0   8    3.42    0.26
  -9   0   8    3.96    0.28
  -9   0   8    3.84    0.27
  -9   0   8    3.73    0.27
  -9   0   8    4.11    0.26
   9   0  -8    3.95    0.21
   8   0  -8    1.92    0.12
  -8   0   8    1.68    0.18
  -8   0   8    1.74    0.17
  -8   0   8    1.55    0.16
  -8   0   8    1.56    0.16
  -8   0   8    1.75    0.16
   8   0  -8    1.65    0.12
  -7   0   8    0.83    0.13
  -7   0   8    0.97    0.12
  -7   0   8    0.84    0.12
   7   0  -8    0.88    0.09
   7   0  -8    0.95    0.08
  -6   0   8    3.09    0.23
  -6   0   8    3.41    0.22
   6   0  -8    3.52    0.18
   6   0  -8    3.25    0.19
  -6   0   8    3.43    0.23
   5   0  -8    1.35    0.14
  -5   0   8    1.48    0.13
  -5   0   8    1.55    0.14
   5   0  -8    1.48    0.09
  -5   0   8    1.48    0.14
   4   0  -8    0.25    0.09
  -4   0   8    0.34    0.08
  -4   0   8    0.26    0.07
  -4   0   8    0.31    0.07
  -3   0   8    0.25    0.06
  -3   0   8    0.23    0.07
   3   0  -8    0.31    0.12
  -2   0   8    0.76    0.08
   2   0  -8    0.53    0.11
  -2   0   8    0.70    0.09
  -2   0   8    0.72    0.07
   1   0  -8   43.91    2.01
  -1   0   8   42.34    2.13
  -1   0   8   42.44    2.00
   1   0  -8   41.69    2.01
  -1   0   8   45.05    1.98
  -1   0   8   43.45    1.99
  -1   0   8   46.48    2.63
   0   0  -8   15.40    0.82
   0   0   8   17.24    0.80
   0   0   8   15.83    0.82
   0   0  -8   16.47    0.82
   0   0  -8   17.75    0.83
   0   0  -8   18.08    0.83
   0   0   8   18.40    0.81
   0   0  -8   16.53    0.84
   0   0   8   16.91    0.94
   0   0   8   17.46    0.82
  -1   0  -8   37.35    1.69
   1   0   8   33.67    1.66
  -1   0  -8   34.61    1.67
   1   0   8   36.43    1.64
  -1   0  -8   35.52    1.67
   1   0   8   36.88    1.67
   1   0   8   33.63    1.79
  -1   0  -8   37.16    1.68
  -1   0  -8   36.38    1.67
   1   0   8   36.75    1.65
  -2   0  -8    5.68    0.34
   2   0   8    5.42    0.45
   2   0   8    6.08    0.31
  -2   0  -8    5.88    0.34
   2   0   8    5.98    0.31
  -2   0  -8    5.81    0.35
  -2   0  -8    6.02    0.36
  -2   0  -8    5.81    0.34
   2   0   8    6.06    0.33
  -3   0  -8   10.11    0.53
  -3   0  -8    9.87    0.52
   3   0   8   10.32    0.50
   3   0   8    9.46    0.65
   3   0   8   10.06    0.52
  -3   0  -8    9.42    0.53
   3   0   8    9.79    0.49
  -3   0  -8    9.56    0.54
  -3   0  -8   10.50    0.53
  -3   0  -8   10.33    0.53
  -4   0  -8    0.96    0.14
  -4   0  -8    1.02    0.14
  -4   0  -8    0.97    0.13
  -4   0  -8    0.98    0.15
  -4   0  -8    1.03    0.15
   4   0   8    1.02    0.10
   4   0   8    1.08    0.10
  -4   0  -8    0.94    0.15
   4   0   8    0.84    0.13
  -5   0  -8    1.42    0.14
   5   0   8    1.36    0.12
  -5   0  -8    1.32    0.15
  -5   0  -8    1.46    0.16
   5   0   8    1.05    0.14
   5   0   8    1.37    0.11
  -5   0  -8    1.29    0.15
  -6   0  -8   12.65    0.63
  -6   0  -8   12.23    0.60
  -6   0  -8   11.96    0.62
  -6   0  -8   12.63    0.62
   6   0   8   11.88    0.59
   6   0   8   12.00    0.58
   7   0   8    6.38    0.31
  -7   0  -8    6.58    0.34
  -7   0  -8    5.53    0.32
  -7   0  -8    6.79    0.35
  -7   0  -8    6.68    0.34
  12  -1  -8    0.21    0.04
 -12  -1   8    0.07    0.06
 -12  -1   8    0.25    0.08
 -12  -1   8    0.24    0.08
  12   1  -8    0.17    0.03
 -12   1   8    0.24    0.08
 -12   1   8    0.13    0.07
 -12   1   8    0.20    0.07
 -11  -1   8    0.42    0.10
 -11  -1   8    0.68    0.12
 -11  -1   8    0.43    0.09
  11  -1  -8    0.54    0.06
 -11  -1   8    0.70    0.11
  11   1  -8    0.63    0.06
 -11   1   8    0.75    0.12
 -11   1   8    0.66    0.12
  11   1  -8    0.56    0.07
 -11   1   8    0.54    0.10
 -11   1   8    0.65    0.12
 -10  -1   8    2.18    0.18
 -10  -1   8    2.15    0.19
 -10  -1   8    2.05    0.19
  10  -1  -8    1.88    0.14
  10  -1  -8    2.20    0.13
 -10  -1   8    2.12    0.18
 -10   1   8    1.87    0.18
 -10   1   8    2.23    0.19
  10   1  -8    2.02    0.14
 -10   1   8    1.99    0.18
  10   1  -8    2.18    0.13
 -10   1   8    2.29    0.20
  -9  -1   8    5.12    0.32
   9  -1  -8    4.91    0.26
  -9  -1   8    4.84    0.32
  -9  -1   8    4.77    0.31
  -9  -1   8    5.06    0.32
  -9  -1   8    5.07    0.33
   9  -1  -8    4.66    0.27
   9   1  -8    5.35    0.27
  -9   1   8    5.26    0.32
  -9   1   8    4.80    0.33
   9   1  -8    5.41    0.27
  -9   1   8    5.59    0.34
  -9   1   8    5.36    0.33
  -8  -1   8    2.40    0.19
  -8  -1   8    2.00    0.18
  -8  -1   8    2.06    0.17
  -8  -1   8    2.00    0.18
   8  -1  -8    1.64    0.15
   8  -1  -8    2.16    0.13
  -8  -1   8    1.84    0.20
   8   1  -8    1.64    0.26
   8   1  -8    2.06    0.13
  -8   1   8    2.03    0.18
  -8   1   8    2.14    0.18
   8   1  -8    1.88    0.14
  -8   1   8    1.90    0.18
   7  -1  -8    0.62    0.06
  -7  -1   8    0.61    0.10
  -7  -1   8    0.61    0.12
  -7  -1   8    0.60    0.11
  -7  -1   8    0.57    0.10
  -7   1   8    0.68    0.12
  -7   1   8    0.67    0.12
  -7   1   8    0.71    0.13
   7   1  -8    0.53    0.07
   7   1  -8    0.54    0.07
  -6  -1   8   -0.05    0.07
   6  -1  -8    0.05    0.03
  -6  -1   8    0.01    0.05
  -6  -1   8    0.06    0.06
  -6  -1   8    0.14    0.08
   6   1  -8    0.12    0.09
   6   1  -8   -0.02    0.03
  -6   1   8   -0.05    0.05
   6   1  -8   -0.04    0.04
  -6   1   8   -0.06    0.06
  -6   1   8   -0.01    0.06
  -5  -1   8    1.44    0.13
  -5  -1   8    1.22    0.14
  -5  -1   8    1.30    0.13
  -5  -1   8    1.10    0.14
   5   1  -8    1.46    0.15
  -5   1   8    1.23    0.16
  -5   1   8    0.95    0.15
   5   1  -8    1.25    0.10
  -5   1   8    1.41    0.13
   5   1  -8    1.49    0.10
  -5   1   8    1.35    0.13
  -4  -1   8    1.96    0.15
  -4  -1   8    2.08    0.16
   4  -1  -8    2.02    0.16
  -4  -1   8    1.86    0.16
  -4   1   8    1.99    0.16
   4   1  -8    1.97    0.17
  -4   1   8    1.92    0.16
   4   1  -8    1.97    0.12
  -3  -1   8    3.61    0.21
  -3  -1   8    3.11    0.21
  -3  -1   8    3.21    0.21
   3  -1  -8    3.37    0.23
   3  -1  -8    3.60    0.23
   3   1  -8    3.26    0.22
  -3   1   8    3.31    0.21
  -3   1   8    3.07    0.18
  -2  -1   8    1.63    0.11
   2  -1  -8    1.89    0.16
   2  -1  -8    1.61    0.15
  -2  -1   8    1.63    0.15
  -2  -1   8    1.62    0.14
  -2   1   8    1.83    0.13
  -2   1   8    1.66    0.15
   2   1  -8    1.77    0.15
  -2   1   8    1.80    0.12
  -2   1   8    1.69    0.30
  -1  -1   8    4.10    0.22
   1  -1  -8    3.92    0.28
  -1  -1   8    4.00    0.25
   1  -1  -8    4.05    0.25
   1  -1  -8    3.68    0.24
  -1  -1   8    3.88    0.22
   1  -1  -8    4.21    0.25
  -1  -1   8    4.21    0.24
   1  -1  -8    4.15    0.26
   1   1  -8    3.78    0.25
  -1   1   8    4.09    0.22
   1   1  -8    4.09    0.25
   1   1  -8    4.21    0.26
  -1   1   8    3.24    0.40
  -1   1   8    4.17    0.23
  -1   1   8    4.12    0.35
   0  -1   8   17.17    0.82
   0  -1  -8   16.93    0.81
   0  -1  -8   16.42    0.81
   0  -1   8   16.76    0.79
   0  -1   8   15.45    0.93
   0  -1  -8   14.95    0.81
   0  -1   8   17.56    0.81
   0  -1  -8   17.15    0.83
   0  -1   8   17.24    0.78
   0  -1  -8   17.14    0.82
   0   1  -8   16.33    0.82
   0   1   8   17.35    0.79
   0   1   8   15.95    0.93
   0   1  -8   16.73    0.82
   0   1  -8   16.78    0.81
   0   1   8   16.47    0.78
   1  -1   8   17.01    0.80
  -1  -1  -8   16.69    0.81
  -1  -1  -8   16.57    0.81
   1  -1   8   16.85    0.78
  -1  -1  -8   17.26    0.81
  -1  -1  -8   15.45    0.82
   1  -1   8   16.87    0.77
   1  -1   8   15.81    0.94
  -1  -1  -8   16.80    0.80
   1   1   8   16.83    0.78
  -1   1  -8   15.71    0.80
  -1   1  -8   16.74    0.81
  -1   1  -8   14.91    0.80
   1   1   8   16.07    0.92
  -1   1  -8   16.74    0.80
   1   1   8   16.57    0.77
  -1   1  -8   14.97    0.81
   2  -1   8    2.08    0.17
  -2  -1  -8    2.23    0.18
  -2  -1  -8    1.95    0.18
   2  -1   8    2.21    0.15
   2  -1   8    1.85    0.29
   2  -1   8    2.30    0.15
  -2  -1  -8    2.17    0.19
  -2  -1  -8    2.23    0.19
  -2  -1  -8    2.13    0.18
  -2   1  -8    1.92    0.18
   2   1   8    2.13    0.15
  -2   1  -8    2.09    0.19
  -2   1  -8    2.33    0.20
  -2   1  -8    2.11    0.18
   2   1   8    2.53    0.16
  -2   1  -8    2.09    0.18
   2   1   8    2.19    0.27
  -2   1  -8    2.22    0.20
  -3  -1  -8   11.07    0.58
  -3  -1  -8   11.59    0.58
  -3  -1  -8   11.09    0.61
   3  -1   8   11.39    0.59
   3  -1   8   10.12    0.72
   3  -1   8   11.46    0.55
  -3  -1  -8   11.40    0.59
   3  -1   8   12.06    0.56
  -3  -1  -8   11.51    0.60
   3   1   8   12.44    0.56
  -3   1  -8   11.42    0.60
  -3   1  -8    9.87    0.57
  -3   1  -8   11.03    0.60
  -3   1  -8   11.57    0.59
   3   1   8   10.40    0.69
   3   1   8   11.56    0.55
  -3   1  -8   11.88    0.61
  -3   1  -8   11.72    0.60
   4  -1   8    0.97    0.09
  -4  -1  -8    0.93    0.14
  -4  -1  -8    1.04    0.12
  -4  -1  -8    0.87    0.13
  -4  -1  -8    0.76    0.13
   4  -1   8    0.71    0.11
   4  -1   8    0.84    0.10
  -4  -1  -8    0.59    0.12
  -4   1  -8    0.83    0.14
  -4   1  -8    0.85    0.13
  -4   1  -8    0.69    0.14
  -4   1  -8    1.21    0.15
   4   1   8    0.86    0.09
   4   1   8    0.94    0.10
  -4   1  -8    0.99    0.16
  -5  -1  -8    1.54    0.16
  -5  -1  -8    1.61    0.16
   5  -1   8    1.54    0.11
  -5  -1  -8    1.51    0.15
   5  -1   8    1.53    0.15
  -5  -1  -8    1.46    0.15
   5  -1   8    1.35    0.12
  -5   1  -8    1.51    0.17
  -5   1  -8    1.42    0.17
  -5   1  -8    1.26    0.16
  -5   1  -8    1.33    0.15
   5   1   8    1.46    0.12
  -5   1  -8    1.51    0.15
   5   1   8    1.47    0.12
  -6  -1  -8    5.52    0.29
  -6  -1  -8    5.09    0.29
   6  -1   8    5.26    0.27
  -6  -1  -8    5.27    0.31
   6  -1   8    4.98    0.27
  -6  -1  -8    5.24    0.30
   6  -1   8    4.75    0.29
   6   1   8    5.01    0.27
  -6   1  -8    5.54    0.31
  -6   1  -8    5.00    0.29
  -6   1  -8    5.41    0.31
   6   1   8    4.67    0.27
  -6   1  -8    5.57    0.32
  -7  -1  -8    0.76    0.08
   7  -1   8    0.54    0.08
  -7  -1  -8    0.50    0.08
   7  -1   8    0.55    0.06
  -7  -1  -8    0.49    0.10
  -7  -1  -8    0.60    0.10
  -7   1  -8    0.37    0.08
  -7   1  -8    0.61    0.10
  -7   1  -8    0.58    0.09
 -12  -2   8    0.23    0.07
  12  -2  -8    0.25    0.07
 -12  -2   8    0.16    0.07
 -12  -2   8    0.24    0.06
 -12   2   8    0.09    0.06
 -11  -2   8    1.02    0.14
 -11  -2   8    1.13    0.13
 -11  -2   8    0.87    0.13
 -11  -2   8    1.21    0.13
  11   2  -8    1.04    0.08
 -11   2   8    0.93    0.13
 -10  -2   8    2.67    0.22
 -10  -2   8    2.67    0.21
 -10  -2   8    2.43    0.20
 -10  -2   8    2.49    0.20
  10   2  -8    2.72    0.15
 -10   2   8    2.63    0.20
  10   2  -8    2.48    0.16
 -10   2   8    2.55    0.20
  -9  -2   8   10.03    0.53
  -9  -2   8    9.92    0.52
  -9  -2   8    9.81    0.51
  -9  -2   8   10.02    0.53
  -9   2   8    8.65    0.52
   9   2  -8    9.50    0.47
  -9   2   8    9.90    0.52
   9   2  -8    9.54    0.47
  -9   2   8    8.91    0.51
  -8  -2   8   13.32    0.70
  -8  -2   8   13.81    0.71
  -8  -2   8   14.36    0.71
  -8  -2   8   13.44    0.70
   8   2  -8   14.55    0.66
  -8   2   8   13.72    0.70
  -8   2   8   13.00    0.72
   8   2  -8   13.95    0.66
  -7  -2   8    2.59    0.21
  -7  -2   8    2.69    0.22
  -7  -2   8    2.75    0.20
  -7  -2   8    2.71    0.22
  -7   2   8    3.06    0.23
   7   2  -8    2.28    0.20
   7   2  -8    2.81    0.17
  -7   2   8    3.13    0.23
   7   2  -8    2.73    0.16
  -6  -2   8    1.60    0.16
  -6  -2   8    1.54    0.15
  -6  -2   8    1.62    0.15
   6   2  -8    1.60    0.16
   6   2  -8    1.81    0.12
  -6   2   8    1.55    0.17
   6   2  -8    1.63    0.12
  -6   2   8    1.59    0.16
  -5  -2   8    0.22    0.07
  -5  -2   8    0.06    0.06
  -5  -2   8    0.15    0.07
   5   2  -8    0.14    0.08
  -5   2   8    0.20    0.08
   5   2  -8    0.10    0.04
   5   2  -8    0.13    0.05
  -5   2   8    0.25    0.08
  -4  -2   8    3.87    0.25
  -4  -2   8    4.24    0.26
  -4  -2   8    4.33    0.26
  -4   2   8    4.14    0.28
   4   2  -8    3.94    0.26
   4   2  -8    4.13    0.21
  -4   2   8    3.97    0.26
  -3  -2   8    1.82    0.14
  -3  -2   8    1.45    0.14
   3  -2  -8    1.66    0.16
  -3  -2   8    1.95    0.15
   3  -2  -8    1.77    0.16
  -3   2   8    1.68    0.15
   3   2  -8    1.86    0.16
  -3   2   8    1.63    0.12
   2  -2  -8   13.79    0.74
   2  -2  -8   15.76    0.77
   2  -2  -8   15.82    0.75
  -2  -2   8   14.12    0.74
  -2  -2   8   16.99    0.76
  -2  -2   8   15.79    0.76
   2   2  -8   16.16    0.76
   2   2  -8   14.63    0.76
  -2   2   8   16.51    0.74
  -2   2   8   15.11    0.75
  -2   2   8   12.59    1.00
  -2   2   8   16.22    0.73
  -1  -2   8    8.94    0.45
   1  -2  -8    8.58    0.45
  -1  -2   8    7.68    0.43
   1  -2  -8    7.95    0.45
   1  -2  -8    8.39    0.45
   1  -2  -8    8.27    0.43
  -1  -2   8    8.76    0.45
  -1   2   8    8.99    0.43
   1   2  -8    8.94    0.46
   1   2  -8    7.44    0.44
   1   2  -8    8.61    0.45
  -1   2   8    7.86    0.56
  -1   2   8    8.55    0.42
  -1   2   8    8.07    0.44
   0  -2   8    3.99    0.25
   0  -2  -8    4.00    0.25
   0  -2   8    4.15    0.25
   0  -2  -8    3.86    0.24
   0  -2  -8    3.85    0.26
   0  -2   8    3.99    0.21
   0  -2  -8    4.08    0.25
   0   2   8    3.50    0.35
   0   2  -8    3.66    0.25
   0   2  -8    3.94    0.26
   0   2   8    3.88    0.23
   0   2   8    3.89    0.22
   0   2  -8    3.72    0.25
  -1  -2  -8    3.14    0.23
   1  -2   8    3.04    0.19
  -1  -2  -8    2.83    0.20
  -1  -2  -8    3.09    0.21
   1  -2   8    3.20    0.18
   1  -2   8    3.12    0.21
  -1  -2  -8    3.03    0.21
  -1  -2  -8    2.85    0.22
   1   2   8    3.12    0.19
  -1   2  -8    3.12    0.23
  -1   2  -8    3.13    0.22
  -1   2  -8    2.83    0.22
  -1   2  -8    2.64    0.23
   1   2   8    3.09    0.19
   1   2   8    2.83    0.32
   2  -2   8    6.93    0.39
  -2  -2  -8    7.00    0.39
  -2  -2  -8    6.63    0.40
  -2  -2  -8    7.18    0.40
  -2  -2  -8    6.78    0.39
   2  -2   8    7.37    0.36
   2  -2   8    6.67    0.36
  -2  -2  -8    6.92    0.38
  -2   2  -8    7.27    0.40
  -2   2  -8    6.73    0.40
   2   2   8    7.16    0.36
   2   2   8    7.35    0.37
  -2   2  -8    6.51    0.38
   2   2   8    6.33    0.49
  -2   2  -8    7.06    0.40
  -3  -2  -8    5.98    0.33
  -3  -2  -8    5.59    0.33
   3  -2   8    5.61    0.29
   3  -2   8    5.60    0.33
  -3  -2  -8    5.93    0.33
   3  -2   8    5.39    0.30
  -3  -2  -8    5.45    0.34
  -3  -2  -8    5.43    0.34
   3   2   8    5.54    0.30
   3   2   8    5.95    0.30
  -3   2  -8    5.27    0.34
  -3   2  -8    5.18    0.33
  -3   2  -8    5.48    0.34
  -3   2  -8    5.64    0.34
   4  -2   8    4.59    0.26
  -4  -2  -8    4.40    0.29
   4  -2   8    4.89    0.29
  -4  -2  -8    4.87    0.31
   4  -2   8    4.68    0.25
  -4  -2  -8    4.47    0.28
  -4  -2  -8    5.02    0.29
  -4  -2  -8    4.91    0.29
  -4   2  -8    4.63    0.30
  -4   2  -8    4.31    0.30
  -4   2  -8    4.88    0.29
   4   2   8    4.59    0.25
  -4   2  -8    4.54    0.30
  -4   2  -8    4.56    0.29
   4   2   8    4.62    0.26
   5  -2   8    0.28    0.05
  -5  -2  -8    0.16    0.07
  -5  -2  -8    0.27    0.07
  -5  -2  -8    0.32    0.09
  -5  -2  -8    0.31    0.08
   5  -2   8    0.35    0.07
   5  -2   8    0.26    0.08
  -5  -2  -8    0.28    0.08
  -5   2  -8    0.25    0.09
   5   2   8    0.25    0.06
  -5   2  -8    0.38    0.10
  -5   2  -8    0.30    0.10
  -5   2  -8    0.11    0.08
   5   2   8    0.30    0.06
  -6  -2  -8    0.71    0.11
  -6  -2  -8    0.73    0.11
   6  -2   8    0.80    0.07
   6  -2   8    0.60    0.10
  -6  -2  -8    0.84    0.09
  -6   2  -8    0.50    0.09
   6   2   8    0.60    0.08
  -6   2  -8    0.92    0.11
  -6   2  -8    0.83    0.13
  -6   2  -8    0.93    0.12
   7  -2   8    4.73    0.25
  -7  -2  -8    4.60    0.24
  -7   2  -8    4.45    0.26
  -7   2  -8    4.89    0.25
  -7   2  -8    4.33    0.24
 -11  -3   8    8.13    0.42
  11  -3  -8    6.31    0.37
 -11   3   8    7.39    0.38
  11   3  -8    7.81    0.35
 -10  -3   8    4.77    0.27
 -10  -3   8    4.68    0.27
 -10  -3   8    4.13    0.27
 -10  -3   8    3.99    0.27
  10  -3  -8    3.97    0.24
 -10   3   8    4.70    0.27
  10   3  -8    4.79    0.23
 -10   3   8    4.14    0.27
   9  -3  -8    3.51    0.23
  -9  -3   8    3.79    0.24
  -9  -3   8    3.81    0.26
  -9  -3   8    3.75    0.25
  -9  -3   8    3.67    0.26
  -9   3   8    4.14    0.28
  -9   3   8    4.22    0.26
   9   3  -8    4.05    0.21
  -8  -3   8    7.06    0.40
  -8  -3   8    6.90    0.40
  -8  -3   8    7.22    0.40
  -8  -3   8    7.12    0.40
   8   3  -8    6.84    0.39
  -8   3   8    7.13    0.40
   8   3  -8    6.94    0.35
  -8   3   8    7.29    0.43
   8   3  -8    6.99    0.36
  -7  -3   8    1.02    0.13
  -7  -3   8    0.74    0.14
  -7  -3   8    1.08    0.14
  -7  -3   8    0.83    0.12
   7   3  -8    0.90    0.09
  -7   3   8    0.92    0.13
   7   3  -8    0.77    0.14
  -7   3   8    0.75    0.15
   7   3  -8    0.87    0.09
  -6  -3   8    5.06    0.31
  -6  -3   8    4.19    0.29
  -6  -3   8    4.90    0.30
  -6  -3   8    4.57    0.29
   6   3  -8    5.07    0.25
   6   3  -8    4.53    0.30
   6   3  -8    4.57    0.25
  -6   3   8    4.91    0.30
  -6   3   8    4.54    0.32
  -5  -3   8    0.80    0.12
  -5  -3   8    0.79    0.11
  -5  -3   8    0.79    0.11
   5   3  -8    0.80    0.15
  -5   3   8    0.66    0.12
  -5   3   8    0.58    0.12
   5   3  -8    0.87    0.08
  -4  -3   8    0.11    0.07
  -4  -3   8    0.02    0.06
  -4  -3   8    0.09    0.06
   4   3  -8    0.04    0.04
  -4   3   8    0.15    0.08
   4   3  -8    0.06    0.09
  -4   3   8    0.09    0.08
   3  -3  -8    0.69    0.12
  -3  -3   8    0.68    0.10
  -3  -3   8    0.51    0.09
  -3  -3   8    0.58    0.11
  -3   3   8    0.73    0.15
   3   3  -8    0.54    0.10
  -3   3   8    0.51    0.10
   3   3  -8    0.58    0.12
  -3   3   8    0.77    0.09
   2  -3  -8    2.30    0.18
  -2  -3   8    2.47    0.18
   2  -3  -8    2.11    0.18
   2  -3  -8    2.54    0.20
  -2  -3   8    2.49    0.18
  -2  -3   8    2.37    0.18
  -2   3   8    1.99    0.18
  -2   3   8    2.47    0.17
  -2   3   8    2.30    0.16
   2   3  -8    2.40    0.21
   2   3  -8    2.27    0.19
   1  -3  -8    5.53    0.32
   1  -3  -8    5.59    0.34
  -1  -3   8    5.37    0.32
  -1  -3   8    5.69    0.32
  -1  -3   8    5.48    0.31
   1  -3  -8    5.02    0.30
   1  -3  -8    5.42    0.32
   1   3  -8    5.77    0.33
  -1   3   8    4.98    0.45
  -1   3   8    5.39    0.30
   1   3  -8    5.18    0.33
   0  -3   8    4.37    0.26
   0  -3  -8    4.08    0.26
   0  -3   8    4.52    0.27
   0  -3  -8    4.21    0.27
   0  -3  -8    4.28    0.27
   0  -3  -8    3.98    0.28
   0  -3   8    4.69    0.28
   0   3   8    4.57    0.25
   0   3  -8    4.29    0.29
   0   3   8    4.12    0.24
   0   3  -8    3.93    0.26
   0   3   8    3.90    0.39
   1  -3   8    0.99    0.13
  -1  -3  -8    1.16    0.13
  -1  -3  -8    1.19    0.14
   1  -3   8    1.21    0.13
  -1  -3  -8    1.20    0.14
   1  -3   8    0.94    0.13
  -1  -3  -8    1.04    0.13
  -1   3  -8    0.85    0.14
   1   3   8    1.17    0.12
  -1   3  -8    1.24    0.16
   1   3   8    1.15    0.27
   1   3   8    1.20    0.11
  -2  -3  -8    0.67    0.11
  -2  -3  -8    0.88    0.12
   2  -3   8    0.59    0.08
  -2  -3  -8    0.69    0.11
   2  -3   8    0.77    0.12
   2  -3   8    0.75    0.12
   2  -3   8    0.57    0.10
  -2  -3  -8    0.71    0.13
  -2   3  -8    0.63    0.12
  -2   3  -8    0.82    0.15
   2   3   8    0.59    0.09
   2   3   8    0.71    0.09
  -3  -3  -8    2.76    0.20
   3  -3   8    2.86    0.20
  -3  -3  -8    3.06    0.22
  -3  -3  -8    3.21    0.21
  -3  -3  -8    3.04    0.21
   3  -3   8    2.91    0.21
   3  -3   8    2.64    0.20
   3  -3   8    2.43    0.16
   3   3   8    3.02    0.19
  -3   3  -8    2.94    0.23
  -3   3  -8    3.13    0.22
   3   3   8    2.77    0.18
  -4  -3  -8    2.81    0.18
  -4  -3  -8    2.60    0.19
   4  -3   8    2.39    0.19
   4  -3   8    2.41    0.15
  -4  -3  -8    2.57    0.19
   4  -3   8    2.38    0.18
   4  -3   8    2.83    0.19
  -4  -3  -8    2.75    0.19
   4   3   8    2.62    0.16
  -4   3  -8    2.69    0.20
   4   3   8    2.60    0.17
  -4   3  -8    3.09    0.22
  -5  -3  -8    4.19    0.24
   5  -3   8    3.32    0.20
  -5  -3  -8    3.98    0.23
  -5  -3  -8    3.80    0.23
  -5  -3  -8    4.06    0.23
   5  -3   8    3.85    0.23
   5  -3   8    4.22    0.24
  -5   3  -8    3.70    0.23
   5   3   8    3.86    0.21
  -5   3  -8    3.57    0.25
  -5   3  -8    4.12    0.25
  -6  -3  -8    1.03    0.09
   6  -3   8    1.01    0.10
  -6  -3  -8    0.95    0.09
  -6   3  -8    1.05    0.11
 -10  -4   8    1.67    0.12
 -10  -4   8    1.52    0.12
 -10   4   8    1.44    0.13
  -9  -4   8    4.20    0.25
  -9  -4   8    4.58    0.26
  -9   4   8    4.57    0.28
   9   4  -8    4.02    0.27
   9   4  -8    4.36    0.22
  -8  -4   8    5.92    0.33
  -8  -4   8    6.55    0.34
   8   4  -8    5.24    0.30
   8   4  -8    6.18    0.33
   8   4  -8    5.84    0.29
  -7  -4   8    1.58    0.15
  -7  -4   8    1.83    0.16
   7   4  -8    1.75    0.17
   7   4  -8    1.80    0.13
   7   4  -8    1.76    0.12
  -7   4   8    1.95    0.21
  -6  -4   8    3.05    0.22
  -6  -4   8    2.62    0.22
  -6  -4   8    3.12    0.21
  -6  -4   8    3.08    0.22
  -6   4   8    3.54    0.27
   6   4  -8    3.06    0.17
   6   4  -8    3.31    0.23
  -5  -4   8    0.57    0.10
  -5  -4   8    0.49    0.11
  -5  -4   8    0.61    0.11
  -5   4   8    0.55    0.12
   5   4  -8    0.60    0.07
   5   4  -8    0.56    0.12
  -4  -4   8    7.24    0.42
  -4  -4   8    8.04    0.43
  -4  -4   8    7.86    0.43
   4   4  -8    7.49    0.45
  -4   4   8    7.87    0.46
   4   4  -8    8.34    0.44
  -3  -4   8   -0.02    0.07
  -3  -4   8    0.07    0.06
  -3  -4   8    0.02    0.06
   3  -4  -8   -0.01    0.06
  -3   4   8    0.06    0.06
   3   4  -8    0.11    0.10
   3   4  -8    0.07    0.09
  -3   4   8    0.02    0.08
  -2  -4   8    0.75    0.13
  -2  -4   8    0.71    0.11
  -2  -4   8    0.60    0.10
   2  -4  -8    0.79    0.12
   2  -4  -8    0.72    0.12
  -2   4   8    0.61    0.10
   2   4  -8    0.87    0.13
  -2   4   8    0.92    0.16
   2   4  -8    0.99    0.15
  -2   4   8    0.93    0.10
   1  -4  -8    0.62    0.12
  -1  -4   8    0.72    0.11
  -1  -4   8    0.83    0.12
  -1  -4   8    0.67    0.11
   1  -4  -8    0.66    0.11
   1  -4  -8    0.74    0.13
  -1   4   8    0.80    0.10
  -1   4   8    0.57    0.13
  -1   4   8    0.85    0.11
   1   4  -8    0.60    0.11
   1   4  -8    0.64    0.12
   0  -4  -8    5.95    0.33
   0  -4   8    5.85    0.33
   0  -4   8    6.22    0.33
   0  -4  -8    5.86    0.33
   0  -4  -8    5.89    0.32
   0  -4   8    5.33    0.33
   0   4   8    5.70    0.31
   0   4  -8    6.27    0.36
   0   4   8    5.54    0.32
   0   4  -8    5.43    0.33
  -1  -4  -8    6.09    0.34
   1  -4   8    6.32    0.35
  -1  -4  -8    6.39    0.36
   1  -4   8    6.16    0.35
  -1  -4  -8    6.26    0.35
   1  -4   8    6.21    0.35
  -1   4  -8    6.00    0.37
   1   4   8    6.46    0.33
   1   4   8    6.09    0.34
   2  -4   8    2.87    0.19
  -2  -4  -8    2.97    0.20
  -2  -4  -8    2.74    0.19
   2  -4   8    2.73    0.20
  -2  -4  -8    2.77    0.20
   2  -4   8    2.89    0.20
  -2  -4  -8    2.90    0.20
   2   4   8    2.82    0.18
   2   4   8    2.79    0.18
  -2   4  -8    2.77    0.21
  -3  -4  -8    3.37    0.21
  -3  -4  -8    3.35    0.21
   3  -4   8    3.53    0.21
   3  -4   8    3.10    0.21
   3  -4   8    3.56    0.22
  -3  -4  -8    3.47    0.21
   3   4   8    3.13    0.20
  -3   4  -8    3.14    0.23
   3   4   8    3.33    0.19
  -3   4  -8    3.32    0.22
   4  -4   8    0.17    0.07
   4  -4   8    0.07    0.06
   4  -4   8    0.03    0.06
  -4  -4  -8    0.09    0.06
  -4  -4  -8    0.14    0.06
  -4  -4  -8    0.10    0.05
  -4   4  -8    0.11    0.07
  -4   4  -8    0.26    0.08
   4   4   8    0.08    0.04
   5  -4   8    3.75    0.21
  -5  -4  -8    3.91    0.21
  -5  -4  -8    4.20    0.21
  -5  -4  -8    3.81    0.21
  -5   4  -8    3.84    0.22
  -8  -5   8    0.96    0.10
  -8   5   8    1.24    0.13
   8   5  -8    1.12    0.11
  -7  -5   8    0.60    0.09
  -7  -5   8    0.61    0.09
  -7   5   8    0.72    0.13
   7   5  -8    0.66    0.10
   7   5  -8    0.35    0.06
  -6  -5   8    2.92    0.19
  -6  -5   8    2.67    0.18
   6   5  -8    3.13    0.21
  -5  -5   8    3.18    0.20
  -5  -5   8    2.71    0.20
  -5   5   8    2.78    0.22
   5   5  -8    3.30    0.22
  -5   5   8    2.86    0.23
  -4  -5   8    3.12    0.20
   4   5  -8    2.72    0.21
   4   5  -8    2.72    0.20
  -4   5   8    2.92    0.23
  -4   5   8    2.67    0.23
  -3  -5   8    2.63    0.18
  -3   5   8    2.59    0.22
   3   5  -8    2.78    0.20
   3   5  -8    2.36    0.20
  -3   5   8    2.72    0.22
  -2  -5   8    3.82    0.23
  -2   5   8    3.62    0.26
   2   5  -8    3.45    0.23
   2   5  -8    3.91    0.25
  -2   5   8    2.97    0.21
   1  -5  -8    0.36    0.07
   1  -5  -8    0.69    0.11
  -1  -5   8    0.66    0.10
   1   5  -8    0.37    0.09
  -1   5   8    0.39    0.10
  -1   5   8    0.53    0.08
   1   5  -8    0.59    0.11
   0  -5   8    0.44    0.09
   0  -5  -8    0.52    0.08
   0  -5  -8    0.41    0.08
   0  -5  -8    0.55    0.10
   0   5   8    0.24    0.11
   0   5   8    0.47    0.07
   0   5  -8    0.28    0.09
   0   5   8    0.29    0.11
  -1  -5  -8    0.08    0.06
  -1  -5  -8    0.11    0.06
  -1  -5  -8    0.18    0.07
   1  -5   8    0.14    0.06
   1   5   8    0.12    0.09
  -1   5  -8    0.16    0.08
   1   5   8    0.18    0.05
  -2  -5  -8    0.41    0.08
  -2  -5  -8    0.54    0.09
   2  -5   8    0.45    0.08
  -2  -5  -8    0.50    0.07
   2   5   8    0.60    0.07
  -2   5  -8    0.52    0.09
  -3  -5  -8    2.35    0.14
   3  -5   8    2.14    0.14
  -3  -5  -8    2.06    0.13
  -3  -5  -8    2.08    0.14
  -3   5  -8    2.28    0.15
  -4  -6   8    0.25    0.06
   4   6  -8    0.24    0.06
  -4   6   8    0.28    0.09
  -3  -6   8    1.23    0.10
  -3   6   8    1.37    0.13
   3   6  -8    1.10    0.13
   3   6  -8    1.43    0.15
  -2  -6   8    5.80    0.30
  -2   6   8    6.25    0.32
   2   6  -8    5.76    0.31
  -1  -6   8    0.15    0.06
   1   6  -8    0.12    0.06
  -1   6   8    0.22    0.07
 -12   0   9    1.00    0.12
 -12   0   9    1.50    0.13
 -12   0   9    1.57    0.16
 -11   0   9    0.69    0.12
 -11   0   9    0.68    0.12
 -11   0   9    0.42    0.09
 -11   0   9    0.78    0.13
  11   0  -9    0.66    0.06
 -11   0   9    0.64    0.11
 -10   0   9    6.90    0.40
 -10   0   9    7.10    0.40
 -10   0   9    5.79    0.39
  10   0  -9    6.97    0.33
 -10   0   9    6.69    0.39
 -10   0   9    7.28    0.39
  -9   0   9    5.16    0.33
  -9   0   9    5.14    0.31
   9   0  -9    4.74    0.25
  -9   0   9    5.04    0.32
  -8   0   9    1.12    0.14
   8   0  -9    1.05    0.09
  -8   0   9    1.31    0.15
  -8   0   9    1.03    0.14
   7   0  -9    7.11    0.35
  -7   0   9    7.60    0.41
  -7   0   9    7.54    0.42
  -7   0   9    6.80    0.41
  -6   0   9    3.15    0.21
  -6   0   9    2.90    0.21
  -6   0   9    2.91    0.22
   5   0  -9    5.22    0.31
  -5   0   9    5.42    0.32
  -5   0   9    5.10    0.31
  -5   0   9    5.31    0.31
   4   0  -9    4.86    0.29
  -4   0   9    4.69    0.28
  -4   0   9    4.63    0.28
  -4   0   9    4.74    0.29
   3   0  -9   14.19    0.69
  -3   0   9   13.85    0.69
  -3   0   9   13.14    0.69
  -3   0   9   14.33    0.69
  -2   0   9    1.27    0.12
  -2   0   9    1.18    0.10
  -2   0   9    1.29    0.14
   2   0  -9    1.21    0.14
  -1   0   9   10.71    0.58
  -1   0   9   11.72    0.55
   1   0  -9   11.14    0.58
   1   0  -9   11.71    0.59
   1   0  -9   10.96    0.59
  -1   0   9   11.27    0.55
   1   0  -9   11.33    0.57
  -1   0   9   11.47    0.57
   0   0   9   35.82    1.56
   0   0   9   30.80    1.72
   0   0  -9   30.45    1.58
   0   0  -9   34.58    1.59
   0   0  -9   35.69    1.59
   0   0   9   33.14    1.58
   0   0   9   32.45    1.58
   0   0   9   35.33    1.57
   0   0  -9   36.01    1.59
   0   0  -9   34.08    1.60
   1   0   9   28.81    1.43
  -1   0  -9   32.72    1.44
  -1   0  -9   29.93    1.45
   1   0   9   32.13    1.42
  -1   0  -9   29.91    1.44
   1   0   9   31.26    1.44
  -1   0  -9   30.89    1.44
  -1   0  -9   31.03    1.44
   1   0   9   32.06    1.41
   1   0   9   25.65    1.56
  -2   0  -9    4.68    0.28
  -2   0  -9    4.60    0.29
   2   0   9    4.62    0.29
  -2   0  -9    4.37    0.30
   2   0   9    4.02    0.41
  -2   0  -9    4.81    0.30
   2   0   9    4.57    0.26
  -2   0  -9    4.83    0.29
   2   0   9    4.80    0.26
   2   0   9    4.22    0.27
  -3   0  -9    2.65    0.20
  -3   0  -9    2.72    0.22
   3   0   9    2.94    0.21
  -3   0  -9    2.83    0.22
   3   0   9    3.07    0.19
  -3   0  -9    2.59    0.21
   3   0   9    2.46    0.20
  -3   0  -9    2.64    0.20
   3   0   9    2.84    0.18
  -4   0  -9    3.55    0.26
   4   0   9    3.67    0.21
  -4   0  -9    3.71    0.25
  -4   0  -9    3.76    0.24
  -4   0  -9    3.30    0.24
   4   0   9    3.17    0.23
   4   0   9    3.68    0.22
   5   0   9    0.07    0.05
  -5   0  -9    0.03    0.08
  -5   0  -9    0.09    0.08
  -5   0  -9    0.03    0.07
   5   0   9    0.07    0.05
  -5   0  -9    0.03    0.06
   6   0   9    8.27    0.38
  -6   0  -9    7.57    0.40
  -6   0  -9    7.34    0.39
  -6   0  -9    7.99    0.40
  -6   0  -9    8.02    0.41
 -12  -1   9    0.74    0.10
 -12  -1   9    0.70    0.09
 -12  -1   9    0.80    0.10
 -12   1   9    0.66    0.09
 -12   1   9    0.55    0.10
 -11  -1   9    0.84    0.13
 -11  -1   9    0.99    0.12
 -11  -1   9    0.94    0.13
 -11  -1   9    0.71    0.11
 -11   1   9    0.76    0.13
  11   1  -9    0.82    0.07
 -11   1   9    0.73    0.13
 -11   1   9    0.70    0.12
 -11   1   9    0.78    0.12
 -10  -1   9    1.30    0.16
 -10  -1   9    1.45    0.16
  10  -1  -9    1.22    0.09
 -10  -1   9    1.54    0.15
 -10  -1   9    1.69    0.16
 -10   1   9    1.56    0.16
 -10   1   9    1.32    0.16
  10   1  -9    1.47    0.10
 -10   1   9    1.54    0.16
  10   1  -9    1.20    0.10
   9  -1  -9    0.75    0.07
  -9  -1   9    0.81    0.14
  -9  -1   9    0.76    0.14
  -9  -1   9    0.69    0.13
  -9  -1   9    0.92    0.13
   9   1  -9    0.80    0.09
  -9   1   9    0.91    0.15
  -9   1   9    0.80    0.13
  -9   1   9    1.05    0.13
   9   1  -9    0.84    0.08
  -8  -1   9    5.36    0.32
  -8  -1   9    5.50    0.33
  -8  -1   9    5.44    0.33
  -8  -1   9    5.34    0.31
  -8   1   9    4.99    0.33
   8   1  -9    4.98    0.27
  -8   1   9    5.05    0.32
   8   1  -9    4.86    0.27
  -8   1   9    5.10    0.32
  -7  -1   9    0.53    0.10
  -7  -1   9    0.59    0.11
  -7  -1   9    0.57    0.11
  -7  -1   9    0.66    0.11
   7   1  -9    0.71    0.07
  -7   1   9    0.83    0.12
  -7   1   9    0.62    0.11
  -7   1   9    0.90    0.14
  -6  -1   9    3.71    0.25
  -6  -1   9    3.75    0.25
  -6  -1   9    3.50    0.24
  -6   1   9    3.35    0.25
   6   1  -9    3.69    0.19
   6   1  -9    3.80    0.25
  -6   1   9    3.74    0.25
  -6   1   9    3.38    0.24
  -5  -1   9    4.28    0.28
  -5  -1   9    4.58    0.28
  -5  -1   9    4.62    0.27
   5   1  -9    4.49    0.28
  -5   1   9    4.54    0.28
  -5   1   9    4.62    0.30
  -5   1   9    4.40    0.27
  -4  -1   9    1.36    0.13
  -4  -1   9    1.33    0.14
  -4  -1   9    1.41    0.13
   4  -1  -9    1.35    0.15
  -4   1   9    1.57    0.14
   4   1  -9    1.65    0.15
   3  -1  -9    7.62    0.40
  -3  -1   9    7.46    0.40
   3  -1  -9    7.15    0.41
  -3  -1   9    7.51    0.39
  -3  -1   9    7.40    0.41
  -3   1   9    7.06    0.37
  -3   1   9    7.22    0.40
   3   1  -9    7.20    0.40
  -2  -1   9    0.90    0.11
  -2  -1   9    0.78    0.10
   2  -1  -9    0.68    0.13
   2  -1  -9    0.75    0.11
   2   1  -9    0.67    0.12
  -2   1   9    0.74    0.12
  -2   1   9    0.75    0.09
   2   1  -9    0.82    0.13
  -2   1   9    0.75    0.10
   1  -1  -9    4.05    0.26
  -1  -1   9    3.88    0.23
   1  -1  -9    3.94    0.27
   1  -1  -9    4.27    0.26
  -1  -1   9    4.33    0.26
  -1  -1   9    3.97    0.26
  -1   1   9    4.10    0.23
   1   1  -9    4.21    0.26
   1   1  -9    4.06    0.26
  -1   1   9    4.43    0.24
  -1   1   9    3.98    0.39
   1   1  -9    4.44    0.27
   0  -1  -9   25.96    1.20
   0  -1   9   24.19    1.18
   0  -1   9   25.40    1.21
   0  -1  -9   25.98    1.21
   0  -1  -9   25.85    1.21
   0  -1  -9   22.91    1.20
   0  -1  -9   25.38    1.22
   0  -1   9   26.23    1.21
   0  -1   9   26.43    1.18
   0   1  -9   24.37    1.21
   0   1   9   24.15    1.35
   0   1  -9   25.16    1.21
   0   1   9   26.21    1.19
   0   1  -9   26.13    1.21
   0   1   9   25.81    1.18
   1  -1   9   19.51    0.88
   1  -1   9   17.98    0.91
   1  -1   9   18.70    0.91
  -1  -1  -9   18.97    0.91
  -1  -1  -9   19.20    0.91
   1  -1   9   19.14    0.89
  -1  -1  -9   19.48    0.93
  -1  -1  -9   17.54    0.90
  -1  -1  -9   20.04    0.92
  -1   1  -9   18.69    0.91
   1   1   9   19.38    0.88
  -1   1  -9   17.42    0.91
   1   1   9   18.98    0.89
  -1   1  -9   19.64    0.92
  -1   1  -9   17.65    0.92
  -1   1  -9   18.44    0.91
   1   1   9   16.33    1.04
  -2  -1  -9    0.66    0.11
   2  -1   9    0.73    0.10
  -2  -1  -9    0.64    0.12
  -2  -1  -9    0.80    0.12
   2  -1   9    0.72    0.12
   2  -1   9    0.86    0.12
   2  -1   9    0.59    0.09
  -2  -1  -9    0.89    0.13
  -2  -1  -9    0.56    0.11
  -2   1  -9    0.64    0.12
  -2   1  -9    0.52    0.11
  -2   1  -9    0.42    0.10
   2   1   9    0.63    0.09
   2   1   9    0.72    0.10
  -2   1  -9    0.73    0.13
  -2   1  -9    0.68    0.13
  -3  -1  -9    4.38    0.29
  -3  -1  -9    4.94    0.30
  -3  -1  -9    4.85    0.29
   3  -1   9    4.70    0.27
  -3  -1  -9    4.86    0.31
   3  -1   9    4.93    0.26
  -3  -1  -9    5.02    0.29
   3  -1   9    4.97    0.30
   3  -1   9    4.91    0.29
  -3   1  -9    3.78    0.28
  -3   1  -9    4.64    0.30
   3   1   9    4.96    0.27
  -3   1  -9    5.02    0.30
  -3   1  -9    4.95    0.31
   3   1   9    4.94    0.26
  -3   1  -9    4.93    0.30
  -4  -1  -9    1.00    0.13
   4  -1   9    1.06    0.10
  -4  -1  -9    0.84    0.13
  -4  -1  -9    0.94    0.14
  -4  -1  -9    0.92    0.12
  -4  -1  -9    1.03    0.15
   4  -1   9    0.84    0.10
   4  -1   9    1.00    0.13
   4  -1   9    1.08    0.13
   4   1   9    1.08    0.10
  -4   1  -9    1.08    0.15
   4   1   9    1.05    0.11
  -4   1  -9    1.10    0.14
  -4   1  -9    1.13    0.14
  -4   1  -9    1.17    0.15
   5  -1   9    0.86    0.10
  -5  -1  -9    1.12    0.11
  -5  -1  -9    0.89    0.13
  -5  -1  -9    1.12    0.13
   5  -1   9    0.95    0.09
   5  -1   9    0.90    0.12
  -5  -1  -9    1.04    0.12
   5  -1   9    0.88    0.12
  -5   1  -9    1.05    0.12
  -5   1  -9    0.90    0.12
  -5   1  -9    1.07    0.13
  -5   1  -9    1.11    0.14
   5   1   9    0.93    0.09
   5   1   9    0.81    0.09
   6  -1   9    1.21    0.09
   6  -1   9    1.25    0.11
  -6  -1  -9    1.35    0.11
  -6  -1  -9    1.32    0.13
  -6  -1  -9    1.34    0.12
  -6  -1  -9    1.17    0.11
  -6   1  -9    1.28    0.13
  -6   1  -9    1.18    0.13
   6   1   9    1.14    0.09
  -6   1  -9    1.28    0.11
  -6   1  -9    1.24    0.10
 -11  -2   9    1.36    0.13
 -11  -2   9    1.30    0.13
 -11  -2   9    1.29    0.17
 -11  -2   9    0.94    0.12
  11   2  -9    1.18    0.08
 -11   2   9    1.30    0.13
 -10  -2   9    1.10    0.13
 -10  -2   9    1.30    0.13
 -10  -2   9    1.23    0.15
 -10  -2   9    0.98    0.13
  10   2  -9    1.00    0.08
  10   2  -9    0.92    0.10
 -10   2   9    1.16    0.14
  -9  -2   9    7.22    0.40
  -9  -2   9    7.39    0.39
  -9  -2   9    7.01    0.40
   9   2  -9    6.46    0.35
   9   2  -9    6.73    0.34
  -9   2   9    7.23    0.40
  -8  -2   9    5.11    0.31
  -8  -2   9    4.88    0.31
  -8  -2   9    4.77    0.29
  -8   2   9    4.49    0.32
   8   2  -9    4.65    0.26
  -8   2   9    4.91    0.30
   8   2  -9    4.77    0.25
  -7  -2   9    5.40    0.35
  -7  -2   9    6.02    0.34
  -7  -2   9    5.93    0.35
   7   2  -9    6.11    0.30
  -7   2   9    6.19    0.36
  -7   2   9    5.39    0.36
   7   2  -9    5.70    0.34
   7   2  -9    5.48    0.30
  -6  -2   9    6.56    0.38
  -6  -2   9    6.56    0.37
  -6  -2   9    6.42    0.36
  -6   2   9    6.14    0.39
   6   2  -9    6.67    0.37
  -6   2   9    6.30    0.38
   6   2  -9    6.21    0.32
  -5  -2   9    0.21    0.07
  -5  -2   9    0.18    0.07
  -5  -2   9    0.28    0.08
   5   2  -9    0.17    0.06
   5   2  -9    0.23    0.09
  -5   2   9    0.19    0.08
  -5   2   9    0.21    0.09
  -4  -2   9    6.39    0.37
  -4  -2   9    7.13    0.39
  -4  -2   9    7.32    0.39
   4   2  -9    6.88    0.39
  -4   2   9    6.81    0.40
  -4   2   9    6.42    0.38
   3  -2  -9    8.09    0.44
   3  -2  -9    7.68    0.41
  -3  -2   9    7.59    0.42
  -3  -2   9    6.79    0.40
  -3  -2   9    7.88    0.42
   3   2  -9    8.13    0.43
  -3   2   9    7.59    0.42
  -3   2   9    7.93    0.39
  -2  -2   9   10.08    0.54
   2  -2  -9   11.05    0.55
  -2  -2   9   11.04    0.56
  -2  -2   9   10.86    0.56
   2  -2  -9   10.74    0.57
  -2   2   9   11.15    0.53
  -2   2   9   10.74    0.56
   2   2  -9   10.71    0.56
   2   2  -9   10.70    0.56
  -2   2   9   10.70    0.54
   1  -2  -9    5.73    0.31
   1  -2  -9    5.80    0.34
   1  -2  -9    5.37    0.32
   1  -2  -9    5.54    0.32
  -1  -2   9    5.53    0.33
  -1  -2   9    5.64    0.32
  -1   2   9    4.59    0.45
   1   2  -9    5.34    0.32
  -1   2   9    5.32    0.30
   1   2  -9    5.70    0.33
  -1   2   9    5.45    0.32
  -1   2   9    5.53    0.30
   0  -2   9    0.95    0.11
   0  -2   9    0.84    0.09
   0  -2   9    0.75    0.12
   0  -2  -9    0.99    0.13
   0  -2  -9    0.81    0.13
   0  -2  -9    1.04    0.11
   0  -2  -9    0.83    0.13
   0   2  -9    0.61    0.11
   0   2  -9    0.70    0.12
   0   2  -9    0.72    0.13
   0   2   9    0.63    0.12
   0   2   9    0.66    0.21
   0   2   9    0.82    0.10
   0   2   9    0.84    0.10
   1  -2   9    3.67    0.24
   1  -2   9    3.73    0.25
  -1  -2  -9    3.68    0.24
  -1  -2  -9    3.68    0.23
   1  -2   9    3.59    0.20
  -1  -2  -9    3.44    0.24
  -1  -2  -9    3.42    0.26
  -1   2  -9    3.63    0.26
  -1   2  -9    3.57    0.25
   1   2   9    3.80    0.22
  -1   2  -9    3.42    0.23
   1   2   9    3.77    0.23
  -2  -2  -9    1.89    0.17
   2  -2   9    1.53    0.14
  -2  -2  -9    1.81    0.15
   2  -2   9    1.70    0.13
  -2  -2  -9    1.88    0.17
   2  -2   9    1.82    0.16
   2  -2   9    1.92    0.17
  -2  -2  -9    1.96    0.18
  -2   2  -9    1.98    0.18
  -2   2  -9    1.73    0.18
  -2   2  -9    1.79    0.17
   2   2   9    1.98    0.14
   2   2   9    1.74    0.14
  -2   2  -9    1.64    0.17
   3  -2   9    3.47    0.20
   3  -2   9    3.80    0.24
  -3  -2  -9    3.56    0.24
  -3  -2  -9    3.48    0.24
   3  -2   9    3.72    0.24
  -3  -2  -9    3.49    0.23
  -3  -2  -9    3.50    0.25
   3  -2   9    2.96    0.21
  -3   2  -9    3.76    0.24
   3   2   9    3.58    0.21
  -3   2  -9    3.74    0.24
  -3   2  -9    3.66    0.25
   3   2   9    3.77    0.22
  -4  -2  -9    2.77    0.20
  -4  -2  -9    2.70    0.21
   4  -2   9    3.22    0.21
  -4  -2  -9    3.02    0.20
   4  -2   9    2.43    0.18
   4  -2   9    2.89    0.20
   4  -2   9    2.90    0.17
  -4  -2  -9    3.16    0.21
  -4   2  -9    2.80    0.20
  -4   2  -9    2.78    0.21
  -4   2  -9    3.05    0.21
  -4   2  -9    3.11    0.21
   4   2   9    2.79    0.17
   4   2   9    2.76    0.18
  -5  -2  -9    0.85    0.10
   5  -2   9    0.81    0.11
   5  -2   9    0.92    0.11
  -5  -2  -9    1.06    0.12
  -5  -2  -9    0.92    0.10
   5  -2   9    0.80    0.08
  -5  -2  -9    0.71    0.11
  -5   2  -9    0.86    0.12
   5   2   9    1.02    0.08
  -5   2  -9    0.75    0.11
  -5   2  -9    0.77    0.10
  -5   2  -9    1.01    0.12
  -6  -2  -9    1.32    0.10
  -6  -2  -9    0.98    0.10
  -6  -2  -9    1.47    0.10
   6  -2   9    1.24    0.11
  -6   2  -9    1.18    0.11
  -6   2  -9    1.13    0.11
 -11  -3   9    1.06    0.10
 -11   3   9    1.13    0.12
 -10  -3   9    1.53    0.14
 -10  -3   9    1.47    0.13
 -10  -3   9    1.58    0.13
 -10   3   9    1.33    0.14
  10   3  -9    1.40    0.09
 -10   3   9    1.67    0.15
  -9  -3   9    0.35    0.09
  -9  -3   9    0.36    0.09
  -9  -3   9    0.39    0.10
  -9  -3   9    0.31    0.08
   9   3  -9    0.28    0.05
  -9   3   9    0.34    0.10
  -9   3   9    0.37    0.10
  -8  -3   9    0.70    0.11
  -8  -3   9    0.71    0.12
  -8  -3   9    0.44    0.10
  -8  -3   9    0.51    0.11
  -8   3   9    0.55    0.12
  -8   3   9    0.43    0.10
   8   3  -9    0.53    0.07
   8   3  -9    0.48    0.09
   8   3  -9    0.55    0.10
  -7  -3   9    7.96    0.43
  -7  -3   9    8.13    0.44
  -7  -3   9    7.73    0.43
   7   3  -9    6.90    0.38
  -7   3   9    8.22    0.46
  -7   3   9    7.92    0.43
   7   3  -9    7.88    0.42
  -6  -3   9    0.12    0.07
  -6  -3   9    0.04    0.07
  -6  -3   9    0.12    0.08
   6   3  -9    0.03    0.09
   6   3  -9    0.07    0.04
  -6   3   9    0.03    0.09
  -6   3   9    0.06    0.08
  -5  -3   9    0.65    0.12
  -5  -3   9    0.36    0.09
  -5  -3   9    0.52    0.10
   5   3  -9    0.45    0.11
  -5   3   9    0.41    0.09
  -5   3   9    0.56    0.12
  -4  -3   9    2.70    0.20
  -4  -3   9    3.02    0.22
  -4  -3   9    2.91    0.21
  -4   3   9    2.69    0.21
   4   3  -9    2.81    0.22
  -4   3   9    2.97    0.25
  -3  -3   9    5.08    0.31
  -3  -3   9    4.93    0.29
   3  -3  -9    4.88    0.30
  -3  -3   9    5.07    0.30
   3   3  -9    4.96    0.31
  -3   3   9    4.89    0.30
   3   3  -9    5.26    0.31
  -3   3   9    4.58    0.27
  -3   3   9    5.42    0.34
   2  -3  -9    0.94    0.13
  -2  -3   9    1.04    0.13
  -2  -3   9    0.67    0.11
  -2  -3   9    0.91    0.12
   2  -3  -9    0.85    0.12
   2   3  -9    0.96    0.15
   2   3  -9    0.76    0.12
  -2   3   9    0.59    0.12
  -2   3   9    0.92    0.14
  -2   3   9    0.97    0.10
  -1  -3   9    2.64    0.19
   1  -3  -9    2.74    0.20
  -1  -3   9    2.82    0.21
   1  -3  -9    2.94    0.23
   1  -3  -9    2.77    0.19
  -1  -3   9    2.77    0.21
   1  -3  -9    2.96    0.21
  -1   3   9    3.10    0.28
   1   3  -9    2.90    0.22
  -1   3   9    3.08    0.19
  -1   3   9    2.65    0.19
   1   3  -9    2.54    0.21
   0  -3   9    8.97    0.49
   0  -3   9    8.80    0.47
   0  -3  -9    9.79    0.48
   0  -3  -9    9.05    0.48
   0  -3   9    9.44    0.49
   0  -3  -9    8.95    0.48
   0  -3  -9    9.05    0.50
   0   3  -9    9.03    0.48
   0   3  -9    9.00    0.49
   0   3   9    9.11    0.47
   0   3   9    9.13    0.46
  -1  -3  -9    0.92    0.12
  -1  -3  -9    0.87    0.13
  -1  -3  -9    0.81    0.12
  -1  -3  -9    0.85    0.14
   1  -3   9    0.91    0.13
   1  -3   9    0.98    0.12
   1  -3   9    0.72    0.11
  -1   3  -9    0.78    0.14
  -1   3  -9    0.81    0.14
   1   3   9    0.79    0.11
   1   3   9    0.97    0.10
   2  -3   9   10.60    0.57
  -2  -3  -9   11.17    0.56
   2  -3   9   11.40    0.56
   2  -3   9   10.99    0.56
  -2  -3  -9   10.80    0.57
  -2  -3  -9   10.80    0.54
  -2  -3  -9   11.08    0.55
   2   3   9   11.13    0.53
  -2   3  -9    9.43    0.55
  -2   3  -9   10.87    0.56
   2   3   9   10.55    0.54
  -3  -3  -9    0.96    0.13
  -3  -3  -9    1.17    0.11
   3  -3   9    1.04    0.13
   3  -3   9    1.01    0.12
  -3  -3  -9    0.99    0.12
  -3  -3  -9    1.10    0.14
  -3   3  -9    1.25    0.15
   3   3   9    1.05    0.10
   3   3   9    0.97    0.10
  -3   3  -9    1.07    0.13
   4  -3   9    0.15    0.06
  -4  -3  -9    0.20    0.05
  -4  -3  -9    0.22    0.07
  -4  -3  -9    0.28    0.07
   4  -3   9    0.29    0.08
  -4  -3  -9    0.32    0.08
  -4   3  -9    0.43    0.08
   4   3   9    0.34    0.06
  -4   3  -9    0.23    0.07
   5  -3   9    0.61    0.09
  -5  -3  -9    0.71    0.11
  -5  -3  -9    0.61    0.08
  -5  -3  -9    0.71    0.09
  -5  -3  -9    0.77    0.08
  -5   3  -9    0.90    0.09
  -5   3  -9    0.65    0.09
  -9  -4   9    1.00    0.10
  -9  -4   9    0.91    0.10
  -9   4   9    0.93    0.13
  -8  -4   9    2.14    0.16
  -8   4   9    2.34    0.19
   8   4  -9    1.60    0.11
   8   4  -9    2.07    0.16
  -7  -4   9    5.09    0.29
  -7  -4   9    5.15    0.29
  -7   4   9    5.22    0.33
   7   4  -9    5.25    0.29
   7   4  -9    4.09    0.24
  -6  -4   9    1.90    0.18
  -6  -4   9    2.39    0.17
  -6  -4   9    1.95    0.17
  -6   4   9    2.09    0.21
   6   4  -9    2.31    0.19
  -5  -4   9    0.37    0.09
  -5  -4   9    0.24    0.09
  -5  -4   9    0.34    0.09
   5   4  -9    0.30    0.10
  -5   4   9    0.23    0.10
  -4  -4   9    3.36    0.23
  -4  -4   9    3.69    0.23
  -4  -4   9    3.34    0.24
   4   4  -9    3.59    0.24
  -4   4   9    3.57    0.27
  -3  -4   9    1.98    0.16
   3  -4  -9    2.20    0.17
  -3  -4   9    2.15    0.18
  -3  -4   9    2.11    0.17
   3   4  -9    2.13    0.18
  -3   4   9    2.10    0.21
   3   4  -9    1.93    0.19
   2  -4  -9    0.17    0.07
  -2  -4   9    0.08    0.07
  -2  -4   9    0.13    0.08
  -2  -4   9    0.05    0.06
   2  -4  -9    0.11    0.07
   2   4  -9   -0.05    0.08
  -2   4   9    0.10    0.09
  -2   4   9    0.09    0.06
   2   4  -9    0.20    0.10
  -1  -4   9    1.22    0.14
   1  -4  -9    1.14    0.15
  -1  -4   9    1.04    0.13
   1  -4  -9    1.35    0.14
   1  -4  -9    1.27    0.13
  -1  -4   9    1.20    0.13
   1   4  -9    1.03    0.14
  -1   4   9    1.09    0.13
  -1   4   9    1.32    0.16
   1   4  -9    1.14    0.15
  -1   4   9    1.12    0.11
   0  -4  -9    7.84    0.41
   0  -4  -9    8.08    0.41
   0  -4   9    8.02    0.41
   0  -4   9    7.01    0.40
   0  -4  -9    7.72    0.40
   0  -4   9    7.65    0.41
   0   4  -9    7.16    0.40
   0   4   9    7.58    0.39
   0   4  -9    8.03    0.42
   0   4   9    7.01    0.40
   0   4   9    8.42    0.45
  -1  -4  -9    2.00    0.14
   1  -4   9    1.52    0.15
   1  -4   9    1.96    0.15
   1  -4   9    1.86    0.15
  -1  -4  -9    1.77    0.15
  -1  -4  -9    1.93    0.16
   1   4   9    1.90    0.13
   1   4   9    1.39    0.14
  -1   4  -9    1.68    0.16
  -2  -4  -9    5.82    0.31
  -2  -4  -9    5.91    0.32
   2  -4   9    5.56    0.31
   2  -4   9    5.14    0.31
   2  -4   9    5.93    0.32
  -2  -4  -9    6.22    0.31
  -2   4  -9    5.99    0.33
   2   4   9    6.07    0.30
  -3  -4  -9    1.04    0.11
  -3  -4  -9    1.16    0.10
   3  -4   9    1.14    0.10
   3  -4   9    0.82    0.10
  -3  -4  -9    1.10    0.10
  -3   4  -9    1.06    0.11
   3   4   9    1.18    0.09
  -4  -4  -9    0.29    0.05
  -7  -5   9    0.53    0.08
   7   5  -9    0.43    0.08
  -7   5   9    0.75    0.11
  -6  -5   9    1.23    0.12
   6   5  -9    1.39    0.13
  -6   5   9    1.17    0.15
  -5  -5   9    0.78    0.10
  -5   5   9    0.88    0.15
   5   5  -9    0.89    0.12
  -4  -5   9    2.01    0.15
  -4   5   9    1.91    0.18
   4   5  -9    1.86    0.16
  -4   5   9    1.78    0.17
  -3  -5   9    0.25    0.07
   3   5  -9    0.09    0.09
  -3   5   9    0.34    0.10
  -3   5   9    0.15    0.09
   3   5  -9    0.11    0.07
  -2  -5   9    0.15    0.07
   2   5  -9    0.00    0.07
   2   5  -9    0.04    0.08
  -2   5   9    0.14    0.09
   1  -5  -9    1.53    0.15
  -1  -5   9    2.04    0.14
  -1   5   9    1.95    0.18
  -1   5   9    1.59    0.12
   1   5  -9    1.73    0.15
   0  -5  -9    1.86    0.13
   0  -5  -9    1.59    0.12
   0  -5  -9    1.62    0.12
   0  -5   9    1.79    0.13
   0   5  -9    1.82    0.14
   0   5   9    1.56    0.16
   0   5   9    1.48    0.11
  -1  -5  -9    3.27    0.18
   1  -5   9    3.41    0.19
  -1  -5  -9    3.29    0.19
  -1  -5  -9    3.02    0.18
  -1   5  -9    3.40    0.20
   1   5   9    3.26    0.20
 -11   0  10    0.14    0.07
 -11   0  10   -0.09    0.07
 -11   0  10   -0.06    0.07
 -10   0  10    2.84    0.21
 -10   0  10    2.97    0.21
 -10   0  10    2.47    0.20
  -9   0  10    0.18    0.08
  -9   0  10    0.05    0.08
  -9   0  10   -0.05    0.07
  -8   0  10    1.87    0.18
  -8   0  10    1.80    0.17
  -8   0  10    1.93    0.18
  -7   0  10    1.95    0.17
  -7   0  10    1.83    0.17
  -7   0  10    1.63    0.18
   6   0 -10    0.94    0.14
  -6   0  10    0.99    0.13
  -6   0  10    0.98    0.15
  -6   0  10    1.12    0.13
  -5   0  10    2.02    0.17
  -5   0  10    2.01    0.17
   5   0 -10    2.02    0.18
  -5   0  10    1.95    0.18
  -4   0  10    9.44    0.49
   4   0 -10    9.31    0.48
  -4   0  10    8.97    0.49
  -4   0  10    8.85    0.48
  -3   0  10    7.76    0.42
   3   0 -10    7.61    0.42
  -3   0  10    7.38    0.41
  -3   0  10    7.74    0.42
  -2   0  10    7.03    0.39
  -2   0  10    7.05    0.40
   2   0 -10    7.37    0.40
  -2   0  10    7.60    0.40
  -2   0  10    7.24    0.36
   1   0 -10   15.46    0.75
  -1   0  10   14.18    0.73
  -1   0  10   16.14    0.73
   1   0 -10   15.51    0.76
  -1   0  10   14.45    0.75
   1   0 -10   15.97    0.76
  -1   0  10   15.20    0.75
   0   0  10    1.92    0.15
   0   0 -10    1.97    0.17
   0   0 -10    2.19    0.18
   0   0  10    2.05    0.17
   0   0 -10    1.91    0.18
   0   0  10    1.96    0.16
   0   0 -10    2.04    0.18
   0   0  10    1.89    0.14
  -1   0 -10    3.37    0.24
  -1   0 -10    3.30    0.23
  -1   0 -10    3.37    0.23
   1   0  10    3.60    0.20
  -1   0 -10    3.49    0.24
   1   0  10    3.23    0.21
   1   0  10    3.21    0.23
   1   0  10    3.31    0.22
  -1   0 -10    3.58    0.26
  -2   0 -10    2.67    0.21
   2   0  10    2.43    0.16
  -2   0 -10    2.59    0.19
   2   0  10    2.38    0.17
  -2   0 -10    2.34    0.18
  -2   0 -10    2.21    0.19
   2   0  10    2.15    0.19
  -2   0 -10    2.22    0.19
  -3   0 -10    8.24    0.43
  -3   0 -10    8.40    0.43
  -3   0 -10    8.28    0.44
   3   0  10    7.97    0.40
  -3   0 -10    7.49    0.42
  -3   0 -10    8.14    0.42
   3   0  10    7.48    0.41
  -4   0 -10    1.20    0.14
   4   0  10    1.13    0.10
   4   0  10    1.01    0.11
  -4   0 -10    1.20    0.12
  -4   0 -10    1.18    0.13
  -4   0 -10    1.40    0.13
  -5   0 -10   -0.05    0.05
  -5   0 -10    0.10    0.05
   5   0  10    0.00    0.04
  -5   0 -10    0.07    0.06
  -5   0 -10    0.02    0.05
 -11  -1  10    0.00    0.08
 -11  -1  10    0.07    0.09
 -11  -1  10    0.12    0.07
 -11   1  10    0.08    0.07
 -11   1  10   -0.04    0.07
 -10  -1  10    0.74    0.11
 -10  -1  10    0.48    0.09
 -10  -1  10    0.74    0.12
 -10   1  10    0.29    0.09
 -10   1  10    0.85    0.13
 -10   1  10    0.68    0.12
  10   1 -10    0.45    0.05
  -9  -1  10    0.56    0.10
  -9  -1  10    0.98    0.14
  -9  -1  10    0.90    0.12
  -9  -1  10    0.99    0.14
  -9   1  10    0.78    0.13
  -9   1  10    0.82    0.14
  -9   1  10    0.92    0.14
   9   1 -10    0.83    0.07
  -8  -1  10    1.43    0.16
  -8  -1  10    1.82    0.17
  -8  -1  10    1.79    0.17
  -8   1  10    1.94    0.17
  -8   1  10    1.54    0.17
  -8   1  10    1.83    0.17
   8   1 -10    1.58    0.11
  -7  -1  10    5.45    0.33
  -7  -1  10    5.74    0.33
  -7  -1  10    5.19    0.31
  -7   1  10    4.58    0.31
  -7   1  10    4.96    0.32
  -7   1  10    5.54    0.33
   7   1 -10    5.10    0.34
  -6  -1  10    4.11    0.27
  -6  -1  10    4.14    0.28
  -6  -1  10    4.51    0.28
  -6   1  10    3.98    0.26
   6   1 -10    4.27    0.27
  -6   1  10    4.53    0.28
   5  -1 -10   14.26    0.73
  -5  -1  10   14.35    0.73
  -5  -1  10   15.05    0.75
  -5  -1  10   15.58    0.75
  -5   1  10   15.24    0.75
   5   1 -10   14.66    0.74
  -4  -1  10    9.87    0.52
   4  -1 -10    9.67    0.51
  -4  -1  10    9.57    0.52
  -4  -1  10    9.74    0.51
  -4   1  10    9.14    0.53
   4   1 -10   10.42    0.52
  -4   1  10    9.72    0.51
  -3  -1  10   21.09    1.00
   3  -1 -10   20.04    1.00
  -3  -1  10   20.64    1.01
   3  -1 -10   20.02    0.99
  -3  -1  10   21.49    1.01
   3   1 -10   20.45    1.00
  -3   1  10   21.30    1.01
  -2  -1  10   16.80    0.88
   2  -1 -10   18.34    0.89
  -2  -1  10   18.01    0.87
   2  -1 -10   18.47    0.88
  -2  -1  10   17.94    0.88
   2   1 -10   18.24    0.88
  -2   1  10   17.92    0.84
  -2   1  10   17.85    0.88
   2   1 -10   17.80    0.87
  -1  -1  10    4.85    0.29
   1  -1 -10    4.86    0.29
  -1  -1  10    4.70    0.29
   1  -1 -10    4.67    0.29
  -1  -1  10    4.27    0.24
   1  -1 -10    4.58    0.28
  -1   1  10    4.70    0.26
   1   1 -10    4.59    0.29
  -1   1  10    4.30    0.29
  -1   1  10    4.45    0.27
   1   1 -10    4.86    0.30
   0  -1 -10    9.77    0.50
   0  -1  10    9.46    0.50
   0  -1 -10    8.82    0.49
   0  -1 -10    8.94    0.51
   0  -1  10    9.20    0.46
   0  -1  10    9.23    0.50
   0  -1 -10    9.89    0.50
   0   1 -10    9.23    0.50
   0   1  10    9.44    0.48
   0   1  10    9.73    0.47
   0   1 -10    9.81    0.50
   0   1 -10   10.17    0.51
  -1  -1 -10    3.57    0.23
  -1  -1 -10    3.28    0.24
  -1  -1 -10    3.56    0.23
   1  -1  10    3.43    0.23
   1  -1  10    2.90    0.21
  -1  -1 -10    3.51    0.23
   1  -1  10    3.36    0.20
  -1  -1 -10    3.49    0.23
   1  -1  10    3.12    0.23
   1   1  10    3.56    0.20
  -1   1 -10    3.20    0.24
  -1   1 -10    3.36    0.23
  -1   1 -10    3.55    0.29
  -1   1 -10    3.53    0.23
   1   1  10    3.47    0.22
   2  -1  10    3.38    0.23
  -2  -1 -10    3.60    0.24
   2  -1  10    3.99    0.25
  -2  -1 -10    3.72    0.26
  -2  -1 -10    3.61    0.24
   2  -1  10    3.66    0.24
  -2  -1 -10    3.91    0.24
  -2  -1 -10    4.00    0.25
   2  -1  10    3.77    0.21
  -2   1 -10    3.60    0.26
  -2   1 -10    4.11    0.26
  -2   1 -10    4.03    0.25
  -2   1 -10    4.06    0.26
   2   1  10    3.85    0.23
   2   1  10    3.80    0.22
  -2   1 -10    3.65    0.24
   3  -1  10    0.37    0.09
   3  -1  10    0.40    0.09
  -3  -1 -10    0.39    0.09
   3  -1  10    0.36    0.07
  -3  -1 -10    0.30    0.08
  -3  -1 -10    0.36    0.09
   3  -1  10    0.43    0.07
  -3  -1 -10    0.48    0.10
  -3  -1 -10    0.34    0.08
  -3   1 -10    0.38    0.09
  -3   1 -10    0.27    0.09
  -3   1 -10    0.41    0.09
   3   1  10    0.43    0.07
   3   1  10    0.44    0.08
  -3   1 -10    0.26    0.09
  -4  -1 -10    0.53    0.09
  -4  -1 -10    0.45    0.09
  -4  -1 -10    0.53    0.09
   4  -1  10    0.40    0.06
  -4  -1 -10    0.39    0.08
   4  -1  10    0.33    0.08
   4  -1  10    0.46    0.09
  -4  -1 -10    0.19    0.07
  -4   1 -10    0.27    0.08
  -4   1 -10    0.42    0.09
   4   1  10    0.34    0.10
  -4   1 -10    0.53    0.09
  -4   1 -10    0.58    0.11
   4   1  10    0.37    0.07
   5  -1  10    1.37    0.10
  -5  -1 -10    1.71    0.12
  -5  -1 -10    1.62    0.13
   5  -1  10    1.45    0.12
  -5  -1 -10    1.60    0.13
  -5   1 -10    1.55    0.12
  -5   1 -10    1.56    0.13
  -5   1 -10    1.67    0.12
   5   1  10    1.74    0.10
  -5   1 -10    1.41    0.13
 -11  -2  10    0.27    0.07
 -11  -2  10    0.14    0.06
 -11   2  10    0.25    0.07
 -10  -2  10    0.28    0.08
 -10  -2  10    0.04    0.07
 -10  -2  10    0.21    0.07
 -10   2  10    0.06    0.08
  10   2 -10    0.10    0.03
  -9  -2  10    2.55    0.19
  -9  -2  10    2.69    0.21
  -9  -2  10    2.66    0.20
  -9   2  10    2.90    0.20
   9   2 -10    2.43    0.14
  -8  -2  10    2.23    0.19
  -8  -2  10    2.14    0.18
  -8  -2  10    2.12    0.17
   8   2 -10    1.83    0.12
  -8   2  10    2.05    0.18
  -7  -2  10    1.81    0.18
  -7  -2  10    1.86    0.16
  -7  -2  10    1.77    0.17
   7   2 -10    1.88    0.18
  -7   2  10    1.58    0.19
  -7   2  10    1.84    0.18
  -6  -2  10    2.07    0.18
  -6  -2  10    1.95    0.17
  -6  -2  10    2.21    0.18
   6   2 -10    1.96    0.18
  -6   2  10    1.92    0.20
  -6   2  10    2.08    0.18
  -5  -2  10    4.75    0.30
  -5  -2  10    5.30    0.33
  -5  -2  10    5.35    0.32
  -5   2  10    5.69    0.33
  -5   2  10    5.61    0.35
   5   2 -10    5.38    0.32
   4  -2 -10    1.17    0.15
  -4  -2  10    1.25    0.14
  -4  -2  10    1.33    0.14
   4   2 -10    1.23    0.15
  -4   2  10    1.32    0.14
  -4   2  10    1.12    0.17
  -3  -2  10   16.83    0.79
   3  -2 -10   15.91    0.77
  -3  -2  10   16.17    0.79
   3   2 -10   16.04    0.78
  -3   2  10   14.55    0.74
  -3   2  10   15.05    0.78
  -2  -2  10   10.05    0.54
   2  -2 -10   10.56    0.57
  -2  -2  10   11.28    0.56
   2  -2 -10   10.59    0.55
  -2  -2  10   10.34    0.56
  -2   2  10   10.90    0.52
   2   2 -10   10.16    0.55
   2   2 -10   11.09    0.56
  -2   2  10   10.88    0.56
  -1  -2  10   10.66    0.55
  -1  -2  10   10.48    0.54
   1  -2 -10   10.28    0.54
  -1  -2  10   11.53    0.56
   1  -2 -10   10.61    0.56
   1  -2 -10   10.72    0.55
   1  -2 -10   10.11    0.54
   1   2 -10   11.08    0.56
  -1   2  10   10.49    0.55
   1   2 -10   10.80    0.55
  -1   2  10    9.97    0.53
  -1   2  10   10.71    0.52
   0  -2  10    3.62    0.25
   0  -2 -10    3.48    0.23
   0  -2  10    3.63    0.24
   0  -2 -10    3.46    0.25
   0  -2 -10    3.03    0.22
   0  -2 -10    3.33    0.23
   0   2  10    3.39    0.22
   0   2  10    3.54    0.21
   0   2 -10    2.97    0.22
   0   2  10    3.65    0.24
   0   2 -10    3.57    0.24
   1  -2  10    0.60    0.11
  -1  -2 -10    0.74    0.11
  -1  -2 -10    0.67    0.11
   1  -2  10    0.43    0.07
  -1  -2 -10    0.60    0.10
  -1  -2 -10    0.43    0.10
   1  -2  10    0.59    0.10
  -1   2 -10    0.40    0.09
   1   2  10    0.52    0.10
   1   2  10    0.58    0.09
   1   2  10    0.68    0.11
  -1   2 -10    0.70    0.12
  -1   2 -10    0.65    0.11
   2  -2  10    1.03    0.13
   2  -2  10    0.94    0.09
  -2  -2 -10    1.14    0.13
   2  -2  10    1.09    0.13
  -2  -2 -10    0.95    0.13
  -2  -2 -10    1.26    0.12
  -2  -2 -10    0.95    0.13
  -2   2 -10    0.92    0.13
   2   2  10    0.99    0.11
  -2   2 -10    0.81    0.14
   2   2  10    1.03    0.14
   2   2  10    1.04    0.10
  -2   2 -10    0.94    0.13
  -3  -2 -10   -0.02    0.05
  -3  -2 -10    0.17    0.07
   3  -2  10    0.10    0.07
   3  -2  10    0.14    0.07
  -3  -2 -10    0.10    0.07
  -3  -2 -10    0.19    0.07
   3  -2  10    0.09    0.04
  -3   2 -10    0.10    0.07
   3   2  10    0.06    0.05
   3   2  10    0.06    0.05
   3   2  10    0.09    0.08
  -3   2 -10    0.06    0.07
  -3   2 -10   -0.01    0.07
  -4  -2 -10    4.13    0.23
  -4  -2 -10    4.15    0.22
  -4  -2 -10    3.91    0.21
   4  -2  10    3.33    0.24
   4  -2  10    4.32    0.23
  -4  -2 -10    3.78    0.21
   4  -2  10    3.05    0.20
  -4   2 -10    3.51    0.22
   4   2  10    3.75    0.20
  -4   2 -10    3.63    0.22
  -4   2 -10    3.49    0.21
 -10  -3  10    4.00    0.23
 -10  -3  10    3.98    0.23
 -10   3  10    4.21    0.23
  -9  -3  10    3.57    0.21
  -9  -3  10    3.58    0.22
  -9  -3  10    3.13    0.23
  -9   3  10    3.38    0.22
  -9   3  10    3.11    0.22
  -8  -3  10    2.63    0.19
  -8  -3  10    2.58    0.18
  -8  -3  10    2.23    0.19
  -8   3  10    2.43    0.19
   8   3 -10    2.69    0.19
  -8   3  10    2.44    0.21
  -7  -3  10    2.26    0.17
  -7  -3  10    2.18    0.18
  -7  -3  10    1.87    0.17
  -7   3  10    2.07    0.18
   7   3 -10    1.79    0.18
  -7   3  10    1.91    0.20
  -6  -3  10    0.11    0.08
  -6  -3  10    0.17    0.07
  -6  -3  10    0.23    0.08
  -6   3  10    0.25    0.09
   6   3 -10    0.13    0.09
  -6   3  10    0.20    0.09
  -5  -3  10    4.01    0.26
  -5  -3  10    3.69    0.25
  -5  -3  10    3.48    0.23
  -5   3  10    3.88    0.26
   5   3 -10    3.81    0.25
  -5   3  10    3.88    0.28
  -4  -3  10    4.60    0.28
  -4  -3  10    4.55    0.28
  -4  -3  10    4.11    0.26
  -4   3  10    4.29    0.30
   4   3 -10    4.08    0.27
  -4   3  10    4.13    0.27
  -3  -3  10    1.67    0.16
  -3  -3  10    1.78    0.17
  -3  -3  10    1.74    0.16
   3  -3 -10    1.85    0.17
  -3   3  10    1.69    0.16
   3   3 -10    1.69    0.19
   3   3 -10    1.74    0.17
  -3   3  10    1.79    0.19
  -2  -3  10    3.37    0.22
  -2  -3  10    3.47    0.24
   2  -3 -10    2.99    0.22
  -2  -3  10    3.44    0.23
   2  -3 -10    3.38    0.23
  -2   3  10    3.00    0.22
  -2   3  10    3.56    0.20
   2   3 -10    3.51    0.24
   2   3 -10    3.64    0.24
   1  -3 -10    1.16    0.12
   1  -3 -10    1.32    0.14
  -1  -3  10    0.99    0.12
  -1  -3  10    1.25    0.14
  -1  -3  10    1.09    0.13
   1  -3 -10    1.43    0.15
   1   3 -10    1.12    0.15
  -1   3  10    1.20    0.11
  -1   3  10    1.19    0.13
  -1   3  10    1.27    0.15
   1   3 -10    1.22    0.15
   0  -3 -10    8.42    0.45
   0  -3 -10    8.95    0.45
   0  -3 -10    8.48    0.44
   0  -3  10    9.29    0.46
   0  -3  10    8.49    0.46
   0  -3 -10    8.92    0.47
   0   3 -10    7.86    0.45
   0   3  10    7.47    0.44
   0   3  10    8.93    0.43
   0   3 -10    8.99    0.46
   1  -3  10    1.33    0.14
   1  -3  10    1.18    0.14
  -1  -3 -10    1.23    0.15
  -1  -3 -10    1.34    0.13
  -1  -3 -10    1.25    0.14
  -1  -3 -10    1.63    0.13
   1   3  10    1.39    0.11
   1   3  10    1.21    0.12
   1   3  10    1.43    0.11
  -1   3 -10    1.43    0.14
   2  -3  10    1.33    0.13
   2  -3  10    1.35    0.13
  -2  -3 -10    1.50    0.12
  -2  -3 -10    1.25    0.13
  -2  -3 -10    1.37    0.14
  -2  -3 -10    1.52    0.13
   2   3  10    1.16    0.12
  -2   3 -10    1.63    0.14
   2   3  10    1.47    0.11
   2   3  10    1.59    0.11
  -3  -3 -10    2.46    0.15
   3  -3  10    2.20    0.16
  -3  -3 -10    2.15    0.15
   3  -3  10    1.80    0.15
  -3  -3 -10    2.20    0.14
  -3  -3 -10    2.09    0.16
  -3   3 -10    2.19    0.16
   3   3  10    2.21    0.13
   3   3  10    2.24    0.13
  -4  -3 -10    0.38    0.06
  -4  -3 -10    0.27    0.06
  -4  -3 -10    0.40    0.07
   4  -3  10    0.56    0.07
  -4   3 -10    0.37    0.07
  -8  -4  10    2.72    0.17
  -8   4  10    2.85    0.20
   8   4 -10    2.65    0.18
  -7  -4  10    0.24    0.07
  -7  -4  10    0.20    0.07
  -7   4  10    0.20    0.09
   7   4 -10    0.07    0.07
  -6  -4  10    0.40    0.09
  -6  -4  10    0.64    0.10
  -6  -4  10    0.28    0.08
  -6   4  10    0.54    0.12
   6   4 -10    0.69    0.12
  -5  -4  10   -0.07    0.07
  -5  -4  10   -0.03    0.07
  -5  -4  10    0.06    0.06
   5   4 -10    0.05    0.08
  -5   4  10    0.02    0.08
  -4  -4  10    1.19    0.13
  -4  -4  10    1.09    0.12
  -4  -4  10    0.82    0.13
  -4   4  10    1.19    0.16
   4   4 -10    1.29    0.14
  -3  -4  10    5.24    0.29
  -3  -4  10    5.08    0.29
  -3  -4  10    4.32    0.28
  -3   4  10    5.24    0.32
   3   4 -10    4.82    0.29
   3   4 -10    5.26    0.30
  -2  -4  10    3.13    0.22
   2  -4 -10    3.25    0.21
  -2  -4  10    3.67    0.22
   2  -4 -10    3.15    0.20
  -2  -4  10    3.31    0.22
  -2   4  10    3.87    0.26
   2   4 -10    3.30    0.22
  -2   4  10    2.53    0.21
   2   4 -10    3.84    0.22
  -1  -4  10    0.32    0.08
  -1  -4  10    0.18    0.07
   1  -4 -10    0.33    0.08
  -1  -4  10    0.43    0.08
   1  -4 -10    0.24    0.07
   1   4 -10    0.25    0.09
  -1   4  10    0.30    0.09
  -1   4  10    0.26    0.06
   1   4 -10    0.35    0.08
   0  -4  10    5.20    0.29
   0  -4 -10    5.80    0.29
   0  -4  10    4.86    0.29
   0  -4 -10    4.71    0.27
   0  -4  10    5.23    0.29
   0  -4 -10    5.55    0.29
   0   4 -10    5.57    0.30
   0   4  10    5.63    0.33
   0   4  10    5.02    0.27
  -1  -4 -10    1.28    0.12
  -1  -4 -10    1.50    0.12
  -1  -4 -10    1.31    0.11
   1  -4  10    1.37    0.12
   1  -4  10    1.18    0.11
   1   4  10    1.43    0.10
   1   4  10    1.49    0.15
  -1   4 -10    1.48    0.13
  -2  -4 -10    1.43    0.10
   2  -4  10    1.58    0.11
  -2  -4 -10    1.45    0.11
  -2  -4 -10    1.52    0.11
  -2   4 -10    1.35    0.12
   2   4  10    1.33    0.11
   2   4  10    1.52    0.14
  -6   5  10    1.19    0.12
  -5  -5  10    3.73    0.21
   5   5 -10    3.82    0.21
  -4  -5  10    0.66    0.08
   4   5 -10    0.65    0.10
  -4   5  10    0.51    0.10
  -3  -5  10    0.57    0.08
  -3   5  10    0.40    0.09
   3   5 -10    0.45    0.07
  -2  -5  10    1.05    0.09
  -2   5  10    0.95    0.15
   2   5 -10    0.87    0.13
  -2   5  10    1.01    0.12
   2   5 -10    0.74    0.09
  -1  -5  10    3.48    0.19
  -1   5  10    4.08    0.22
  -1   5  10    2.94    0.23
   1   5 -10    3.39    0.20
 -11   0  11    1.72    0.14
 -10   0  11    0.07    0.07
 -10   0  11    0.21    0.08
 -10   0  11    0.09    0.08
  -9   0  11    0.04    0.07
  -9   0  11   -0.09    0.07
  -9   0  11    0.05    0.07
  -8   0  11    1.49    0.16
  -8   0  11    1.88    0.17
  -8   0  11    1.56    0.16
  -7   0  11   26.83    1.28
  -7   0  11   27.36    1.28
  -7   0  11   26.31    1.28
  -6   0  11    8.98    0.47
   6   0 -11    8.67    0.46
  -6   0  11    8.39    0.47
  -6   0  11    8.63    0.47
  -5   0  11   15.80    0.76
  -5   0  11   14.67    0.75
   5   0 -11   15.19    0.75
  -5   0  11   14.85    0.76
  -4   0  11    3.04    0.21
  -4   0  11    2.77    0.21
   4   0 -11    2.86    0.21
  -4   0  11    2.77    0.21
  -3   0  11    2.81    0.20
  -3   0  11    2.63    0.20
   3   0 -11    2.63    0.21
  -3   0  11    2.79    0.21
  -2   0  11    5.46    0.34
   2   0 -11    6.12    0.34
  -2   0  11    6.61    0.35
  -2   0  11    5.44    0.34
  -1   0  11    1.96    0.14
   1   0 -11    2.01    0.17
   1   0 -11    2.27    0.18
  -1   0  11    2.33    0.18
  -1   0  11    1.86    0.17
  -1   0  11    2.15    0.18
   0   0 -11    1.78    0.16
   0   0  11    1.72    0.16
   0   0 -11    1.61    0.15
   0   0  11    1.79    0.13
   0   0 -11    1.93    0.17
   1   0  11    0.13    0.05
   1   0  11    0.05    0.07
  -1   0 -11    0.06    0.07
  -1   0 -11    0.17    0.08
  -1   0 -11    0.02    0.07
  -1   0 -11   -0.02    0.08
  -2   0 -11    7.86    0.40
   2   0  11    8.13    0.38
  -2   0 -11    7.72    0.41
  -2   0 -11    8.15    0.41
   2   0  11    6.50    0.39
  -2   0 -11    7.87    0.41
  -3   0 -11    0.69    0.09
  -3   0 -11    0.30    0.08
  -3   0 -11    0.55    0.09
   3   0  11    0.58    0.07
  -3   0 -11    0.43    0.08
  -4   0 -11    0.16    0.06
  -4   0 -11    0.16    0.05
  -4   0 -11    0.04    0.05
 -11  -1  11    4.55    0.24
 -11   1  11    3.89    0.23
 -10  -1  11    0.22    0.07
 -10  -1  11    0.18    0.07
 -10   1  11    0.19    0.08
  -9  -1  11    0.79    0.12
  -9  -1  11    0.62    0.12
  -9   1  11    0.48    0.09
  -9   1  11    0.48    0.13
  -8  -1  11    8.83    0.45
  -8  -1  11    8.35    0.45
  -8  -1  11    7.52    0.43
  -8   1  11    8.29    0.44
  -7  -1  11    8.46    0.46
  -7  -1  11    8.20    0.44
  -7  -1  11    9.11    0.47
  -7   1  11    8.44    0.45
   7   1 -11    7.41    0.43
  -6  -1  11   11.01    0.60
  -6  -1  11   12.41    0.62
  -6  -1  11   11.66    0.62
  -6   1  11   12.73    0.62
   6   1 -11   12.14    0.61
  -5  -1  11   12.33    0.60
   5  -1 -11   10.93    0.58
  -5  -1  11   11.27    0.60
  -5  -1  11   11.77    0.61
  -5   1  11   12.07    0.60
   5   1 -11   11.46    0.59
  -4  -1  11    5.11    0.30
   4  -1 -11    5.21    0.30
  -4  -1  11    4.92    0.31
  -4  -1  11    4.87    0.31
  -4   1  11    4.80    0.31
  -4   1  11    5.19    0.31
   4   1 -11    5.32    0.31
  -3  -1  11    2.12    0.18
   3  -1 -11    2.38    0.19
  -3  -1  11    2.32    0.18
  -3  -1  11    2.28    0.19
  -3   1  11    2.36    0.18
   3   1 -11    2.31    0.20
   2  -1 -11    0.95    0.13
  -2  -1  11    0.80    0.13
  -2  -1  11    0.75    0.12
  -2  -1  11    0.89    0.13
   2  -1 -11    0.92    0.14
   2   1 -11    0.80    0.13
  -2   1  11    0.79    0.09
  -2   1  11    0.86    0.14
   2   1 -11    0.83    0.14
  -1  -1  11    0.45    0.09
  -1  -1  11    0.50    0.10
   1  -1 -11    0.39    0.09
   1  -1 -11    0.63    0.12
  -1  -1  11    0.47    0.10
   1  -1 -11    0.61    0.11
   1   1 -11    0.31    0.10
  -1   1  11    0.43    0.07
   1   1 -11    0.38    0.09
  -1   1  11    0.61    0.11
   0  -1 -11    5.72    0.33
   0  -1 -11    5.96    0.33
   0  -1 -11    5.78    0.32
   0  -1  11    6.12    0.33
   0  -1  11    4.76    0.30
   0  -1  11    5.83    0.33
   0   1  11    6.09    0.33
   0   1  11    5.88    0.30
   0   1 -11    6.27    0.33
   0   1 -11    5.43    0.33
   0   1  11    5.10    0.31
   1  -1  11    1.51    0.11
   1  -1  11    1.44    0.15
  -1  -1 -11    1.42    0.15
   1  -1  11    1.66    0.15
  -1  -1 -11    1.62    0.15
  -1  -1 -11    1.84    0.16
  -1  -1 -11    1.91    0.15
   1   1  11    1.59    0.12
   1   1  11    1.85    0.16
   1   1  11    1.59    0.14
  -1   1 -11    1.74    0.16
  -1   1 -11    1.87    0.16
   2  -1  11    1.05    0.09
  -2  -1 -11    1.13    0.11
  -2  -1 -11    1.02    0.13
  -2  -1 -11    1.03    0.13
   2  -1  11    0.87    0.12
  -2  -1 -11    1.30    0.13
   2  -1  11    1.25    0.13
  -2   1 -11    1.19    0.13
   2   1  11    1.10    0.13
   2   1  11    0.90    0.11
   2   1  11    1.03    0.10
  -2   1 -11    0.65    0.14
  -2   1 -11    0.94    0.12
  -3  -1 -11    2.47    0.16
  -3  -1 -11    2.18    0.15
   3  -1  11    2.38    0.16
   3  -1  11    1.96    0.12
  -3  -1 -11    2.12    0.15
  -3  -1 -11    2.04    0.16
  -3   1 -11    2.20    0.15
   3   1  11    2.25    0.16
  -3   1 -11    2.04    0.15
   3   1  11    2.02    0.13
  -4  -1 -11    1.21    0.10
  -4  -1 -11    1.37    0.10
  -4  -1 -11    1.38    0.10
   4   1  11    1.15    0.11
  -4   1 -11    1.04    0.09
 -10  -2  11    0.27    0.07
 -10   2  11    0.16    0.07
  -9  -2  11    4.07    0.26
  -9  -2  11    4.61    0.27
  -9   2  11    4.60    0.27
  -8  -2  11   15.14    0.75
  -8  -2  11   14.38    0.74
  -8   2  11   15.69    0.74
  -7  -2  11    5.35    0.33
  -7  -2  11    6.16    0.34
   7   2 -11    5.65    0.33
  -7   2  11    5.84    0.34
  -6  -2  11    4.18    0.27
  -6  -2  11    4.54    0.28
  -6   2  11    4.46    0.28
  -6   2  11    3.76    0.28
   6   2 -11    4.20    0.27
  -5  -2  11    0.45    0.10
  -5  -2  11    0.51    0.10
  -5   2  11    0.39    0.11
  -5   2  11    0.49    0.11
   5   2 -11    0.68    0.11
  -4  -2  11    5.26    0.31
   4  -2 -11    4.69    0.29
  -4  -2  11    5.23    0.31
   4   2 -11    5.34    0.31
  -4   2  11    4.95    0.32
  -4   2  11    5.13    0.31
  -3  -2  11    4.74    0.29
  -3  -2  11    4.65    0.30
   3  -2 -11    4.81    0.28
  -3   2  11    4.75    0.29
   3   2 -11    4.81    0.30
  -3   2  11    4.90    0.32
  -2  -2  11    6.27    0.37
  -2  -2  11    6.61    0.37
   2  -2 -11    6.63    0.36
  -2  -2  11    5.85    0.35
  -2   2  11    6.44    0.36
   2   2 -11    6.64    0.36
  -2   2  11    5.97    0.33
   2   2 -11    7.08    0.37
  -1  -2  11    8.32    0.46
   1  -2 -11    9.28    0.47
   1  -2 -11    7.90    0.44
  -1  -2  11    7.89    0.44
   1  -2 -11    9.30    0.46
  -1  -2  11    8.99    0.46
   1   2 -11    8.93    0.46
  -1   2  11    8.46    0.46
  -1   2  11    8.42    0.43
   1   2 -11    9.01    0.46
   0  -2  11    2.06    0.16
   0  -2  11    1.66    0.15
   0  -2 -11    1.85    0.15
   0  -2 -11    1.54    0.15
   0  -2 -11    1.83    0.16
   0  -2 -11    1.66    0.17
   0  -2  11    1.92    0.16
   0   2 -11    1.94    0.17
   0   2  11    2.10    0.16
   0   2 -11    2.00    0.16
   0   2  11    1.46    0.14
   0   2  11    1.88    0.13
   1  -2  11    1.38    0.13
  -1  -2 -11    1.65    0.15
   1  -2  11    2.00    0.15
  -1  -2 -11    1.63    0.14
  -1  -2 -11    1.85    0.14
   1  -2  11    1.78    0.15
  -1  -2 -11    1.59    0.15
   1   2  11    1.48    0.15
   1   2  11    1.39    0.13
  -1   2 -11    1.68    0.15
  -1   2 -11    1.57    0.15
   1   2  11    1.74    0.12
   2  -2  11    0.24    0.07
  -2  -2 -11    0.07    0.06
   2  -2  11   -0.02    0.06
  -2  -2 -11    0.07    0.06
  -2  -2 -11   -0.02    0.06
  -2  -2 -11    0.08    0.06
   2   2  11    0.04    0.04
  -2   2 -11    0.07    0.07
   2   2  11    0.20    0.07
   3  -2  11    0.12    0.05
  -3  -2 -11    0.09    0.05
  -3  -2 -11    0.11    0.05
  -3  -2 -11    0.28    0.05
   3  -2  11    0.22    0.05
  -3  -2 -11    0.22    0.06
   3   2  11    0.18    0.04
  -3   2 -11    0.18    0.06
  -9  -3  11    0.88    0.11
  -9  -3  11    0.90    0.10
  -9   3  11    0.98    0.11
  -8  -3  11    0.46    0.08
  -8  -3  11    0.14    0.09
  -8  -3  11    0.41    0.07
   8   3 -11    0.34    0.07
  -8   3  11    0.37    0.08
  -8   3  11    0.34    0.08
  -7  -3  11    3.30    0.22
  -7  -3  11    3.27    0.22
  -7  -3  11    3.24    0.20
  -7   3  11    3.66    0.22
   7   3 -11    3.13    0.21
  -7   3  11    2.89    0.23
  -6  -3  11    0.07    0.07
  -6  -3  11    0.15    0.07
  -6  -3  11    0.20    0.09
  -6   3  11    0.17    0.10
   6   3 -11    0.25    0.08
  -6   3  11    0.16    0.08
  -5  -3  11    1.78    0.15
  -5  -3  11    1.83    0.17
  -5  -3  11    1.69    0.16
  -5   3  11    1.87    0.17
  -5   3  11    1.86    0.19
   5   3 -11    1.95    0.17
  -4  -3  11    2.19    0.18
  -4  -3  11    2.09    0.17
   4   3 -11    2.03    0.17
  -4   3  11    2.04    0.20
  -4   3  11    2.01    0.18
   3  -3 -11    1.03    0.12
  -3  -3  11    1.22    0.14
  -3  -3  11    1.04    0.13
   3   3 -11    1.26    0.14
  -3   3  11    1.12    0.14
  -3   3  11    1.24    0.15
   2  -3 -11    1.97    0.16
  -2  -3  11    1.85    0.16
  -2  -3  11    1.89    0.16
  -2   3  11    1.59    0.16
   2   3 -11    2.02    0.17
   2   3 -11    2.10    0.17
  -2   3  11    1.79    0.18
  -1  -3  11    0.53    0.10
   1  -3 -11    0.61    0.10
   1  -3 -11    0.56    0.09
  -1  -3  11    0.50    0.10
   1   3 -11    0.53    0.10
  -1   3  11    0.46    0.07
   1   3 -11    0.59    0.11
   0  -3  11    1.23    0.12
   0  -3 -11    0.90    0.10
   0  -3 -11    1.06    0.12
   0  -3  11    0.99    0.12
   0  -3 -11    1.18    0.11
   0   3 -11    0.85    0.12
   0   3 -11    1.13    0.13
   0   3  11    0.99    0.09
  -1  -3 -11    2.23    0.16
  -1  -3 -11    2.84    0.17
   1  -3  11    2.42    0.17
   1  -3  11    2.88    0.18
  -1  -3 -11    2.89    0.17
  -1   3 -11    2.73    0.18
   1   3  11    2.76    0.16
   2  -3  11    1.59    0.12
  -2  -3 -11    1.38    0.11
  -2  -3 -11    1.67    0.12
  -2  -3 -11    1.41    0.10
   2   3  11    1.81    0.14
  -2   3 -11    1.46    0.12
  -7  -4  11    0.95    0.09
   7   4 -11    0.83    0.09
  -7   4  11    0.79    0.12
  -6  -4  11    1.46    0.12
  -6  -4  11    1.59    0.12
  -6   4  11    1.65    0.16
   6   4 -11    1.54    0.13
  -5  -4  11    2.05    0.14
  -5  -4  11    1.95    0.15
   5   4 -11    2.05    0.15
  -5   4  11    1.90    0.18
  -4  -4  11    1.12    0.11
  -4  -4  11    1.04    0.12
  -4   4  11    1.46    0.16
   4   4 -11    1.27    0.13
  -3  -4  11    0.83    0.11
  -3  -4  11    0.69    0.10
   3   4 -11    0.92    0.12
  -3   4  11    1.07    0.14
  -2  -4  11    0.64    0.09
   2  -4 -11    0.93    0.10
  -2  -4  11    0.77    0.10
  -2   4  11    0.64    0.13
   2   4 -11    0.81    0.11
   2   4 -11    0.67    0.10
   1  -4 -11    0.42    0.08
  -1  -4  11    0.29    0.07
   1  -4 -11    0.38    0.07
  -1   4  11    0.43    0.09
   1   4 -11    0.27    0.07
   1   4 -11    0.28    0.07
   0  -4 -11    0.10    0.06
   0  -4 -11    0.05    0.05
   0  -4  11    0.00    0.05
   0   4  11    0.12    0.07
   0   4 -11    0.06    0.06
 -10   0  12    0.28    0.07
 -10   0  12    0.35    0.10
  -9   0  12    2.73    0.18
  -9   0  12    2.33    0.18
  -8   0  12   13.52    0.69
  -8   0  12   14.74    0.69
  -7   0  12    1.81    0.16
  -7   0  12    1.97    0.17
  -7   0  12    1.78    0.17
  -6   0  12    2.14    0.18
   6   0 -12    2.11    0.18
  -6   0  12    2.46    0.19
  -6   0  12    2.12    0.18
  -5   0  12    3.18    0.22
  -5   0  12    2.79    0.22
  -5   0  12    3.03    0.22
   5   0 -12    3.21    0.21
  -4   0  12    0.54    0.10
  -4   0  12    0.26    0.09
  -4   0  12    0.44    0.10
   4   0 -12    0.67    0.11
  -3   0  12   -0.02    0.09
   3   0 -12    0.01    0.08
  -3   0  12   -0.01    0.06
  -3   0  12    0.02    0.07
  -2   0  12    2.54    0.19
  -2   0  12    2.80    0.26
   2   0 -12    2.76    0.20
   1   0 -12    0.09    0.07
  -1   0  12    0.08    0.07
   1   0 -12    0.04    0.07
   0   0 -12    0.12    0.06
   0   0  12    0.05    0.07
   0   0 -12    0.00    0.07
  -1   0 -12    5.54    0.27
  -1   0 -12    4.02    0.26
   1   0  12    5.06    0.27
  -1   0 -12    4.99    0.26
   1   0  12    4.30    0.24
  -2   0 -12    0.03    0.06
  -2   0 -12    0.15    0.06
  -2   0 -12    0.25    0.06
   2   0  12    0.15    0.06
 -10  -1  12    1.28    0.12
 -10   1  12    1.44    0.12
  -9  -1  12    7.83    0.41
  -9  -1  12    7.31    0.44
  -9   1  12    8.23    0.41
  -8  -1  12    3.71    0.23
  -8  -1  12    3.21    0.23
  -8   1  12    3.62    0.23
  -7  -1  12    6.03    0.34
  -7  -1  12    5.62    0.32
  -7  -1  12    6.06    0.34
  -7   1  12    5.88    0.33
   7   1 -12    5.77    0.32
  -6  -1  12    0.30    0.08
  -6  -1  12    0.14    0.08
  -6  -1  12    0.26    0.09
  -6   1  12    0.20    0.08
   6   1 -12    0.16    0.08
   5  -1 -12    0.40    0.08
  -5  -1  12    0.29    0.09
  -5  -1  12    0.37    0.09
  -5  -1  12    0.28    0.08
  -5   1  12    0.38    0.09
   5   1 -12    0.47    0.10
  -4  -1  12    1.44    0.15
   4  -1 -12    1.47    0.15
  -4  -1  12    1.34    0.15
  -4  -1  12    1.42    0.14
   4   1 -12    1.16    0.15
  -4   1  12    1.38    0.14
  -3  -1  12    0.10    0.07
  -3  -1  12    0.06    0.07
  -3  -1  12   -0.01    0.07
   3  -1 -12    0.10    0.07
   3   1 -12    0.07    0.07
  -3   1  12   -0.01    0.08
  -3   1  12    0.05    0.07
  -2  -1  12    5.98    0.33
  -2  -1  12    6.20    0.34
  -2  -1  12    5.31    0.33
   2  -1 -12    6.17    0.33
   2   1 -12    5.57    0.33
  -2   1  12    6.14    0.33
   1  -1 -12    6.03    0.35
   1  -1 -12    6.73    0.35
  -1  -1  12    5.82    0.35
  -1  -1  12    6.42    0.35
  -1  -1  12    6.80    0.36
   1   1 -12    6.08    0.34
   1   1 -12    6.73    0.35
  -1   1  12    6.96    0.36
   0  -1 -12    0.00    0.07
   0  -1  12   -0.01    0.06
   0  -1  12    0.02    0.07
   0  -1 -12    0.09    0.06
   0  -1 -12    0.09    0.06
   0  -1  12   -0.09    0.06
   0   1  12    0.00    0.05
   0   1 -12   -0.06    0.07
   0   1 -12    0.06    0.07
   0   1  12    0.03    0.07
   0   1  12    0.04    0.05
  -1  -1 -12    1.57    0.14
  -1  -1 -12    1.77    0.14
   1  -1  12    1.61    0.14
   1  -1  12    1.72    0.13
  -1  -1 -12    1.62    0.13
  -1   1 -12    1.75    0.14
  -1   1 -12    1.71    0.13
   1   1  12    1.57    0.11
   1   1  12    1.88    0.14
  -2  -1 -12    4.00    0.24
   2  -1  12    4.55    0.23
  -2  -1 -12    4.33    0.23
  -2  -1 -12    4.55    0.24
  -2  -1 -12    4.25    0.23
   2  -1  12    3.33    0.26
  -2   1 -12    4.29    0.23
   2   1  12    4.87    0.24
  -9  -2  12    1.88    0.14
  -9   2  12    1.81    0.14
  -8  -2  12    3.89    0.24
  -8   2  12    3.85    0.23
  -7  -2  12    5.45    0.32
  -7  -2  12    5.85    0.33
   7   2 -12    5.37    0.31
  -7   2  12    6.17    0.32
  -6  -2  12    0.93    0.12
  -6  -2  12    0.98    0.13
  -6   2  12    0.82    0.13
   6   2 -12    0.90    0.13
  -5  -2  12   -0.04    0.06
  -5  -2  12   -0.06    0.07
  -5   2  12    0.05    0.09
   5   2 -12   -0.03    0.07
  -5   2  12    0.05    0.08
  -4  -2  12    1.40    0.14
  -4  -2  12    1.26    0.14
   4  -2 -12    1.02    0.13
   4   2 -12    1.15    0.14
  -4   2  12    1.26    0.14
  -4   2  12    1.00    0.15
   3  -2 -12    3.36    0.21
  -3  -2  12    3.25    0.23
  -3  -2  12    3.32    0.22
  -3   2  12    3.36    0.22
  -3   2  12    3.32    0.24
   3   2 -12    3.63    0.23
   2  -2 -12    1.33    0.13
  -2  -2  12    1.39    0.13
  -2  -2  12    1.24    0.14
  -2  -2  12    1.22    0.16
  -2   2  12    1.20    0.16
  -2   2  12    1.26    0.14
   2   2 -12    1.23    0.14
  -1  -2  12    5.41    0.30
   1  -2 -12    5.46    0.29
  -1  -2  12    5.23    0.29
  -1  -2  12    4.67    0.28
   1   2 -12    4.94    0.28
   1   2 -12    4.96    0.29
  -1   2  12    5.48    0.30
   0  -2  12    1.58    0.13
   0  -2 -12    1.59    0.11
   0  -2  12    1.60    0.13
   0  -2  12    1.27    0.12
   0  -2 -12    1.65    0.13
   0   2  12    1.59    0.14
   0   2  12    1.20    0.10
   0   2 -12    1.38    0.13
   0   2 -12    1.43    0.13
   1  -2  12    0.77    0.10
   1  -2  12    0.74    0.10
  -1  -2 -12    1.07    0.09
  -1   2 -12    0.98    0.10
   1   2  12    0.92    0.10
  -8  -3  12    0.74    0.09
  -8   3  12    0.93    0.12
  -7  -3  12    1.62    0.13
  -7   3  12    1.39    0.12
   7   3 -12    1.34    0.12
  -6  -3  12    0.31    0.07
  -6   3  12    0.20    0.09
  -6   3  12    0.37    0.08
   6   3 -12    0.38    0.08
  -5  -3  12    0.52    0.10
  -5  -3  12    0.74    0.11
   5   3 -12    0.90    0.11
  -5   3  12    0.65    0.13
  -5   3  12    0.68    0.11
  -4  -3  12    3.45    0.23
  -4  -3  12    3.90    0.24
   4   3 -12    4.01    0.23
  -4   3  12    4.04    0.25
  -4   3  12    3.69    0.23
   3  -3 -12    1.95    0.15
  -3  -3  12    1.99    0.16
  -3  -3  12    2.30    0.17
  -3   3  12    2.14    0.16
   3   3 -12    2.17    0.16
  -3   3  12    1.94    0.18
  -2  -3  12    1.21    0.12
  -2  -3  12    1.07    0.12
   2  -3 -12    1.18    0.11
  -2   3  12    1.05    0.13
   2   3 -12    0.82    0.12
   1  -3 -12    4.25    0.23
  -1  -3  12    4.45    0.24
   1   3 -12    3.89    0.23
  -1   3  12    4.68    0.26
   1   3 -12    3.85    0.23
   0  -3 -12    1.21    0.10
   0  -3  12    1.35    0.11
   0   3 -12    1.11    0.10
   0   3  12    1.34    0.13
  -8   0  13    0.05    0.07
  -8   0  13    0.10    0.06
  -7   0  13    0.00    0.06
  -7   0  13    0.08    0.07
  -6   0  13    1.54    0.14
   6   0 -13    1.24    0.13
  -6   0  13    1.73    0.14
   5   0 -13    0.95    0.11
  -5   0  13    0.88    0.12
   4   0 -13    1.10    0.12
  -4   0  13    1.07    0.12
   3   0 -13    1.52    0.13
  -3   0  13    1.32    0.14
  -2   0  13    0.41    0.08
   2   0 -13    0.25    0.07
  -1   0  13    2.38    0.16
   1   0 -13    2.16    0.15
   0   0  13    1.01    0.10
   0   0 -13    0.51    0.09
   0   0 -13    0.78    0.10
  -8  -1  13    3.47    0.22
  -8   1  13    3.76    0.21
  -7  -1  13    7.52    0.39
  -7   1  13    7.74    0.39
  -6  -1  13    1.79    0.14
  -6  -1  13    1.89    0.16
  -6  -1  13    1.59    0.14
  -6   1  13    1.70    0.14
   6   1 -13    1.68    0.14
   5  -1 -13    0.71    0.10
  -5  -1  13    0.36    0.08
  -5  -1  13    0.33    0.08
  -5  -1  13    0.49    0.08
   5   1 -13    0.61    0.11
  -5   1  13    0.34    0.08
  -4  -1  13    0.18    0.08
   4  -1 -13    0.23    0.07
  -4  -1  13    0.18    0.07
  -4  -1  13    0.10    0.07
   4   1 -13    0.12    0.07
  -4   1  13    0.18    0.07
  -3  -1  13    2.33    0.18
   3  -1 -13    2.72    0.18
  -3  -1  13    2.71    0.18
   3   1 -13    2.77    0.18
  -3   1  13    2.96    0.19
   2  -1 -13   -0.02    0.06
  -2  -1  13    0.03    0.06
  -2  -1  13    0.09    0.06
  -2   1  13   -0.06    0.06
   2   1 -13    0.07    0.06
  -1  -1  13    0.44    0.07
  -1  -1  13    0.22    0.07
   1  -1 -13    0.43    0.07
   1   1 -13    0.36    0.07
  -1   1  13    0.58    0.10
   0  -1 -13    1.40    0.12
   0  -1  13    1.56    0.11
   0   1 -13    1.53    0.13
   0   1  13    1.59    0.12
   0   1 -13    1.46    0.11
  -7  -2  13    1.10    0.11
   7   2 -13    1.03    0.13
  -7   2  13    1.09    0.11
  -6  -2  13    0.58    0.10
   6   2 -13    0.43    0.07
  -6   2  13    0.63    0.09
  -5  -2  13    0.30    0.08
   5   2 -13    0.35    0.07
  -5   2  13    0.35    0.07
  -4  -2  13    0.91    0.11
  -4  -2  13    0.79    0.15
   4  -2 -13    0.80    0.10
   4   2 -13    0.70    0.11
  -4   2  13    0.71    0.14
  -4   2  13    0.96    0.11
   3  -2 -13    1.64    0.13
  -3  -2  13    1.50    0.13
   3   2 -13    1.56    0.14
  -3   2  13    1.72    0.13
  -3   2  13    1.47    0.14
   2  -2 -13    1.14    0.10
  -2  -2  13    0.90    0.10
   2   2 -13    0.96    0.11
  -2   2  13    0.87    0.11
  -2   2  13    1.04    0.11
   1  -2 -13    5.43    0.26
  -1  -2  13    5.30    0.27
  -1   2  13    4.99    0.27
   1   2 -13    4.71    0.25
  -1   2  13    4.07    0.33
  -6   0  14   -0.13    0.08
   5   0 -14    0.18    0.06
  -5   0  14    0.17    0.05
   4   0 -14    1.21    0.10
  -4   0  14    1.13    0.10
  -3   0  14    0.00    0.05
   3   0 -14    0.07    0.04
  -5   1  14    1.04    0.10
   5   1 -14    1.10    0.11
   4   1 -14    0.76    0.08
  -4   1  14    0.91    0.09
   0   0   0    0.00    0.00
;
_shelx_hkl_checksum              44989
_shelx_shelxl_version_number     2014/7
_olex2_submission_special_instructions 'No special instructions were received'
loop_
_space_group_symop_operation_xyz
'x, y, z'
'-x, y+1/2, -z'
loop_
_atom_site_label
_atom_site_type_symbol
_atom_site_fract_x
_atom_site_fract_y
_atom_site_fract_z
_atom_site_U_iso_or_equiv
_atom_site_adp_type
_atom_site_occupancy
_atom_site_site_symmetry_order
_atom_site_calc_flag
_atom_site_refinement_flags_posn
O1 O 0.07227(10) 0.3094(2) 0.56024(10) 0.0195(3) Uani 1 1 d .
O2 O 0.06677(11) 0.3899(2) 0.37078(11) 0.0231(3) Uani 1 1 d .
O3 O 0.35967(12) 0.8085(2) 0.78915(11) 0.0246(3) Uani 1 1 d .
C1 C 0.11192(15) 0.4262(3) 0.47899(15) 0.0181(3) Uani 1 1 d .
C2 C 0.21877(16) 0.5883(3) 0.54753(15) 0.0188(4) Uani 1 1 d .
H2A H 0.1816 0.7351 0.5522 0.023 Uiso 1 1 calc R
H2B H 0.2875 0.6013 0.5092 0.023 Uiso 1 1 calc R
C3 C 0.27247(15) 0.4797(3) 0.67372(15) 0.0158(4) Uani 1 1 d .
C4 C 0.33212(15) 0.6164(3) 0.78926(15) 0.0179(4) Uani 1 1 d .
C5 C 0.34925(17) 0.4873(3) 0.90527(16) 0.0228(4) Uani 1 1 d .
H5A H 0.3806 0.5880 0.9762 0.027 Uiso 1 1 calc R
H5B H 0.4185 0.3754 0.9151 0.027 Uiso 1 1 calc R
C6 C 0.22198(17) 0.3704(3) 0.90835(15) 0.0226(4) Uani 1 1 d .
C7 C 0.15161(16) 0.2474(3) 0.78661(15) 0.0183(4) Uani 1 1 d .
H7A H 0.2029 0.1159 0.7809 0.022 Uiso 1 1 calc R
H7B H 0.0629 0.1996 0.7836 0.022 Uiso 1 1 calc R
C8 C 0.13996(14) 0.4002(3) 0.68163(14) 0.0163(3) Uani 1 1 d .
H8 H 0.0896 0.5322 0.6915 0.020 Uiso 1 1 calc R
C9 C 0.2613(2) 0.2031(4) 1.01283(17) 0.0346(5) Uani 1 1 d .
H9A H 0.3174 0.0903 0.9959 0.052 Uiso 1 1 calc GR
H9B H 0.1819 0.1345 1.0194 0.052 Uiso 1 1 calc GR
H9C H 0.3097 0.2772 1.0900 0.052 Uiso 1 1 calc GR
C10 C 0.1303(2) 0.5428(4) 0.93262(18) 0.0327(5) Uani 1 1 d .
H10A H 0.1755 0.6154 1.0111 0.049 Uiso 1 1 calc GR
H10B H 0.0502 0.4712 0.9356 0.049 Uiso 1 1 calc GR
H10C H 0.1068 0.6518 0.8666 0.049 Uiso 1 1 calc GR
C11 C 0.36630(15) 0.2893(3) 0.67135(16) 0.0185(3) Uani 1 1 d .
H11A H 0.3723 0.1889 0.7401 0.022 Uiso 1 1 calc R
H11B H 0.3262 0.2062 0.5943 0.022 Uiso 1 1 calc R
C12 C 0.50553(15) 0.3541(3) 0.68050(14) 0.0157(3) Uani 1 1 d .
C13 C 0.54121(17) 0.5599(3) 0.65057(16) 0.0189(4) Uani 1 1 d .
H13 H 0.4766 0.6721 0.6245 0.023 Uiso 1 1 calc R
C14 C 0.67048(17) 0.6034(3) 0.65838(16) 0.0218(4) Uani 1 1 d .
H14 H 0.6932 0.7446 0.6375 0.026 Uiso 1 1 calc R
C15 C 0.76608(16) 0.4420(3) 0.69646(16) 0.0227(4) Uani 1 1 d .
H15 H 0.8540 0.4713 0.7008 0.027 Uiso 1 1 calc R
C16 C 0.73232(16) 0.2381(3) 0.72806(15) 0.0232(4) Uani 1 1 d .
H16 H 0.7976 0.1271 0.7552 0.028 Uiso 1 1 calc R
C17 C 0.60342(16) 0.1944(3) 0.72043(15) 0.0197(4) Uani 1 1 d .
H17 H 0.5816 0.0535 0.7427 0.024 Uiso 1 1 calc R
loop_
_atom_site_aniso_label
_atom_site_aniso_U_11
_atom_site_aniso_U_22
_atom_site_aniso_U_33
_atom_site_aniso_U_23
_atom_site_aniso_U_13
_atom_site_aniso_U_12
O1 0.0146(5) 0.0248(6) 0.0165(6) 0.0006(5) 0.0020(4) -0.0041(5)
O2 0.0190(6) 0.0292(7) 0.0185(6) 0.0006(5) 0.0030(5) 0.0018(5)
O3 0.0271(6) 0.0147(6) 0.0325(7) -0.0008(5) 0.0107(5) -0.0036(5)
C1 0.0126(7) 0.0209(9) 0.0199(8) 0.0044(7) 0.0044(6) 0.0041(6)
C2 0.0141(7) 0.0198(8) 0.0209(8) 0.0048(7) 0.0038(6) -0.0003(7)
C3 0.0121(7) 0.0153(8) 0.0192(8) 0.0030(6) 0.0042(6) 0.0000(6)
C4 0.0108(7) 0.0177(8) 0.0242(9) 0.0011(7) 0.0048(6) 0.0001(6)
C5 0.0215(8) 0.0225(9) 0.0186(8) 0.0011(7) -0.0006(6) -0.0062(7)
C6 0.0222(8) 0.0261(10) 0.0174(8) 0.0017(7) 0.0038(6) -0.0050(7)
C7 0.0146(7) 0.0198(9) 0.0198(8) 0.0009(7) 0.0049(6) -0.0040(7)
C8 0.0117(7) 0.0189(8) 0.0163(7) -0.0011(6) 0.0022(6) -0.0020(7)
C9 0.0364(11) 0.0402(12) 0.0221(9) 0.0069(9) 0.0035(8) -0.0142(10)
C10 0.0354(10) 0.0386(12) 0.0260(10) -0.0062(9) 0.0130(8) -0.0026(9)
C11 0.0150(8) 0.0140(8) 0.0258(8) 0.0021(7) 0.0061(6) 0.0001(6)
C12 0.0143(7) 0.0177(8) 0.0137(7) -0.0006(6) 0.0029(6) 0.0003(6)
C13 0.0159(8) 0.0178(8) 0.0227(8) 0.0010(7) 0.0061(6) 0.0007(6)
C14 0.0206(8) 0.0244(9) 0.0225(8) -0.0009(7) 0.0099(7) -0.0061(7)
C15 0.0134(7) 0.0350(10) 0.0212(8) -0.0060(8) 0.0078(6) -0.0016(7)
C16 0.0155(8) 0.0307(10) 0.0219(8) -0.0001(7) 0.0044(6) 0.0074(7)
C17 0.0197(8) 0.0197(8) 0.0186(8) 0.0011(7) 0.0053(6) 0.0035(7)
loop_
_atom_type_symbol
_atom_type_description
_atom_type_scat_dispersion_real
_atom_type_scat_dispersion_imag
_atom_type_scat_source
C C 0.0181 0.0091 'International Tables Vol C Tables 4.2.6.8 and 6.1.1.4'
H H 0.0000 0.0000 'International Tables Vol C Tables 4.2.6.8 and 6.1.1.4'
O O 0.0492 0.0322 'International Tables Vol C Tables 4.2.6.8 and 6.1.1.4'
loop_
_geom_angle_atom_site_label_1
_geom_angle_atom_site_label_2
_geom_angle_atom_site_label_3
_geom_angle
C1 O1 C8 107.34(13)
O1 C1 C2 109.86(13)
O2 C1 O1 121.02(16)
O2 C1 C2 129.07(16)
C1 C2 H2A 111.6
C1 C2 H2B 111.6
C1 C2 C3 100.98(13)
H2A C2 H2B 109.4
C3 C2 H2A 111.6
C3 C2 H2B 111.6
C2 C3 C8 97.89(12)
C2 C3 C11 110.16(13)
C4 C3 C2 120.90(14)
C4 C3 C8 104.00(13)
C4 C3 C11 110.15(13)
C8 C3 C11 112.99(13)
O3 C4 C3 124.08(16)
O3 C4 C5 123.33(16)
C5 C4 C3 112.56(14)
C4 C5 H5A 108.6
C4 C5 H5B 108.6
C4 C5 C6 114.64(14)
H5A C5 H5B 107.6
C6 C5 H5A 108.6
C6 C5 H5B 108.6
C7 C6 C5 111.22(14)
C9 C6 C5 108.38(14)
C9 C6 C7 108.42(15)
C9 C6 C10 109.50(16)
C10 C6 C5 108.60(16)
C10 C6 C7 110.67(14)
C6 C7 H7A 110.0
C6 C7 H7B 110.0
H7A C7 H7B 108.4
C8 C7 C6 108.51(14)
C8 C7 H7A 110.0
C8 C7 H7B 110.0
O1 C8 C3 103.37(12)
O1 C8 C7 115.03(14)
O1 C8 H8 107.7
C3 C8 H8 107.7
C7 C8 C3 114.85(13)
C7 C8 H8 107.7
C6 C9 H9A 109.5
C6 C9 H9B 109.5
C6 C9 H9C 109.5
H9A C9 H9B 109.5
H9A C9 H9C 109.5
H9B C9 H9C 109.5
C6 C10 H10A 109.5
C6 C10 H10B 109.5
C6 C10 H10C 109.5
H10A C10 H10B 109.5
H10A C10 H10C 109.5
H10B C10 H10C 109.5
C3 C11 H11A 108.3
C3 C11 H11B 108.3
H11A C11 H11B 107.4
C12 C11 C3 116.13(14)
C12 C11 H11A 108.3
C12 C11 H11B 108.3
C13 C12 C11 124.57(14)
C13 C12 C17 118.06(15)
C17 C12 C11 117.36(15)
C12 C13 H13 119.6
C12 C13 C14 120.80(16)
C14 C13 H13 119.6
C13 C14 H14 119.8
C15 C14 C13 120.41(17)
C15 C14 H14 119.8
C14 C15 H15 120.3
C16 C15 C14 119.34(15)
C16 C15 H15 120.3
C15 C16 H16 119.8
C15 C16 C17 120.36(16)
C17 C16 H16 119.8
C12 C17 H17 119.5
C16 C17 C12 121.02(17)
C16 C17 H17 119.5
loop_
_geom_bond_atom_site_label_1
_geom_bond_atom_site_label_2
_geom_bond_distance
O1 C1 1.362(2)
O1 C8 1.4565(19)
O2 C1 1.202(2)
O3 C4 1.209(2)
C1 C2 1.521(2)
C2 H2A 0.9900
C2 H2B 0.9900
C2 C3 1.530(2)
C3 C4 1.523(2)
C3 C8 1.543(2)
C3 C11 1.548(2)
C4 C5 1.516(2)
C5 H5A 0.9900
C5 H5B 0.9900
C5 C6 1.559(2)
C6 C7 1.550(2)
C6 C9 1.530(3)
C6 C10 1.534(3)
C7 H7A 0.9900
C7 H7B 0.9900
C7 C8 1.504(2)
C8 H8 1.0000
C9 H9A 0.9800
C9 H9B 0.9800
C9 H9C 0.9800
C10 H10A 0.9800
C10 H10B 0.9800
C10 H10C 0.9800
C11 H11A 0.9900
C11 H11B 0.9900
C11 C12 1.522(2)
C12 C13 1.392(2)
C12 C17 1.395(2)
C13 H13 0.9500
C13 C14 1.393(2)
C14 H14 0.9500
C14 C15 1.385(3)
C15 H15 0.9500
C15 C16 1.381(3)
C16 H16 0.9500
C16 C17 1.390(2)
C17 H17 0.9500
loop_
_geom_torsion_atom_site_label_1
_geom_torsion_atom_site_label_2
_geom_torsion_atom_site_label_3
_geom_torsion_atom_site_label_4
_geom_torsion
O1 C1 C2 C3 23.31(17)
O2 C1 C2 C3 -154.15(17)
O3 C4 C5 C6 124.78(18)
C1 O1 C8 C3 -31.53(16)
C1 O1 C8 C7 -157.52(13)
C1 C2 C3 C4 -150.87(14)
C1 C2 C3 C8 -39.31(15)
C1 C2 C3 C11 78.79(15)
C2 C3 C4 O3 -11.8(2)
C2 C3 C4 C5 166.30(14)
C2 C3 C8 O1 43.96(15)
C2 C3 C8 C7 170.07(14)
C2 C3 C11 C12 79.40(17)
C3 C4 C5 C6 -53.3(2)
C3 C11 C12 C13 -22.2(2)
C3 C11 C12 C17 158.53(14)
C4 C3 C8 O1 168.62(12)
C4 C3 C8 C7 -65.27(17)
C4 C3 C11 C12 -56.44(18)
C4 C5 C6 C7 46.6(2)
C4 C5 C6 C9 165.73(16)
C4 C5 C6 C10 -75.4(2)
C5 C6 C7 C8 -48.46(18)
C6 C7 C8 O1 -178.42(13)
C6 C7 C8 C3 61.75(18)
C8 O1 C1 O2 -177.21(15)
C8 O1 C1 C2 5.09(17)
C8 C3 C4 O3 -120.08(17)
C8 C3 C4 C5 58.00(17)
C8 C3 C11 C12 -172.26(13)
C9 C6 C7 C8 -167.54(15)
C10 C6 C7 C8 72.35(18)
C11 C3 C4 O3 118.57(17)
C11 C3 C4 C5 -63.35(17)
C11 C3 C8 O1 -71.94(16)
C11 C3 C8 C7 54.17(18)
C11 C12 C13 C14 -178.16(16)
C11 C12 C17 C16 178.17(15)
C12 C13 C14 C15 -0.1(3)
C13 C12 C17 C16 -1.1(2)
C13 C14 C15 C16 -0.8(3)
C14 C15 C16 C17 0.7(3)
C15 C16 C17 C12 0.2(3)
C17 C12 C13 C14 1.1(2)
