#------------------------------------------------------------------------------
#$Date: 2019-11-25 15:29:47 +0200 (Mon, 25 Nov 2019) $
#$Revision: 241204 $
#$URL: file:///home/coder/svn-repositories/cod/cif/4/13/08/4130845.cif $
#------------------------------------------------------------------------------
#
# This file is available in the Crystallography Open Database (COD),
# http://www.crystallography.net/
#
# All data on this site have been placed in the public domain by the
# contributors.
#
data_4130845
loop_
_publ_author_name
'Karothu, Durga Prasad'
'Weston, James'
'Desta, Israel Tilahun'
'Naumov, Pan\<ce'
_publ_section_title
;
 Shape-Memory and Self-Healing Effects in Mechanosalient Molecular
 Crystals.
;
_journal_issue                   40
_journal_name_full               'Journal of the American Chemical Society'
_journal_page_first              13298
_journal_page_last               13306
_journal_paper_doi               10.1021/jacs.6b07406
_journal_volume                  138
_journal_year                    2016
_chemical_formula_sum            'C8 H6 O4'
_chemical_formula_weight         166.13
_space_group_crystal_system      triclinic
_space_group_IT_number           2
_space_group_name_Hall           '-P 1'
_space_group_name_H-M_alt        'P -1'
_atom_sites_solution_hydrogens   mixed
_audit_creation_method           SHELXL-2014/7
_cell_angle_alpha                71.9930(10)
_cell_angle_beta                 76.0930(10)
_cell_angle_gamma                87.1980(10)
_cell_formula_units_Z            1
_cell_length_a                   5.0384(5)
_cell_length_b                   5.3623(5)
_cell_length_c                   7.0060(7)
_cell_measurement_reflns_used    684
_cell_measurement_temperature    290(2)
_cell_measurement_theta_max      26.0
_cell_measurement_theta_min      3.1
_cell_volume                     174.67(3)
_computing_structure_refinement  'SHELXL-2014/7 (Sheldrick, 2014)'
_diffrn_ambient_temperature      290(2)
_diffrn_measured_fraction_theta_full 0.997
_diffrn_measured_fraction_theta_max 0.997
_diffrn_measurement_device_type  'Bruker APEX-II CCD'
_diffrn_measurement_method       '\f and \w scans'
_diffrn_radiation_type           MoK\a
_diffrn_radiation_wavelength     0.71073
_diffrn_reflns_av_R_equivalents  0.0193
_diffrn_reflns_av_unetI/netI     0.0094
_diffrn_reflns_Laue_measured_fraction_full 0.997
_diffrn_reflns_Laue_measured_fraction_max 0.997
_diffrn_reflns_limit_h_max       6
_diffrn_reflns_limit_h_min       -6
_diffrn_reflns_limit_k_max       6
_diffrn_reflns_limit_k_min       -6
_diffrn_reflns_limit_l_max       8
_diffrn_reflns_limit_l_min       -8
_diffrn_reflns_number            5438
_diffrn_reflns_point_group_measured_fraction_full 0.997
_diffrn_reflns_point_group_measured_fraction_max 0.997
_diffrn_reflns_theta_full        25.242
_diffrn_reflns_theta_max         25.991
_diffrn_reflns_theta_min         3.147
_exptl_absorpt_coefficient_mu    0.129
_exptl_absorpt_correction_type   multi-scan
_exptl_absorpt_process_details   sadabs
_exptl_crystal_colour            COLORLESS
_exptl_crystal_density_diffrn    1.579
_exptl_crystal_description       Parallelepiped
_exptl_crystal_F_000             86
_exptl_crystal_size_max          0.3
_exptl_crystal_size_mid          0.2
_exptl_crystal_size_min          0.2
_exptl_transmission_factor_max   0.7461
_exptl_transmission_factor_min   0.6671
_refine_diff_density_max         0.233
_refine_diff_density_min         -0.201
_refine_diff_density_rms         0.040
_refine_ls_extinction_method     none
_refine_ls_goodness_of_fit_ref   1.044
_refine_ls_hydrogen_treatment    mixed
_refine_ls_matrix_type           full
_refine_ls_number_parameters     59
_refine_ls_number_reflns         684
_refine_ls_number_restraints     0
_refine_ls_restrained_S_all      1.044
_refine_ls_R_factor_all          0.0363
_refine_ls_R_factor_gt           0.0337
_refine_ls_shift/su_max          0.000
_refine_ls_shift/su_mean         0.000
_refine_ls_structure_factor_coef Fsqd
_refine_ls_weighting_details
'w=1/[\s^2^(Fo^2^)+(0.0730P)^2^+0.0400P] where P=(Fo^2^+2Fc^2^)/3'
_refine_ls_weighting_scheme      calc
_refine_ls_wR_factor_gt          0.1062
_refine_ls_wR_factor_ref         0.1104
_reflns_Friedel_coverage         0.000
_reflns_number_gt                623
_reflns_number_total             684
_reflns_threshold_expression     'I > 2\s(I)'
_cod_data_source_file            ja6b07406_si_022.cif
_cod_data_source_block           TA_Form_2
_cod_database_code               4130845
_shelx_shelxl_version_number     2014/7
_shelx_space_group_comment
;
The symmetry employed for this shelxl refinement is uniquely defined
by the following loop, which should always be used as a source of
symmetry information in preference to the above space-group names.
They are only intended as comments.
;
_shelx_res_file
;

    shelx.res created by SHELXL-2014/7

TITL mo_TA_Cycle_290K_0m in P-1 #2
REM Best SHELXD solution FINAL CC 84.79
REM Fragments: 6
REM reset to P-1 #2
CELL 0.71073 5.0384 5.3623 7.006 71.993 76.093 87.198
ZERR 1 0.0005 0.0005 0.0007 0.001 0.001 0.001
LATT 1
SFAC C H O
UNIT 8 6 4

L.S. 12
PLAN  5
TEMP 16.86
fmap 2
acta
MORE -1
BOND $H
CONF
OMIT 0 52
REM <olex2.extras>
REM <HklSrc "%.\\mo_TA_Cycle_290K_0m.hkl">
REM </olex2.extras>

WGHT    0.073000    0.040000
FVAR       0.90849
C2    1    0.640641    0.002471    0.146401    11.00000    0.02433    0.02954 =
         0.02377   -0.00976   -0.00902    0.00134
O2    3    0.780384   -0.196296    0.457562    11.00000    0.04903    0.04112 =
         0.03082    0.00052   -0.02261   -0.01122
O1    3    0.930320    0.211729    0.273591    11.00000    0.05080    0.03792 =
         0.03849   -0.00615   -0.02521   -0.01214
C3    1    0.479242   -0.215557    0.176138    11.00000    0.03559    0.02811 =
         0.02474   -0.00233   -0.01421   -0.00382
AFIX  43
H3    2    0.465802   -0.359108    0.294086    11.00000   -1.20000
AFIX   0
C4    1    0.661744    0.218306   -0.029262    11.00000    0.03302    0.02758 =
         0.02889   -0.00656   -0.01340   -0.00529
AFIX  43
H4    2    0.769788    0.363734   -0.048199    11.00000   -1.20000
AFIX   0
C1    1    0.792385    0.003244    0.304144    11.00000    0.02783    0.03249 =
         0.02503   -0.00856   -0.01068   -0.00090
H1    2    1.047627    0.217372    0.391697    11.00000    0.14596
HKLF 4

REM  mo_TA_Cycle_290K_0m in P-1 #2
REM R1 =  0.0337 for     623 Fo > 4sig(Fo)  and  0.0363 for all     684 data
REM     59 parameters refined using      0 restraints

END

WGHT      0.0550      0.0349

REM Highest difference peak  0.233,  deepest hole -0.201,  1-sigma level  0.040
Q1    1   0.7122  0.0065  0.2188  11.00000  0.05    0.23
Q2    1   1.0101  0.2042  0.3533  11.00000  0.05    0.20
Q3    1   0.8581 -0.2128  0.5335  11.00000  0.05    0.18
Q4    1   0.6239 -0.1343  0.1398  11.00000  0.05    0.17
Q5    1   0.4953 -0.0792  0.1937  11.00000  0.05    0.17
;
_shelx_res_checksum              13915
_shelx_hkl_file
;
  -1   0   0    9.39    0.24
  -1   0   0    8.92    0.24
  -1   0   0    9.59    0.24
   1   0   0    9.72    0.23
   1   0   0    9.55    0.24
   1   0   0    9.94    0.24
   1   0   0    9.48    0.25
   1   0   0    9.83    0.23
   1   0   0    9.94    0.26
   1   0   0   10.02    0.24
   1   0   0    9.20    0.23
   1   0   0    9.60    0.24
   1   0   0    9.89    0.24
  -2   0   0   27.76    0.69
  -2   0   0   27.69    0.70
  -2   0   0   28.76    0.68
   2   0   0   29.12    0.70
   2   0   0   28.88    0.70
   2   0   0   28.25    0.69
   2   0   0   28.77    0.72
   2   0   0   28.83    0.68
   2   0   0   28.19    0.71
   2   0   0   28.29    0.68
   2   0   0   28.87    0.69
   2   0   0   28.99    0.69
   2   0   0   27.93    0.68
  -3   0   0    0.73    0.05
  -3   0   0    0.68    0.05
  -3   0   0    0.65    0.07
  -3   0   0    0.66    0.06
   3   0   0    0.69    0.06
   3   0   0    0.58    0.06
   3   0   0    0.75    0.09
   3   0   0    0.54    0.06
   3   0   0    0.64    0.07
   3   0   0    0.73    0.07
   3   0   0    0.71    0.07
   3   0   0    0.60    0.05
   3   0   0    0.66    0.05
   3   0   0    0.74    0.08
  -4   0   0    1.31    0.08
  -4   0   0    1.35    0.11
  -4   0   0    1.24    0.10
  -4   0   0    1.45    0.07
  -4   0   0    1.39    0.09
   4   0   0    1.33    0.13
   4   0   0    1.45    0.12
   4   0   0    1.45    0.11
   4   0   0    1.34    0.07
   4   0   0    1.40    0.10
   4   0   0    1.30    0.09
   4   0   0    1.43    0.10
   4   0   0    1.44    0.08
   4   0   0    1.49    0.11
  -5   0   0    0.63    0.10
  -5   0   0    0.70    0.15
  -5   0   0    0.44    0.06
  -5   0   0    0.59    0.08
  -5   0   0    0.63    0.11
   5   0   0    0.54    0.11
   5   0   0    0.59    0.14
   5   0   0    0.65    0.10
  -6   0   0    2.20    0.25
  -6   0   0    2.10    0.18
  -6   0   0    2.29    0.20
   6   0   0    2.19    0.17
   6   0   0    2.11    0.22
   6   0   0    1.92    0.24
   6   0   0    2.00    0.19
   6  -1   0    2.23    0.23
   6  -1   0    2.05    0.22
   6  -1   0    2.32    0.18
  -6   1   0    2.82    0.22
  -6   1   0    2.50    0.24
  -6   1   0    2.46    0.18
  -6   1   0    2.68    0.18
  -6   1   0    2.73    0.21
   5  -1   0    4.49    0.19
   5  -1   0    4.30    0.19
   5  -1   0    4.09    0.22
   5  -1   0    4.22    0.18
   5  -1   0    4.30    0.23
   5  -1   0    4.11    0.19
   5  -1   0    4.34    0.19
   5  -1   0    4.32    0.16
   5  -1   0    4.17    0.16
  -5   1   0    4.31    0.21
  -5   1   0    4.10    0.16
  -5   1   0    4.09    0.19
  -5   1   0    4.25    0.16
  -5   1   0    4.16    0.23
  -5   1   0    4.33    0.19
  -5   1   0    4.21    0.17
   4  -1   0   24.97    0.68
   4  -1   0   25.68    0.64
   4  -1   0   25.57    0.65
   4  -1   0   25.18    0.63
   4  -1   0   25.32    0.63
   4  -1   0   25.46    0.69
   4  -1   0   25.86    0.66
   4  -1   0   25.73    0.66
   4  -1   0   25.65    0.63
   4  -1   0   24.77    0.65
  -4   1   0   24.90    0.65
  -4   1   0   24.63    0.67
  -4   1   0   24.36    0.64
  -4   1   0   24.30    0.68
  -4   1   0   24.92    0.64
  -4   1   0   25.36    0.63
   3  -1   0   72.13    1.66
   3  -1   0   70.35    1.64
   3  -1   0   69.71    1.64
   3  -1   0   69.14    1.66
   3  -1   0   68.92    1.64
   3  -1   0   70.77    1.66
   3  -1   0   70.22    1.68
   3  -1   0   70.04    1.65
   3  -1   0   70.22    1.66
   3  -1   0   69.93    1.68
  -3   1   0   65.51    1.67
  -3   1   0   65.18    1.65
  -3   1   0   66.21    1.65
  -3   1   0   69.40    1.67
   2  -1   0    8.39    0.23
   2  -1   0    7.95    0.21
   2  -1   0    8.02    0.21
   2  -1   0    7.87    0.23
   2  -1   0    8.22    0.21
   2  -1   0    7.87    0.21
   2  -1   0    7.98    0.21
   2  -1   0    8.05    0.22
   2  -1   0    8.09    0.22
   2  -1   0    7.96    0.22
  -2   1   0    7.72    0.22
  -2   1   0    7.36    0.21
  -2   1   0    7.39    0.23
   1  -1   0   16.74    0.41
   1  -1   0   15.62    0.40
   1  -1   0   16.85    0.40
   1  -1   0   17.29    0.41
   1  -1   0   17.25    0.41
   1  -1   0   17.44    0.41
   1  -1   0   16.82    0.42
  -1   1   0   16.38    0.40
  -1   1   0   16.44    0.41
  -1   1   0   16.96    0.41
   0  -1   0  768.96   18.03
   0  -1   0  738.83   18.03
   0  -1   0  754.09   17.93
   0   1   0  739.28   17.90
   0   1   0  702.29   18.27
   0   1   0  736.93   18.42
   0   1   0  758.37   18.18
   0   1   0  769.89   18.29
  -1  -1   0    1.42    0.05
  -1  -1   0    1.44    0.06
  -1  -1   0    1.41    0.05
   1   1   0    1.40    0.05
   1   1   0    1.52    0.06
   1   1   0    1.46    0.08
  -2  -1   0   83.91    1.98
  -2  -1   0   82.61    1.96
  -2  -1   0   82.89    2.05
   2   1   0   84.43    1.97
   2   1   0   83.05    2.03
   2   1   0   81.39    1.97
   2   1   0   82.42    1.99
  -3  -1   0  102.81    2.39
  -3  -1   0  102.11    2.38
  -3  -1   0   94.29    2.40
  -3  -1   0  101.89    2.41
   3   1   0  102.66    2.45
   3   1   0  100.65    2.38
   3   1   0  101.90    2.41
   3   1   0  100.36    2.39
   3   1   0  101.84    2.43
  -4  -1   0   19.91    0.54
  -4  -1   0   18.76    0.53
  -4  -1   0   20.29    0.52
  -4  -1   0   20.28    0.50
   4   1   0   20.21    0.55
   4   1   0   19.28    0.51
   4   1   0   20.42    0.57
   4   1   0   19.92    0.53
   4   1   0   19.58    0.59
  -5  -1   0    3.29    0.18
  -5  -1   0    3.39    0.13
  -5  -1   0    3.43    0.16
  -5  -1   0    3.35    0.18
   5   1   0    3.08    0.18
   5   1   0    3.54    0.21
   5   1   0    3.40    0.17
   5   1   0    3.35    0.23
  -6  -1   0    0.01    0.06
   6   1   0    0.11    0.09
   6   1   0   -0.06    0.06
   6   1   0   -0.05    0.08
   6  -2   0    0.10    0.07
   6  -2   0    0.04    0.08
   6  -2   0    0.10    0.11
  -6   2   0    0.07    0.08
  -6   2   0    0.06    0.07
  -6   2   0    0.08    0.08
   5  -2   0   10.88    0.32
   5  -2   0   10.93    0.36
   5  -2   0   11.01    0.38
   5  -2   0   11.21    0.36
   5  -2   0   10.50    0.33
  -5   2   0   10.82    0.35
  -5   2   0   10.86    0.37
  -5   2   0   10.84    0.37
   4  -2   0   17.44    0.46
   4  -2   0   17.57    0.46
   4  -2   0   17.13    0.47
   4  -2   0   17.36    0.47
   4  -2   0   17.39    0.49
   4  -2   0   18.57    0.49
   4  -2   0   17.46    0.47
  -4   2   0   18.23    0.48
  -4   2   0   17.26    0.49
  -4   2   0   16.86    0.46
  -4   2   0   17.51    0.49
  -4   2   0   17.00    0.47
   3  -2   0    6.91    0.23
   3  -2   0    6.93    0.21
   3  -2   0    7.21    0.23
   3  -2   0    6.96    0.21
   3  -2   0    7.05    0.21
   3  -2   0    7.12    0.21
   3  -2   0    6.97    0.21
  -3   2   0    6.96    0.23
  -3   2   0    7.05    0.22
  -3   2   0    6.92    0.22
  -3   2   0    6.98    0.20
   2  -2   0   17.59    0.46
   2  -2   0   17.61    0.44
   2  -2   0   17.69    0.44
   2  -2   0   17.73    0.45
   2  -2   0   17.87    0.46
   2  -2   0   17.44    0.44
   2  -2   0   17.73    0.44
  -2   2   0   17.53    0.45
  -2   2   0   17.45    0.43
  -2   2   0   17.90    0.46
  -2   2   0   18.14    0.45
   1  -2   0    0.42    0.06
   1  -2   0    0.49    0.04
   1  -2   0    0.45    0.04
   1  -2   0    0.56    0.04
   1  -2   0    0.51    0.04
   1  -2   0    0.48    0.04
  -1   2   0    0.54    0.05
  -1   2   0    0.36    0.05
   0  -2   0  249.60    5.76
   0  -2   0  254.18    5.80
   0  -2   0  235.27    5.77
   0  -2   0  248.88    5.80
   0  -2   0  249.45    5.79
   0  -2   0  247.81    5.75
   0   2   0  233.28    5.82
   0   2   0  240.70    5.86
   0   2   0  241.69    5.81
   0   2   0  237.96    5.77
   0   2   0  235.52    5.74
  -1  -2   0   26.74    0.61
  -1  -2   0   25.76    0.61
  -1  -2   0   25.58    0.63
  -1  -2   0   25.93    0.62
   1   2   0   25.97    0.63
   1   2   0   24.89    0.65
   1   2   0   24.93    0.62
   1   2   0   25.59    0.61
   1   2   0   25.38    0.65
  -2  -2   0   47.54    1.12
  -2  -2   0   47.86    1.15
  -2  -2   0   47.90    1.14
   2   2   0   46.40    1.17
   2   2   0   46.09    1.18
   2   2   0   46.38    1.14
   2   2   0   48.13    1.15
  -3  -2   0   31.47    0.78
  -3  -2   0   30.64    0.76
  -3  -2   0   31.20    0.75
  -3  -2   0   28.94    0.77
   3   2   0   30.71    0.83
   3   2   0   30.96    0.77
   3   2   0   30.85    0.81
   3   2   0   31.00    0.79
  -4  -2   0   -0.01    0.04
  -4  -2   0    0.05    0.03
  -4  -2   0    0.06    0.04
  -4  -2   0    0.06    0.04
   4   2   0    0.00    0.05
   4   2   0    0.00    0.03
   4   2   0    0.06    0.05
   4   2   0    0.04    0.04
  -5  -2   0    9.34    0.32
  -5  -2   0    8.61    0.26
  -5  -2   0    8.75    0.29
  -5  -2   0    8.64    0.32
   5   2   0    9.19    0.36
   5   2   0    8.77    0.30
   5   2   0    8.77    0.38
   5   2   0    8.70    0.32
  -6  -2   0   -0.02    0.06
  -6  -2   0    0.02    0.07
   6   2   0    0.01    0.06
   6   2   0    0.06    0.09
   6   2   0    0.01    0.08
   6  -3   0    0.00    0.07
   6  -3   0    0.07    0.06
   6  -3   0    0.05    0.08
  -6   3   0    0.07    0.08
  -6   3   0    0.04    0.09
   5  -3   0    4.04    0.19
   5  -3   0    3.89    0.22
   5  -3   0    4.09    0.19
  -5   3   0    3.91    0.21
  -5   3   0    4.00    0.21
  -5   3   0    3.78    0.23
   4  -3   0    0.07    0.05
   4  -3   0    0.07    0.05
   4  -3   0    0.00    0.05
   4  -3   0    0.04    0.04
  -4   3   0    0.02    0.06
  -4   3   0    0.10    0.06
  -4   3   0   -0.09    0.05
   3  -3   0   19.77    0.53
   3  -3   0   20.84    0.56
   3  -3   0   20.67    0.52
   3  -3   0   20.08    0.52
   3  -3   0   20.10    0.53
  -3   3   0   21.43    0.56
  -3   3   0   20.17    0.54
  -3   3   0   20.04    0.55
   2  -3   0   17.31    0.44
   2  -3   0   17.36    0.45
   2  -3   0   17.05    0.44
   2  -3   0   16.23    0.43
   2  -3   0   17.62    0.47
   2  -3   0   17.19    0.44
  -2   3   0   16.96    0.46
  -2   3   0   17.31    0.46
  -2   3   0   17.15    0.45
   1  -3   0    1.65    0.07
   1  -3   0    1.55    0.09
   1  -3   0    1.55    0.07
   1  -3   0    1.69    0.08
   1  -3   0    1.60    0.08
   1  -3   0    1.64    0.08
  -1   3   0    1.68    0.09
  -1   3   0    1.58    0.09
  -1   3   0    1.76    0.10
   0  -3   0   27.50    0.67
   0  -3   0   28.27    0.67
   0  -3   0   27.99    0.67
   0  -3   0   27.94    0.67
   0  -3   0   28.29    0.67
   0   3   0   27.35    0.66
   0   3   0   27.11    0.68
   0   3   0   26.72    0.70
   0   3   0   26.60    0.69
   0   3   0   27.08    0.68
  -1  -3   0   15.80    0.40
  -1  -3   0   16.36    0.39
  -1  -3   0   15.96    0.41
  -1  -3   0   15.77    0.41
  -1  -3   0   16.29    0.39
   1   3   0   15.20    0.44
   1   3   0   15.27    0.43
   1   3   0   15.33    0.41
   1   3   0   15.76    0.41
   1   3   0   15.12    0.39
  -2  -3   0    2.66    0.10
  -2  -3   0    2.67    0.12
  -2  -3   0    2.65    0.11
   2   3   0    2.57    0.15
   2   3   0    2.43    0.11
   2   3   0    2.51    0.14
   2   3   0    2.57    0.12
  -3  -3   0   13.10    0.34
  -3  -3   0   13.26    0.38
  -3  -3   0   13.08    0.36
  -3  -3   0   12.30    0.37
   3   3   0   12.49    0.36
   3   3   0   12.83    0.41
   3   3   0   12.16    0.42
   3   3   0   12.58    0.38
  -4  -3   0   23.05    0.63
  -4  -3   0   22.64    0.61
  -4  -3   0   23.46    0.63
  -4  -3   0   23.12    0.58
   4   3   0   22.30    0.63
   4   3   0   22.51    0.61
   4   3   0   22.36    0.69
   4   3   0   23.15    0.68
  -5  -3   0    4.86    0.23
  -5  -3   0    3.95    0.20
  -5  -3   0    4.09    0.22
  -5  -3   0    3.51    0.17
   5   3   0    4.09    0.28
   5   3   0    4.17    0.20
   5   3   0    4.37    0.27
   5   3   0    4.10    0.22
  -6  -3   0    0.54    0.15
  -6  -3   0    0.84    0.16
   6   3   0    0.77    0.15
   6   3   0    0.97    0.24
   5  -4   0    0.15    0.07
   5  -4   0    0.14    0.07
   5  -4   0    0.09    0.09
  -5   4   0    0.06    0.09
  -5   4   0    0.20    0.09
   4  -4   0    1.49    0.12
   4  -4   0    1.18    0.17
   4  -4   0    1.44    0.14
   4  -4   0    1.36    0.13
  -4   4   0    1.36    0.15
  -4   4   0    1.14    0.17
  -4   4   0    1.38    0.16
   3  -4   0   13.01    0.38
   3  -4   0   12.94    0.38
   3  -4   0   13.40    0.38
   3  -4   0   13.35    0.38
   3  -4   0   13.33    0.41
  -3   4   0   13.29    0.41
  -3   4   0   13.95    0.41
  -3   4   0   13.59    0.40
   2  -4   0    5.00    0.20
   2  -4   0    4.92    0.17
   2  -4   0    5.00    0.18
   2  -4   0    5.05    0.17
   2  -4   0    4.93    0.18
  -2   4   0    5.16    0.21
  -2   4   0    5.11    0.19
  -2   4   0    4.96    0.20
   1  -4   0    3.60    0.13
   1  -4   0    3.48    0.14
   1  -4   0    3.50    0.14
   1  -4   0    3.40    0.13
   1  -4   0    3.52    0.13
   1  -4   0    3.55    0.15
  -1   4   0    3.63    0.15
  -1   4   0    3.52    0.17
  -1   4   0    3.65    0.15
   0  -4   0  119.40    2.81
   0  -4   0  122.11    2.81
   0  -4   0  120.81    2.80
   0  -4   0  119.87    2.80
   0  -4   0  119.06    2.80
   0   4   0  114.62    2.84
   0   4   0  116.72    2.84
   0   4   0  120.10    2.81
   0   4   0  115.12    2.82
  -1  -4   0    0.48    0.06
  -1  -4   0    0.59    0.05
  -1  -4   0    0.44    0.08
  -1  -4   0    0.62    0.06
   1   4   0    0.52    0.10
   1   4   0    0.50    0.08
   1   4   0    0.58    0.06
   1   4   0    0.49    0.07
  -2  -4   0   -0.01    0.04
  -2  -4   0    0.00    0.04
  -2  -4   0    0.06    0.03
  -2  -4   0   -0.04    0.03
   2   4   0   -0.01    0.03
   2   4   0    0.04    0.04
   2   4   0    0.00    0.04
   2   4   0    0.02    0.05
  -3  -4   0   12.46    0.38
  -3  -4   0   12.40    0.37
  -3  -4   0   12.18    0.34
  -3  -4   0   12.49    0.36
   3   4   0   12.48    0.38
   3   4   0   11.96    0.36
   3   4   0   12.22    0.42
   3   4   0   12.07    0.44
  -4  -4   0   10.37    0.31
  -4  -4   0   11.23    0.36
  -4  -4   0   10.54    0.34
  -4  -4   0   10.56    0.36
   4   4   0   10.51    0.34
   4   4   0   10.39    0.36
   4   4   0   10.82    0.41
   4   4   0   10.40    0.42
  -5  -4   0   -0.06    0.07
  -5  -4   0   -0.08    0.06
   5   4   0    0.03    0.06
   5   4   0    0.13    0.09
   5   4   0    0.00    0.08
   5  -5   0    0.12    0.10
   5  -5   0    0.30    0.08
  -5   5   0    0.23    0.10
  -5   5   0    0.16    0.11
   4  -5   0   -0.02    0.08
   4  -5   0    0.15    0.07
   4  -5   0    0.11    0.06
   4  -5   0    0.11    0.07
  -4   5   0    0.01    0.09
  -4   5   0    0.25    0.09
   3  -5   0    0.11    0.06
   3  -5   0    0.11    0.08
   3  -5   0    0.11    0.06
   3  -5   0    0.11    0.06
  -3   5   0    0.03    0.08
  -3   5   0    0.05    0.08
  -3   5   0    0.16    0.07
   2  -5   0    0.51    0.08
   2  -5   0    0.31    0.06
   2  -5   0    0.40    0.06
   2  -5   0    0.42    0.07
   2  -5   0    0.32    0.06
  -2   5   0    0.37    0.08
  -2   5   0    0.45    0.08
   1  -5   0    6.41    0.22
   1  -5   0    6.72    0.22
   1  -5   0    6.67    0.23
   1  -5   0    6.65    0.23
  -1   5   0    6.33    0.25
  -1   5   0    6.81    0.26
  -1   5   0    6.80    0.25
   0  -5   0  123.61    2.88
   0  -5   0  117.55    2.88
   0  -5   0  122.61    2.87
   0  -5   0  125.17    2.89
   0  -5   0  120.63    2.88
   0   5   0  119.60    2.88
   0   5   0  119.41    2.93
   0   5   0  121.62    2.90
  -1  -5   0    0.57    0.11
  -1  -5   0    0.64    0.10
  -1  -5   0    0.46    0.07
   1   5   0    0.71    0.13
  -2  -5   0    3.20    0.15
  -2  -5   0    3.20    0.17
  -2  -5   0    3.19    0.18
   2   5   0    3.50    0.21
   2   5   0    3.32    0.21
   2   5   0    3.45    0.16
  -3  -5   0    0.38    0.06
  -3  -5   0    0.39    0.08
  -3  -5   0    0.33    0.07
   3   5   0    0.42    0.09
   3   5   0    0.34    0.06
  -4  -5   0    0.55    0.09
  -4  -5   0    0.49    0.09
  -4  -5   0    0.74    0.12
   4   5   0    0.68    0.15
   4   5   0    0.81    0.20
   4  -6   0    1.45    0.16
   4  -6   0    1.14    0.17
  -4   6   0    1.39    0.22
   3  -6   0    1.52    0.16
   3  -6   0    1.72    0.16
   3  -6   0    1.69    0.17
  -3   6   0    1.35    0.20
  -3   6   0    1.77    0.21
   2  -6   0    0.35    0.08
   2  -6   0    0.43    0.08
   2  -6   0    0.54    0.08
  -2   6   0    0.58    0.10
  -2   6   0    0.41    0.10
   1  -6   0    1.09    0.12
   1  -6   0    1.18    0.13
   1  -6   0    1.12    0.12
   1  -6   0    1.00    0.13
  -1   6   0    1.39    0.17
   0  -6   0    4.27    0.17
   0  -6   0    4.18    0.19
   0  -6   0    4.05    0.18
   0   6   0    3.76    0.23
   0   6   0    3.45    0.21
  -1  -6   0    1.26    0.14
  -1  -6   0    1.22    0.12
  -1  -6   0    0.93    0.19
   1   6   0    1.18    0.18
   1   6   0    1.40    0.15
  -2  -6   0    8.26    0.32
  -2  -6   0    8.36    0.31
   2   6   0    9.04    0.31
   2   6   0    9.06    0.38
  -3  -6   0    4.11    0.26
  -3  -6   0    4.65    0.25
  -3  -6   0    4.92    0.21
   3   6   0    5.19    0.24
   3   6   0    5.39    0.31
  -2   7   0    1.56    0.20
  -2   7   0    1.26    0.21
   1  -7   0    0.84    0.14
  -1   7   0    1.22    0.17
   0  -7   0    2.39    0.19
   0   7   0    2.80    0.22
   0   7   0    2.14    0.20
   1   7   0    0.26    0.08
   1   7   0    0.18    0.09
   3   6  -1    3.01    0.20
   3   6  -1    2.89    0.27
  -3  -6   1    2.49    0.18
  -3  -6   1    2.30    0.20
   2   6  -1    0.10    0.08
   2   6  -1    0.12    0.07
  -2  -6   1    0.01    0.06
  -2  -6   1   -0.08    0.07
   1   6  -1    4.63    0.26
   1   6  -1    4.83    0.23
  -1  -6   1    4.47    0.22
  -1  -6   1    4.55    0.19
  -1  -6   1    4.17    0.23
   0   6  -1    1.17    0.16
   0  -6   1    0.96    0.14
   0  -6   1    1.11    0.12
  -1   6  -1    3.24    0.21
  -1   6  -1    3.72    0.22
  -1   6  -1    4.29    0.22
   1  -6   1    3.75    0.18
   1  -6   1    4.16    0.20
   1  -6   1    4.07    0.18
   1  -6   1    4.17    0.19
  -2   6  -1    0.16    0.09
  -2   6  -1    0.08    0.09
   2  -6   1    0.22    0.07
   2  -6   1    0.15    0.07
   2  -6   1    0.23    0.07
  -3   6  -1    2.05    0.22
  -3   6  -1    1.95    0.21
   3  -6   1    2.17    0.18
   3  -6   1    2.03    0.17
   3  -6   1    2.37    0.17
   4   5  -1    5.07    0.32
   4   5  -1    4.81    0.32
   4   5  -1    5.01    0.25
  -4  -5   1    5.34    0.27
  -4  -5   1    4.44    0.25
   3   5  -1    8.98    0.38
   3   5  -1    8.95    0.32
   3   5  -1    9.22    0.38
  -3  -5   1    8.84    0.32
  -3  -5   1    8.93    0.29
  -3  -5   1    8.71    0.34
   2   5  -1    1.70    0.18
   2   5  -1    1.91    0.14
  -2  -5   1    1.53    0.14
  -2  -5   1    1.32    0.16
  -2  -5   1    1.72    0.12
   1   5  -1   15.91    0.46
   1   5  -1   15.03    0.49
  -1  -5   1   16.25    0.46
  -1  -5   1   15.40    0.43
  -1  -5   1   15.73    0.44
   0   5  -1    0.31    0.07
   0   5  -1    0.53    0.12
   0  -5   1    0.35    0.05
   0  -5   1    0.28    0.06
   0  -5   1    0.32    0.05
   0  -5   1    0.28    0.06
   0  -5   1    0.53    0.09
  -1   5  -1    1.14    0.13
  -1   5  -1    1.47    0.13
   1  -5   1    1.08    0.11
   1  -5   1    1.03    0.12
   1  -5   1    1.18    0.15
   1  -5   1    1.05    0.13
   1  -5   1    1.12    0.11
  -2   5  -1    8.54    0.30
  -2   5  -1    8.59    0.30
  -2   5  -1    8.66    0.30
   2  -5   1    7.84    0.28
   2  -5   1    8.35    0.28
   2  -5   1    7.71    0.27
   2  -5   1    8.33    0.27
  -3   5  -1    4.71    0.24
  -3   5  -1    4.52    0.23
   3  -5   1    4.60    0.21
   3  -5   1    4.38    0.21
   3  -5   1    4.46    0.20
   3  -5   1    4.49    0.20
  -4   5  -1    3.10    0.23
  -4   5  -1    3.83    0.24
   4  -5   1    3.51    0.20
   4  -5   1    3.45    0.21
   4  -5   1    3.39    0.19
  -5   5  -1    0.30    0.11
  -5   5  -1    0.03    0.11
   5  -5   1    0.23    0.08
   5  -5   1    0.28    0.08
   5   4  -1    0.10    0.10
   4   4  -1    0.00    0.07
   4   4  -1    0.07    0.06
   4   4  -1   -0.05    0.05
   4   4  -1    0.05    0.08
  -4  -4   1   -0.08    0.06
  -4  -4   1    0.04    0.05
  -4  -4   1   -0.09    0.05
   3   4  -1    3.80    0.18
   3   4  -1    3.85    0.19
   3   4  -1    3.81    0.23
   3   4  -1    3.82    0.24
  -3  -4   1    3.71    0.16
  -3  -4   1    3.63    0.18
  -3  -4   1    3.71    0.20
  -3  -4   1    3.82    0.19
   2   4  -1    0.20    0.06
   2   4  -1    0.26    0.07
   2   4  -1    0.30    0.06
   2   4  -1    0.18    0.04
  -2  -4   1    0.15    0.05
  -2  -4   1    0.19    0.04
  -2  -4   1    0.14    0.05
  -2  -4   1    0.14    0.05
   1   4  -1  202.69    4.92
   1   4  -1  200.54    4.97
   1   4  -1  208.29    4.90
   1   4  -1  210.18    4.97
  -1  -4   1  207.43    4.92
  -1  -4   1  207.49    4.91
  -1  -4   1  214.25    4.90
  -1  -4   1  199.89    4.91
  -1  -4   1  218.93    4.96
   0   4  -1    4.85    0.18
   0   4  -1    4.76    0.20
   0   4  -1    4.42    0.17
   0  -4   1    4.78    0.18
   0  -4   1    4.68    0.16
   0  -4   1    4.76    0.16
   0  -4   1    4.74    0.15
   0  -4   1    4.73    0.18
  -1   4  -1    1.35    0.11
  -1   4  -1    1.30    0.11
  -1   4  -1    1.25    0.11
   1  -4   1    1.24    0.09
   1  -4   1    1.13    0.09
   1  -4   1    1.19    0.10
   1  -4   1    1.18    0.09
   1  -4   1    1.07    0.10
  -2   4  -1   -0.04    0.04
  -2   4  -1   -0.01    0.05
  -2   4  -1    0.13    0.05
   2  -4   1   -0.01    0.03
   2  -4   1    0.02    0.03
  -3   4  -1    0.09    0.06
  -3   4  -1    0.12    0.06
  -3   4  -1    0.09    0.06
   3  -4   1    0.03    0.05
   3  -4   1    0.09    0.05
   3  -4   1    0.11    0.05
   3  -4   1    0.05    0.05
   3  -4   1    0.03    0.06
  -4   4  -1    0.33    0.09
  -4   4  -1    0.39    0.09
   4  -4   1    0.37    0.07
   4  -4   1    0.31    0.09
   4  -4   1    0.41    0.07
   4  -4   1    0.35    0.07
  -5   4  -1    2.20    0.20
  -5   4  -1    1.73    0.19
   5  -4   1    1.92    0.17
   5  -4   1    1.80    0.17
   5  -4   1    1.80    0.17
   5  -4   1    1.97    0.21
   5   3  -1    6.72    0.34
   5   3  -1    6.16    0.35
   5   3  -1    6.43    0.27
   5   3  -1    5.99    0.28
  -5  -3   1    7.58    0.35
  -5  -3   1    6.81    0.29
  -5  -3   1    6.21    0.28
  -5  -3   1    5.93    0.26
   4   3  -1    8.98    0.38
   4   3  -1    9.53    0.31
   4   3  -1    8.91    0.32
   4   3  -1    9.34    0.37
  -4  -3   1    9.67    0.33
  -4  -3   1    8.88    0.30
  -4  -3   1    8.98    0.27
   3   3  -1    0.03    0.05
   3   3  -1    0.06    0.06
   3   3  -1    0.09    0.04
   3   3  -1    0.01    0.04
  -3  -3   1    0.05    0.05
  -3  -3   1    0.03    0.04
  -3  -3   1    0.02    0.04
  -3  -3   1    0.05    0.04
   2   3  -1    3.28    0.14
   2   3  -1    3.35    0.17
   2   3  -1    3.48    0.18
   2   3  -1    3.28    0.12
   2   3  -1    3.48    0.14
  -2  -3   1    3.49    0.14
  -2  -3   1    3.52    0.15
  -2  -3   1    3.48    0.14
  -2  -3   1    3.58    0.12
   1   3  -1  106.23    2.56
   1   3  -1  102.68    2.56
   1   3  -1  107.27    2.53
   1   3  -1  109.18    2.53
   1   3  -1  102.57    2.56
  -1  -3   1  108.66    2.52
  -1  -3   1  107.53    2.54
  -1  -3   1  106.36    2.51
  -1  -3   1  110.64    2.56
  -1  -3   1  111.40    2.58
  -1  -3   1  104.92    2.55
   0   3  -1    8.49    0.26
   0   3  -1    8.81    0.25
   0   3  -1    8.43    0.24
   0   3  -1    8.33    0.24
   0  -3   1    8.88    0.25
   0  -3   1    8.90    0.24
   0  -3   1    8.45    0.24
   0  -3   1    8.85    0.23
   0  -3   1    8.28    0.22
   0  -3   1    8.45    0.23
  -1   3  -1   13.94    0.37
  -1   3  -1   14.13    0.37
  -1   3  -1   13.75    0.38
   1  -3   1   14.03    0.36
   1  -3   1   14.09    0.36
   1  -3   1   13.73    0.36
   1  -3   1   13.13    0.36
   1  -3   1   13.94    0.36
  -2   3  -1   71.39    1.64
  -2   3  -1   67.77    1.65
  -2   3  -1   67.86    1.64
   2  -3   1   67.65    1.63
   2  -3   1   68.13    1.63
   2  -3   1   68.57    1.65
   2  -3   1   67.81    1.63
   2  -3   1   68.89    1.63
   2  -3   1   64.78    1.63
  -3   3  -1   13.85    0.38
  -3   3  -1   12.96    0.38
  -3   3  -1   13.21    0.39
   3  -3   1   13.37    0.37
   3  -3   1   13.19    0.37
   3  -3   1   13.65    0.40
   3  -3   1   13.37    0.37
   3  -3   1   13.39    0.37
   3  -3   1   13.14    0.37
  -4   3  -1    0.67    0.11
  -4   3  -1    0.58    0.12
   4  -3   1    0.69    0.10
   4  -3   1    0.77    0.10
   4  -3   1    0.76    0.11
   4  -3   1    0.58    0.08
   4  -3   1    0.63    0.10
  -5   3  -1    0.85    0.15
  -5   3  -1    0.71    0.14
   5  -3   1    0.51    0.08
   5  -3   1    0.55    0.09
   5  -3   1    0.55    0.08
  -6   3  -1    2.73    0.18
  -6   3  -1    2.40    0.20
  -6   3  -1    2.41    0.21
   6  -3   1    2.73    0.19
   6  -3   1    2.85    0.19
   6  -3   1    2.76    0.22
   6   2  -1    3.47    0.22
   6   2  -1    3.47    0.28
   6   2  -1    3.30    0.30
  -6  -2   1    3.97    0.25
  -6  -2   1    3.04    0.23
  -6  -2   1    3.04    0.20
   5   2  -1    7.06    0.35
   5   2  -1    7.29    0.28
   5   2  -1    7.06    0.29
   5   2  -1    7.30    0.34
  -5  -2   1    8.25    0.36
  -5  -2   1    7.67    0.30
  -5  -2   1    6.98    0.29
  -5  -2   1    6.99    0.26
   4   2  -1    2.54    0.15
   4   2  -1    2.34    0.19
   4   2  -1    2.44    0.15
   4   2  -1    2.67    0.20
  -4  -2   1    2.49    0.13
  -4  -2   1    2.51    0.11
  -4  -2   1    2.46    0.15
  -4  -2   1    2.69    0.16
   3   2  -1    2.00    0.11
   3   2  -1    1.85    0.14
   3   2  -1    1.86    0.15
   3   2  -1    1.81    0.11
  -3  -2   1    2.06    0.12
  -3  -2   1    1.85    0.09
  -3  -2   1    1.94    0.10
  -3  -2   1    1.74    0.11
   2   2  -1   18.67    0.52
   2   2  -1   18.58    0.48
   2   2  -1   18.94    0.49
   2   2  -1   18.99    0.53
   2   2  -1   18.10    0.46
  -2  -2   1   18.97    0.49
  -2  -2   1   18.10    0.48
  -2  -2   1   18.98    0.46
  -2  -2   1   19.25    0.48
   1   2  -1   90.35    2.15
   1   2  -1   89.91    2.13
   1   2  -1   86.18    2.15
   1   2  -1   86.58    2.16
   1   2  -1   88.67    2.15
  -1  -2   1   86.23    2.17
  -1  -2   1   93.73    2.15
  -1  -2   1   92.73    2.18
  -1  -2   1   93.97    2.18
   0   2  -1   12.99    0.34
   0   2  -1   12.90    0.34
   0   2  -1   12.90    0.33
   0   2  -1   12.89    0.34
   0  -2   1   13.30    0.33
   0  -2   1   12.74    0.32
   0  -2   1   12.95    0.32
   0  -2   1   13.47    0.33
   0  -2   1   13.27    0.34
   0  -2   1   12.93    0.32
  -1   2  -1   59.99    1.41
  -1   2  -1   59.38    1.42
  -1   2  -1   59.68    1.41
   1  -2   1   59.40    1.40
   1  -2   1   59.71    1.41
   1  -2   1   55.33    1.41
   1  -2   1   60.57    1.43
   1  -2   1   59.50    1.41
  -2   2  -1   54.72    1.28
  -2   2  -1   53.49    1.28
  -2   2  -1   54.05    1.29
   2  -2   1   53.91    1.27
   2  -2   1   54.12    1.29
   2  -2   1   52.72    1.27
   2  -2   1   53.71    1.28
   2  -2   1   53.42    1.28
   2  -2   1   49.10    1.28
  -3   2  -1    0.00    0.03
  -3   2  -1    0.00    0.04
  -3   2  -1    0.01    0.02
  -3   2  -1    0.00    0.03
  -3   2  -1    0.03    0.02
   3  -2   1    0.00    0.03
   3  -2   1   -0.02    0.03
   3  -2   1    0.01    0.02
   3  -2   1   -0.03    0.03
   3  -2   1   -0.05    0.03
   3  -2   1   -0.01    0.03
   3  -2   1    0.00    0.04
  -4   2  -1   12.00    0.35
  -4   2  -1   11.06    0.35
  -4   2  -1   11.75    0.34
  -4   2  -1   12.41    0.36
  -4   2  -1   12.16    0.33
   4  -2   1   11.79    0.33
   4  -2   1   12.12    0.36
   4  -2   1   12.14    0.35
   4  -2   1   11.87    0.34
   4  -2   1   11.91    0.34
   4  -2   1   11.73    0.36
  -5   2  -1   -0.08    0.06
  -5   2  -1    0.08    0.04
  -5   2  -1    0.02    0.05
  -5   2  -1   -0.03    0.06
   5  -2   1   -0.04    0.05
   5  -2   1   -0.01    0.05
   5  -2   1   -0.02    0.05
   5  -2   1    0.04    0.05
   5  -2   1    0.05    0.06
   5  -2   1    0.04    0.05
  -6   2  -1    0.35    0.06
  -6   2  -1    0.29    0.08
  -6   2  -1    0.33    0.07
  -6   2  -1    0.50    0.09
   6  -2   1    0.45    0.07
   6  -2   1    0.45    0.09
   6  -2   1    0.48    0.08
   6   1  -1    4.66    0.30
   6   1  -1    4.20    0.23
   6   1  -1    4.15    0.30
  -6  -1   1    5.10    0.32
  -6  -1   1    4.29    0.25
  -6  -1   1    3.80    0.23
   5   1  -1    0.00    0.05
   5   1  -1    0.04    0.06
   5   1  -1   -0.01    0.06
   5   1  -1    0.04    0.07
  -5  -1   1    0.05    0.05
  -5  -1   1    0.05    0.05
  -5  -1   1    0.07    0.05
  -5  -1   1    0.12    0.07
   4   1  -1   17.87    0.49
   4   1  -1   17.88    0.53
   4   1  -1   17.74    0.49
   4   1  -1   16.43    0.46
  -4  -1   1   17.60    0.49
  -4  -1   1   17.02    0.53
  -4  -1   1   17.45    0.49
  -4  -1   1   17.50    0.44
  -4  -1   1   17.97    0.47
   3   1  -1   19.77    0.52
   3   1  -1   19.64    0.55
   3   1  -1   18.95    0.49
   3   1  -1   19.51    0.51
   3   1  -1   20.03    0.56
  -3  -1   1   19.41    0.51
  -3  -1   1   19.84    0.48
  -3  -1   1   19.14    0.51
  -3  -1   1   19.62    0.50
   2   1  -1    5.46    0.20
   2   1  -1    5.19    0.17
   2   1  -1    5.26    0.19
   2   1  -1    5.57    0.17
   2   1  -1    5.26    0.15
  -2  -1   1    5.16    0.17
  -2  -1   1    5.41    0.14
  -2  -1   1    5.48    0.16
  -2  -1   1    5.39    0.17
   1   1  -1  157.27    3.92
   1   1  -1  168.84    3.96
   1   1  -1  166.00    4.01
   1   1  -1  158.80    4.12
  -1  -1   1  170.02    3.92
  -1  -1   1  155.35    3.93
  -1  -1   1  167.39    3.87
  -1  -1   1  164.20    3.96
   0   1  -1    0.51    0.04
   0   1  -1    0.46    0.04
   0   1  -1    0.59    0.04
   0   1  -1    0.55    0.04
   0  -1   1    0.59    0.03
   0  -1   1    0.50    0.03
   0  -1   1    0.54    0.03
   0  -1   1    0.59    0.04
   0  -1   1    0.56    0.03
  -1   1  -1   46.47    1.10
  -1   1  -1   47.09    1.09
  -1   1  -1   47.35    1.10
   1  -1   1   45.68    1.11
   1  -1   1   46.59    1.11
   1  -1   1   43.78    1.11
   1  -1   1   46.76    1.10
   1  -1   1   46.02    1.10
  -2   1  -1   77.38    1.80
  -2   1  -1   74.29    1.80
  -2   1  -1   75.24    1.79
   2  -1   1   77.60    1.80
   2  -1   1   74.56    1.78
   2  -1   1   74.61    1.79
   2  -1   1   72.49    1.80
   2  -1   1   75.02    1.80
   2  -1   1   76.39    1.79
   2  -1   1   77.43    1.81
   2  -1   1   77.53    1.79
   2  -1   1   74.48    1.79
  -3   1  -1  127.44    3.10
  -3   1  -1  127.25    3.11
  -3   1  -1  129.61    3.09
   3  -1   1  131.84    3.11
   3  -1   1  131.26    3.09
   3  -1   1  129.95    3.17
   3  -1   1  130.20    3.08
   3  -1   1  128.56    3.10
   3  -1   1  131.65    3.13
   3  -1   1  132.66    3.11
   3  -1   1  134.92    3.11
   3  -1   1  133.51    3.09
   3  -1   1  132.80    3.12
  -4   1  -1   23.48    0.61
  -4   1  -1   23.30    0.61
  -4   1  -1   23.30    0.62
  -4   1  -1   21.82    0.61
  -4   1  -1   23.43    0.63
   4  -1   1   24.06    0.62
   4  -1   1   23.85    0.62
   4  -1   1   24.52    0.60
   4  -1   1   24.57    0.62
   4  -1   1   24.07    0.65
   4  -1   1   24.63    0.64
   4  -1   1   24.03    0.62
   4  -1   1   24.36    0.61
   4  -1   1   24.44    0.61
   4  -1   1   24.35    0.63
  -5   1  -1    1.58    0.12
  -5   1  -1    1.55    0.13
  -5   1  -1    1.39    0.10
  -5   1  -1    1.55    0.11
  -5   1  -1    1.71    0.16
  -5   1  -1    1.51    0.10
  -5   1  -1    1.64    0.14
  -5   1  -1    1.54    0.11
  -5   1  -1    1.42    0.12
   5  -1   1    1.27    0.11
   5  -1   1    1.20    0.14
   5  -1   1    1.37    0.11
   5  -1   1    1.33    0.11
   5  -1   1    1.37    0.12
   5  -1   1    1.35    0.12
   5  -1   1    1.32    0.12
   5  -1   1    1.40    0.15
   5  -1   1    1.42    0.12
  -6   1  -1    2.03    0.19
  -6   1  -1    1.92    0.18
  -6   1  -1    1.93    0.16
  -6   1  -1    2.25    0.17
  -6   1  -1    2.32    0.18
  -6   1  -1    2.54    0.21
   6  -1   1    1.98    0.25
   6  -1   1    1.87    0.21
   6   0  -1    0.39    0.10
  -6   0   1    0.48    0.12
  -6   0   1    0.38    0.08
   5   0  -1    3.26    0.22
   5   0  -1    2.92    0.23
   5   0  -1    3.21    0.18
   5   0  -1    3.08    0.16
  -5   0   1    3.21    0.15
  -5   0   1    2.96    0.18
  -5   0   1    3.15    0.22
  -5   0   1    3.32    0.17
   4   0  -1   23.25    0.61
   4   0  -1   23.12    0.60
   4   0  -1   23.61    0.62
   4   0  -1   23.18    0.67
   4   0  -1   23.24    0.65
  -4   0   1   23.66    0.59
  -4   0   1   21.98    0.65
  -4   0   1   24.06    0.61
  -4   0   1   22.15    0.61
  -4   0   1   22.99    0.57
   3   0  -1   29.51    0.77
   3   0  -1   29.37    0.76
   3   0  -1   28.79    0.72
   3   0  -1   29.59    0.73
   3   0  -1   28.27    0.69
   3   0  -1   29.31    0.73
   3   0  -1   26.86    0.69
  -3   0   1   29.30    0.71
  -3   0   1   29.14    0.72
  -3   0   1   28.27    0.75
  -3   0   1   28.35    0.72
  -3   0   1   29.24    0.69
   2   0  -1    0.87    0.04
   2   0  -1    0.89    0.06
   2   0  -1    0.96    0.08
   2   0  -1    0.93    0.06
   2   0  -1    0.98    0.06
   2   0  -1    0.94    0.08
   2   0  -1    0.90    0.04
  -2   0   1    0.82    0.06
  -2   0   1    0.88    0.04
  -2   0   1    0.71    0.08
  -2   0   1    0.94    0.05
  -2   0   1    0.98    0.06
   1   0  -1  924.73   23.60
   1   0  -1  962.21   22.83
   1   0  -1 1000.00   25.06
  -1   0   1  916.68   24.54
  -1   0   1  972.27   23.59
  -1   0   1  965.01   23.58
  -1   0   1  982.63   23.13
   0   0  -1    1.67    0.05
   0   0  -1    1.74    0.05
   0   0  -1    1.72    0.05
   0   0  -1    1.70    0.05
   0   0  -1    1.69    0.05
   0   0   1    1.76    0.06
   0   0   1    1.70    0.05
   0   0   1    1.81    0.05
   0   0   1    1.85    0.05
   0   0   1    1.72    0.05
  -1   0  -1    2.90    0.10
  -1   0  -1    2.86    0.10
  -1   0  -1    2.77    0.10
   1   0   1    2.80    0.10
   1   0   1    2.75    0.10
   1   0   1    2.70    0.11
   1   0   1    2.81    0.10
   1   0   1    2.70    0.11
   1   0   1    2.79    0.10
   1   0   1    2.68    0.10
   1   0   1    2.76    0.10
  -2   0  -1  234.32    5.54
  -2   0  -1  244.57    5.51
  -2   0  -1  235.94    5.52
   2   0   1  224.54    5.58
   2   0   1  229.94    5.69
   2   0   1  233.24    5.51
   2   0   1  227.71    5.62
   2   0   1  232.40    5.55
   2   0   1  240.53    5.52
   2   0   1  234.39    5.52
   2   0   1  226.56    5.59
   2   0   1  229.41    6.66
   2   0   1  229.26    5.54
  -3   0  -1   87.04    2.10
  -3   0  -1   89.87    2.10
  -3   0  -1   90.29    2.10
   3   0   1   88.16    2.15
   3   0   1   90.02    2.11
   3   0   1   89.53    2.11
   3   0   1   88.25    2.13
   3   0   1   89.59    2.12
   3   0   1   89.65    2.11
   3   0   1   88.16    2.10
   3   0   1   88.55    2.12
   3   0   1   86.18    2.13
   3   0   1   90.57    2.10
  -4   0  -1    5.77    0.18
  -4   0  -1    5.84    0.18
  -4   0  -1    5.67    0.17
  -4   0  -1    5.60    0.19
  -4   0  -1    5.69    0.21
   4   0   1    5.95    0.18
   4   0   1    5.90    0.19
   4   0   1    5.89    0.24
   4   0   1    6.09    0.20
   4   0   1    5.92    0.19
   4   0   1    6.02    0.21
   4   0   1    5.78    0.22
   4   0   1    6.04    0.22
   4   0   1    5.95    0.19
   4   0   1    6.01    0.18
  -5   0  -1    7.20    0.22
  -5   0  -1    6.87    0.21
  -5   0  -1    7.38    0.23
  -5   0  -1    7.39    0.25
  -5   0  -1    7.35    0.26
  -5   0  -1    7.43    0.27
  -5   0  -1    7.32    0.24
   5   0   1    7.46    0.27
   5   0   1    7.19    0.31
   5   0   1    7.53    0.28
   5   0   1    6.95    0.29
   5   0   1    7.45    0.26
   5   0   1    7.59    0.22
   5   0   1    7.32    0.25
   5   0   1    7.06    0.24
  -6   0  -1   38.03    1.05
  -6   0  -1   37.15    0.97
  -6   0  -1   36.81    1.00
  -6   0  -1   39.11    0.99
   6   0   1   37.72    1.00
   6   0   1   39.31    1.04
   6   0   1   37.68    1.07
   6  -1  -1    0.12    0.10
   6  -1  -1    0.21    0.09
  -6   1   1    0.09    0.06
  -6   1   1    0.09    0.09
   5  -1  -1   -0.02    0.06
   5  -1  -1    0.00    0.06
   5  -1  -1    0.03    0.05
   5  -1  -1    0.02    0.07
  -5   1   1    0.02    0.06
  -5   1   1    0.11    0.07
   4  -1  -1    0.93    0.07
   4  -1  -1    0.60    0.10
   4  -1  -1    0.79    0.13
   4  -1  -1    0.82    0.12
   4  -1  -1    0.84    0.07
   4  -1  -1    0.63    0.08
   4  -1  -1    0.83    0.10
  -4   1   1    0.64    0.12
  -4   1   1    0.68    0.08
  -4   1   1    0.77    0.07
  -4   1   1    0.56    0.10
  -4   1   1    0.47    0.13
  -4   1   1    0.73    0.09
   3  -1  -1   10.48    0.32
   3  -1  -1   10.48    0.32
   3  -1  -1   10.54    0.30
   3  -1  -1   10.73    0.30
   3  -1  -1   10.64    0.28
   3  -1  -1   10.17    0.27
   3  -1  -1   10.06    0.27
   3  -1  -1    9.87    0.27
  -3   1   1    9.84    0.29
  -3   1   1   10.68    0.27
  -3   1   1    9.77    0.32
  -3   1   1   10.20    0.31
  -3   1   1   10.19    0.28
   2  -1  -1   13.74    0.34
   2  -1  -1   14.01    0.35
   2  -1  -1   13.82    0.34
   2  -1  -1   13.46    0.36
   2  -1  -1   14.13    0.38
   2  -1  -1   14.09    0.34
   2  -1  -1   13.93    0.36
   2  -1  -1   14.18    0.38
  -2   1   1   13.59    0.37
  -2   1   1   13.34    0.34
  -2   1   1   13.34    0.34
  -2   1   1   13.50    0.37
  -2   1   1   13.51    0.35
   0  -1  -1    0.24    0.03
   0  -1  -1    0.32    0.02
   0  -1  -1    0.24    0.02
   0  -1  -1    0.29    0.02
   0  -1  -1    0.24    0.02
   0  -1  -1    0.26    0.03
   0  -1  -1    0.28    0.03
   0   1   1    0.34    0.03
  -1  -1  -1   36.35    0.88
  -1  -1  -1   36.90    0.87
  -1  -1  -1   37.12    0.87
  -1  -1  -1   36.65    0.87
   1   1   1   35.42    0.98
   1   1   1   36.37    0.89
   1   1   1   38.07    0.88
   1   1   1   37.29    0.88
   1   1   1   35.93    0.87
  -2  -1  -1    3.70    0.11
  -2  -1  -1    3.77    0.11
  -2  -1  -1    3.86    0.12
  -2  -1  -1    3.80    0.13
  -2  -1  -1    3.80    0.10
   2   1   1    3.77    0.12
   2   1   1    3.91    0.14
   2   1   1    4.29    0.11
   2   1   1    3.73    0.15
   2   1   1    4.15    0.13
   2   1   1    3.77    0.13
  -3  -1  -1   24.87    0.64
  -3  -1  -1   25.17    0.63
  -3  -1  -1   24.59    0.60
  -3  -1  -1   25.14    0.60
  -3  -1  -1   24.37    0.61
   3   1   1   24.60    0.61
   3   1   1   25.71    0.65
   3   1   1   24.16    0.65
   3   1   1   25.58    0.63
   3   1   1   24.93    0.60
   3   1   1   24.32    0.67
   3   1   1   25.30    0.64
  -4  -1  -1    3.09    0.15
  -4  -1  -1    3.16    0.12
  -4  -1  -1    3.12    0.11
  -4  -1  -1    3.07    0.13
  -4  -1  -1    3.17    0.10
   4   1   1    3.08    0.18
   4   1   1    3.17    0.16
   4   1   1    3.10    0.16
   4   1   1    3.10    0.12
   4   1   1    3.25    0.14
   4   1   1    3.11    0.15
   4   1   1    3.09    0.13
  -5  -1  -1    3.55    0.19
  -5  -1  -1    4.07    0.18
  -5  -1  -1    3.95    0.15
  -5  -1  -1    3.79    0.17
   5   1   1    3.91    0.17
   5   1   1    3.55    0.19
   5   1   1    3.44    0.23
   5   1   1    3.59    0.21
  -6  -1  -1   34.29    0.90
  -6  -1  -1   34.72    0.93
  -6  -1  -1   35.70    0.93
   6   1   1   35.45    0.97
   6   1   1   34.11    0.93
   6   1   1   34.05    1.01
  -7  -1  -1    0.16    0.07
  -7  -1  -1    0.18    0.10
   7   1   1    0.08    0.09
   7   1   1    0.12    0.11
   6  -2  -1    2.12    0.19
   6  -2  -1    1.93    0.24
   6  -2  -1    2.19    0.19
  -6   2   1    2.45    0.19
  -6   2   1    2.24    0.28
  -6   2   1    2.07    0.22
   5  -2  -1    5.01    0.23
   5  -2  -1    4.94    0.26
   5  -2  -1    4.79    0.19
   5  -2  -1    5.03    0.19
   5  -2  -1    4.97    0.23
  -5   2   1    4.94    0.22
  -5   2   1    5.11    0.26
  -5   2   1    4.97    0.25
  -5   2   1    4.86    0.20
   4  -2  -1   10.47    0.31
   4  -2  -1   10.59    0.34
   4  -2  -1   10.56    0.30
   4  -2  -1   11.02    0.34
   4  -2  -1   10.65    0.30
   4  -2  -1   11.04    0.36
  -4   2   1   10.42    0.35
  -4   2   1   10.86    0.31
  -4   2   1   10.95    0.35
  -4   2   1   10.59    0.33
   3  -2  -1    2.69    0.14
   3  -2  -1    2.57    0.11
   3  -2  -1    2.59    0.11
   3  -2  -1    2.84    0.13
   3  -2  -1    2.82    0.11
   3  -2  -1    2.87    0.15
   3  -2  -1    2.83    0.10
   3  -2  -1    2.63    0.10
  -3   2   1    2.73    0.11
  -3   2   1    2.61    0.14
  -3   2   1    2.64    0.10
  -3   2   1    2.67    0.14
  -3   2   1    2.52    0.13
   2  -2  -1   14.28    0.38
   2  -2  -1   14.02    0.36
   2  -2  -1   14.37    0.37
   2  -2  -1   13.89    0.35
   2  -2  -1   13.84    0.35
   2  -2  -1   13.91    0.38
  -2   2   1   14.16    0.39
  -2   2   1   14.14    0.38
  -2   2   1   14.43    0.38
  -2   2   1   14.57    0.36
   1  -2  -1  122.12    2.95
   1  -2  -1  126.21    2.98
   1  -2  -1  121.64    2.92
   1  -2  -1  119.93    2.90
   1  -2  -1  126.43    3.58
   1  -2  -1  122.05    2.94
  -1   2   1  118.53    2.95
  -1   2   1  127.91    3.02
  -1   2   1  124.84    3.00
  -1   2   1  122.82    2.93
   0  -2  -1    0.20    0.03
   0  -2  -1    0.20    0.03
   0  -2  -1    0.16    0.03
   0  -2  -1    0.17    0.03
   0   2   1    0.15    0.03
   0   2   1    0.21    0.04
  -1  -2  -1  132.11    3.16
  -1  -2  -1  128.78    3.18
  -1  -2  -1  130.60    3.12
  -1  -2  -1  131.99    3.14
  -1  -2  -1  135.39    3.11
   1   2   1  131.51    3.27
   1   2   1  131.40    3.20
   1   2   1  133.00    3.15
   1   2   1  130.21    3.24
  -2  -2  -1  214.08    5.83
  -2  -2  -1  215.47    5.19
  -2  -2  -1  213.36    5.12
  -2  -2  -1  214.16    5.01
  -2  -2  -1  215.92    4.99
   2   2   1  211.46    5.25
   2   2   1  205.06    5.19
   2   2   1  216.07    6.66
   2   2   1  208.35    5.06
  -3  -2  -1   56.58    1.35
  -3  -2  -1   56.80    1.38
  -3  -2  -1   57.21    1.33
  -3  -2  -1   57.34    1.36
   3   2   1   55.95    1.40
   3   2   1   54.77    1.42
   3   2   1   57.78    1.38
   3   2   1   54.51    1.35
  -4  -2  -1   11.06    0.34
  -4  -2  -1   10.85    0.32
  -4  -2  -1   11.07    0.30
   4   2   1   10.90    0.34
   4   2   1   10.54    0.39
   4   2   1   10.95    0.36
   4   2   1   10.80    0.31
   5   2   1    0.01    0.06
   5   2   1   -0.03    0.04
   5   2   1   -0.01    0.06
  -6  -2  -1    0.18    0.07
  -6  -2  -1    0.22    0.07
   6   2   1    0.19    0.09
   6   2   1    0.15    0.06
   6   2   1    0.36    0.10
   6  -3  -1    3.83    0.20
   6  -3  -1    3.77    0.24
   6  -3  -1    3.67    0.25
  -6   3   1    3.98    0.23
  -6   3   1    3.48    0.23
  -6   3   1    3.31    0.27
   5  -3  -1    2.02    0.15
   5  -3  -1    2.04    0.19
   5  -3  -1    2.21    0.18
   5  -3  -1    2.00    0.15
  -5   3   1    1.89    0.20
  -5   3   1    2.16    0.17
   4  -3  -1    0.06    0.04
   4  -3  -1    0.08    0.06
   4  -3  -1    0.02    0.05
   4  -3  -1    0.07    0.06
   4  -3  -1    0.03    0.05
  -4   3   1    0.11    0.06
  -4   3   1    0.02    0.07
  -4   3   1   -0.01    0.06
   3  -3  -1    5.11    0.20
   3  -3  -1    4.88    0.20
   3  -3  -1    4.77    0.18
   3  -3  -1    5.04    0.17
   3  -3  -1    4.81    0.17
  -3   3   1    5.09    0.21
  -3   3   1    5.07    0.19
  -3   3   1    5.14    0.18
  -3   3   1    5.15    0.20
   2  -3  -1    0.09    0.03
   2  -3  -1    0.09    0.03
   2  -3  -1    0.09    0.03
   2  -3  -1    0.07    0.04
   2  -3  -1    0.09    0.02
  -2   3   1    0.12    0.05
  -2   3   1    0.04    0.04
  -2   3   1    0.08    0.04
   1  -3  -1   76.45    1.86
   1  -3  -1   77.27    1.92
   1  -3  -1   77.90    1.84
   1  -3  -1   75.34    1.83
   1  -3  -1   80.43    1.84
  -1   3   1   76.10    1.85
  -1   3   1   76.83    1.85
  -1   3   1   80.50    1.87
   0  -3  -1   16.50    0.40
   0  -3  -1   15.38    0.41
   0  -3  -1   16.12    0.40
   0  -3  -1   16.85    0.40
   0  -3  -1   16.27    0.40
   0  -3  -1   15.96    0.40
   0   3   1   15.75    0.43
   0   3   1   16.01    0.41
   0   3   1   16.12    0.41
   0   3   1   14.90    0.42
   0   3   1   15.79    0.40
  -1  -3  -1   56.75    1.36
  -1  -3  -1   58.46    1.36
  -1  -3  -1   56.94    1.35
  -1  -3  -1   58.73    1.36
  -1  -3  -1   58.79    1.35
   1   3   1   55.38    1.40
   1   3   1   55.36    1.37
   1   3   1   57.03    1.35
   1   3   1   56.15    1.36
   1   3   1   55.75    1.39
  -2  -3  -1   18.01    0.46
  -2  -3  -1   18.66    0.43
  -2  -3  -1   18.18    0.44
  -2  -3  -1   17.90    0.47
  -2  -3  -1   18.23    0.45
   2   3   1   17.43    0.49
   2   3   1   17.98    0.48
   2   3   1   17.62    0.51
   2   3   1   16.96    0.45
  -3  -3  -1    0.46    0.08
  -3  -3  -1    0.71    0.05
  -3  -3  -1    0.52    0.07
  -3  -3  -1    0.65    0.07
   3   3   1    0.62    0.07
   3   3   1    0.62    0.11
   3   3   1    0.58    0.09
   3   3   1    0.58    0.10
  -4  -3  -1   10.97    0.36
  -4  -3  -1   10.89    0.33
  -4  -3  -1   10.94    0.31
   4   3   1   11.27    0.39
   4   3   1   11.09    0.41
   4   3   1   11.00    0.32
   4   3   1   11.07    0.36
  -5  -3  -1   -0.03    0.05
  -5  -3  -1   -0.06    0.05
   5   3   1    0.04    0.07
   5   3   1   -0.02    0.07
   5   3   1    0.00    0.05
  -6  -3  -1    1.80    0.19
  -6  -3  -1    1.77    0.16
   6   3   1    2.10    0.23
   6   3   1    1.90    0.18
   6   3   1    1.82    0.24
   5  -4  -1   -0.08    0.08
   5  -4  -1   -0.05    0.06
   5  -4  -1    0.08    0.06
  -5   4   1   -0.04    0.08
  -5   4   1    0.06    0.08
   4  -4  -1    5.34    0.26
   4  -4  -1    5.30    0.22
   4  -4  -1    5.66    0.21
  -4   4   1    5.45    0.24
  -4   4   1    5.35    0.27
  -4   4   1    5.13    0.24
   3  -4  -1    5.91    0.21
   3  -4  -1    6.16    0.25
   3  -4  -1    6.21    0.22
   3  -4  -1    6.16    0.21
  -3   4   1    6.39    0.24
  -3   4   1    6.27    0.26
   2  -4  -1   -0.01    0.03
   2  -4  -1   -0.03    0.04
   2  -4  -1   -0.05    0.03
   2  -4  -1    0.00    0.03
   2  -4  -1   -0.03    0.03
  -2   4   1   -0.01    0.06
  -2   4   1   -0.02    0.04
   1  -4  -1    0.12    0.03
   1  -4  -1    0.11    0.03
   1  -4  -1    0.08    0.04
   1  -4  -1    0.10    0.03
   1  -4  -1    0.12    0.03
  -1   4   1    0.22    0.05
  -1   4   1    0.09    0.04
   0  -4  -1    3.37    0.14
   0  -4  -1    3.73    0.13
   0  -4  -1    3.58    0.12
   0  -4  -1    3.65    0.13
   0  -4  -1    3.59    0.13
   0  -4  -1    3.57    0.13
   0   4   1    3.65    0.14
   0   4   1    3.57    0.16
   0   4   1    3.32    0.14
   0   4   1    3.59    0.12
   0   4   1    3.54    0.15
  -1  -4  -1    1.12    0.08
  -1  -4  -1    1.16    0.08
  -1  -4  -1    1.02    0.07
  -1  -4  -1    1.09    0.06
  -1  -4  -1    1.09    0.08
   1   4   1    0.98    0.10
   1   4   1    1.06    0.08
   1   4   1    1.07    0.08
   1   4   1    0.96    0.11
   1   4   1    1.06    0.06
  -2  -4  -1   21.31    0.56
  -2  -4  -1   20.86    0.54
  -2  -4  -1   21.64    0.52
  -2  -4  -1   21.10    0.53
   2   4   1   19.91    0.54
   2   4   1   21.21    0.56
   2   4   1   20.71    0.59
   2   4   1   20.67    0.61
  -3  -4  -1   42.95    1.06
  -3  -4  -1   43.10    1.04
  -3  -4  -1   41.65    1.02
   3   4   1   41.59    1.10
   3   4   1   41.58    1.06
   3   4   1   40.81    1.03
   3   4   1   40.59    1.12
  -4  -4  -1    2.44    0.15
  -4  -4  -1    2.55    0.17
  -4  -4  -1    2.31    0.13
   4   4   1    2.56    0.20
   4   4   1    2.36    0.21
   4   4   1    2.53    0.17
   4   4   1    2.50    0.14
  -5  -4  -1    2.15    0.14
  -5  -4  -1    2.42    0.19
  -5  -4  -1    2.38    0.17
   5   4   1    2.44    0.19
   5   4   1    2.48    0.25
   5   4   1    2.72    0.23
  -6  -4  -1    3.93    0.23
   6   4   1    4.58    0.34
   6   4   1    4.47    0.31
   5  -5  -1    0.08    0.07
   5  -5  -1   -0.07    0.09
  -5   5   1    0.12    0.10
  -5   5   1   -0.04    0.10
   4  -5  -1    2.46    0.17
   4  -5  -1    2.33    0.17
   4  -5  -1    2.20    0.21
  -4   5   1    2.48    0.20
  -4   5   1    2.19    0.20
  -4   5   1    1.83    0.23
   3  -5  -1    1.95    0.15
   3  -5  -1    1.74    0.13
   3  -5  -1    1.98    0.18
   3  -5  -1    1.89    0.14
  -3   5   1    1.78    0.20
  -3   5   1    1.83    0.17
  -3   5   1    1.93    0.17
   2  -5  -1    2.45    0.13
   2  -5  -1    2.44    0.13
   2  -5  -1    2.51    0.15
   2  -5  -1    2.63    0.17
  -2   5   1    2.41    0.16
  -2   5   1    2.17    0.16
  -2   5   1    2.46    0.19
   1  -5  -1   70.87    1.67
   1  -5  -1   69.15    1.69
   1  -5  -1   69.67    1.68
   1  -5  -1   68.45    1.67
   1  -5  -1   67.33    1.67
  -1   5   1   69.80    1.69
  -1   5   1   70.14    1.69
  -1   5   1   68.20    1.71
   0  -5  -1    0.08    0.04
   0  -5  -1    0.06    0.05
   0  -5  -1    0.03    0.04
   0  -5  -1    0.00    0.04
   0   5   1    0.08    0.06
   0   5   1    0.12    0.05
  -1  -5  -1    0.07    0.04
  -1  -5  -1    0.06    0.05
  -1  -5  -1    0.17    0.04
  -1  -5  -1   -0.01    0.04
  -1  -5  -1    0.09    0.05
   1   5   1    0.17    0.06
   1   5   1    0.14    0.05
  -2  -5  -1    6.44    0.24
  -2  -5  -1    6.35    0.21
  -2  -5  -1    6.48    0.23
   2   5   1    6.18    0.22
   2   5   1    6.22    0.23
   2   5   1    6.17    0.29
   2   5   1    6.40    0.27
  -3  -5  -1    8.39    0.27
  -3  -5  -1    8.82    0.31
  -3  -5  -1    8.77    0.29
   3   5   1    8.78    0.37
   3   5   1    8.81    0.35
   3   5   1    8.80    0.31
   3   5   1    8.31    0.28
  -4  -5  -1   -0.09    0.05
  -4  -5  -1   -0.07    0.06
   4   5   1   -0.03    0.05
   4   5   1   -0.04    0.07
   4   5   1    0.01    0.08
  -5  -5  -1    5.50    0.24
  -5  -5  -1    5.72    0.27
   5   5   1    6.00    0.29
   5   5   1    6.07    0.35
   5   5   1    6.03    0.37
   4  -6  -1    0.04    0.08
   4  -6  -1   -0.01    0.10
  -4   6   1   -0.18    0.11
  -4   6   1    0.14    0.10
   3  -6  -1    0.11    0.07
   3  -6  -1    0.13    0.07
   3  -6  -1    0.16    0.09
   3  -6  -1    0.05    0.07
  -3   6   1   -0.10    0.10
  -3   6   1    0.18    0.09
  -3   6   1    0.13    0.10
   2  -6  -1    5.39    0.23
   2  -6  -1    5.24    0.22
   2  -6  -1    5.42    0.23
   2  -6  -1    5.80    0.28
  -2   6   1    5.20    0.26
  -2   6   1    5.83    0.26
  -2   6   1    5.96    0.29
   1  -6  -1   40.05    1.05
   1  -6  -1   43.33    1.06
   1  -6  -1   42.11    1.07
  -1   6   1   42.67    1.09
  -1   6   1   43.83    1.08
  -1   6   1   41.65    1.12
   0  -6  -1    0.28    0.06
   0  -6  -1    0.28    0.07
   0  -6  -1    0.37    0.06
   0  -6  -1    0.28    0.06
   0   6   1    0.37    0.08
   0   6   1    0.32    0.09
  -1  -6  -1    2.63    0.15
  -1  -6  -1    2.62    0.16
   1   6   1    2.94    0.17
   1   6   1    3.01    0.21
  -2  -6  -1    1.17    0.15
  -2  -6  -1    1.48    0.13
   2   6   1    1.76    0.19
   2   6   1    1.75    0.14
  -3  -6  -1    1.98    0.18
  -3  -6  -1    2.17    0.16
   3   6   1    2.50    0.17
   3   6   1    2.60    0.23
   3   6   1    2.41    0.23
  -4  -6  -1    0.13    0.13
  -4  -6  -1    0.10    0.11
  -4  -6  -1    0.06    0.09
   4   6   1    0.23    0.10
   2  -7  -1    1.02    0.16
   1  -7  -1    1.05    0.14
   1  -7  -1    1.22    0.14
   1  -7  -1    1.00    0.14
  -1   7   1    1.13    0.20
   0  -7  -1    0.58    0.12
   0   7   1    0.62    0.11
   0   7   1    0.94    0.18
  -1  -7  -1    6.18    0.27
   1   7   1    6.88    0.33
   2   7   1    3.44    0.26
   2   7   1    3.34    0.20
   2   6  -2    0.29    0.10
   2   6  -2    0.38    0.09
  -2  -6   2    0.12    0.08
  -2  -6   2    0.31    0.07
   1   6  -2    0.11    0.08
   1   6  -2    0.17    0.08
  -1  -6   2    0.02    0.07
  -1  -6   2    0.13    0.06
   0   6  -2    4.33    0.23
   0  -6   2    4.17    0.22
   0  -6   2    4.03    0.19
  -1   6  -2    2.86    0.20
  -1   6  -2    3.42    0.21
   1  -6   2    3.59    0.20
   1  -6   2    2.95    0.18
  -2   6  -2   -0.08    0.08
  -2   6  -2    0.01    0.09
   2  -6   2    0.06    0.06
   2  -6   2    0.05    0.06
   2  -6   2    0.05    0.07
   2  -6   2    0.22    0.08
  -3   6  -2    0.85    0.13
  -3   6  -2    1.04    0.19
   3  -6   2    1.45    0.22
   3   5  -2    0.01    0.08
   3   5  -2    0.06    0.07
  -3  -5   2   -0.06    0.05
   2   5  -2    4.12    0.21
   2   5  -2    3.93    0.25
  -2  -5   2    3.59    0.22
  -2  -5   2    3.80    0.20
  -2  -5   2    4.14    0.17
   1   5  -2    1.83    0.17
   1   5  -2    1.75    0.15
  -1  -5   2    1.55    0.16
  -1  -5   2    1.76    0.12
  -1  -5   2    1.60    0.14
   0   5  -2    5.29    0.22
   0   5  -2    5.61    0.25
   0   5  -2    5.93    0.23
   0  -5   2    5.50    0.20
   0  -5   2    5.49    0.22
   0  -5   2    5.75    0.23
  -1   5  -2    2.83    0.18
  -1   5  -2    3.27    0.18
  -1   5  -2    3.27    0.19
   1  -5   2    3.40    0.17
   1  -5   2    3.12    0.15
   1  -5   2    3.15    0.16
   1  -5   2    2.96    0.16
   1  -5   2    3.04    0.17
  -2   5  -2   10.32    0.35
  -2   5  -2   10.20    0.34
   2  -5   2   10.16    0.33
   2  -5   2    9.76    0.32
   2  -5   2    9.99    0.33
   2  -5   2   10.26    0.32
  -3   5  -2    7.75    0.31
  -3   5  -2    7.37    0.29
   3  -5   2    7.41    0.28
   3  -5   2    7.19    0.27
   3  -5   2    7.24    0.27
   3  -5   2    7.66    0.28
  -4   5  -2   -0.12    0.09
  -4   5  -2    0.00    0.09
   4  -5   2    0.07    0.06
   4  -5   2    0.03    0.07
   4  -5   2   -0.02    0.06
   4   4  -2    6.89    0.36
   4   4  -2    6.95    0.36
   4   4  -2    7.16    0.30
  -4  -4   2    7.74    0.30
  -4  -4   2    6.45    0.28
  -4  -4   2    8.26    0.35
   3   4  -2    1.61    0.14
   3   4  -2    1.57    0.18
   3   4  -2    1.52    0.19
  -3  -4   2    1.05    0.16
  -3  -4   2    1.48    0.11
  -3  -4   2    1.08    0.14
  -3  -4   2    1.44    0.15
   2   4  -2   31.07    0.89
   2   4  -2   32.90    0.88
   2   4  -2   32.03    0.84
  -2  -4   2   31.54    0.83
  -2  -4   2   33.50    0.81
  -2  -4   2   30.70    0.85
  -2  -4   2   32.97    0.85
  -2  -4   2   33.36    0.82
   1   4  -2   -0.02    0.05
   1   4  -2   -0.02    0.05
  -1  -4   2   -0.06    0.05
  -1  -4   2   -0.04    0.04
   0   4  -2    1.09    0.11
   0  -4   2    0.92    0.09
   0  -4   2    1.06    0.13
   0  -4   2    1.07    0.10
   0  -4   2    1.01    0.08
   0  -4   2    1.03    0.11
  -1   4  -2   23.44    0.61
  -1   4  -2   23.00    0.61
  -1   4  -2   23.10    0.61
   1  -4   2   22.79    0.61
   1  -4   2   22.11    0.60
   1  -4   2   22.67    0.59
   1  -4   2   23.37    0.59
   1  -4   2   23.08    0.59
  -2   4  -2   11.06    0.33
  -2   4  -2   10.37    0.32
  -2   4  -2   10.49    0.33
   2  -4   2    9.98    0.30
   2  -4   2   10.15    0.32
   2  -4   2   10.12    0.31
   2  -4   2    9.93    0.31
   2  -4   2   10.12    0.31
  -3   4  -2    6.12    0.24
  -3   4  -2    6.01    0.25
   3  -4   2    5.90    0.23
   3  -4   2    5.89    0.22
   3  -4   2    6.10    0.23
   3  -4   2    5.75    0.22
  -4   4  -2    0.84    0.16
  -4   4  -2    1.15    0.17
   4  -4   2    1.09    0.15
   4  -4   2    1.15    0.13
   4  -4   2    0.97    0.14
   4  -4   2    1.22    0.15
  -5   4  -2   19.09    0.58
  -5   4  -2   20.28    0.60
   5  -4   2   19.30    0.57
   5  -4   2   19.29    0.56
   5  -4   2   19.92    0.56
   5   3  -2   -0.05    0.08
   5   3  -2    0.02    0.10
   5   3  -2   -0.04    0.07
  -5  -3   2   -0.05    0.06
   4   3  -2    3.02    0.18
   4   3  -2    3.09    0.23
   4   3  -2    2.62    0.23
  -4  -3   2    2.55    0.19
  -4  -3   2    2.70    0.20
  -4  -3   2    2.53    0.17
  -4  -3   2    3.31    0.23
   3   3  -2    0.10    0.06
   3   3  -2    0.19    0.06
   3   3  -2    0.19    0.07
  -3  -3   2    0.04    0.05
  -3  -3   2    0.13    0.04
  -3  -3   2    0.19    0.06
  -3  -3   2    0.08    0.05
  -3  -3   2    0.07    0.05
   2   3  -2  190.33    4.65
   2   3  -2  202.37    4.71
   2   3  -2  194.77    4.69
   2   3  -2  187.82    4.71
  -2  -3   2  200.36    4.69
  -2  -3   2  203.53    4.68
  -2  -3   2  208.33    4.67
  -2  -3   2  205.37    4.67
  -2  -3   2  184.36    4.73
   1   3  -2    2.85    0.15
   1   3  -2    2.95    0.13
   1   3  -2    2.94    0.12
   1   3  -2    2.82    0.15
  -1  -3   2    2.97    0.13
  -1  -3   2    3.12    0.15
  -1  -3   2    2.90    0.10
  -1  -3   2    2.88    0.12
  -1  -3   2    3.10    0.13
  -1  -3   2    2.95    0.11
   0   3  -2    1.92    0.11
   0   3  -2    2.09    0.10
   0   3  -2    1.98    0.10
   0   3  -2    2.04    0.11
   0  -3   2    1.98    0.08
   0  -3   2    1.87    0.09
   0  -3   2    2.08    0.08
   0  -3   2    2.12    0.12
   0  -3   2    1.96    0.08
   0  -3   2    1.94    0.10
   0  -3   2    1.98    0.09
  -1   3  -2    2.16    0.11
  -1   3  -2    2.17    0.11
  -1   3  -2    2.11    0.11
   1  -3   2    2.24    0.10
   1  -3   2    2.25    0.09
   1  -3   2    2.26    0.10
   1  -3   2    2.17    0.11
   1  -3   2    2.22    0.11
  -2   3  -2    6.70    0.23
  -2   3  -2    6.98    0.21
  -2   3  -2    6.60    0.22
   2  -3   2    6.53    0.21
   2  -3   2    6.72    0.21
   2  -3   2    6.60    0.21
   2  -3   2    6.56    0.22
   2  -3   2    6.59    0.21
  -3   3  -2    1.71    0.18
  -3   3  -2    1.39    0.13
  -3   3  -2    1.63    0.12
   3  -3   2    1.64    0.12
   3  -3   2    1.74    0.11
   3  -3   2    1.56    0.11
   3  -3   2    1.59    0.10
   3  -3   2    1.75    0.12
  -4   3  -2    3.67    0.18
  -4   3  -2    3.36    0.19
   4  -3   2    3.46    0.16
   4  -3   2    3.68    0.17
   4  -3   2    3.90    0.20
   4  -3   2    3.69    0.18
   4  -3   2    3.84    0.18
  -5   3  -2   34.65    0.95
  -5   3  -2   34.61    0.96
  -5   3  -2   38.83    0.97
  -5   3  -2   37.28    0.99
   5  -3   2   38.79    0.97
   5  -3   2   39.06    0.98
   5  -3   2   37.84    0.96
   5  -3   2   39.17    0.96
  -6   3  -2    0.12    0.07
  -6   3  -2    0.19    0.07
  -6   3  -2    0.04    0.09
   6  -3   2    0.14    0.07
   6  -3   2    0.14    0.07
   6  -3   2    0.06    0.07
   5   2  -2    3.17    0.20
   5   2  -2    3.05    0.26
   5   2  -2    3.30    0.26
  -5  -2   2    2.57    0.18
  -5  -2   2    3.59    0.28
  -5  -2   2    2.93    0.21
  -5  -2   2    3.04    0.22
   4   2  -2    0.04    0.07
   4   2  -2    0.13    0.06
   4   2  -2    0.00    0.06
  -4  -2   2   -0.03    0.05
  -4  -2   2   -0.03    0.05
  -4  -2   2    0.08    0.06
  -4  -2   2   -0.03    0.05
   3   2  -2    6.29    0.23
   3   2  -2    7.46    0.30
   3   2  -2    7.71    0.29
   3   2  -2    7.26    0.26
  -3  -2   2    7.45    0.29
  -3  -2   2    7.71    0.21
  -3  -2   2    7.66    0.25
  -3  -2   2    7.60    0.23
  -3  -2   2    7.60    0.25
   2   2  -2   46.88    1.22
   2   2  -2   47.09    1.17
   2   2  -2   47.74    1.19
   2   2  -2   49.30    1.23
  -2  -2   2   48.94    1.19
  -2  -2   2   45.47    1.21
  -2  -2   2   49.97    1.18
  -2  -2   2   50.41    1.19
  -2  -2   2   51.49    1.16
   1   2  -2   14.81    0.40
   1   2  -2   14.81    0.42
   1   2  -2   14.73    0.39
   1   2  -2   15.72    0.42
  -1  -2   2   15.66    0.39
  -1  -2   2   14.98    0.39
  -1  -2   2   15.63    0.40
  -1  -2   2   13.97    0.41
  -1  -2   2   15.60    0.38
   0   2  -2   35.15    0.82
   0   2  -2   33.59    0.85
   0   2  -2   34.40    0.84
   0   2  -2   34.10    0.84
   0  -2   2   34.07    0.83
   0  -2   2   36.11    0.84
   0  -2   2   35.62    0.85
   0  -2   2   34.57    0.83
   0  -2   2   35.77    0.83
   0  -2   2   32.86    0.83
   0  -2   2   32.86    0.82
  -1   2  -2  198.52    4.71
  -1   2  -2  200.96    4.75
  -1   2  -2  196.89    4.74
   1  -2   2  208.56    5.50
   1  -2   2  198.72    4.73
   1  -2   2  189.89    4.76
   1  -2   2  192.16    4.70
   1  -2   2  198.86    4.76
  -2   2  -2   60.10    1.46
  -2   2  -2   61.29    1.45
  -2   2  -2   62.81    1.44
   2  -2   2   60.51    1.45
   2  -2   2   59.79    1.45
   2  -2   2   58.36    1.46
   2  -2   2   60.82    1.45
   2  -2   2   60.29    1.45
  -3   2  -2    3.00    0.12
  -3   2  -2    3.10    0.12
  -3   2  -2    2.75    0.14
   3  -2   2    2.95    0.12
   3  -2   2    2.86    0.13
   3  -2   2    3.07    0.11
   3  -2   2    2.78    0.12
   3  -2   2    3.08    0.13
   3  -2   2    2.91    0.14
  -4   2  -2    1.62    0.10
  -4   2  -2    1.29    0.13
  -4   2  -2    1.67    0.18
  -4   2  -2    1.67    0.11
  -4   2  -2    1.65    0.11
   4  -2   2    1.70    0.13
   4  -2   2    1.58    0.11
   4  -2   2    1.56    0.11
   4  -2   2    1.58    0.12
   4  -2   2    1.72    0.12
   4  -2   2    1.44    0.13
  -5   2  -2    2.00    0.14
  -5   2  -2    2.16    0.16
  -5   2  -2    2.22    0.14
  -5   2  -2    2.10    0.13
   5  -2   2    2.24    0.14
   5  -2   2    2.15    0.15
   5  -2   2    2.13    0.14
   5  -2   2    1.88    0.16
   5  -2   2    2.20    0.17
  -6   2  -2    0.42    0.07
  -6   2  -2    0.48    0.08
  -6   2  -2    0.36    0.09
   6  -2   2    0.44    0.08
   6  -2   2    0.41    0.08
   6  -2   2    0.46    0.08
   6   1  -2    1.44    0.25
   6   1  -2    1.57    0.19
   6   1  -2    1.53    0.24
  -6  -1   2    1.43    0.24
   5   1  -2    0.07    0.07
   5   1  -2    0.06    0.07
   5   1  -2    0.09    0.09
  -5  -1   2    0.13    0.08
  -5  -1   2    0.01    0.06
  -5  -1   2   -0.02    0.07
   4   1  -2    1.03    0.16
   4   1  -2    0.90    0.14
   4   1  -2    0.78    0.12
  -4  -1   2    0.80    0.10
  -4  -1   2    0.83    0.12
  -4  -1   2    0.63    0.11
  -4  -1   2    0.90    0.15
   3   1  -2    6.53    0.23
   3   1  -2    6.41    0.21
   3   1  -2    6.83    0.27
   3   1  -2    6.76    0.26
  -3  -1   2    6.79    0.18
  -3  -1   2    6.69    0.22
  -3  -1   2    6.65    0.22
  -3  -1   2    6.99    0.21
  -3  -1   2    6.44    0.26
   2   1  -2   57.27    1.42
   2   1  -2   58.13    1.40
   2   1  -2   57.68    1.44
   2   1  -2   60.46    1.45
  -2  -1   2   60.24    1.38
  -2  -1   2   58.19    1.41
  -2  -1   2   55.73    1.44
  -2  -1   2   59.97    1.40
  -2  -1   2   59.05    1.41
   1   1  -2   10.44    0.28
   1   1  -2   10.44    0.30
   1   1  -2   10.81    0.30
   1   1  -2   10.18    0.28
  -1  -1   2   10.39    0.28
  -1  -1   2    9.74    0.29
  -1  -1   2   10.93    0.27
  -1  -1   2   10.90    0.29
  -1  -1   2   10.89    0.26
   0   1  -2  112.56    2.64
   0   1  -2  110.36    2.69
   0   1  -2  113.34    2.64
   0   1  -2  111.63    2.70
   0   1  -2  110.50    2.68
   0  -1   2  109.62    2.73
   0  -1   2  118.41    2.73
   0  -1   2  115.42    2.69
   0  -1   2  105.80    2.65
   0  -1   2  112.84    2.76
   0  -1   2  113.93    2.71
  -1   1  -2   53.25    1.25
  -1   1  -2   52.43    1.25
  -1   1  -2   53.97    1.25
  -1   1  -2   54.27    1.25
   1  -1   2   53.21    1.29
   1  -1   2   51.71    1.25
   1  -1   2   51.20    1.24
   1  -1   2   50.42    1.26
   1  -1   2   53.20    1.27
   1  -1   2   51.78    1.24
  -2   1  -2    8.26    0.22
  -2   1  -2    8.52    0.23
  -2   1  -2    8.30    0.23
   2  -1   2    8.15    0.23
   2  -1   2    8.24    0.23
   2  -1   2    7.77    0.24
   2  -1   2    8.22    0.22
   2  -1   2    8.47    0.22
   2  -1   2    8.14    0.23
  -3   1  -2   26.95    0.66
  -3   1  -2   26.15    0.67
  -3   1  -2   26.54    0.66
   3  -1   2   26.95    0.67
   3  -1   2   27.19    0.68
   3  -1   2   27.02    0.67
   3  -1   2   26.25    0.67
   3  -1   2   26.79    0.66
   3  -1   2   26.63    0.68
   3  -1   2   26.13    0.68
  -4   1  -2    0.70    0.09
  -4   1  -2    0.79    0.08
  -4   1  -2    0.74    0.08
  -4   1  -2    0.83    0.07
  -4   1  -2    0.72    0.08
   4  -1   2    0.85    0.10
   4  -1   2    0.79    0.10
   4  -1   2    0.83    0.10
   4  -1   2    0.69    0.08
   4  -1   2    0.79    0.08
   4  -1   2    0.74    0.08
   4  -1   2    0.69    0.09
   4  -1   2    0.72    0.09
   4  -1   2    0.82    0.09
  -5   1  -2    7.61    0.26
  -5   1  -2    8.31    0.27
  -5   1  -2    8.08    0.26
  -5   1  -2    8.25    0.26
  -5   1  -2    8.03    0.25
   5  -1   2    8.41    0.27
   5  -1   2    8.17    0.28
   5  -1   2    8.03    0.31
   5  -1   2    7.97    0.30
   5  -1   2    8.50    0.27
   5  -1   2    8.32    0.27
   5  -1   2    8.45    0.27
   5  -1   2    8.71    0.26
   5  -1   2    8.08    0.28
  -6   1  -2    0.01    0.04
  -6   1  -2    0.07    0.05
  -6   1  -2    0.10    0.05
  -6   1  -2    0.09    0.05
  -6   1  -2    0.03    0.08
   6  -1   2    0.00    0.06
   6  -1   2    0.00    0.06
   6  -1   2    0.03    0.05
   6  -1   2    0.04    0.06
   6  -1   2    0.04    0.05
   6   0  -2   -0.07    0.10
   6   0  -2   -0.06    0.08
  -6   0   2   -0.08    0.06
  -6   0   2    0.06    0.09
   5   0  -2    5.68    0.29
   5   0  -2    5.67    0.25
   5   0  -2    5.39    0.30
   5   0  -2    4.96    0.23
  -5   0   2    5.42    0.23
  -5   0   2    5.86    0.30
  -5   0   2    5.44    0.24
   4   0  -2    7.75    0.26
   4   0  -2    7.94    0.28
   4   0  -2    8.06    0.31
   4   0  -2    7.87    0.32
  -4   0   2    7.69    0.26
  -4   0   2    8.10    0.26
  -4   0   2    7.87    0.31
  -4   0   2    8.19    0.24
   3   0  -2    0.00    0.04
   3   0  -2   -0.05    0.04
   3   0  -2   -0.02    0.03
   3   0  -2    0.00    0.02
   3   0  -2   -0.01    0.04
  -3   0   2   -0.02    0.03
  -3   0   2    0.00    0.02
  -3   0   2   -0.03    0.03
   2   0  -2   14.84    0.40
   2   0  -2   15.42    0.43
   2   0  -2   15.96    0.44
   2   0  -2   14.73    0.40
   2   0  -2   14.87    0.37
  -2   0   2   15.78    0.40
  -2   0   2   15.90    0.38
  -2   0   2   15.64    0.40
  -2   0   2   15.08    0.43
   1   0  -2    5.78    0.17
   1   0  -2    5.94    0.18
   1   0  -2    5.76    0.15
   1   0  -2    5.79    0.15
   1   0  -2    5.59    0.17
  -1   0   2    5.66    0.16
  -1   0   2    5.58    0.18
  -1   0   2    6.00    0.17
  -1   0   2    6.08    0.15
   0   0  -2   32.71    0.78
   0   0  -2   31.64    0.78
   0   0  -2   32.13    0.78
   0   0  -2   32.32    0.77
   0   0  -2   31.92    0.77
   0   0   2   33.21    0.79
   0   0   2   32.95    0.81
   0   0   2   31.85    0.81
   0   0   2   32.96    0.81
   0   0   2   32.91    0.77
  -1   0  -2  224.65    5.22
  -1   0  -2  227.26    5.20
  -1   0  -2  219.29    5.24
  -1   0  -2  222.90    5.25
   1   0   2  212.09    5.29
   1   0   2  213.28    5.26
   1   0   2  222.30    5.25
   1   0   2  218.69    5.31
   1   0   2  223.79    5.28
  -2   0  -2  536.21   12.66
  -2   0  -2  557.77   12.64
  -2   0  -2  542.96   12.66
  -2   0  -2  545.61   12.94
   2   0   2  538.35   12.67
   2   0   2  540.82   12.64
   2   0   2  522.12   12.79
   2   0   2  528.72   12.73
   2   0   2  525.80   12.81
   2   0   2  527.58   14.31
   2   0   2  539.28   13.63
   2   0   2  533.40   12.68
  -3   0  -2   38.72    0.93
  -3   0  -2   38.65    0.94
  -3   0  -2   38.86    0.93
  -3   0  -2   38.86    0.94
  -3   0  -2   38.34    0.94
   3   0   2   37.59    0.97
   3   0   2   40.15    0.93
   3   0   2   38.59    0.94
   3   0   2   38.32    0.95
   3   0   2   38.13    0.98
   3   0   2   38.67    0.95
   3   0   2   39.28    0.96
   3   0   2   40.02    0.94
   3   0   2   38.81    0.93
  -4   0  -2    6.55    0.20
  -4   0  -2    6.59    0.21
  -4   0  -2    6.86    0.21
  -4   0  -2    6.42    0.20
  -4   0  -2    6.60    0.21
   4   0   2    6.98    0.20
   4   0   2    6.88    0.21
   4   0   2    6.97    0.22
   4   0   2    6.75    0.26
   4   0   2    6.79    0.21
   4   0   2    7.02    0.21
   4   0   2    6.81    0.23
   4   0   2    6.78    0.24
   4   0   2    6.66    0.23
   4   0   2    6.99    0.23
  -5   0  -2    4.83    0.20
  -5   0  -2    5.27    0.18
  -5   0  -2    5.13    0.22
  -5   0  -2    4.88    0.19
  -5   0  -2    5.20    0.17
  -5   0  -2    5.19    0.19
  -5   0  -2    5.20    0.19
   5   0   2    5.24    0.23
   5   0   2    5.34    0.25
   5   0   2    5.00    0.21
   5   0   2    5.28    0.20
   5   0   2    5.37    0.21
   5   0   2    5.11    0.22
   5   0   2    5.04    0.19
  -6   0  -2    1.20    0.11
  -6   0  -2    1.12    0.13
  -6   0  -2    1.15    0.14
   6   0   2    0.92    0.14
   6   0   2    1.01    0.18
   6   0   2    1.00    0.15
   6   0   2    0.96    0.15
  -7   0  -2   -0.02    0.06
  -7   0  -2    0.09    0.06
   7   0   2   -0.11    0.08
   7   0   2   -0.07    0.07
   6  -1  -2    0.13    0.09
   6  -1  -2    0.11    0.11
  -6   1   2    0.04    0.06
  -6   1   2    0.11    0.10
   5  -1  -2    4.17    0.22
   5  -1  -2    4.16    0.21
   5  -1  -2    4.31    0.26
  -5   1   2    4.59    0.25
  -5   1   2    4.05    0.20
  -5   1   2    4.28    0.27
   4  -1  -2    9.84    0.31
   4  -1  -2    9.82    0.35
   4  -1  -2    9.70    0.32
   4  -1  -2    9.35    0.27
  -4   1   2    9.64    0.30
  -4   1   2    9.52    0.34
  -4   1   2    9.58    0.29
  -4   1   2    9.39    0.34
   3  -1  -2    0.03    0.02
   3  -1  -2    0.07    0.05
   3  -1  -2    0.06    0.02
   3  -1  -2    0.07    0.04
   3  -1  -2    0.05    0.04
  -3   1   2    0.06    0.02
  -3   1   2    0.07    0.03
  -3   1   2    0.02    0.04
  -3   1   2   -0.01    0.05
  -3   1   2    0.04    0.03
   2  -1  -2  343.69    8.48
   2  -1  -2  362.22    8.56
   2  -1  -2  354.73    8.39
   2  -1  -2  347.60    8.38
   2  -1  -2  351.47    8.46
  -2   1   2  353.40    8.59
  -2   1   2  366.10    8.40
  -2   1   2  362.66    8.47
  -2   1   2  353.01    8.57
   1  -1  -2    2.76    0.08
   1  -1  -2    2.88    0.11
   1  -1  -2    2.73    0.08
   1  -1  -2    2.86    0.10
   1  -1  -2    2.70    0.10
  -1   1   2    2.79    0.11
  -1   1   2    2.56    0.10
  -1   1   2    2.81    0.10
  -1   1   2    2.73    0.08
   0  -1  -2    0.04    0.03
   0  -1  -2   -0.03    0.03
   0  -1  -2   -0.01    0.03
   0  -1  -2   -0.02    0.02
   0  -1  -2    0.00    0.03
   0   1   2    0.04    0.04
   0   1   2    0.04    0.04
   0   1   2   -0.02    0.02
   0   1   2    0.10    0.05
  -1  -1  -2  220.15    5.88
  -1  -1  -2  218.58    5.35
  -1  -1  -2  216.84    5.19
  -1  -1  -2  222.93    5.27
   1   1   2  215.52    5.22
   1   1   2  222.20    6.29
   1   1   2  209.80    5.33
   1   1   2  221.76    5.27
  -2  -1  -2  126.77    2.98
  -2  -1  -2  126.37    2.97
  -2  -1  -2  127.83    2.97
  -2  -1  -2  127.15    3.04
   2   1   2  123.10    3.05
   2   1   2  124.21    4.21
   2   1   2  124.83    3.10
   2   1   2  123.99    3.16
   2   1   2  125.57    3.02
   2   1   2  125.16    3.06
  -3  -1  -2    6.51    0.21
  -3  -1  -2    6.73    0.18
  -3  -1  -2    6.64    0.19
  -3  -1  -2    7.00    0.18
  -3  -1  -2    6.70    0.20
   3   1   2    6.75    0.24
   3   1   2    6.82    0.18
   3   1   2    6.77    0.22
   3   1   2    6.85    0.21
   3   1   2    6.82    0.22
   3   1   2    6.59    0.21
  -4  -1  -2   14.78    0.37
  -4  -1  -2   14.72    0.37
  -4  -1  -2   14.40    0.39
  -4  -1  -2   13.85    0.40
  -4  -1  -2   14.79    0.38
  -4  -1  -2   14.23    0.42
   4   1   2   14.81    0.42
   4   1   2   14.18    0.42
   4   1   2   14.52    0.38
   4   1   2   14.80    0.41
   4   1   2   14.16    0.45
   4   1   2   14.77    0.43
  -5  -1  -2  110.42    2.60
  -5  -1  -2  107.67    2.62
  -5  -1  -2  108.63    2.58
  -5  -1  -2  107.08    2.58
  -5  -1  -2  105.03    2.64
   5   1   2  107.69    2.64
   5   1   2  109.99    2.65
   5   1   2  112.04    2.62
   5   1   2  110.06    2.65
   5   1   2  110.27    2.70
  -6  -1  -2    0.18    0.06
  -6  -1  -2    0.12    0.06
  -6  -1  -2    0.18    0.05
   6   1   2    0.05    0.07
   6   1   2    0.16    0.07
   6   1   2    0.13    0.06
  -7  -1  -2    0.10    0.07
  -7  -1  -2    0.08    0.07
   7   1   2    0.02    0.06
   7   1   2    0.03    0.08
   6  -2  -2    0.07    0.09
   6  -2  -2    0.18    0.08
  -6   2   2    0.20    0.10
   5  -2  -2    0.09    0.07
   5  -2  -2    0.03    0.07
   5  -2  -2    0.03    0.09
  -5   2   2   -0.02    0.08
  -5   2   2   -0.02    0.05
  -5   2   2    0.05    0.08
   4  -2  -2    2.39    0.12
   4  -2  -2    2.42    0.12
   4  -2  -2    2.60    0.19
   4  -2  -2    2.62    0.16
   4  -2  -2    2.38    0.16
  -4   2   2    2.48    0.14
  -4   2   2    2.36    0.19
  -4   2   2    2.47    0.17
   3  -2  -2   12.52    0.37
   3  -2  -2   12.04    0.32
   3  -2  -2   12.24    0.37
   3  -2  -2   12.76    0.39
   3  -2  -2   12.25    0.33
   3  -2  -2   12.71    0.34
  -3   2   2   11.91    0.37
  -3   2   2   12.69    0.34
  -3   2   2   12.68    0.38
  -3   2   2   12.61    0.33
   2  -2  -2  457.51   10.76
   2  -2  -2  446.00   10.70
   2  -2  -2  448.96   10.71
   2  -2  -2  438.48   10.62
   2  -2  -2  459.97   10.81
  -2   2   2  459.09   10.72
  -2   2   2  453.32   10.87
  -2   2   2  459.86   10.89
   1  -2  -2    0.13    0.02
   1  -2  -2    0.15    0.03
   1  -2  -2    0.12    0.02
  -1   2   2    0.12    0.03
  -1   2   2    0.10    0.03
   0  -2  -2   22.59    0.52
   0  -2  -2   21.41    0.53
   0  -2  -2   21.93    0.53
   0  -2  -2   22.05    0.52
   0  -2  -2   22.07    0.54
   0  -2  -2   21.84    0.53
   0   2   2   20.98    0.53
   0   2   2   20.82    0.52
   0   2   2   21.16    0.53
   0   2   2   22.14    0.55
   0   2   2   22.21    0.55
  -1  -2  -2   27.45    0.65
  -1  -2  -2   27.19    0.65
  -1  -2  -2   27.65    0.64
  -1  -2  -2   26.87    0.65
  -1  -2  -2   27.85    0.64
  -1  -2  -2   26.13    0.66
   1   2   2   25.98    0.68
   1   2   2   26.64    0.67
   1   2   2   26.71    0.66
   1   2   2   25.92    0.66
   1   2   2   27.53    0.64
  -2  -2  -2   84.11    1.98
  -2  -2  -2   82.26    1.98
  -2  -2  -2   82.90    1.96
  -2  -2  -2   83.69    1.97
  -2  -2  -2   83.67    1.99
   2   2   2   84.68    1.99
   2   2   2   82.97    2.01
   2   2   2   82.35    2.01
   2   2   2   84.30    1.98
   2   2   2   79.60    2.05
  -3  -2  -2   13.34    0.33
  -3  -2  -2   12.96    0.33
  -3  -2  -2   13.11    0.37
  -3  -2  -2   13.29    0.34
  -3  -2  -2   13.34    0.36
   3   2   2   13.37    0.36
   3   2   2   13.44    0.38
   3   2   2   12.38    0.33
   3   2   2   12.86    0.41
   3   2   2   12.77    0.38
   3   2   2   12.94    0.37
  -4  -2  -2    5.95    0.21
  -4  -2  -2    5.80    0.23
  -4  -2  -2    6.07    0.18
  -4  -2  -2    5.98    0.19
  -4  -2  -2    6.07    0.17
   4   2   2    5.98    0.24
   4   2   2    6.45    0.20
   4   2   2    5.91    0.23
   4   2   2    6.02    0.23
   4   2   2    5.48    0.26
  -5  -2  -2   64.86    1.62
  -5  -2  -2   64.53    1.60
  -5  -2  -2   64.68    1.57
   5   2   2   65.56    1.64
   5   2   2   64.07    1.62
   5   2   2   65.09    1.69
   5   2   2   65.67    1.63
  -6  -2  -2    2.17    0.18
  -6  -2  -2    2.04    0.13
  -6  -2  -2    1.98    0.16
   6   2   2    2.02    0.20
   6   2   2    2.06    0.18
   6   2   2    1.94    0.23
   6  -3  -2    1.01    0.19
   6  -3  -2    0.59    0.12
  -6   3   2    0.52    0.14
   5  -3  -2    0.95    0.17
   5  -3  -2    0.82    0.13
   5  -3  -2    1.17    0.17
   5  -3  -2    0.86    0.13
  -5   3   2    1.13    0.16
  -5   3   2    1.05    0.20
   4  -3  -2    0.36    0.08
   4  -3  -2    0.40    0.06
   4  -3  -2    0.37    0.06
   4  -3  -2    0.54    0.09
  -4   3   2    0.27    0.08
  -4   3   2    0.45    0.08
  -4   3   2    0.46    0.09
   3  -3  -2    6.77    0.26
   3  -3  -2    6.80    0.26
   3  -3  -2    6.80    0.22
   3  -3  -2    6.86    0.20
   3  -3  -2    6.78    0.22
  -3   3   2    7.08    0.22
  -3   3   2    7.09    0.27
  -3   3   2    6.96    0.24
  -3   3   2    7.28    0.27
   2  -3  -2   13.24    0.38
   2  -3  -2   13.33    0.39
   2  -3  -2   13.38    0.36
   2  -3  -2   14.51    0.36
   2  -3  -2   13.39    0.35
  -2   3   2   13.52    0.40
  -2   3   2   13.77    0.35
  -2   3   2   12.91    0.37
  -2   3   2   13.78    0.39
   1  -3  -2    1.21    0.07
   1  -3  -2    1.41    0.08
  -1   3   2    1.25    0.08
  -1   3   2    1.14    0.11
   0  -3  -2   81.59    1.92
   0  -3  -2   83.82    1.95
   0  -3  -2   83.99    1.93
   0  -3  -2   81.01    1.93
   0  -3  -2   81.48    1.92
   0  -3  -2   81.77    1.92
   0   3   2   82.50    2.67
   0   3   2   77.75    2.00
   0   3   2   77.04    1.93
   0   3   2   81.12    1.93
  -1  -3  -2  129.64    3.09
  -1  -3  -2  134.06    3.11
  -1  -3  -2  129.20    3.12
  -1  -3  -2  129.39    3.08
  -1  -3  -2  132.41    3.11
  -1  -3  -2  132.07    3.06
   1   3   2  129.89    3.10
   1   3   2  127.87    3.12
   1   3   2  124.96    3.19
   1   3   2  124.92    3.22
  -2  -3  -2   56.36    1.33
  -2  -3  -2   56.45    1.35
  -2  -3  -2   57.72    1.34
  -2  -3  -2   55.31    1.36
  -2  -3  -2   57.76    1.32
   2   3   2   54.13    1.33
   2   3   2   54.61    1.36
   2   3   2   56.25    1.40
   2   3   2   55.05    1.38
  -3  -3  -2   19.32    0.49
  -3  -3  -2   19.26    0.50
  -3  -3  -2   19.34    0.52
  -3  -3  -2   19.40    0.46
  -3  -3  -2   19.71    0.47
   3   3   2   18.28    0.48
   3   3   2   18.67    0.57
   3   3   2   18.98    0.52
   3   3   2   18.67    0.54
  -4  -3  -2    0.01    0.04
  -4  -3  -2   -0.04    0.04
  -4  -3  -2   -0.01    0.04
   4   3   2    0.05    0.04
   4   3   2    0.11    0.06
   4   3   2    0.01    0.05
  -5  -3  -2    0.37    0.07
  -5  -3  -2    0.54    0.09
  -5  -3  -2    0.62    0.13
   5   3   2    0.42    0.09
   5   3   2    0.33    0.08
   5   3   2    0.64    0.13
  -6  -3  -2    0.76    0.16
  -6  -3  -2    0.82    0.13
  -6  -3  -2    0.81    0.11
   6   3   2    0.92    0.16
   6   3   2    1.08    0.19
   6   3   2    0.95    0.22
   5  -4  -2    0.09    0.06
   5  -4  -2    0.01    0.07
   5  -4  -2    0.04    0.08
   5  -4  -2    0.03    0.09
  -5   4   2    0.10    0.09
   4  -4  -2    1.72    0.14
   4  -4  -2    1.95    0.14
   4  -4  -2    1.56    0.18
   4  -4  -2    1.71    0.18
  -4   4   2    1.65    0.20
  -4   4   2    1.72    0.17
   3  -4  -2   -0.01    0.04
   3  -4  -2   -0.01    0.04
   3  -4  -2    0.06    0.04
   3  -4  -2    0.01    0.06
  -3   4   2   -0.04    0.07
   2  -4  -2   10.60    0.30
   2  -4  -2   10.22    0.33
   2  -4  -2    9.92    0.28
  -2   4   2   10.84    0.33
  -2   4   2   10.29    0.34
  -2   4   2   10.05    0.31
   1  -4  -2    1.18    0.08
   1  -4  -2    1.17    0.08
   1  -4  -2    1.23    0.10
   1  -4  -2    1.19    0.08
  -1   4   2    1.33    0.11
  -1   4   2    1.31    0.13
  -1   4   2    1.42    0.07
  -1   4   2    1.30    0.10
   0  -4  -2   28.19    0.70
   0  -4  -2   29.95    0.70
   0  -4  -2   29.00    0.69
   0  -4  -2   27.81    0.71
   0  -4  -2   28.89    0.70
   0  -4  -2   29.30    0.70
   0   4   2   26.64    0.73
   0   4   2   27.89    0.74
   0   4   2   28.14    0.71
   0   4   2   27.83    0.70
  -1  -4  -2    1.65    0.08
  -1  -4  -2    1.67    0.09
  -1  -4  -2    1.70    0.09
  -1  -4  -2    1.60    0.08
  -1  -4  -2    1.64    0.08
  -1  -4  -2    1.55    0.09
   1   4   2    1.55    0.09
   1   4   2    1.45    0.12
   1   4   2    1.36    0.11
   1   4   2    1.53    0.10
   1   4   2    1.77    0.08
  -2  -4  -2    6.95    0.22
  -2  -4  -2    6.87    0.23
  -2  -4  -2    6.83    0.21
  -2  -4  -2    6.98    0.20
  -2  -4  -2    7.04    0.19
   2   4   2    6.74    0.21
   2   4   2    6.86    0.23
   2   4   2    6.56    0.27
   2   4   2    6.78    0.25
  -3  -4  -2    8.20    0.25
  -3  -4  -2    8.70    0.23
  -3  -4  -2    8.38    0.28
  -3  -4  -2    8.32    0.26
   3   4   2    8.23    0.30
   3   4   2    8.24    0.29
   3   4   2    8.26    0.33
   3   4   2    8.06    0.24
  -4  -4  -2   -0.01    0.04
  -4  -4  -2   -0.05    0.04
  -4  -4  -2   -0.03    0.04
   4   4   2   -0.01    0.04
   4   4   2   -0.03    0.05
   4   4   2    0.02    0.06
  -5  -4  -2    4.77    0.22
  -5  -4  -2    4.65    0.24
  -5  -4  -2    4.62    0.19
   5   4   2    4.69    0.24
   5   4   2    4.90    0.31
   5   4   2    5.08    0.28
  -6  -4  -2    0.49    0.09
  -6  -4  -2    0.44    0.08
   6   4   2    0.52    0.12
   5  -5  -2    1.51    0.17
  -5   5   2    1.17    0.21
  -5   5   2    1.33    0.20
   4  -5  -2    2.56    0.17
   4  -5  -2    2.46    0.17
   4  -5  -2    2.20    0.22
  -4   5   2    2.20    0.21
  -4   5   2    2.02    0.25
   3  -5  -2    0.08    0.06
   3  -5  -2    0.02    0.07
   3  -5  -2   -0.03    0.05
   3  -5  -2    0.05    0.05
  -3   5   2   -0.07    0.09
  -3   5   2   -0.05    0.08
   2  -5  -2    2.32    0.13
   2  -5  -2    2.57    0.17
   2  -5  -2    2.41    0.13
   2  -5  -2    2.41    0.15
  -2   5   2    2.48    0.20
  -2   5   2    2.32    0.16
   1  -5  -2    0.29    0.05
   1  -5  -2    0.34    0.06
   1  -5  -2    0.27    0.05
   1  -5  -2    0.30    0.05
  -1   5   2    0.38    0.08
  -1   5   2    0.37    0.07
  -1   5   2    0.30    0.06
   0  -5  -2   -0.02    0.04
   0  -5  -2    0.02    0.04
   0  -5  -2   -0.01    0.04
   0  -5  -2   -0.01    0.04
   0  -5  -2    0.06    0.04
   0   5   2    0.08    0.04
   0   5   2    0.02    0.05
   0   5   2    0.06    0.05
  -1  -5  -2   12.04    0.34
  -1  -5  -2   12.13    0.34
  -1  -5  -2   12.35    0.33
  -1  -5  -2   12.02    0.34
  -1  -5  -2   11.96    0.33
   1   5   2   11.22    0.34
   1   5   2   12.01    0.34
   1   5   2   12.20    0.39
   1   5   2   11.86    0.40
  -2  -5  -2   41.42    0.98
  -2  -5  -2   40.80    1.00
  -2  -5  -2   40.60    0.99
  -2  -5  -2   40.91    1.01
   2   5   2   39.50    1.06
   2   5   2   38.98    1.07
   2   5   2   38.20    0.99
   2   5   2   39.69    1.02
  -3  -5  -2    0.90    0.11
  -3  -5  -2    0.93    0.11
  -3  -5  -2    0.96    0.12
   3   5   2    1.00    0.16
   3   5   2    1.06    0.18
   3   5   2    0.94    0.13
  -4  -5  -2    3.01    0.18
  -4  -5  -2    3.09    0.19
  -4  -5  -2    2.98    0.16
   4   5   2    3.24    0.25
   4   5   2    3.01    0.19
   4   5   2    3.34    0.23
  -5  -5  -2    9.39    0.37
  -5  -5  -2    8.93    0.31
  -5  -5  -2    9.48    0.34
   5   5   2    9.57    0.45
   5   5   2    9.34    0.37
   5   5   2    9.93    0.43
   4  -6  -2    0.44    0.11
   4  -6  -2    0.39    0.09
  -4   6   2    0.27    0.13
   3  -6  -2    2.09    0.22
   3  -6  -2    2.08    0.17
   3  -6  -2    1.95    0.17
  -3   6   2    1.46    0.24
  -3   6   2    1.60    0.21
  -3   6   2    2.13    0.19
   2  -6  -2   26.08    0.71
   2  -6  -2   27.11    0.73
   2  -6  -2   26.50    0.72
   2  -6  -2   28.85    0.77
  -2   6   2   27.73    0.75
  -2   6   2   27.90    0.79
  -2   6   2   27.76    0.75
   1  -6  -2    0.18    0.06
   1  -6  -2    0.17    0.06
   1  -6  -2    0.12    0.07
   1  -6  -2    0.09    0.06
  -1   6   2    0.11    0.08
  -1   6   2    0.15    0.06
  -1   6   2    0.20    0.08
   0  -6  -2   -0.02    0.06
   0  -6  -2   -0.01    0.06
   0  -6  -2    0.08    0.05
   0  -6  -2    0.03    0.05
   0   6   2    0.13    0.07
   0   6   2    0.05    0.06
  -1  -6  -2    1.03    0.11
  -1  -6  -2    1.04    0.12
  -1  -6  -2    1.16    0.12
   1   6   2    1.33    0.16
   1   6   2    1.16    0.13
  -2  -6  -2    3.31    0.18
  -2  -6  -2    3.38    0.17
   2   6   2    3.50    0.23
   2   6   2    3.32    0.24
   2   6   2    3.28    0.17
  -3  -6  -2   -0.11    0.06
   3   6   2   -0.01    0.07
   3   6   2    0.04    0.08
  -4  -6  -2    6.54    0.27
  -4  -6  -2    7.04    0.30
  -4  -6  -2    7.21    0.31
   4   6   2    7.75    0.37
   4   6   2    7.49    0.39
   4   6   2    6.81    0.31
   2  -7  -2   11.52    0.37
   2  -7  -2   10.89    0.37
   2  -7  -2   12.09    0.43
  -2   7   2   10.76    0.42
  -2   7   2   11.45    0.40
  -2   7   2   11.28    0.44
   1  -7  -2    0.19    0.06
   1  -7  -2    0.12    0.06
  -1   7   2    0.02    0.09
  -1   7   2    0.21    0.10
   0  -7  -2    2.41    0.17
   0  -7  -2    2.32    0.16
   0  -7  -2    2.22    0.16
   0   7   2    2.05    0.19
   0   7   2    2.74    0.23
  -1  -7  -2    1.01    0.14
  -1  -7  -2    1.20    0.15
  -2  -7  -2    1.94    0.23
   2   7   2    2.60    0.24
   1   6  -3    1.03    0.17
   0   6  -3    6.04    0.28
   0  -6   3    5.91    0.28
   0  -6   3    5.84    0.27
  -1   6  -3    1.92    0.18
   1  -6   3    2.01    0.18
  -2   6  -3    0.14    0.09
   2  -6   3    0.16    0.08
   3   5  -3    0.53    0.12
  -3  -5   3    0.30    0.09
   2   5  -3    0.13    0.08
   2   5  -3    0.16    0.08
  -2  -5   3    0.10    0.07
   1   5  -3    6.20    0.26
   1   5  -3    5.77    0.29
  -1  -5   3    5.66    0.24
  -1  -5   3    5.92    0.27
  -1  -5   3    6.05    0.22
   0   5  -3    2.56    0.18
   0   5  -3    2.96    0.18
   0  -5   3    2.72    0.17
   0  -5   3    2.87    0.19
   0  -5   3    2.86    0.15
  -1   5  -3    1.06    0.14
  -1   5  -3    0.83    0.14
   1  -5   3    1.10    0.12
   1  -5   3    1.28    0.14
  -2   5  -3    2.44    0.18
  -2   5  -3    2.66    0.15
  -2   5  -3    2.39    0.19
   2  -5   3    2.77    0.18
   2  -5   3    2.47    0.15
   2  -5   3    2.47    0.16
   2  -5   3    2.54    0.16
  -3   5  -3    0.16    0.10
  -3   5  -3    0.19    0.06
  -3   5  -3    0.26    0.10
   3  -5   3    0.18    0.07
   3  -5   3    0.31    0.07
   3  -5   3    0.15    0.07
  -4   5  -3    1.32    0.22
  -4   5  -3    1.03    0.19
  -4   5  -3    1.54    0.15
  -4   5  -3    1.56    0.20
   4  -5   3    1.62    0.18
   4  -5   3    1.45    0.22
   4  -5   3    1.21    0.16
   4   4  -3    0.07    0.08
   4   4  -3    0.00    0.10
   4   4  -3   -0.08    0.09
  -4  -4   3   -0.13    0.08
  -4  -4   3    0.02    0.06
   3   4  -3    1.16    0.15
   3   4  -3    1.04    0.19
   3   4  -3    0.91    0.19
  -3  -4   3    0.96    0.15
  -3  -4   3    0.92    0.15
   2   4  -3    2.88    0.17
   2   4  -3    2.69    0.20
  -2  -4   3    2.48    0.19
  -2  -4   3    2.95    0.13
  -2  -4   3    2.42    0.16
   1   4  -3    5.29    0.24
   1   4  -3    5.36    0.22
   1   4  -3    5.21    0.20
  -1  -4   3    5.05    0.21
  -1  -4   3    5.16    0.23
  -1  -4   3    5.45    0.19
   0   4  -3    9.70    0.31
   0   4  -3    9.05    0.32
   0   4  -3    9.45    0.30
   0  -4   3    9.34    0.31
   0  -4   3    9.38    0.28
   0  -4   3    9.10    0.30
  -1   4  -3   28.40    0.74
  -1   4  -3   28.63    0.70
  -1   4  -3   28.04    0.74
   1  -4   3   27.97    0.71
   1  -4   3   28.50    0.74
   1  -4   3   28.29    0.72
   1  -4   3   26.94    0.73
   1  -4   3   27.44    0.72
  -2   4  -3   10.94    0.32
  -2   4  -3   11.20    0.35
  -2   4  -3   11.22    0.34
   2  -4   3   10.77    0.33
   2  -4   3   10.87    0.32
   2  -4   3   10.39    0.33
   2  -4   3   10.39    0.34
   2  -4   3   10.78    0.35
  -3   4  -3    0.15    0.05
  -3   4  -3    0.06    0.07
  -3   4  -3    0.09    0.07
   3  -4   3    0.06    0.06
   3  -4   3    0.09    0.05
   3  -4   3    0.16    0.05
   3  -4   3    0.10    0.06
   3  -4   3    0.17    0.06
  -4   4  -3    0.77    0.13
  -4   4  -3    0.91    0.18
   4  -4   3    0.94    0.14
   4  -4   3    0.88    0.14
   4  -4   3    1.13    0.15
   4  -4   3    1.14    0.14
  -5   4  -3    0.00    0.07
  -5   4  -3    0.02    0.07
   5  -4   3    0.06    0.07
   5  -4   3    0.01    0.07
   5  -4   3   -0.02    0.07
   5  -4   3    0.05    0.07
   5   3  -3    4.17    0.25
   5   3  -3    3.64    0.32
   5   3  -3    3.62    0.30
   4   3  -3    0.31    0.10
   4   3  -3    0.25    0.11
   4   3  -3    0.43    0.09
  -4  -3   3    0.35    0.07
  -4  -3   3    0.18    0.08
  -4  -3   3    0.37    0.10
   3   3  -3   34.10    0.93
   3   3  -3   31.98    0.92
   3   3  -3   33.91    0.88
  -3  -3   3   32.43    0.88
  -3  -3   3   32.02    0.85
  -3  -3   3   33.37    0.91
  -3  -3   3   34.16    0.86
   2   3  -3    0.10    0.05
   2   3  -3    0.03    0.06
   2   3  -3    0.17    0.04
   2   3  -3    0.04    0.06
  -2  -3   3    0.07    0.04
  -2  -3   3    0.15    0.04
  -2  -3   3    0.07    0.06
  -2  -3   3    0.09    0.05
  -2  -3   3    0.10    0.05
   1   3  -3    0.46    0.09
   1   3  -3    0.39    0.08
   1   3  -3    0.36    0.07
  -1  -3   3    0.28    0.05
  -1  -3   3    0.23    0.06
  -1  -3   3    0.36    0.09
  -1  -3   3    0.31    0.06
   0   3  -3   29.49    0.70
   0   3  -3   28.40    0.74
   0   3  -3   29.23    0.73
   0   3  -3   28.75    0.71
   0   3  -3   28.05    0.75
   0  -3   3   29.03    0.71
   0  -3   3   28.76    0.74
   0  -3   3   28.89    0.72
   0  -3   3   29.11    0.73
   0  -3   3   28.14    0.70
   0  -3   3   28.40    0.71
  -1   3  -3   11.44    0.30
  -1   3  -3   11.20    0.31
  -1   3  -3   11.43    0.33
  -1   3  -3   11.08    0.32
  -1   3  -3   10.99    0.32
   1  -3   3   11.14    0.31
   1  -3   3   10.82    0.33
   1  -3   3   10.84    0.32
   1  -3   3   11.06    0.30
   1  -3   3   11.07    0.31
  -2   3  -3    9.28    0.28
  -2   3  -3    8.40    0.28
  -2   3  -3    9.64    0.29
  -2   3  -3   10.05    0.30
   2  -3   3    9.75    0.28
   2  -3   3    9.25    0.29
   2  -3   3    9.45    0.27
   2  -3   3    9.50    0.30
   2  -3   3    9.65    0.28
  -3   3  -3    2.67    0.16
  -3   3  -3    2.39    0.14
  -3   3  -3    2.43    0.13
  -3   3  -3    2.47    0.15
   3  -3   3    2.48    0.14
   3  -3   3    2.54    0.15
   3  -3   3    2.61    0.13
   3  -3   3    2.49    0.15
   3  -3   3    2.37    0.14
  -4   3  -3   64.13    1.64
  -4   3  -3   64.33    1.65
  -4   3  -3   69.91    1.65
  -4   3  -3   68.26    1.67
   4  -3   3   68.98    1.66
   4  -3   3   67.51    1.68
   4  -3   3   66.72    1.65
   4  -3   3   68.45    1.67
   4  -3   3   67.93    1.64
  -5   3  -3    0.51    0.10
  -5   3  -3    0.84    0.14
  -5   3  -3    0.60    0.08
  -5   3  -3    0.63    0.10
   5  -3   3    0.73    0.09
   5  -3   3    0.80    0.14
   5  -3   3    0.74    0.10
  -6   3  -3   -0.04    0.07
   6  -3   3   -0.04    0.10
   6  -3   3    0.02    0.07
   6  -3   3   -0.04    0.07
   5   2  -3    1.62    0.23
   5   2  -3    1.71    0.19
   5   2  -3    1.23    0.24
  -5  -2   3    1.23    0.20
  -5  -2   3    1.77    0.26
   4   2  -3    1.89    0.17
   4   2  -3    1.62    0.20
   4   2  -3    1.64    0.22
  -4  -2   3    1.25    0.17
  -4  -2   3    1.27    0.14
  -4  -2   3    1.75    0.21
  -4  -2   3    1.77    0.17
   3   2  -3  106.85    2.62
   3   2  -3  101.38    2.54
   3   2  -3  107.01    2.57
   3   2  -3  102.80    2.61
  -3  -2   3  110.64    2.54
  -3  -2   3  105.94    2.60
  -3  -2   3  107.29    2.56
  -3  -2   3  109.02    2.56
   2   2  -3    3.19    0.15
   2   2  -3    3.07    0.13
   2   2  -3    2.81    0.18
  -2  -2   3    3.03    0.14
  -2  -2   3    3.12    0.11
  -2  -2   3    2.95    0.14
  -2  -2   3    2.68    0.17
  -2  -2   3    2.99    0.16
   1   2  -3    2.41    0.11
   1   2  -3    2.42    0.12
   1   2  -3    2.38    0.13
  -1  -2   3    2.42    0.13
  -1  -2   3    2.34    0.11
  -1  -2   3    2.60    0.11
  -1  -2   3    2.30    0.12
  -1  -2   3    2.38    0.09
   0   2  -3   13.53    0.34
   0   2  -3   13.49    0.36
   0   2  -3   13.65    0.34
   0   2  -3   13.31    0.37
   0   2  -3   12.90    0.36
   0  -2   3   13.71    0.35
   0  -2   3   13.10    0.34
   0  -2   3   13.54    0.37
   0  -2   3   13.58    0.35
   0  -2   3   13.81    0.36
   0  -2   3   13.07    0.36
  -1   2  -3   33.03    0.82
  -1   2  -3   33.23    0.83
  -1   2  -3   33.94    0.81
  -1   2  -3   34.51    0.81
  -1   2  -3   33.31    0.81
   1  -2   3   33.01    0.81
   1  -2   3   33.58    0.82
   1  -2   3   34.23    0.82
   1  -2   3   32.01    0.81
   1  -2   3   31.96    0.80
   1  -2   3   33.47    0.83
  -2   2  -3    7.16    0.21
  -2   2  -3    7.18    0.21
  -2   2  -3    7.23    0.22
  -2   2  -3    7.14    0.23
   2  -2   3    7.00    0.21
   2  -2   3    7.27    0.21
   2  -2   3    6.97    0.23
   2  -2   3    6.92    0.22
   2  -2   3    7.09    0.22
   2  -2   3    6.91    0.19
  -3   2  -3    6.34    0.21
  -3   2  -3    5.99    0.22
   3  -2   3    6.18    0.22
   3  -2   3    6.30    0.21
   3  -2   3    6.32    0.21
   3  -2   3    6.33    0.20
   3  -2   3    6.35    0.22
  -4   2  -3   87.84    2.18
  -4   2  -3   88.29    2.17
  -4   2  -3   91.97    2.18
  -4   2  -3   88.43    2.19
   4  -2   3   93.18    2.19
   4  -2   3   92.44    2.20
   4  -2   3   92.17    2.22
   4  -2   3   90.96    2.19
   4  -2   3   92.07    2.18
  -5   2  -3   -0.02    0.07
  -5   2  -3   -0.01    0.08
  -5   2  -3   -0.06    0.05
  -5   2  -3   -0.05    0.05
   5  -2   3    0.01    0.06
   5  -2   3   -0.08    0.05
   5  -2   3   -0.04    0.06
   5  -2   3   -0.07    0.05
  -6   2  -3    1.53    0.18
  -6   2  -3    1.61    0.15
  -6   2  -3    1.59    0.13
   6  -2   3    1.55    0.16
   6  -2   3    1.71    0.16
   6  -2   3    1.62    0.16
   6  -2   3    1.73    0.18
   5   1  -3   -0.04    0.08
   5   1  -3    0.02    0.09
   5   1  -3    0.04    0.08
  -5  -1   3    0.00    0.09
  -5  -1   3   -0.08    0.06
   4   1  -3    6.85    0.32
   4   1  -3    5.96    0.24
   4   1  -3    6.73    0.31
   4   1  -3    6.45    0.27
  -4  -1   3    6.89    0.31
  -4  -1   3    6.59    0.23
  -4  -1   3    6.71    0.26
  -4  -1   3    6.53    0.26
   3   1  -3   15.27    0.49
   3   1  -3   16.19    0.50
   3   1  -3   15.68    0.46
   3   1  -3   15.73    0.44
  -3  -1   3   17.12    0.43
  -3  -1   3   15.71    0.49
  -3  -1   3   16.18    0.45
  -3  -1   3   16.53    0.45
   2   1  -3    8.80    0.30
   2   1  -3    8.55    0.25
   2   1  -3    8.25    0.29
   2   1  -3    8.56    0.27
  -2  -1   3    8.58    0.26
  -2  -1   3    8.58    0.26
  -2  -1   3    8.94    0.25
  -2  -1   3    9.05    0.22
  -2  -1   3    8.21    0.29
   1   1  -3   40.93    1.01
   1   1  -3   40.05    0.97
   1   1  -3   40.70    1.00
   1   1  -3   40.33    1.02
  -1  -1   3   39.65    1.02
  -1  -1   3   41.85    1.01
  -1  -1   3   41.73    0.99
  -1  -1   3   43.58    0.98
  -1  -1   3   41.82    1.00
   0   1  -3  192.52    4.67
   0   1  -3  192.68    4.59
   0   1  -3  196.02    4.59
   0   1  -3  187.97    4.65
   0   1  -3  190.79    4.64
   0  -1   3  202.64    4.70
   0  -1   3  197.40    4.68
   0  -1   3  193.32    4.73
   0  -1   3  198.66    4.63
   0  -1   3  196.56    4.73
  -1   1  -3  102.25    2.35
  -1   1  -3  100.50    2.37
  -1   1  -3  102.35    2.34
  -1   1  -3   99.47    2.36
   1  -1   3   98.12    2.36
   1  -1   3   96.41    2.37
   1  -1   3   97.33    2.36
   1  -1   3   99.10    2.42
   1  -1   3   98.08    2.45
   1  -1   3  101.84    2.45
  -2   1  -3    7.19    0.20
  -2   1  -3    7.09    0.21
  -2   1  -3    7.16    0.20
  -2   1  -3    7.17    0.20
   2  -1   3    6.70    0.22
   2  -1   3    7.08    0.20
   2  -1   3    6.69    0.20
   2  -1   3    7.10    0.21
   2  -1   3    7.16    0.21
   2  -1   3    6.97    0.20
   2  -1   3    6.91    0.20
  -3   1  -3    4.84    0.17
  -3   1  -3    4.82    0.16
  -3   1  -3    4.86    0.17
  -3   1  -3    5.17    0.16
   3  -1   3    4.92    0.16
   3  -1   3    4.98    0.17
   3  -1   3    4.81    0.18
   3  -1   3    4.88    0.18
   3  -1   3    5.07    0.17
   3  -1   3    4.91    0.17
   3  -1   3    5.05    0.17
  -4   1  -3    0.14    0.04
  -4   1  -3    0.13    0.04
  -4   1  -3    0.09    0.04
   4  -1   3    0.03    0.04
   4  -1   3    0.09    0.03
   4  -1   3    0.08    0.04
   4  -1   3    0.09    0.04
   4  -1   3    0.07    0.04
  -5   1  -3    0.53    0.09
  -5   1  -3    0.41    0.07
  -5   1  -3    0.40    0.06
   5  -1   3    0.30    0.08
   5  -1   3    0.48    0.07
   5  -1   3    0.43    0.07
   5  -1   3    0.36    0.07
   5  -1   3    0.46    0.06
  -6   1  -3    3.63    0.17
  -6   1  -3    3.68    0.18
  -6   1  -3    3.54    0.17
   6  -1   3    3.82    0.23
   6  -1   3    3.93    0.21
   6  -1   3    3.55    0.19
  -7   1  -3    1.77    0.15
  -7   1  -3    2.20    0.16
   7  -1   3    1.44    0.17
   7  -1   3    1.66    0.19
   6   0  -3   -0.16    0.11
   6   0  -3   -0.01    0.09
  -6   0   3   -0.01    0.11
   5   0  -3    0.22    0.09
   5   0  -3    0.32    0.11
   5   0  -3    0.34    0.09
  -5   0   3    0.25    0.07
  -5   0   3    0.39    0.10
   4   0  -3    0.74    0.10
   4   0  -3    0.95    0.12
   4   0  -3    1.08    0.16
  -4   0   3    1.01    0.12
  -4   0   3    1.18    0.17
  -4   0   3    0.80    0.12
   3   0  -3   12.00    0.35
   3   0  -3   11.75    0.36
   3   0  -3   11.89    0.39
  -3   0   3   12.32    0.35
  -3   0   3   12.47    0.35
  -3   0   3   12.01    0.39
  -3   0   3   12.55    0.32
   2   0  -3    0.40    0.07
   2   0  -3    0.36    0.04
   2   0  -3    0.46    0.07
   2   0  -3    0.46    0.09
  -2   0   3    0.42    0.07
  -2   0   3    0.41    0.09
  -2   0   3    0.54    0.08
   1   0  -3   63.93    1.56
   1   0  -3   66.34    1.58
   1   0  -3   64.99    1.53
   1   0  -3   64.50    1.54
   1   0  -3   62.72    1.56
  -1   0   3   67.84    1.57
  -1   0   3   66.01    1.57
  -1   0   3   65.96    1.60
  -1   0   3   65.29    2.16
   0   0  -3    6.40    0.19
   0   0  -3    6.52    0.19
   0   0  -3    6.26    0.18
   0   0  -3    6.37    0.17
   0   0  -3    6.45    0.17
   0   0   3    6.46    0.17
   0   0   3    6.49    0.18
   0   0   3    6.60    0.18
   0   0   3    6.61    0.20
   0   0   3    6.35    0.19
  -1   0  -3   68.17    1.58
  -1   0  -3   67.92    1.59
  -1   0  -3   64.83    1.58
  -1   0  -3   66.18    1.58
   1   0   3   69.59    1.61
   1   0   3   67.52    1.62
   1   0   3   65.81    1.61
   1   0   3   66.75    1.65
   1   0   3   66.47    1.70
  -2   0  -3   34.89    0.85
  -2   0  -3   35.85    0.85
  -2   0  -3   35.38    0.84
   2   0   3   35.64    0.85
   2   0   3   33.84    0.85
   2   0   3   35.00    0.86
   2   0   3   33.78    0.86
  -3   0  -3    4.40    0.15
  -3   0  -3    4.60    0.14
  -3   0  -3    4.51    0.15
  -3   0  -3    4.65    0.13
   3   0   3    4.55    0.16
   3   0   3    4.47    0.16
   3   0   3    4.45    0.15
   3   0   3    4.41    0.17
   3   0   3    4.26    0.17
  -4   0  -3   36.36    0.92
  -4   0  -3   36.53    0.91
  -4   0  -3   38.16    0.90
  -4   0  -3   36.71    0.91
  -4   0  -3   36.93    0.91
   4   0   3   36.25    0.96
   4   0   3   36.34    0.97
   4   0   3   38.07    0.93
   4   0   3   37.57    0.94
   4   0   3   37.20    0.92
   4   0   3   37.36    0.94
  -5   0  -3    0.06    0.04
  -5   0  -3    0.07    0.04
  -5   0  -3    0.09    0.04
  -5   0  -3    0.01    0.04
   5   0   3    0.05    0.05
   5   0   3    0.06    0.05
   5   0   3    0.06    0.04
   5   0   3    0.09    0.05
  -6   0  -3    0.72    0.09
  -6   0  -3    0.93    0.11
  -6   0  -3    0.99    0.11
  -6   0  -3    0.95    0.12
   6   0   3    0.71    0.13
   6   0   3    0.69    0.17
   6   0   3    0.77    0.16
   6   0   3    0.74    0.14
   6   0   3    0.70    0.12
  -7   0  -3    0.03    0.05
  -7   0  -3    0.07    0.07
   7   0   3   -0.03    0.07
   7   0   3   -0.02    0.07
   6  -1  -3    1.05    0.25
   6  -1  -3    0.96    0.20
  -6   1   3    1.37    0.28
   5  -1  -3    3.06    0.21
   5  -1  -3    3.02    0.21
   5  -1  -3    3.22    0.26
  -5   1   3    3.49    0.25
  -5   1   3    3.41    0.27
  -5   1   3    3.07    0.20
   4  -1  -3    0.11    0.07
   4  -1  -3    0.13    0.08
   4  -1  -3    0.13    0.06
  -4   1   3    0.13    0.05
  -4   1   3    0.20    0.07
  -4   1   3    0.14    0.07
   3  -1  -3    0.16    0.03
   3  -1  -3    0.21    0.03
   3  -1  -3    0.19    0.05
   3  -1  -3    0.20    0.06
  -3   1   3    0.17    0.05
  -3   1   3    0.11    0.06
  -3   1   3    0.17    0.04
   2  -1  -3    4.03    0.16
   2  -1  -3    4.48    0.18
   2  -1  -3    4.14    0.12
   2  -1  -3    4.11    0.16
   2  -1  -3    4.02    0.13
  -2   1   3    4.00    0.17
  -2   1   3    4.21    0.15
  -2   1   3    4.21    0.14
   1  -1  -3    4.89    0.16
   1  -1  -3    5.03    0.14
   1  -1  -3    5.26    0.18
   1  -1  -3    4.90    0.16
   1  -1  -3    4.95    0.14
  -1   1   3    5.05    0.18
  -1   1   3    4.78    0.16
  -1   1   3    5.22    0.16
  -1   1   3    4.97    0.15
   0  -1  -3  132.20    3.16
   0  -1  -3  136.68    3.21
   0  -1  -3  132.92    3.24
   0  -1  -3  134.14    3.20
   0  -1  -3  135.81    3.20
   0   1   3  131.25    3.28
   0   1   3  136.06    3.38
   0   1   3  134.48    3.29
   0   1   3  133.92    3.25
   0   1   3  136.93    3.19
  -1  -1  -3  637.21   15.78
  -1  -1  -3  642.60   15.88
  -1  -1  -3  637.50   16.23
  -1  -1  -3  634.37   15.62
   1   1   3  651.55   15.86
   1   1   3  619.59   17.46
   1   1   3  614.31   16.63
   1   1   3  615.84   16.22
   1   1   3  654.96   15.98
   1   1   3  632.59   16.43
  -2  -1  -3   34.84    0.83
  -2  -1  -3   34.47    0.82
  -2  -1  -3   34.44    0.82
  -2  -1  -3   34.60    0.82
   2   1   3   34.20    0.85
   2   1   3   34.26    0.83
   2   1   3   34.83    0.84
   2   1   3   33.23    0.82
   2   1   3   32.72    0.86
   2   1   3   33.19    0.84
  -3  -1  -3   13.14    0.35
  -3  -1  -3   12.95    0.33
  -3  -1  -3   13.24    0.33
  -3  -1  -3   12.74    0.34
   3   1   3   13.03    0.36
   3   1   3   12.89    0.36
   3   1   3   12.72    0.35
   3   1   3   12.53    0.37
   3   1   3   12.79    0.39
   3   1   3   13.27    0.35
  -4  -1  -3   16.94    0.48
  -4  -1  -3   17.64    0.45
  -4  -1  -3   18.57    0.46
  -4  -1  -3   17.92    0.47
  -4  -1  -3   17.99    0.46
   4   1   3   18.09    0.50
   4   1   3   18.10    0.49
   4   1   3   17.73    0.54
   4   1   3   17.47    0.49
   4   1   3   18.32    0.48
   4   1   3   18.14    0.51
  -5  -1  -3    0.66    0.12
  -5  -1  -3    0.52    0.10
  -5  -1  -3    0.72    0.08
  -5  -1  -3    0.74    0.07
  -5  -1  -3    0.80    0.09
   5   1   3    0.66    0.13
   5   1   3    0.62    0.12
   5   1   3    0.74    0.10
   5   1   3    0.73    0.11
   5   1   3    0.72    0.14
  -6  -1  -3    0.12    0.06
  -6  -1  -3    0.10    0.05
  -6  -1  -3    0.08    0.06
   6   1   3    0.05    0.07
   6   1   3    0.06    0.06
   6   1   3    0.10    0.07
   6   1   3    0.11    0.05
  -7  -1  -3    2.63    0.16
  -7  -1  -3    3.24    0.25
  -7  -1  -3    2.97    0.20
   7   1   3    2.62    0.25
   7   1   3    2.60    0.21
   7   1   3    2.55    0.26
   6  -2  -3    0.61    0.12
   6  -2  -3    0.38    0.14
  -6   2   3    0.33    0.12
   5  -2  -3    2.68    0.21
   5  -2  -3    3.14    0.21
   5  -2  -3    2.64    0.25
  -5   2   3    3.10    0.25
  -5   2   3    2.41    0.28
  -5   2   3    2.50    0.19
   4  -2  -3    0.77    0.14
   4  -2  -3    0.79    0.17
   4  -2  -3    0.83    0.14
   4  -2  -3    0.96    0.09
  -4   2   3    0.75    0.18
  -4   2   3    0.85    0.16
  -4   2   3    0.76    0.13
   3  -2  -3   91.00    2.21
   3  -2  -3   87.87    2.14
   3  -2  -3   89.18    2.18
   3  -2  -3   86.25    2.13
   3  -2  -3   91.56    2.18
  -3   2   3   91.37    2.20
  -3   2   3   93.19    2.16
  -3   2   3   89.80    2.19
   2  -2  -3    0.55    0.08
   2  -2  -3    0.71    0.09
   2  -2  -3    0.49    0.06
   2  -2  -3    0.50    0.06
  -2   2   3    0.47    0.08
  -2   2   3    0.51    0.11
  -2   2   3    0.50    0.09
   1  -2  -3    0.64    0.06
   1  -2  -3    0.51    0.05
   1  -2  -3    0.64    0.07
   1  -2  -3    0.52    0.05
  -1   2   3    0.62    0.07
  -1   2   3    0.43    0.07
  -1   2   3    0.47    0.09
   0  -2  -3   45.59    1.09
   0  -2  -3   46.56    1.08
   0  -2  -3   45.90    1.08
   0  -2  -3   44.63    1.08
   0  -2  -3   45.05    1.10
   0  -2  -3   45.78    1.09
   0   2   3   46.27    1.11
   0   2   3   44.17    1.08
   0   2   3   46.75    1.17
   0   2   3   45.70    1.09
   0   2   3   45.58    1.11
  -1  -2  -3   42.12    1.02
  -1  -2  -3   44.17    1.02
  -1  -2  -3   41.70    1.02
  -1  -2  -3   42.86    1.02
  -1  -2  -3   43.81    1.02
   1   2   3   42.62    1.04
   1   2   3   43.42    1.04
   1   2   3   42.41    1.03
   1   2   3   42.59    1.04
   1   2   3   41.61    1.06
  -2  -2  -3    8.41    0.22
  -2  -2  -3    8.26    0.24
  -2  -2  -3    8.58    0.23
  -2  -2  -3    8.44    0.22
   2   2   3    8.15    0.27
   2   2   3    8.01    0.24
   2   2   3    8.48    0.25
   2   2   3    8.22    0.25
   2   2   3    8.28    0.24
  -3  -2  -3   21.20    0.55
  -3  -2  -3   21.26    0.53
  -3  -2  -3   21.39    0.53
  -3  -2  -3   21.97    0.54
   3   2   3   21.56    0.57
   3   2   3   21.72    0.56
   3   2   3   21.15    0.60
   3   2   3   20.89    0.56
   3   2   3   21.31    0.58
  -4  -2  -3  223.88    5.32
  -4  -2  -3  226.31    5.47
  -4  -2  -3  226.81    5.38
  -4  -2  -3  225.87    5.30
  -4  -2  -3  227.81    5.31
   4   2   3  226.02    5.33
   4   2   3  232.71    5.47
   4   2   3  222.58    5.40
   4   2   3  219.36    5.49
   4   2   3  224.63    5.47
  -5  -2  -3    0.32    0.07
  -5  -2  -3    0.33    0.06
  -5  -2  -3    0.48    0.09
  -5  -2  -3    0.24    0.05
   5   2   3    0.26    0.06
   5   2   3    0.31    0.07
   5   2   3    0.31    0.06
   5   2   3    0.31    0.07
  -6  -2  -3    0.08    0.05
  -6  -2  -3    0.14    0.06
  -6  -2  -3    0.11    0.06
   6   2   3    0.01    0.05
   6   2   3    0.02    0.07
   6   2   3    0.03    0.06
  -7  -2  -3    0.27    0.08
  -7  -2  -3    0.20    0.07
   7   2   3    0.20    0.09
   5  -3  -3    0.35    0.07
   5  -3  -3    0.26    0.10
   5  -3  -3    0.30    0.09
  -5   3   3    0.40    0.12
   4  -3  -3    7.16    0.24
   4  -3  -3    7.08    0.29
   4  -3  -3    6.99    0.24
   4  -3  -3    7.31    0.29
  -4   3   3    7.54    0.33
  -4   3   3    7.50    0.32
  -4   3   3    7.29    0.28
  -4   3   3    6.77    0.26
   3  -3  -3   77.85    1.87
   3  -3  -3   76.50    1.87
   3  -3  -3   73.69    1.83
   3  -3  -3   73.01    1.82
  -3   3   3   78.17    1.83
  -3   3   3   77.47    1.88
  -3   3   3   73.93    1.85
  -3   3   3   78.76    1.88
   2  -3  -3    0.14    0.05
   2  -3  -3    0.13    0.03
   2  -3  -3    0.13    0.05
   2  -3  -3    0.10    0.03
   2  -3  -3    0.07    0.03
  -2   3   3    0.12    0.04
  -2   3   3    0.11    0.05
  -2   3   3    0.04    0.05
  -2   3   3    0.05    0.06
   1  -3  -3    9.46    0.28
   1  -3  -3    9.45    0.25
   1  -3  -3    9.61    0.26
   1  -3  -3    9.25    0.27
   1  -3  -3    9.61    0.26
  -1   3   3    9.44    0.30
  -1   3   3    9.62    0.29
  -1   3   3    9.33    0.27
  -1   3   3    9.48    0.27
   0  -3  -3   19.12    0.49
   0  -3  -3   20.11    0.47
   0  -3  -3   19.71    0.47
   0  -3  -3   19.24    0.48
   0  -3  -3   18.66    0.48
   0   3   3   19.69    0.51
   0   3   3   18.81    0.48
   0   3   3   18.16    0.51
   0   3   3   18.49    0.48
  -1  -3  -3   70.25    1.63
  -1  -3  -3   66.88    1.63
  -1  -3  -3   68.62    1.63
  -1  -3  -3   69.31    1.63
  -1  -3  -3   71.67    1.63
  -1  -3  -3   69.24    1.62
   1   3   3   70.47    1.62
   1   3   3   66.08    1.67
   1   3   3   67.28    1.64
   1   3   3   68.19    1.80
   1   3   3   65.79    1.64
  -2  -3  -3   21.10    0.52
  -2  -3  -3   20.89    0.53
  -2  -3  -3   20.56    0.54
  -2  -3  -3   20.33    0.50
  -2  -3  -3   20.80    0.51
   2   3   3   20.66    0.54
   2   3   3   20.19    0.54
   2   3   3   20.00    0.55
   2   3   3   20.19    0.58
  -3  -3  -3   11.83    0.32
  -3  -3  -3   11.78    0.30
  -3  -3  -3   11.55    0.35
  -3  -3  -3   11.48    0.33
  -3  -3  -3   11.76    0.30
   3   3   3   11.37    0.35
   3   3   3   10.99    0.35
   3   3   3   11.28    0.35
   3   3   3   11.06    0.39
  -4  -3  -3   73.10    1.82
  -4  -3  -3   74.21    1.78
  -4  -3  -3   75.21    1.80
  -4  -3  -3   75.25    1.76
   4   3   3   73.70    1.82
   4   3   3   73.92    1.88
   4   3   3   71.35    1.83
   4   3   3   73.88    1.83
  -5  -3  -3    4.98    0.19
  -5  -3  -3    5.14    0.24
  -5  -3  -3    5.01    0.21
   5   3   3    5.03    0.25
   5   3   3    5.15    0.29
   5   3   3    5.15    0.24
   5   3   3    4.96    0.23
  -6  -3  -3    4.34    0.22
  -6  -3  -3    4.59    0.25
  -6  -3  -3    4.44    0.20
   6   3   3    4.44    0.25
   6   3   3    4.82    0.27
   6   3   3    4.54    0.31
   5  -4  -3    0.12    0.07
   5  -4  -3    0.10    0.10
   5  -4  -3    0.18    0.09
   5  -4  -3    0.17    0.07
  -5   4   3    0.17    0.09
  -5   4   3   -0.03    0.11
   4  -4  -3    2.56    0.16
   4  -4  -3    2.62    0.16
   4  -4  -3    2.50    0.21
   4  -4  -3    2.05    0.21
  -4   4   3    1.98    0.29
  -4   4   3    2.28    0.20
  -4   4   3    2.56    0.24
   3  -4  -3    2.61    0.14
   3  -4  -3    2.56    0.18
   3  -4  -3    2.55    0.18
   3  -4  -3    2.61    0.15
  -3   4   3    2.50    0.21
  -3   4   3    2.32    0.22
  -3   4   3    2.46    0.17
   2  -4  -3   -0.02    0.05
   2  -4  -3    0.00    0.05
   2  -4  -3    0.01    0.04
   2  -4  -3   -0.02    0.04
   2  -4  -3    0.04    0.03
  -2   4   3   -0.01    0.04
   1  -4  -3   29.62    0.79
   1  -4  -3   30.64    0.75
   1  -4  -3   31.63    0.76
   1  -4  -3   30.96    0.77
  -1   4   3   30.74    0.80
  -1   4   3   29.78    0.76
  -1   4   3   30.40    0.77
  -1   4   3   31.59    0.81
   0  -4  -3   27.77    0.66
   0  -4  -3   26.67    0.68
   0  -4  -3   27.57    0.65
   0  -4  -3   26.99    0.67
   0  -4  -3   26.80    0.66
   0   4   3   26.61    0.67
   0   4   3   25.51    0.71
   0   4   3   26.34    0.67
   0   4   3   26.56    0.71
  -1  -4  -3   16.64    0.42
  -1  -4  -3   16.30    0.43
  -1  -4  -3   17.38    0.43
  -1  -4  -3   16.61    0.43
  -1  -4  -3   16.66    0.43
  -1  -4  -3   17.27    0.43
   1   4   3   15.72    0.48
   1   4   3   16.24    0.47
   1   4   3   16.51    0.43
   1   4   3   16.32    0.45
  -2  -4  -3   15.40    0.42
  -2  -4  -3   15.66    0.41
  -2  -4  -3   15.26    0.39
  -2  -4  -3   15.53    0.39
  -2  -4  -3   15.63    0.40
   2   4   3   14.58    0.47
   2   4   3   15.06    0.45
   2   4   3   14.73    0.39
   2   4   3   15.09    0.43
  -3  -4  -3    0.29    0.05
  -3  -4  -3    0.39    0.06
  -3  -4  -3    0.33    0.06
  -3  -4  -3    0.29    0.04
  -3  -4  -3    0.38    0.05
   3   4   3    0.33    0.07
   3   4   3    0.31    0.05
  -4  -4  -3    5.43    0.20
  -4  -4  -3    5.54    0.23
  -4  -4  -3    5.54    0.21
   4   4   3    5.40    0.24
   4   4   3    5.37    0.25
   4   4   3    5.45    0.29
  -5  -4  -3    0.23    0.07
  -5  -4  -3    0.26    0.06
  -5  -4  -3    0.33    0.07
   5   4   3    0.34    0.09
   5   4   3    0.27    0.09
   5   4   3    0.25    0.06
  -6  -4  -3    4.25    0.22
  -6  -4  -3    4.06    0.20
   6   4   3    4.51    0.33
   6   4   3    4.64    0.29
   4  -5  -3    0.05    0.07
   4  -5  -3    0.05    0.06
   4  -5  -3    0.00    0.09
  -4   5   3   -0.12    0.09
   3  -5  -3    0.26    0.07
   3  -5  -3    0.29    0.08
   3  -5  -3    0.40    0.07
  -3   5   3    0.25    0.11
  -3   5   3    0.21    0.09
   2  -5  -3    0.00    0.05
   2  -5  -3   -0.02    0.05
   2  -5  -3    0.05    0.04
   2  -5  -3    0.03    0.06
  -2   5   3    0.12    0.09
  -2   5   3   -0.02    0.06
  -2   5   3    0.01    0.08
   1  -5  -3    8.23    0.26
   1  -5  -3    8.54    0.27
   1  -5  -3    8.42    0.25
   1  -5  -3    8.54    0.29
  -1   5   3    8.60    0.32
  -1   5   3    8.96    0.31
  -1   5   3    8.58    0.28
   0  -5  -3   -0.04    0.04
   0  -5  -3   -0.01    0.04
   0  -5  -3    0.04    0.04
   0  -5  -3    0.00    0.04
   0   5   3    0.01    0.05
   0   5   3   -0.03    0.06
   0   5   3    0.04    0.04
  -1  -5  -3   12.15    0.34
  -1  -5  -3   12.04    0.34
  -1  -5  -3   12.48    0.34
  -1  -5  -3   12.44    0.33
   1   5   3   11.64    0.34
   1   5   3   11.89    0.35
   1   5   3   11.98    0.39
   1   5   3   11.90    0.40
  -2  -5  -3    5.05    0.19
  -2  -5  -3    5.11    0.17
  -2  -5  -3    5.20    0.16
  -2  -5  -3    4.91    0.18
  -2  -5  -3    4.87    0.19
   2   5   3    4.88    0.26
   2   5   3    4.96    0.23
   2   5   3    4.65    0.17
   2   5   3    4.96    0.20
  -3  -5  -3   -0.06    0.04
  -3  -5  -3   -0.07    0.04
  -3  -5  -3   -0.06    0.04
  -3  -5  -3    0.01    0.04
   3   5   3    0.03    0.06
   3   5   3   -0.05    0.04
   3   5   3    0.00    0.06
  -4  -5  -3    4.00    0.21
  -4  -5  -3    4.04    0.18
  -4  -5  -3    4.13    0.20
   4   5   3    4.27    0.25
   4   5   3    4.15    0.22
   4   5   3    4.29    0.29
  -5  -5  -3    1.41    0.16
  -5  -5  -3    1.35    0.18
  -5  -5  -3    1.29    0.14
   5   5   3    1.99    0.22
   5   5   3    1.82    0.25
   5   5   3    1.66    0.18
   3  -6  -3    2.84    0.23
   3  -6  -3    2.45    0.19
   3  -6  -3    2.78    0.18
  -3   6   3    2.56    0.23
  -3   6   3    2.43    0.27
  -3   6   3    2.95    0.21
   2  -6  -3    0.18    0.08
   2  -6  -3    0.08    0.08
   2  -6  -3    0.05    0.06
   2  -6  -3    0.08    0.06
  -2   6   3    0.07    0.10
  -2   6   3    0.03    0.08
  -2   6   3    0.18    0.07
   1  -6  -3   -0.06    0.05
   1  -6  -3    0.02    0.05
   1  -6  -3   -0.03    0.06
   1  -6  -3   -0.01    0.05
  -1   6   3    0.04    0.06
  -1   6   3   -0.02    0.08
  -1   6   3   -0.08    0.07
   0  -6  -3    2.78    0.15
   0  -6  -3    2.69    0.15
   0  -6  -3    2.70    0.15
   0   6   3    2.98    0.21
   0   6   3    2.79    0.17
  -1  -6  -3   20.34    0.55
  -1  -6  -3   20.25    0.54
  -1  -6  -3   20.84    0.54
  -1  -6  -3   21.11    0.55
   1   6   3   20.65    0.62
   1   6   3   19.79    0.55
   1   6   3   19.54    0.62
  -2  -6  -3    0.27    0.06
  -2  -6  -3    0.33    0.06
  -2  -6  -3    0.24    0.06
   2   6   3    0.29    0.08
   2   6   3    0.40    0.09
  -3  -6  -3    2.84    0.18
  -3  -6  -3    2.73    0.17
  -3  -6  -3    2.74    0.18
   3   6   3    3.15    0.26
   3   6   3    3.21    0.23
   3   6   3    2.94    0.20
  -4  -6  -3   15.23    0.47
  -4  -6  -3   15.00    0.46
  -4  -6  -3   15.55    0.50
   4   6   3   14.59    0.49
   4   6   3   15.93    0.56
   4   6   3   16.67    0.61
   2  -7  -3    0.14    0.10
   2  -7  -3    0.20    0.07
  -2   7   3    0.02    0.11
  -2   7   3    0.25    0.12
  -2   7   3    0.24    0.09
   1  -7  -3   -0.07    0.06
   1  -7  -3    0.05    0.06
   1  -7  -3    0.13    0.06
  -1   7   3   -0.12    0.09
  -1   7   3    0.12    0.10
   0  -7  -3    0.03    0.06
   0  -7  -3    0.10    0.06
   0  -7  -3    0.03    0.06
   0   7   3    0.14    0.09
   0   7   3   -0.08    0.08
  -1  -7  -3    0.71    0.13
  -1  -7  -3    0.39    0.08
   1   7   3    0.50    0.11
  -2  -7  -3   -0.11    0.06
   2   7   3    0.12    0.09
  -3  -7  -3    6.57    0.30
   3   7   3    8.14    0.38
   2   5  -4    1.52    0.19
  -2  -5   4    1.35    0.17
   1   5  -4    7.34    0.30
  -1  -5   4    6.56    0.30
  -1  -5   4    6.40    0.28
  -1  -5   4    6.90    0.25
   0   5  -4    2.20    0.17
   0   5  -4    2.59    0.19
   0  -5   4    2.59    0.20
   0  -5   4    2.48    0.18
   0  -5   4    2.40    0.16
  -1   5  -4   -0.06    0.07
  -1   5  -4    0.09    0.07
   1  -5   4    0.03    0.06
   1  -5   4    0.14    0.06
   1  -5   4    0.08    0.07
  -2   5  -4    3.32    0.18
  -2   5  -4    3.09    0.22
  -2   5  -4    3.47    0.20
  -2   5  -4    3.01    0.20
   2  -5   4    3.04    0.18
   2  -5   4    3.16    0.21
   2  -5   4    3.39    0.17
   2  -5   4    3.16    0.18
  -3   5  -4    1.03    0.13
  -3   5  -4    1.06    0.14
  -3   5  -4    0.89    0.16
   3  -5   4    1.37    0.18
   3  -5   4    0.86    0.14
   3  -5   4    0.93    0.14
   3   4  -4    0.19    0.10
   3   4  -4    0.33    0.10
  -3  -4   4    0.22    0.08
   2   4  -4    5.84    0.30
   2   4  -4    6.27    0.27
  -2  -4   4    5.77    0.28
  -2  -4   4    5.64    0.24
   1   4  -4    1.02    0.18
   1   4  -4    1.02    0.14
   1   4  -4    0.89    0.12
  -1  -4   4    1.22    0.11
  -1  -4   4    0.97    0.13
  -1  -4   4    0.92    0.15
   0   4  -4    4.77    0.21
   0   4  -4    4.58    0.21
   0  -4   4    4.53    0.20
   0  -4   4    4.89    0.22
   0  -4   4    4.86    0.19
  -1   4  -4    3.04    0.21
  -1   4  -4    2.73    0.18
  -1   4  -4    2.94    0.17
  -1   4  -4    3.07    0.16
   1  -4   4    2.90    0.15
   1  -4   4    2.88    0.14
   1  -4   4    2.86    0.16
   1  -4   4    2.81    0.14
   1  -4   4    3.30    0.18
  -2   4  -4    1.02    0.13
  -2   4  -4    0.69    0.14
  -2   4  -4    0.74    0.10
  -2   4  -4    0.76    0.11
   2  -4   4    0.66    0.11
   2  -4   4    0.84    0.13
   2  -4   4    0.67    0.11
   2  -4   4    0.81    0.11
  -3   4  -4    7.09    0.27
  -3   4  -4    7.07    0.25
  -3   4  -4    7.36    0.30
  -3   4  -4    6.79    0.26
   3  -4   4    7.05    0.25
   3  -4   4    7.59    0.29
   3  -4   4    6.88    0.26
   3  -4   4    7.24    0.28
   3  -4   4    7.06    0.26
  -4   4  -4    0.99    0.14
  -4   4  -4    0.70    0.11
  -4   4  -4    0.71    0.11
  -4   4  -4    0.88    0.13
   4  -4   4    1.08    0.14
   4  -4   4    0.88    0.14
   4  -4   4    0.65    0.09
  -5   4  -4    1.32    0.15
   5  -4   4    1.42    0.19
   5  -4   4    1.22    0.16
   4   3  -4   -0.05    0.09
   4   3  -4    0.01    0.08
  -4  -3   4    0.10    0.08
  -4  -3   4   -0.10    0.07
   3   3  -4    2.48    0.22
   3   3  -4    2.67    0.19
  -3  -3   4    2.14    0.20
  -3  -3   4    2.30    0.16
  -3  -3   4    2.23    0.19
  -3  -3   4    2.67    0.21
   2   3  -4    2.95    0.15
   2   3  -4    2.94    0.20
   2   3  -4    3.05    0.18
  -2  -3   4    2.86    0.18
  -2  -3   4    2.73    0.17
  -2  -3   4    2.49    0.19
  -2  -3   4    2.61    0.16
   1   3  -4   11.19    0.38
   1   3  -4   11.44    0.35
   1   3  -4   11.79    0.36
  -1  -3   4   11.67    0.34
  -1  -3   4   10.88    0.34
  -1  -3   4   11.34    0.37
  -1  -3   4   12.28    0.33
   0   3  -4   39.82    1.07
   0   3  -4   39.87    1.03
   0   3  -4   42.46    1.03
   0  -3   4   43.29    1.01
   0  -3   4   40.09    1.02
   0  -3   4   40.61    1.04
  -1   3  -4   11.48    0.31
  -1   3  -4   11.54    0.34
  -1   3  -4   11.11    0.32
  -1   3  -4   11.28    0.34
   1  -3   4   11.10    0.32
   1  -3   4   10.99    0.35
   1  -3   4   10.98    0.33
   1  -3   4   11.05    0.32
  -2   3  -4    0.52    0.09
  -2   3  -4    0.55    0.09
  -2   3  -4    0.58    0.10
  -2   3  -4    0.47    0.07
   2  -3   4    0.43    0.06
   2  -3   4    0.36    0.07
   2  -3   4    0.35    0.06
   2  -3   4    0.44    0.06
   2  -3   4    0.40    0.06
  -3   3  -4    5.08    0.22
  -3   3  -4    4.85    0.19
  -3   3  -4    4.53    0.20
  -3   3  -4    4.74    0.18
   3  -3   4    4.78    0.20
   3  -3   4    4.98    0.22
   3  -3   4    4.81    0.19
   3  -3   4    4.67    0.21
   3  -3   4    4.66    0.20
  -4   3  -4   -0.05    0.07
  -4   3  -4    0.00    0.05
  -4   3  -4   -0.03    0.05
   4  -3   4    0.12    0.06
   4  -3   4    0.03    0.05
   4  -3   4    0.11    0.07
   4  -3   4    0.03    0.06
   4  -3   4    0.04    0.06
  -5   3  -4   -0.03    0.06
  -5   3  -4   -0.11    0.06
   5  -3   4    0.06    0.07
   5  -3   4   -0.06    0.06
   5  -3   4   -0.04    0.06
   4   2  -4   20.15    0.60
   4   2  -4   18.29    0.64
  -4  -2   4   20.65    0.59
  -4  -2   4   20.00    0.64
  -4  -2   4   20.04    0.61
  -4  -2   4   19.43    0.59
   3   2  -4    0.06    0.07
   3   2  -4    0.04    0.05
   3   2  -4   -0.06    0.08
  -3  -2   4   -0.02    0.06
  -3  -2   4   -0.03    0.06
  -3  -2   4   -0.03    0.05
  -3  -2   4   -0.05    0.07
   2   2  -4    0.01    0.04
   2   2  -4    0.02    0.05
   2   2  -4    0.00    0.06
  -2  -2   4   -0.08    0.05
  -2  -2   4   -0.04    0.05
   1   2  -4   13.96    0.42
   1   2  -4   13.84    0.40
   1   2  -4   14.06    0.40
  -1  -2   4   14.82    0.37
  -1  -2   4   14.02    0.41
  -1  -2   4   13.94    0.39
  -1  -2   4   14.01    0.41
  -1  -2   4   14.50    0.39
   0   2  -4    5.13    0.16
   0   2  -4    5.17    0.15
   0   2  -4    4.87    0.18
   0   2  -4    5.08    0.19
   0   2  -4    5.25    0.19
   0  -2   4    5.37    0.18
   0  -2   4    5.30    0.17
   0  -2   4    5.12    0.19
   0  -2   4    5.09    0.18
   0  -2   4    5.04    0.18
  -1   2  -4   15.17    0.38
  -1   2  -4   15.08    0.39
  -1   2  -4   14.36    0.40
  -1   2  -4   14.96    0.41
   1  -2   4   14.46    0.41
   1  -2   4   14.41    0.39
   1  -2   4   14.85    0.39
   1  -2   4   14.64    0.40
  -2   2  -4    4.78    0.18
  -2   2  -4    4.41    0.17
  -2   2  -4    4.75    0.17
  -2   2  -4    4.37    0.16
   2  -2   4    4.45    0.17
   2  -2   4    4.68    0.16
   2  -2   4    4.60    0.17
   2  -2   4    4.38    0.19
   2  -2   4    4.51    0.17
   2  -2   4    4.74    0.20
  -3   2  -4  171.00    4.00
  -3   2  -4  169.78    4.01
  -3   2  -4  169.97    4.03
  -3   2  -4  169.55    4.00
   3  -2   4  172.75    4.02
   3  -2   4  167.26    4.04
   3  -2   4  172.38    4.02
   3  -2   4  168.53    4.01
   3  -2   4  165.71    4.03
  -4   2  -4    0.01    0.05
   4  -2   4    0.09    0.05
   4  -2   4   -0.07    0.05
   4  -2   4    0.02    0.05
   4  -2   4   -0.08    0.05
   4  -2   4    0.00    0.05
  -5   2  -4   -0.07    0.06
  -5   2  -4   -0.03    0.07
  -5   2  -4   -0.09    0.05
   5  -2   4    0.06    0.06
   5  -2   4   -0.12    0.06
   5  -2   4   -0.03    0.06
   5  -2   4   -0.08    0.06
  -6   2  -4    0.54    0.09
  -6   2  -4    0.50    0.10
  -6   2  -4    0.53    0.08
   6  -2   4    0.46    0.13
   6  -2   4    0.56    0.10
   5   1  -4    2.05    0.26
   5   1  -4    2.21    0.22
  -5  -1   4    2.00    0.26
  -5  -1   4    2.33    0.30
   4   1  -4   37.77    1.10
   4   1  -4   40.45    1.06
   4   1  -4   38.44    1.03
  -4  -1   4   40.80    1.04
  -4  -1   4   41.29    1.11
  -4  -1   4   41.69    1.05
   3   1  -4    1.86    0.19
   3   1  -4    2.53    0.15
   3   1  -4    2.50    0.16
  -3  -1   4    2.54    0.14
  -3  -1   4    2.19    0.16
  -3  -1   4    2.15    0.16
  -3  -1   4    2.12    0.20
   2   1  -4    2.39    0.13
   2   1  -4    2.37    0.14
   2   1  -4    2.14    0.16
  -2  -1   4    2.35    0.14
  -2  -1   4    2.43    0.12
  -2  -1   4    2.06    0.15
  -2  -1   4    2.24    0.14
   1   1  -4   13.95    0.35
   1   1  -4   14.01    0.39
   1   1  -4   13.91    0.40
   1   1  -4   14.44    0.35
   1   1  -4   14.43    0.41
  -1  -1   4   14.47    0.39
  -1  -1   4   14.10    0.41
  -1  -1   4   14.27    0.40
  -1  -1   4   14.92    0.36
  -1  -1   4   14.73    0.38
   0   1  -4   47.12    1.14
   0   1  -4   46.22    1.11
   0   1  -4   46.28    1.11
   0   1  -4   44.58    1.13
   0   1  -4   45.28    1.13
   0  -1   4   48.24    1.13
   0  -1   4   46.70    1.13
   0  -1   4   46.40    1.14
   0  -1   4   46.45    1.14
   0  -1   4   47.98    1.12
  -1   1  -4   14.68    0.37
  -1   1  -4   13.72    0.37
  -1   1  -4   14.92    0.39
  -1   1  -4   14.55    0.37
   1  -1   4   14.40    0.38
   1  -1   4   14.72    0.39
   1  -1   4   13.92    0.38
   1  -1   4   14.46    0.37
   1  -1   4   14.32    0.39
  -2   1  -4   13.01    0.34
  -2   1  -4   13.06    0.36
  -2   1  -4   13.15    0.34
  -2   1  -4   13.18    0.34
   2  -1   4   12.43    0.34
   2  -1   4   12.71    0.37
   2  -1   4   12.83    0.35
   2  -1   4   12.96    0.36
   2  -1   4   11.56    0.34
  -3   1  -4  139.47    3.22
  -3   1  -4  134.97    3.24
   3  -1   4  138.84    3.24
   3  -1   4  137.26    3.25
   3  -1   4  132.79    3.26
   3  -1   4  135.73    3.23
  -4   1  -4    0.21    0.05
  -4   1  -4    0.11    0.05
  -4   1  -4    0.17    0.05
   4  -1   4    0.15    0.05
   4  -1   4    0.18    0.04
   4  -1   4    0.13    0.06
   4  -1   4    0.16    0.06
  -5   1  -4    3.57    0.16
  -5   1  -4    3.81    0.18
  -5   1  -4    3.55    0.17
   5  -1   4    3.83    0.20
   5  -1   4    3.52    0.18
   5  -1   4    3.94    0.22
  -6   1  -4    2.75    0.16
  -6   1  -4    2.56    0.15
  -6   1  -4    2.66    0.17
   6  -1   4    2.72    0.22
   6  -1   4    3.02    0.20
   6  -1   4    2.82    0.18
   5   0  -4    3.28    0.28
   5   0  -4    3.19    0.24
  -5   0   4    3.00    0.25
  -5   0   4    3.86    0.32
   4   0  -4    5.07    0.29
   4   0  -4    5.13    0.26
   4   0  -4    5.67    0.24
  -4   0   4    5.79    0.31
  -4   0   4    5.04    0.23
  -4   0   4    5.80    0.25
   3   0  -4    1.50    0.13
   3   0  -4    1.42    0.13
  -3   0   4    1.41    0.13
  -3   0   4    1.38    0.17
  -3   0   4    1.33    0.13
   2   0  -4   23.96    0.63
   2   0  -4   24.00    0.66
   2   0  -4   22.26    0.59
   2   0  -4   24.12    0.64
  -2   0   4   25.52    0.60
  -2   0   4   24.98    0.62
  -2   0   4   24.96    0.63
   1   0  -4   56.33    1.35
   1   0  -4   56.69    1.35
   1   0  -4   55.07    1.39
   1   0  -4   57.55    1.40
   1   0  -4   55.64    1.38
  -1   0   4   60.15    1.36
  -1   0   4   57.83    1.38
  -1   0   4   57.37    1.38
  -1   0   4   57.97    1.41
   0   0  -4   41.76    1.06
   0   0  -4   43.69    1.06
   0   0  -4   43.76    1.06
   0   0  -4   44.25    1.04
   0   0  -4   43.88    1.04
   0   0   4   42.10    1.06
   0   0   4   44.28    1.05
   0   0   4   44.43    1.06
   0   0   4   45.10    1.08
   0   0   4   42.80    1.06
   0   0   4   44.49    1.04
  -1   0  -4    6.85    0.19
  -1   0  -4    6.92    0.19
  -1   0  -4    6.76    0.19
  -1   0  -4    6.94    0.20
   1   0   4    6.79    0.22
   1   0   4    6.78    0.20
   1   0   4    6.77    0.20
   1   0   4    6.89    0.19
   1   0   4    6.63    0.21
  -2   0  -4   11.71    0.30
  -2   0  -4   11.42    0.31
  -2   0  -4   11.71    0.29
  -2   0  -4   11.42    0.30
   2   0   4   11.35    0.32
   2   0   4   10.69    0.32
   2   0   4   10.99    0.31
   2   0   4   10.97    0.32
   2   0   4   11.24    0.31
  -3   0  -4   13.20    0.35
  -3   0  -4   13.42    0.36
  -3   0  -4   12.92    0.36
   3   0   4   13.11    0.39
   3   0   4   13.50    0.36
   3   0   4   13.26    0.37
   3   0   4   13.07    0.39
   3   0   4   12.85    0.37
  -4   0  -4    0.03    0.04
  -4   0  -4    0.05    0.04
  -4   0  -4    0.07    0.03
   4   0   4    0.01    0.04
   4   0   4    0.05    0.03
   4   0   4    0.00    0.04
   4   0   4    0.04    0.04
   4   0   4    0.02    0.04
  -5   0  -4    6.33    0.23
  -5   0  -4    6.54    0.22
  -5   0  -4    6.59    0.23
  -5   0  -4    6.85    0.23
   5   0   4    6.77    0.25
   5   0   4    6.61    0.24
   5   0   4    6.73    0.26
   5   0   4    6.56    0.29
   5   0   4    6.86    0.28
  -6   0  -4    4.35    0.20
  -6   0  -4    4.63    0.18
  -6   0  -4    4.50    0.20
   6   0   4    4.65    0.21
   6   0   4    4.79    0.26
   6   0   4    4.45    0.22
   6   0   4    4.77    0.23
  -7   0  -4    0.14    0.06
   7   0   4   -0.04    0.11
   7   0   4    0.00    0.07
   5  -1  -4   -0.05    0.10
   5  -1  -4    0.08    0.08
   5  -1  -4    0.07    0.11
  -5   1   4    0.22    0.10
  -5   1   4    0.02    0.11
  -5   1   4   -0.04    0.07
   4  -1  -4    0.59    0.11
   4  -1  -4    0.55    0.10
   4  -1  -4    0.74    0.14
  -4   1   4    0.50    0.10
  -4   1   4    0.47    0.07
   3  -1  -4    0.38    0.07
   3  -1  -4    0.44    0.06
   3  -1  -4    0.36    0.08
   3  -1  -4    0.39    0.07
  -3   1   4    0.56    0.12
  -3   1   4    0.33    0.07
  -3   1   4    0.32    0.05
  -3   1   4    0.33    0.05
   2  -1  -4   19.85    0.54
   2  -1  -4   20.42    0.55
   2  -1  -4   19.57    0.51
   2  -1  -4   20.31    0.51
   2  -1  -4   20.46    0.57
  -2   1   4   21.13    0.58
  -2   1   4   21.23    0.54
  -2   1   4   21.54    0.53
  -2   1   4   19.89    0.56
   1  -1  -4    0.08    0.02
   1  -1  -4    0.06    0.03
   1  -1  -4    0.06    0.04
   1  -1  -4    0.05    0.04
   1  -1  -4    0.10    0.02
  -1   1   4    0.01    0.03
  -1   1   4    0.07    0.04
  -1   1   4    0.06    0.03
  -1   1   4    0.09    0.02
  -1   1   4    0.06    0.03
   0  -1  -4   79.61    1.87
   0  -1  -4   79.40    1.86
   0  -1  -4   78.69    1.89
   0  -1  -4   81.24    1.87
   0  -1  -4   76.47    1.88
   0   1   4   80.61    1.99
   0   1   4   78.13    1.90
   0   1   4   79.96    1.92
   0   1   4   81.62    1.88
   0   1   4   78.22    1.90
  -1  -1  -4   18.80    0.46
  -1  -1  -4   19.37    0.47
  -1  -1  -4   18.99    0.48
  -1  -1  -4   19.02    0.47
  -1  -1  -4   19.40    0.47
   1   1   4   19.61    0.48
   1   1   4   18.33    0.49
   1   1   4   18.55    0.47
   1   1   4   18.99    0.49
   1   1   4   18.70    0.50
   1   1   4   19.17    0.47
  -2  -1  -4    4.35    0.13
  -2  -1  -4    4.30    0.14
  -2  -1  -4    4.26    0.14
  -2  -1  -4    4.26    0.14
   2   1   4    4.05    0.15
   2   1   4    4.28    0.16
   2   1   4    4.27    0.15
   2   1   4    4.31    0.14
   2   1   4    4.11    0.16
  -3  -1  -4   63.80    1.51
  -3  -1  -4   64.57    1.50
  -3  -1  -4   64.73    1.51
  -3  -1  -4   62.38    1.50
   3   1   4   62.22    1.55
   3   1   4   62.50    1.53
   3   1   4   60.80    1.56
   3   1   4   59.54    1.50
   3   1   4   64.17    1.53
   3   1   4   63.93    1.52
  -4  -1  -4    0.91    0.08
  -4  -1  -4    0.81    0.09
  -4  -1  -4    0.86    0.08
  -4  -1  -4    0.88    0.07
   4   1   4    0.94    0.10
   4   1   4    1.00    0.12
   4   1   4    1.06    0.10
   4   1   4    0.89    0.09
   4   1   4    1.18    0.11
  -5  -1  -4    1.01    0.11
  -5  -1  -4    1.05    0.09
  -5  -1  -4    1.09    0.10
  -5  -1  -4    1.06    0.10
   5   1   4    1.12    0.14
   5   1   4    1.06    0.12
   5   1   4    1.02    0.11
   5   1   4    1.08    0.15
   5   1   4    1.06    0.12
  -6  -1  -4    0.79    0.10
  -6  -1  -4    0.80    0.11
  -6  -1  -4    0.80    0.11
  -6  -1  -4    1.04    0.13
   6   1   4    0.92    0.18
   6   1   4    0.90    0.14
   6   1   4    0.88    0.14
   6   1   4    0.76    0.16
  -7  -1  -4    8.27    0.32
   7   1   4    8.41    0.34
   7   1   4    8.06    0.34
   5  -2  -4   -0.06    0.11
   5  -2  -4    0.00    0.08
  -5   2   4   -0.13    0.10
  -5   2   4    0.02    0.11
   4  -2  -4    1.76    0.18
   4  -2  -4    1.73    0.21
   4  -2  -4    1.77    0.18
  -4   2   4    1.60    0.17
  -4   2   4    1.99    0.20
  -4   2   4    1.60    0.23
   3  -2  -4    1.13    0.14
   3  -2  -4    1.15    0.14
   3  -2  -4    1.15    0.09
   3  -2  -4    1.34    0.16
   3  -2  -4    1.09    0.09
  -3   2   4    1.27    0.18
  -3   2   4    1.12    0.13
  -3   2   4    1.32    0.15
   2  -2  -4    0.30    0.05
   2  -2  -4    0.30    0.06
   2  -2  -4    0.36    0.06
   2  -2  -4    0.29    0.04
  -2   2   4    0.46    0.13
  -2   2   4    0.25    0.04
  -2   2   4    0.33    0.06
   1  -2  -4   26.55    0.68
   1  -2  -4   27.11    0.66
   1  -2  -4   26.90    0.69
   1  -2  -4   26.91    0.66
  -1   2   4   28.03    0.72
  -1   2   4   27.10    0.66
  -1   2   4   26.90    0.70
  -1   2   4   26.93    0.68
   0  -2  -4  217.19    5.19
   0  -2  -4  220.51    5.55
   0  -2  -4  216.83    5.22
   0  -2  -4  214.53    5.22
   0  -2  -4  214.19    5.84
   0   2   4  216.96    5.13
   0   2   4  220.18    5.31
   0   2   4  214.62    5.19
   0   2   4  226.22    5.45
   0   2   4  221.07    5.32
  -1  -2  -4   15.54    0.39
  -1  -2  -4   15.16    0.39
  -1  -2  -4   15.90    0.39
  -1  -2  -4   15.73    0.39
   1   2   4   15.31    0.41
   1   2   4   14.93    0.41
   1   2   4   15.55    0.40
   1   2   4   15.74    0.41
   1   2   4   14.77    0.43
  -2  -2  -4   10.03    0.26
  -2  -2  -4   10.34    0.26
  -2  -2  -4   10.23    0.27
  -2  -2  -4   10.16    0.27
   2   2   4    9.83    0.29
   2   2   4    9.61    0.28
   2   2   4    9.53    0.31
   2   2   4   10.02    0.30
   2   2   4   10.08    0.28
  -3  -2  -4   49.76    1.20
  -3  -2  -4   48.74    1.22
  -3  -2  -4   50.31    1.19
  -3  -2  -4   51.20    1.21
  -3  -2  -4   51.02    1.19
   3   2   4   50.25    1.24
   3   2   4   48.25    1.22
   3   2   4   50.13    1.23
   3   2   4   48.43    1.27
   3   2   4   49.58    1.25
  -4  -2  -4    0.02    0.03
  -4  -2  -4    0.00    0.04
  -4  -2  -4    0.03    0.03
  -4  -2  -4   -0.01    0.03
   4   2   4    0.03    0.04
   4   2   4    0.01    0.04
   4   2   4    0.02    0.03
   4   2   4    0.02    0.04
   4   2   4    0.06    0.04
  -5  -2  -4    0.84    0.13
  -5  -2  -4    0.71    0.11
  -5  -2  -4    0.61    0.07
  -5  -2  -4    0.65    0.09
  -5  -2  -4    0.72    0.09
   5   2   4    0.64    0.11
   5   2   4    0.71    0.13
   5   2   4    0.73    0.15
   5   2   4    0.73    0.12
  -6  -2  -4    7.68    0.29
  -6  -2  -4    7.69    0.31
  -6  -2  -4    7.36    0.26
   6   2   4    7.30    0.31
   6   2   4    7.54    0.32
   6   2   4    7.44    0.37
   6   2   4    7.57    0.30
   5  -3  -4    0.52    0.12
   5  -3  -4    1.06    0.20
  -5   3   4    0.72    0.15
   4  -3  -4   21.72    0.60
   4  -3  -4   22.62    0.67
  -4   3   4   22.17    0.62
  -4   3   4   23.60    0.70
  -4   3   4   23.64    0.69
   3  -3  -4    0.06    0.07
   3  -3  -4    0.06    0.04
   3  -3  -4    0.06    0.06
   3  -3  -4    0.04    0.04
  -3   3   4   -0.03    0.05
  -3   3   4    0.05    0.07
  -3   3   4   -0.01    0.07
   2  -3  -4   -0.07    0.04
   2  -3  -4   -0.02    0.05
   2  -3  -4    0.06    0.05
   2  -3  -4   -0.07    0.04
  -2   3   4    0.04    0.06
  -2   3   4   -0.02    0.06
   1  -3  -4    2.99    0.11
   1  -3  -4    2.99    0.12
   1  -3  -4    2.85    0.13
   1  -3  -4    2.84    0.09
   1  -3  -4    2.78    0.14
  -1   3   4    2.95    0.14
  -1   3   4    2.92    0.17
  -1   3   4    3.13    0.16
  -1   3   4    2.84    0.13
   0  -3  -4    4.37    0.16
   0  -3  -4    4.38    0.15
   0  -3  -4    4.62    0.14
   0  -3  -4    4.66    0.15
   0  -3  -4    4.86    0.14
   0   3   4    4.44    0.14
   0   3   4    4.60    0.18
   0   3   4    4.43    0.19
   0   3   4    4.49    0.15
   0   3   4    4.42    0.16
  -1  -3  -4    8.01    0.22
  -1  -3  -4    7.89    0.21
  -1  -3  -4    8.02    0.22
  -1  -3  -4    7.74    0.22
  -1  -3  -4    7.91    0.22
   1   3   4    7.90    0.23
   1   3   4    7.45    0.27
   1   3   4    7.30    0.23
   1   3   4    7.85    0.21
   1   3   4    7.69    0.25
  -2  -3  -4   27.51    0.67
  -2  -3  -4   27.12    0.68
  -2  -3  -4   27.86    0.67
  -2  -3  -4   27.35    0.66
   2   3   4   26.31    0.73
   2   3   4   26.97    0.70
   2   3   4   26.83    0.68
   2   3   4   26.43    0.69
   2   3   4   26.12    0.69
  -3  -3  -4  257.48    6.17
  -3  -3  -4  264.32    6.13
  -3  -3  -4  265.12    6.20
  -3  -3  -4  265.66    6.28
  -3  -3  -4  262.73    6.14
   3   3   4  254.62    7.94
   3   3   4  259.45    6.25
   3   3   4  252.43    6.30
   3   3   4  257.04    6.43
   3   3   4  255.54    6.22
  -4  -3  -4    3.80    0.15
  -4  -3  -4    3.59    0.17
  -4  -3  -4    3.73    0.13
  -4  -3  -4    3.93    0.14
  -4  -3  -4    3.70    0.19
   4   3   4    3.78    0.18
   4   3   4    3.64    0.18
   4   3   4    3.81    0.17
   4   3   4    3.74    0.22
   4   3   4    3.77    0.19
  -5  -3  -4    0.05    0.05
  -5  -3  -4   -0.03    0.04
  -5  -3  -4    0.01    0.05
  -5  -3  -4   -0.02    0.04
   5   3   4    0.04    0.05
   5   3   4    0.00    0.05
   5   3   4   -0.01    0.06
   5   3   4   -0.03    0.04
  -6  -3  -4    0.09    0.07
  -6  -3  -4    0.10    0.06
  -6  -3  -4    0.12    0.06
   6   3   4    0.06    0.06
   6   3   4    0.09    0.08
   6   3   4    0.04    0.07
   5  -4  -4    3.19    0.25
   5  -4  -4    2.64    0.25
   5  -4  -4    3.15    0.20
  -5   4   4    3.26    0.24
  -5   4   4    2.39    0.30
   4  -4  -4   14.61    0.49
   4  -4  -4   14.74    0.49
   4  -4  -4   14.52    0.43
   4  -4  -4   13.47    0.43
  -4   4   4   15.14    0.54
  -4   4   4   14.90    0.48
  -4   4   4   14.90    0.52
   3  -4  -4    0.16    0.08
   3  -4  -4    0.01    0.07
   3  -4  -4    0.09    0.05
   3  -4  -4    0.11    0.05
  -3   4   4    0.01    0.09
  -3   4   4   -0.09    0.07
   2  -4  -4    4.40    0.21
   2  -4  -4    4.33    0.17
   2  -4  -4    4.57    0.17
   2  -4  -4    4.38    0.20
  -2   4   4    4.02    0.18
  -2   4   4    4.43    0.23
  -2   4   4    4.46    0.19
  -2   4   4    3.84    0.25
   1  -4  -4    5.32    0.18
   1  -4  -4    5.00    0.20
   1  -4  -4    5.15    0.16
   1  -4  -4    5.39    0.18
   1  -4  -4    5.09    0.21
  -1   4   4    5.32    0.19
  -1   4   4    5.17    0.19
  -1   4   4    5.37    0.23
  -1   4   4    5.02    0.24
   0  -4  -4   19.14    0.50
   0  -4  -4   20.34    0.49
   0  -4  -4   19.52    0.52
   0  -4  -4   19.89    0.50
   0   4   4   19.14    0.50
   0   4   4   19.25    0.51
   0   4   4   18.15    0.55
   0   4   4   19.91    0.55
  -1  -4  -4   10.42    0.29
  -1  -4  -4   10.91    0.29
  -1  -4  -4   11.02    0.30
  -1  -4  -4   10.60    0.30
  -1  -4  -4   11.35    0.29
  -1  -4  -4   10.56    0.30
   1   4   4   10.13    0.35
   1   4   4   10.64    0.33
   1   4   4   10.87    0.29
   1   4   4   10.55    0.31
   1   4   4   10.52    0.30
  -2  -4  -4   17.18    0.44
  -2  -4  -4   16.81    0.43
  -2  -4  -4   16.63    0.44
  -2  -4  -4   16.89    0.46
  -2  -4  -4   16.88    0.45
   2   4   4   16.65    0.47
   2   4   4   16.48    0.46
   2   4   4   16.34    0.51
   2   4   4   16.56    0.48
  -3  -4  -4   41.88    1.01
  -3  -4  -4   42.17    1.03
  -3  -4  -4   42.01    1.02
  -3  -4  -4   41.40    1.05
  -3  -4  -4   41.73    1.00
   3   4   4   40.28    1.06
   3   4   4   39.37    1.06
   3   4   4   41.41    1.05
   3   4   4   40.26    1.11
  -4  -4  -4    5.51    0.22
  -4  -4  -4    5.51    0.20
  -4  -4  -4    5.79    0.19
  -4  -4  -4    5.64    0.24
   4   4   4    5.52    0.24
   4   4   4    5.55    0.25
   4   4   4    5.58    0.24
   4   4   4    5.70    0.30
  -5  -4  -4    6.84    0.27
  -5  -4  -4    6.84    0.25
  -5  -4  -4    7.14    0.29
   5   4   4    6.96    0.31
   5   4   4    6.91    0.29
   5   4   4    6.92    0.36
  -6  -4  -4    3.40    0.20
  -6  -4  -4    3.34    0.20
   6   4   4    3.62    0.35
   6   4   4    3.67    0.30
   4  -5  -4    0.52    0.11
   4  -5  -4    0.92    0.15
   4  -5  -4    0.57    0.13
  -4   5   4    0.63    0.12
  -4   5   4    0.46    0.15
   3  -5  -4    0.18    0.06
   3  -5  -4    0.16    0.06
   3  -5  -4    0.20    0.08
  -3   5   4    0.15    0.09
   2  -5  -4    9.49    0.31
   2  -5  -4    9.36    0.30
   2  -5  -4    9.64    0.35
  -2   5   4    9.85    0.33
  -2   5   4   10.48    0.37
  -2   5   4    9.64    0.38
   1  -5  -4    3.09    0.17
   1  -5  -4    2.74    0.14
   1  -5  -4    2.66    0.15
   1  -5  -4    2.63    0.13
  -1   5   4    2.95    0.21
  -1   5   4    2.90    0.16
  -1   5   4    3.24    0.20
   0  -5  -4    0.85    0.10
   0  -5  -4    1.05    0.11
   0  -5  -4    0.98    0.10
   0  -5  -4    0.85    0.09
   0   5   4    1.29    0.10
   0   5   4    1.01    0.10
   0   5   4    1.19    0.15
   0   5   4    1.21    0.15
  -1  -5  -4    6.56    0.21
  -1  -5  -4    6.40    0.22
  -1  -5  -4    6.59    0.21
  -1  -5  -4    6.69    0.22
   1   5   4    6.51    0.21
   1   5   4    6.65    0.26
   1   5   4    6.79    0.23
   1   5   4    6.72    0.28
  -2  -5  -4    0.49    0.07
  -2  -5  -4    0.37    0.06
  -2  -5  -4    0.33    0.06
  -2  -5  -4    0.28    0.05
  -2  -5  -4    0.39    0.05
   2   5   4    0.31    0.05
   2   5   4    0.49    0.12
   2   5   4    0.37    0.08
  -3  -5  -4    9.17    0.28
  -3  -5  -4    9.00    0.29
  -3  -5  -4    9.14    0.31
  -3  -5  -4    9.49    0.27
   3   5   4    8.90    0.34
   3   5   4    8.71    0.32
   3   5   4    8.74    0.39
  -4  -5  -4   -0.06    0.05
  -4  -5  -4   -0.06    0.05
  -4  -5  -4    0.02    0.05
   4   5   4    0.01    0.07
   4   5   4    0.06    0.07
   4   5   4    0.01    0.04
  -5  -5  -4    6.05    0.24
  -5  -5  -4    6.29    0.26
  -5  -5  -4    6.21    0.29
   5   5   4    6.48    0.32
   5   5   4    6.08    0.29
   5   5   4    6.59    0.38
   3  -6  -4    0.17    0.08
   3  -6  -4    0.12    0.07
   3  -6  -4    0.14    0.09
  -3   6   4   -0.13    0.12
  -3   6   4    0.05    0.10
   2  -6  -4    2.25    0.20
   2  -6  -4    1.88    0.16
   2  -6  -4    1.90    0.16
  -2   6   4    1.85    0.19
  -2   6   4    1.45    0.24
   1  -6  -4    0.07    0.07
   1  -6  -4    0.00    0.06
   1  -6  -4    0.04    0.06
   1  -6  -4    0.13    0.05
  -1   6   4    0.04    0.09
  -1   6   4    0.05    0.07
   0  -6  -4    8.35    0.27
   0  -6  -4    8.24    0.27
   0  -6  -4    8.15    0.28
   0   6   4    8.42    0.34
   0   6   4    8.62    0.33
   0   6   4    7.84    0.28
  -1  -6  -4    2.78    0.15
  -1  -6  -4    2.87    0.15
  -1  -6  -4    2.97    0.15
   1   6   4    3.09    0.21
   1   6   4    3.07    0.22
  -2  -6  -4    0.05    0.05
  -2  -6  -4    0.02    0.04
  -2  -6  -4   -0.05    0.05
   2   6   4    0.07    0.07
   2   6   4    0.10    0.07
  -3  -6  -4    0.51    0.08
  -3  -6  -4    0.60    0.12
   3   6   4    0.81    0.20
   3   6   4    0.72    0.13
  -4  -6  -4    0.98    0.17
  -4  -6  -4    1.08    0.15
  -4  -6  -4    1.12    0.16
   4   6   4    1.50    0.17
   2  -7  -4   -0.05    0.09
   2  -7  -4   -0.01    0.07
  -2   7   4   -0.15    0.10
  -2   7   4   -0.04    0.11
  -2   7   4    0.12    0.08
   1  -7  -4    0.27    0.08
   1  -7  -4    0.18    0.07
  -1   7   4    0.02    0.10
  -1   7   4    0.22    0.11
   0  -7  -4    6.43    0.25
   0  -7  -4    6.00    0.24
   0  -7  -4    6.43    0.26
   0   7   4    5.89    0.27
   0   7   4    7.01    0.33
  -1  -7  -4    0.19    0.07
  -1  -7  -4    0.25    0.07
  -1  -7  -4    0.13    0.07
  -2  -7  -4    2.41    0.18
   2   7   4    3.06    0.30
   2   7   4    3.17    0.24
  -3  -7  -4   15.86    0.50
   3   7   4   16.86    0.59
   3   7   4   17.18    0.63
   0   5  -5    0.38    0.10
   0  -5   5    0.36    0.07
   0  -5   5    0.30    0.08
  -1   5  -5    3.93    0.23
  -1   5  -5    3.73    0.24
   1  -5   5    3.57    0.28
   1  -5   5    3.95    0.34
   1  -5   5    4.01    0.24
  -2   5  -5   23.60    0.69
   2  -5   5   23.58    0.72
   2  -5   5   22.49    0.68
   2   4  -5    4.66    0.26
  -2  -4   5    4.52    0.23
   1   4  -5    1.56    0.17
   1   4  -5    1.38    0.15
  -1  -4   5    1.43    0.15
  -1  -4   5    1.40    0.18
   0   4  -5   -0.02    0.06
   0   4  -5    0.05    0.07
   0  -4   5    0.06    0.06
   0  -4   5    0.04    0.05
   0  -4   5    0.09    0.07
  -1   4  -5    4.76    0.24
  -1   4  -5    4.97    0.23
   1  -4   5    4.65    0.22
   1  -4   5    4.87    0.21
   1  -4   5    5.28    0.24
  -2   4  -5    0.09    0.07
  -2   4  -5   -0.02    0.05
  -2   4  -5   -0.05    0.07
  -2   4  -5    0.08    0.05
   2  -4   5    0.02    0.05
   2  -4   5    0.08    0.06
   2  -4   5    0.08    0.06
  -3   4  -5    0.00    0.06
  -3   4  -5    0.11    0.07
  -3   4  -5   -0.02    0.08
  -3   4  -5    0.04    0.06
   3  -4   5    0.08    0.06
   3  -4   5    0.15    0.07
   3  -4   5    0.10    0.08
  -4   4  -5    2.90    0.23
  -4   4  -5    3.02    0.21
  -4   4  -5    3.06    0.18
   4  -4   5    3.31    0.23
   4  -4   5    3.09    0.19
   4  -4   5    3.14    0.26
   3   3  -5    3.92    0.24
   3   3  -5    3.84    0.26
  -3  -3   5    3.31    0.24
  -3  -3   5    3.92    0.20
  -3  -3   5    3.22    0.24
   2   3  -5    0.07    0.05
   2   3  -5    0.11    0.08
   2   3  -5   -0.02    0.07
  -2  -3   5    0.01    0.06
  -2  -3   5    0.00    0.07
   1   3  -5    8.46    0.29
   1   3  -5    8.42    0.30
  -1  -3   5    8.13    0.28
  -1  -3   5    7.91    0.31
   0   3  -5    2.20    0.15
   0   3  -5    2.30    0.15
   0  -3   5    2.24    0.15
   0  -3   5    2.47    0.17
   0  -3   5    2.62    0.13
  -1   3  -5    0.85    0.09
  -1   3  -5    1.03    0.11
  -1   3  -5    0.93    0.14
  -1   3  -5    0.96    0.10
   1  -3   5    0.97    0.11
   1  -3   5    0.92    0.12
   1  -3   5    1.09    0.14
  -2   3  -5   14.65    0.44
  -2   3  -5   14.61    0.42
  -2   3  -5   14.84    0.40
  -2   3  -5   14.58    0.41
   2  -3   5   14.41    0.45
   2  -3   5   14.01    0.43
   2  -3   5   14.05    0.42
  -3   3  -5    1.54    0.17
  -3   3  -5    1.64    0.13
  -3   3  -5    1.84    0.14
  -3   3  -5    1.75    0.13
   3  -3   5    1.88    0.16
   3  -3   5    1.76    0.14
   3  -3   5    2.12    0.16
   3  -3   5    1.77    0.14
  -4   3  -5    1.18    0.18
  -4   3  -5    1.29    0.14
  -4   3  -5    1.48    0.15
   4  -3   5    1.52    0.15
   4  -3   5    1.81    0.17
   4  -3   5    1.33    0.15
   4  -3   5    1.70    0.17
  -5   3  -5    0.14    0.07
  -5   3  -5    0.12    0.10
  -5   3  -5    0.08    0.09
   5  -3   5    0.27    0.08
   5  -3   5    0.15    0.09
   5  -3   5    0.16    0.09
   4   2  -5    1.39    0.20
   4   2  -5    1.27    0.22
  -4  -2   5    1.49    0.25
   3   2  -5    1.00    0.13
   3   2  -5    0.89    0.18
   3   2  -5    1.06    0.16
  -3  -2   5    0.75    0.13
  -3  -2   5    0.78    0.20
   2   2  -5    5.86    0.27
   2   2  -5    6.39    0.26
   2   2  -5    6.39    0.24
  -2  -2   5    5.77    0.26
  -2  -2   5    5.79    0.25
  -2  -2   5    6.08    0.23
  -2  -2   5    5.85    0.28
   1   2  -5   30.92    0.84
   1   2  -5   32.40    0.82
   1   2  -5   30.92    0.83
  -1  -2   5   30.80    0.83
  -1  -2   5   31.41    0.84
  -1  -2   5   33.08    0.81
  -1  -2   5   32.17    0.81
   0   2  -5   10.34    0.32
   0   2  -5   10.49    0.32
   0   2  -5   10.78    0.29
   0  -2   5   10.02    0.33
   0  -2   5   10.84    0.30
   0  -2   5   10.52    0.31
   0  -2   5    9.84    0.31
  -1   2  -5    0.62    0.08
  -1   2  -5    0.67    0.08
  -1   2  -5    0.82    0.09
  -1   2  -5    0.75    0.11
   1  -2   5    0.59    0.09
   1  -2   5    0.51    0.11
   1  -2   5    0.63    0.08
   1  -2   5    0.64    0.09
  -2   2  -5   18.63    0.48
  -2   2  -5   18.65    0.48
  -2   2  -5   18.54    0.51
  -2   2  -5   17.63    0.49
   2  -2   5   18.19    0.49
   2  -2   5   17.63    0.50
   2  -2   5   17.79    0.52
  -3   2  -5    1.06    0.11
  -3   2  -5    1.00    0.11
  -3   2  -5    0.95    0.10
   3  -2   5    0.89    0.11
   3  -2   5    1.13    0.13
   3  -2   5    0.97    0.12
  -4   2  -5   -0.04    0.06
  -4   2  -5    0.05    0.06
  -4   2  -5    0.01    0.06
   4  -2   5    0.01    0.05
   4  -2   5    0.14    0.06
   4  -2   5    0.06    0.06
  -5   2  -5    7.24    0.28
  -5   2  -5    7.49    0.30
  -5   2  -5    7.11    0.27
   5  -2   5    7.65    0.31
   5  -2   5    7.86    0.33
   5  -2   5    7.47    0.28
  -6   2  -5    9.95    0.37
  -6   2  -5    8.99    0.33
   6  -2   5   10.11    0.41
   6  -2   5    9.87    0.38
   4   1  -5    0.07    0.08
   4   1  -5    0.01    0.09
   4   1  -5   -0.08    0.09
  -4  -1   5   -0.07    0.10
  -4  -1   5   -0.11    0.07
   3   1  -5    0.00    0.07
   3   1  -5   -0.06    0.05
   3   1  -5   -0.03    0.07
   2   1  -5    2.78    0.18
   2   1  -5    2.67    0.17
   2   1  -5    2.38    0.16
  -2  -1   5    2.88    0.14
  -2  -1   5    2.75    0.17
  -2  -1   5    2.52    0.20
  -2  -1   5    2.48    0.17
   1   1  -5    1.10    0.12
   1   1  -5    1.16    0.11
   1   1  -5    1.20    0.11
  -1  -1   5    1.16    0.12
  -1  -1   5    1.28    0.10
  -1  -1   5    1.06    0.13
  -1  -1   5    1.02    0.12
   0   1  -5   15.17    0.39
   0   1  -5   15.33    0.39
   0   1  -5   14.78    0.42
   0   1  -5   15.18    0.42
   0   1  -5   15.28    0.42
   0  -1   5   15.80    0.40
   0  -1   5   15.93    0.42
   0  -1   5   15.44    0.44
   0  -1   5   14.78    0.43
   0  -1   5   15.35    0.41
  -1   1  -5    9.35    0.28
  -1   1  -5    9.20    0.25
  -1   1  -5    8.93    0.27
  -1   1  -5    9.14    0.26
   1  -1   5    9.06    0.28
   1  -1   5    9.13    0.27
   1  -1   5    9.15    0.29
   1  -1   5    9.40    0.26
   1  -1   5    8.93    0.27
  -2   1  -5  269.93    6.09
  -2   1  -5  263.98    6.17
  -2   1  -5  262.72    6.10
  -2   1  -5  258.92    6.09
   2  -1   5  259.05    6.18
   2  -1   5  248.99    6.09
   2  -1   5  251.39    6.17
   2  -1   5  255.94    6.30
  -3   1  -5    0.39    0.07
  -3   1  -5    0.32    0.05
  -3   1  -5    0.38    0.06
   3  -1   5    0.40    0.06
   3  -1   5    0.39    0.06
   3  -1   5    0.54    0.08
   3  -1   5    0.36    0.06
  -4   1  -5   -0.03    0.05
   4  -1   5    0.03    0.05
   4  -1   5    0.01    0.05
   4  -1   5    0.04    0.05
  -5   1  -5    0.87    0.13
  -5   1  -5    0.64    0.08
  -5   1  -5    0.85    0.11
   5  -1   5    0.99    0.12
   5  -1   5    1.01    0.16
   5  -1   5    1.04    0.14
  -6   1  -5    0.37    0.07
  -6   1  -5    0.33    0.07
  -6   1  -5    0.33    0.08
   6  -1   5    0.36    0.08
   6  -1   5    0.27    0.09
   6  -1   5    0.29    0.09
   5   0  -5   10.99    0.50
   5   0  -5   11.88    0.46
  -5   0   5   13.32    0.50
  -5   0   5   13.67    0.57
   4   0  -5    1.11    0.18
   4   0  -5    1.18    0.17
   3   0  -5    1.83    0.16
   3   0  -5    1.41    0.19
   3   0  -5    1.82    0.15
  -3   0   5    1.36    0.21
  -3   0   5    1.49    0.16
  -3   0   5    1.68    0.15
   2   0  -5    5.28    0.21
   2   0  -5    5.31    0.24
   2   0  -5    5.10    0.21
  -2   0   5    5.35    0.21
  -2   0   5    5.16    0.25
  -2   0   5    5.39    0.21
   1   0  -5   20.06    0.50
   1   0  -5   20.26    0.55
   1   0  -5   20.55    0.56
   1   0  -5   20.42    0.51
   1   0  -5   19.68    0.55
  -1   0   5   21.34    0.55
  -1   0   5   20.65    0.54
  -1   0   5   20.81    0.57
  -1   0   5   21.19    0.52
  -1   0   5   19.68    0.55
   0   0  -5    9.12    0.27
   0   0  -5    9.52    0.25
   0   0  -5    9.29    0.28
   0   0  -5    9.89    0.28
   0   0  -5    9.62    0.25
   0   0   5    9.41    0.25
   0   0   5    9.80    0.27
   0   0   5    9.75    0.28
   0   0   5    9.40    0.30
   0   0   5    8.85    0.28
   0   0   5    8.83    0.26
  -1   0  -5   23.30    0.59
  -1   0  -5   23.66    0.61
  -1   0  -5   24.30    0.59
  -1   0  -5   24.01    0.59
   1   0   5   23.11    0.62
   1   0   5   23.50    0.63
   1   0   5   23.94    0.61
   1   0   5   23.94    0.61
   1   0   5   23.94    0.59
  -2   0  -5  110.04    2.53
  -2   0  -5  108.28    2.55
  -2   0  -5  110.05    2.54
  -2   0  -5  109.63    2.54
   2   0   5  104.41    2.59
   2   0   5  106.82    2.55
   2   0   5  104.84    2.59
   2   0   5  102.75    2.57
   2   0   5  108.15    2.56
  -3   0  -5    0.12    0.04
  -3   0  -5    0.06    0.04
  -3   0  -5    0.08    0.04
   3   0   5    0.05    0.04
   3   0   5    0.08    0.04
   3   0   5    0.08    0.04
   3   0   5    0.07    0.03
   3   0   5    0.11    0.04
  -4   0  -5    5.87    0.20
  -4   0  -5    6.10    0.21
  -4   0  -5    6.44    0.22
  -4   0  -5    5.95    0.22
   4   0   5    6.09    0.25
   4   0   5    6.25    0.26
   4   0   5    6.45    0.23
   4   0   5    6.04    0.22
   4   0   5    6.17    0.24
  -5   0  -5    9.13    0.28
  -5   0  -5    9.01    0.30
  -5   0  -5    8.90    0.30
  -5   0  -5    9.45    0.30
   5   0   5    9.18    0.33
   5   0   5    9.29    0.31
   5   0   5    9.44    0.35
   5   0   5    9.52    0.32
  -6   0  -5    2.90    0.17
  -6   0  -5    2.81    0.16
  -6   0  -5    2.74    0.15
   6   0   5    2.85    0.20
   6   0   5    2.89    0.18
   6   0   5    2.77    0.23
   5  -1  -5    1.90    0.21
   5  -1  -5    1.55    0.27
   5  -1  -5    1.58    0.23
  -5   1   5    1.64    0.32
   4  -1  -5    0.00    0.08
   4  -1  -5   -0.01    0.07
  -4   1   5    0.09    0.08
   3  -1  -5    9.95    0.35
   3  -1  -5   10.30    0.34
   3  -1  -5    9.34    0.38
  -3   1   5   10.48    0.39
  -3   1   5    9.87    0.36
  -3   1   5    9.83    0.33
   2  -1  -5    7.86    0.28
   2  -1  -5    7.98    0.30
   2  -1  -5    7.96    0.23
   2  -1  -5    7.95    0.27
  -2   1   5    8.20    0.27
  -2   1   5    7.96    0.28
  -2   1   5    8.19    0.31
  -2   1   5    8.54    0.25
   1  -1  -5    4.34    0.19
   1  -1  -5    4.25    0.17
   1  -1  -5    4.40    0.14
   1  -1  -5    4.57    0.14
   1  -1  -5    4.33    0.17
  -1   1   5    4.71    0.18
  -1   1   5    4.68    0.21
  -1   1   5    4.71    0.16
  -1   1   5    4.21    0.17
  -1   1   5    4.81    0.14
   0  -1  -5    2.83    0.12
   0  -1  -5    2.79    0.12
   0  -1  -5    2.95    0.11
   0  -1  -5    2.87    0.10
   0  -1  -5    2.91    0.09
   0   1   5    2.93    0.11
   0   1   5    2.84    0.15
   0   1   5    2.84    0.13
   0   1   5    2.75    0.12
   0   1   5    2.73    0.12
  -1  -1  -5    9.94    0.26
  -1  -1  -5    9.97    0.27
  -1  -1  -5    9.75    0.28
  -1  -1  -5   10.14    0.27
  -1  -1  -5    9.98    0.27
   1   1   5    9.96    0.29
   1   1   5   10.06    0.28
   1   1   5    9.87    0.27
   1   1   5    9.67    0.31
   1   1   5    9.52    0.29
   1   1   5    9.83    0.27
  -2  -1  -5   34.17    0.81
  -2  -1  -5   33.13    0.82
  -2  -1  -5   33.47    0.80
  -2  -1  -5   33.97    0.81
   2   1   5   32.22    0.84
   2   1   5   32.95    0.81
   2   1   5   31.90    0.83
   2   1   5   33.25    0.83
   2   1   5   30.93    0.85
  -3  -1  -5    2.54    0.11
  -3  -1  -5    2.46    0.11
  -3  -1  -5    2.15    0.12
  -3  -1  -5    2.53    0.11
   3   1   5    2.23    0.14
   3   1   5    2.31    0.13
   3   1   5    2.33    0.12
   3   1   5    2.37    0.15
   3   1   5    2.18    0.12
  -4  -1  -5    9.79    0.28
  -4  -1  -5   10.31    0.29
  -4  -1  -5    9.84    0.30
  -4  -1  -5    9.92    0.30
   4   1   5    9.96    0.36
   4   1   5   10.23    0.33
   4   1   5   10.00    0.33
   4   1   5    9.91    0.34
   4   1   5   10.11    0.31
  -5  -1  -5    6.73    0.24
  -5  -1  -5    6.75    0.22
  -5  -1  -5    6.86    0.24
   5   1   5    6.92    0.31
   5   1   5    6.82    0.27
   5   1   5    7.10    0.27
   5   1   5    7.06    0.25
   5   1   5    6.85    0.29
  -6  -1  -5    0.34    0.06
  -6  -1  -5    0.27    0.06
  -6  -1  -5    0.29    0.06
   6   1   5    0.26    0.10
   6   1   5    0.26    0.06
   6   1   5    0.34    0.08
   6   1   5    0.25    0.08
   5  -2  -5   -0.10    0.08
   5  -2  -5   -0.14    0.10
  -5   2   5    0.09    0.11
   4  -2  -5    0.52    0.10
   4  -2  -5    0.41    0.12
   4  -2  -5    0.53    0.11
  -4   2   5    0.37    0.11
  -4   2   5    0.25    0.08
   3  -2  -5    5.16    0.27
   3  -2  -5    5.08    0.18
   3  -2  -5    5.21    0.24
   3  -2  -5    5.42    0.24
  -3   2   5    5.39    0.25
  -3   2   5    5.43    0.29
  -3   2   5    5.20    0.23
   2  -2  -5    0.19    0.06
   2  -2  -5    0.19    0.06
   2  -2  -5    0.19    0.04
   2  -2  -5    0.19    0.04
  -2   2   5    0.17    0.07
  -2   2   5    0.19    0.06
  -2   2   5    0.19    0.05
   1  -2  -5   34.73    0.84
   1  -2  -5   33.84    0.88
   1  -2  -5   35.16    0.84
   1  -2  -5   33.97    0.87
  -1   2   5   34.39    0.88
  -1   2   5   34.61    0.87
  -1   2   5   35.96    0.91
  -1   2   5   34.15    0.85
   0  -2  -5    6.83    0.22
   0  -2  -5    7.02    0.21
   0  -2  -5    6.98    0.20
   0  -2  -5    7.07    0.20
   0  -2  -5    6.86    0.18
   0   2   5    6.90    0.21
   0   2   5    6.98    0.22
   0   2   5    7.25    0.20
   0   2   5    7.04    0.26
   0   2   5    6.97    0.22
  -1  -2  -5    0.41    0.05
  -1  -2  -5    0.46    0.05
  -1  -2  -5    0.47    0.06
  -1  -2  -5    0.39    0.06
   1   2   5    0.36    0.07
   1   2   5    0.42    0.07
   1   2   5    0.45    0.07
   1   2   5    0.41    0.06
   1   2   5    0.38    0.09
  -2  -2  -5   33.18    0.79
  -2  -2  -5   32.00    0.80
  -2  -2  -5   33.18    0.80
  -2  -2  -5   33.39    0.80
   2   2   5   31.23    0.85
   2   2   5   33.28    0.83
   2   2   5   30.62    0.80
   2   2   5   32.24    0.82
   2   2   5   33.10    0.82
  -3  -2  -5    0.54    0.07
  -3  -2  -5    0.49    0.06
  -3  -2  -5    0.53    0.06
  -3  -2  -5    0.35    0.05
   3   2   5    0.45    0.09
   3   2   5    0.56    0.07
   3   2   5    0.48    0.08
   3   2   5    0.47    0.10
   3   2   5    0.52    0.08
  -4  -2  -5    0.89    0.09
  -4  -2  -5    0.82    0.09
  -4  -2  -5    0.93    0.08
  -4  -2  -5    0.67    0.10
   4   2   5    0.86    0.11
   4   2   5    0.95    0.10
   4   2   5    0.80    0.11
   4   2   5    0.93    0.14
  -5  -2  -5    3.75    0.17
  -5  -2  -5    3.83    0.15
  -5  -2  -5    3.74    0.19
  -5  -2  -5    4.04    0.17
   5   2   5    3.96    0.24
   5   2   5    3.91    0.20
   5   2   5    3.88    0.19
   5   2   5    3.73    0.21
  -6  -2  -5   24.60    0.65
  -6  -2  -5   24.10    0.66
  -6  -2  -5   24.53    0.72
  -6  -2  -5   24.08    0.69
   6   2   5   24.75    0.78
   6   2   5   24.85    0.70
   6   2   5   24.75    0.74
   6   2   5   24.62    0.72
   4  -3  -5    0.12    0.09
   4  -3  -5    0.13    0.10
  -4   3   5    0.17    0.11
  -4   3   5   -0.03    0.10
   3  -3  -5   -0.03    0.07
   3  -3  -5   -0.02    0.07
   3  -3  -5   -0.08    0.04
   3  -3  -5   -0.05    0.05
  -3   3   5   -0.08    0.08
  -3   3   5    0.01    0.08
   2  -3  -5    2.85    0.17
   2  -3  -5    2.73    0.18
   2  -3  -5    2.85    0.13
   2  -3  -5    2.85    0.13
  -2   3   5    2.78    0.17
  -2   3   5    2.67    0.22
  -2   3   5    2.94    0.19
   1  -3  -5   41.78    1.07
   1  -3  -5   43.93    1.04
   1  -3  -5   41.42    1.06
   1  -3  -5   42.35    1.04
  -1   3   5   43.46    1.06
  -1   3   5   43.07    1.08
  -1   3   5   42.70    1.11
   0  -3  -5    6.89    0.23
   0  -3  -5    7.36    0.19
   0  -3  -5    7.40    0.21
   0  -3  -5    6.99    0.22
   0  -3  -5    7.20    0.21
   0   3   5    6.91    0.27
   0   3   5    7.05    0.23
   0   3   5    6.86    0.21
   0   3   5    7.00    0.21
   0   3   5    7.15    0.25
  -1  -3  -5    6.00    0.19
  -1  -3  -5    5.89    0.18
  -1  -3  -5    6.11    0.18
  -1  -3  -5    6.13    0.19
  -1  -3  -5    6.11    0.18
   1   3   5    6.18    0.17
   1   3   5    5.64    0.23
   1   3   5    5.94    0.18
   1   3   5    5.58    0.20
   1   3   5    5.96    0.21
   1   3   5    6.14    0.20
  -2  -3  -5   70.86    1.66
  -2  -3  -5   71.43    1.66
  -2  -3  -5   71.32    1.66
  -2  -3  -5   70.88    1.67
  -2  -3  -5   70.01    1.66
   2   3   5   71.21    1.70
   2   3   5   64.66    1.68
   2   3   5   67.82    1.73
   2   3   5   69.94    1.68
   2   3   5   66.64    1.69
  -3  -3  -5    1.53    0.09
  -3  -3  -5    1.40    0.11
  -3  -3  -5    1.50    0.09
  -3  -3  -5    1.48    0.10
   3   3   5    1.45    0.15
   3   3   5    1.39    0.12
   3   3   5    1.49    0.10
   3   3   5    1.44    0.11
   3   3   5    1.43    0.11
  -4  -3  -5    2.52    0.11
  -4  -3  -5    2.58    0.15
  -4  -3  -5    2.57    0.13
  -4  -3  -5    2.61    0.13
   4   3   5    2.57    0.15
   4   3   5    2.51    0.16
   4   3   5    2.55    0.16
   4   3   5    2.64    0.20
   4   3   5    2.50    0.15
  -5  -3  -5   10.37    0.35
  -5  -3  -5   10.51    0.31
  -5  -3  -5   10.35    0.37
  -5  -3  -5   10.48    0.32
  -5  -3  -5   10.56    0.30
   5   3   5   10.16    0.38
   5   3   5   10.34    0.37
   5   3   5   10.31    0.35
   5   3   5   10.17    0.43
  -6  -3  -5   19.09    0.60
  -6  -3  -5   18.68    0.54
  -6  -3  -5   19.29    0.57
   6   3   5   19.02    0.61
   6   3   5   19.16    0.60
   6   3   5   19.94    0.68
   4  -4  -5    0.22    0.07
   4  -4  -5    0.09    0.09
   4  -4  -5    0.10    0.10
  -4   4   5    0.20    0.10
  -4   4   5    0.04    0.12
   3  -4  -5   -0.10    0.05
   3  -4  -5    0.01    0.08
   3  -4  -5   -0.03    0.05
  -3   4   5   -0.12    0.08
   2  -4  -5   -0.05    0.05
   2  -4  -5   -0.05    0.06
   2  -4  -5   -0.04    0.06
   2  -4  -5    0.02    0.05
  -2   4   5   -0.01    0.05
  -2   4   5    0.05    0.06
  -2   4   5   -0.08    0.07
  -2   4   5   -0.01    0.08
   1  -4  -5    0.41    0.07
   1  -4  -5    0.60    0.09
   1  -4  -5    0.35    0.07
   1  -4  -5    0.59    0.09
  -1   4   5    0.31    0.07
  -1   4   5    0.56    0.10
  -1   4   5    0.43    0.08
   0  -4  -5    3.65    0.14
   0  -4  -5    3.74    0.13
   0  -4  -5    3.69    0.16
   0  -4  -5    3.61    0.14
   0   4   5    3.60    0.14
   0   4   5    3.70    0.16
   0   4   5    3.60    0.19
   0   4   5    3.36    0.20
  -1  -4  -5   27.34    0.66
  -1  -4  -5   26.75    0.67
  -1  -4  -5   26.50    0.66
  -1  -4  -5   27.12    0.68
  -1  -4  -5   27.00    0.67
   1   4   5   27.07    0.73
   1   4   5   26.21    0.71
   1   4   5   25.53    0.69
   1   4   5   25.19    0.73
  -2  -4  -5  162.03    3.68
  -2  -4  -5  159.32    3.69
  -2  -4  -5  158.30    3.68
  -2  -4  -5  158.71    3.71
  -2  -4  -5  157.75    3.68
   2   4   5  152.45    3.77
   2   4   5  154.91    3.71
   2   4   5  149.15    3.72
   2   4   5  152.12    3.72
  -3  -4  -5    4.70    0.21
  -3  -4  -5    4.79    0.17
  -3  -4  -5    4.73    0.16
  -3  -4  -5    4.89    0.18
  -3  -4  -5    4.72    0.19
   3   4   5    4.71    0.21
   3   4   5    4.77    0.26
   3   4   5    4.69    0.21
   3   4   5    4.75    0.21
  -4  -4  -5   -0.03    0.04
  -4  -4  -5    0.00    0.04
  -4  -4  -5   -0.03    0.03
  -4  -4  -5    0.03    0.04
  -4  -4  -5   -0.06    0.04
   4   4   5   -0.02    0.04
   4   4   5   -0.01    0.04
   4   4   5    0.03    0.05
   4   4   5    0.03    0.06
  -5  -4  -5   -0.02    0.06
  -5  -4  -5   -0.07    0.06
   5   4   5    0.02    0.07
   5   4   5   -0.06    0.06
   5   4   5   -0.05    0.05
  -6  -4  -5   -0.06    0.06
   6   4   5    0.05    0.08
   4  -5  -5    0.06    0.09
   4  -5  -5    0.05    0.11
   4  -5  -5    0.08    0.06
  -4   5   5    0.08    0.10
   3  -5  -5    1.85    0.20
   3  -5  -5    1.73    0.20
   3  -5  -5    1.71    0.16
   3  -5  -5    1.75    0.16
  -3   5   5    1.25    0.26
  -3   5   5    1.95    0.19
   2  -5  -5    0.82    0.16
   2  -5  -5    0.73    0.13
   2  -5  -5    0.87    0.13
  -2   5   5    1.03    0.15
  -2   5   5    1.06    0.22
  -2   5   5    0.72    0.13
   1  -5  -5    2.29    0.15
   1  -5  -5    2.29    0.14
   1  -5  -5    2.39    0.17
  -1   5   5    2.37    0.15
  -1   5   5    2.46    0.21
  -1   5   5    2.87    0.21
   0  -5  -5    2.33    0.15
   0  -5  -5    2.27    0.14
   0  -5  -5    2.19    0.13
   0  -5  -5    2.06    0.12
   0   5   5    2.85    0.20
   0   5   5    2.53    0.19
   0   5   5    2.45    0.13
  -1  -5  -5   14.15    0.38
  -1  -5  -5   13.90    0.39
  -1  -5  -5   13.92    0.38
   1   5   5   13.42    0.44
   1   5   5   13.96    0.41
   1   5   5   13.87    0.47
  -2  -5  -5   12.12    0.34
  -2  -5  -5   12.07    0.34
  -2  -5  -5   12.25    0.34
  -2  -5  -5   12.25    0.33
   2   5   5   11.18    0.44
   2   5   5   11.42    0.38
   2   5   5   11.37    0.39
  -3  -5  -5    3.43    0.15
  -3  -5  -5    3.60    0.14
  -3  -5  -5    3.39    0.16
  -3  -5  -5    3.32    0.18
  -3  -5  -5    3.41    0.16
   3   5   5    3.23    0.26
   3   5   5    3.18    0.20
   3   5   5    3.42    0.19
  -4  -5  -5    8.22    0.28
  -4  -5  -5    8.47    0.26
  -4  -5  -5    8.35    0.31
  -4  -5  -5    8.11    0.29
   4   5   5    8.50    0.40
   4   5   5    8.24    0.32
   4   5   5    8.20    0.33
  -5  -5  -5    4.39    0.22
  -5  -5  -5    4.44    0.25
  -5  -5  -5    4.29    0.21
   5   5   5    4.52    0.26
   5   5   5    4.72    0.34
   5   5   5    4.18    0.25
   3  -6  -5    2.67    0.24
   3  -6  -5    2.47    0.19
  -3   6   5    2.54    0.23
   2  -6  -5    0.01    0.07
   2  -6  -5    0.20    0.09
   2  -6  -5    0.04    0.07
  -2   6   5    0.22    0.09
  -2   6   5    0.01    0.12
   1  -6  -5   -0.06    0.06
   1  -6  -5   -0.01    0.07
  -1   6   5   -0.04    0.10
  -1   6   5   -0.04    0.07
   0  -6  -5    2.09    0.15
   0  -6  -5    2.09    0.14
   0  -6  -5    2.37    0.16
   0   6   5    2.44    0.22
  -1  -6  -5    0.08    0.05
  -1  -6  -5    0.10    0.05
  -1  -6  -5    0.01    0.05
   1   6   5    0.16    0.08
   1   6   5    0.17    0.07
  -2  -6  -5    5.57    0.20
  -2  -6  -5    5.20    0.21
  -2  -6  -5    5.48    0.21
   2   6   5    4.99    0.23
   2   6   5    5.45    0.31
   2   6   5    5.44    0.27
  -3  -6  -5   -0.07    0.05
   3   6   5   -0.01    0.04
   3   6   5    0.00    0.07
   3   6   5    0.03    0.07
  -4  -6  -5    5.62    0.25
  -4  -6  -5    5.71    0.26
   4   6   5    6.06    0.31
   4   6   5    6.19    0.37
   4   6   5    5.77    0.28
   1  -7  -5    3.00    0.19
  -1   7   5    3.58    0.28
  -1   7   5    2.65    0.23
   0  -7  -5    1.46    0.15
   0  -7  -5    1.28    0.16
  -1  -7  -5   -0.04    0.06
  -1  -7  -5   -0.01    0.06
  -1  -7  -5   -0.06    0.06
   1   7   5    0.17    0.09
   1   7   5    0.12    0.07
  -2  -7  -5    0.08    0.06
   2   7   5    0.19    0.09
   2   7   5    0.12    0.08
   3   7   5    1.14    0.20
   3   7   5    1.01    0.23
   0   4  -6    5.52    0.27
   0   4  -6    5.34    0.26
   0  -4   6    5.33    0.25
  -1   4  -6   22.72    0.66
  -1   4  -6   24.20    0.67
   1  -4   6   23.04    0.63
   1  -4   6   21.78    0.66
   1  -4   6   22.95    0.68
  -2   4  -6    1.16    0.18
  -2   4  -6    1.67    0.16
   2  -4   6    1.41    0.19
   2  -4   6    1.28    0.18
   2  -4   6    1.22    0.15
  -3   4  -6    1.07    0.19
  -3   4  -6    1.13    0.14
  -3   4  -6    1.14    0.14
   3  -4   6    0.95    0.19
   2   3  -6    0.27    0.10
   2   3  -6    0.17    0.07
  -2  -3   6    0.29    0.07
   1   3  -6    0.06    0.07
   1   3  -6    0.07    0.06
  -1  -3   6    0.04    0.07
  -1  -3   6    0.07    0.06
   0   3  -6    4.94    0.23
   0   3  -6    4.85    0.23
   0  -3   6    4.69    0.21
   0  -3   6    4.97    0.24
  -1   3  -6    1.63    0.15
  -1   3  -6    1.47    0.16
   1  -3   6    1.90    0.13
   1  -3   6    1.53    0.15
   1  -3   6    1.96    0.17
  -2   3  -6    0.12    0.06
  -2   3  -6    0.02    0.05
  -2   3  -6   -0.04    0.07
  -2   3  -6    0.01    0.05
   2  -3   6    0.12    0.06
   2  -3   6    0.08    0.05
   2  -3   6    0.09    0.06
  -3   3  -6    5.50    0.22
  -3   3  -6    5.45    0.26
  -3   3  -6    5.34    0.22
   3  -3   6    5.91    0.27
   3  -3   6    5.56    0.26
   3  -3   6    5.25    0.23
  -4   3  -6    3.59    0.19
  -4   3  -6    3.56    0.20
  -4   3  -6    3.28    0.24
   4  -3   6    3.84    0.24
   4  -3   6    3.27    0.20
   4  -3   6    3.38    0.23
   3   2  -6    0.04    0.09
   3   2  -6    0.03    0.09
   3   2  -6   -0.10    0.09
   2   2  -6    7.26    0.28
   2   2  -6    7.21    0.29
  -2  -2   6    6.45    0.32
  -2  -2   6    6.73    0.29
  -2  -2   6    6.16    0.29
  -2  -2   6    7.01    0.26
   1   2  -6    1.93    0.16
   1   2  -6    1.93    0.15
  -1  -2   6    1.94    0.14
  -1  -2   6    1.85    0.17
   0   2  -6    0.29    0.07
   0   2  -6    0.39    0.07
   0  -2   6    0.32    0.06
   0  -2   6    0.31    0.07
  -1   2  -6   12.44    0.38
  -1   2  -6   12.66    0.34
  -1   2  -6   12.60    0.35
  -1   2  -6   12.58    0.39
   1  -2   6   12.10    0.38
   1  -2   6   13.15    0.36
   1  -2   6   12.22    0.40
  -2   2  -6    3.31    0.15
  -2   2  -6    3.10    0.15
  -2   2  -6    3.20    0.15
  -2   2  -6    3.13    0.18
   2  -2   6    3.23    0.19
   2  -2   6    3.25    0.16
   2  -2   6    3.06    0.17
  -3   2  -6    1.33    0.12
  -3   2  -6    1.41    0.12
  -3   2  -6    1.06    0.15
   3  -2   6    1.74    0.16
   3  -2   6    1.29    0.13
   3  -2   6    1.37    0.14
  -4   2  -6    1.52    0.18
  -4   2  -6    1.89    0.15
  -4   2  -6    1.63    0.14
   4  -2   6    1.93    0.17
   4  -2   6    1.88    0.15
   4  -2   6    2.16    0.18
  -5   2  -6   17.63    0.50
  -5   2  -6   17.50    0.52
  -5   2  -6   18.27    0.54
   5  -2   6   17.01    0.55
   5  -2   6   17.37    0.58
   5  -2   6   16.99    0.52
   3   1  -6    1.28    0.21
  -3  -1   6    1.09    0.18
  -3  -1   6    0.96    0.24
   2   1  -6   14.10    0.47
   2   1  -6   14.83    0.44
   2   1  -6   14.18    0.45
  -2  -1   6   14.37    0.45
  -2  -1   6   14.18    0.44
  -2  -1   6   14.34    0.49
   1   1  -6    8.03    0.42
   1   1  -6    8.55    0.29
   1   1  -6    8.56    0.29
  -1  -1   6    8.11    0.29
  -1  -1   6    8.29    0.32
  -1  -1   6    8.18    0.29
  -1  -1   6    8.86    0.27
   0   1  -6    0.87    0.10
   0   1  -6    0.82    0.08
   0   1  -6    0.97    0.11
   0  -1   6    0.68    0.12
   0  -1   6    0.66    0.10
  -1   1  -6   32.85    0.85
  -1   1  -6   33.43    0.83
  -1   1  -6   33.88    0.82
  -1   1  -6   33.88    0.86
   1  -1   6   34.81    0.84
   1  -1   6   32.86    0.85
   1  -1   6   33.11    0.85
   1  -1   6   32.72    0.87
  -2   1  -6    3.59    0.14
  -2   1  -6    3.59    0.15
  -2   1  -6    3.56    0.15
  -2   1  -6    3.29    0.17
   2  -1   6    3.70    0.15
   2  -1   6    3.60    0.15
   2  -1   6    3.42    0.16
   2  -1   6    3.53    0.18
  -3   1  -6    1.00    0.11
  -3   1  -6    0.70    0.13
  -3   1  -6    0.85    0.10
   3  -1   6    1.03    0.13
   3  -1   6    0.87    0.10
   3  -1   6    0.91    0.11
  -4   1  -6   14.27    0.40
  -4   1  -6   14.22    0.43
  -4   1  -6   14.15    0.41
   4  -1   6   13.97    0.46
   4  -1   6   14.02    0.44
   4  -1   6   13.71    0.42
  -5   1  -6   20.77    0.57
  -5   1  -6   20.83    0.59
  -5   1  -6   21.84    0.60
   5  -1   6   21.03    0.65
   5  -1   6   20.74    0.59
   5  -1   6   20.75    0.62
  -6   1  -6    1.54    0.15
   6  -1   6    2.23    0.35
   6  -1   6    1.67    0.20
   4   0  -6    0.03    0.08
   4   0  -6    0.01    0.10
   3   0  -6    0.13    0.09
   3   0  -6    0.17    0.07
   3   0  -6    0.20    0.09
  -3   0   6    0.06    0.07
   2   0  -6    0.34    0.08
   2   0  -6    0.27    0.08
   2   0  -6    0.30    0.07
  -2   0   6    0.17    0.08
  -2   0   6    0.54    0.12
   1   0  -6    8.37    0.30
   1   0  -6    8.72    0.29
   1   0  -6    8.43    0.24
   1   0  -6    8.39    0.29
  -1   0   6    8.46    0.29
  -1   0   6    8.77    0.28
  -1   0   6    8.05    0.28
  -1   0   6    8.57    0.33
  -1   0   6    9.20    0.26
   0   0  -6   14.00    0.41
   0   0  -6   14.21    0.41
   0   0  -6   14.55    0.38
   0   0  -6   14.59    0.38
   0   0   6   13.82    0.41
   0   0   6   15.34    0.40
   0   0   6   14.51    0.41
   0   0   6   14.50    0.44
  -1   0  -6  202.31    4.81
  -1   0  -6  206.83    4.80
  -1   0  -6  210.64    4.81
  -1   0  -6  206.02    4.88
   1   0   6  196.91    4.94
   1   0   6  206.65    4.83
   1   0   6  202.47    4.85
   1   0   6  204.06    4.90
   1   0   6  203.59    4.89
  -2   0  -6    1.32    0.10
  -2   0  -6    1.31    0.10
  -2   0  -6    1.34    0.11
   2   0   6    1.21    0.10
   2   0   6    1.31    0.10
   2   0   6    1.20    0.11
   2   0   6    1.28    0.12
   2   0   6    1.20    0.11
  -3   0  -6    0.00    0.04
  -3   0  -6   -0.07    0.04
  -3   0  -6   -0.05    0.04
   3   0   6   -0.01    0.04
   3   0   6    0.07    0.04
   3   0   6    0.05    0.03
   3   0   6    0.00    0.04
   3   0   6   -0.01    0.04
  -4   0  -6    0.06    0.05
  -4   0  -6    0.14    0.05
  -4   0  -6    0.03    0.05
  -4   0  -6    0.11    0.06
   4   0   6    0.10    0.05
   4   0   6    0.09    0.06
   4   0   6    0.09    0.05
   4   0   6    0.14    0.04
  -5   0  -6   -0.01    0.06
  -5   0  -6    0.04    0.05
  -5   0  -6    0.02    0.06
  -5   0  -6   -0.01    0.05
   5   0   6   -0.02    0.06
   5   0   6   -0.04    0.05
   5   0   6    0.03    0.06
   5   0   6    0.03    0.05
  -6   0  -6    0.62    0.08
  -6   0  -6    0.79    0.13
  -6   0  -6    0.51    0.08
   6   0   6    0.54    0.08
   6   0   6    0.68    0.10
   6   0   6    0.95    0.18
   4  -1  -6    0.97    0.19
   4  -1  -6    0.79    0.13
   3  -1  -6    1.05    0.19
   3  -1  -6    0.96    0.16
   3  -1  -6    1.05    0.16
  -3   1   6    1.22    0.17
   2  -1  -6    3.55    0.19
   2  -1  -6    3.53    0.21
   2  -1  -6    3.66    0.19
  -2   1   6    3.53    0.24
  -2   1   6    3.73    0.20
  -2   1   6    3.62    0.20
  -2   1   6    3.97    0.17
   1  -1  -6    2.28    0.14
   1  -1  -6    2.21    0.15
   1  -1  -6    2.18    0.10
   1  -1  -6    2.28    0.15
   1  -1  -6    2.26    0.10
  -1   1   6    2.52    0.13
  -1   1   6    2.27    0.15
  -1   1   6    2.23    0.13
  -1   1   6    2.28    0.19
   0  -1  -6   23.30    0.62
   0  -1  -6   24.26    0.60
   0  -1  -6   23.03    0.63
   0  -1  -6   24.34    0.60
   0   1   6   23.04    0.61
   0   1   6   24.13    0.66
   0   1   6   24.23    0.60
   0   1   6   24.10    0.63
   0   1   6   24.10    0.63
  -1  -1  -6   43.72    1.03
  -1  -1  -6   41.69    1.06
  -1  -1  -6   43.37    1.03
  -1  -1  -6   43.47    1.04
  -1  -1  -6   41.63    1.04
   1   1   6   42.20    1.06
   1   1   6   43.45    1.05
   1   1   6   41.46    1.06
   1   1   6   42.79    1.09
   1   1   6   42.04    1.03
  -2  -1  -6   -0.02    0.03
  -2  -1  -6   -0.02    0.03
  -2  -1  -6    0.03    0.04
   2   1   6   -0.05    0.03
   2   1   6   -0.05    0.03
  -3  -1  -6    9.35    0.27
  -3  -1  -6    9.31    0.28
  -3  -1  -6    9.02    0.27
  -3  -1  -6    9.28    0.28
   3   1   6    8.75    0.32
   3   1   6    8.98    0.28
   3   1   6    8.92    0.29
   3   1   6    8.94    0.29
   3   1   6    8.74    0.31
  -4  -1  -6   16.07    0.45
  -4  -1  -6   15.57    0.43
  -4  -1  -6   16.21    0.44
  -4  -1  -6   15.85    0.44
   4   1   6   15.94    0.51
   4   1   6   15.82    0.49
   4   1   6   15.92    0.45
   4   1   6   16.07    0.47
   4   1   6   15.94    0.47
  -5  -1  -6    7.70    0.27
  -5  -1  -6    7.58    0.25
  -5  -1  -6    7.86    0.27
   5   1   6    7.53    0.34
   5   1   6    8.03    0.33
   5   1   6    7.62    0.29
   5   1   6    7.97    0.30
   5   1   6    8.07    0.28
  -6  -1  -6    2.27    0.16
  -6  -1  -6    2.23    0.15
  -6  -1  -6    2.12    0.14
  -6  -1  -6    2.40    0.17
   6   1   6    2.49    0.19
   6   1   6    2.34    0.19
   6   1   6    2.24    0.21
   4  -2  -6    2.88    0.24
   4  -2  -6    2.98    0.24
  -4   2   6    2.53    0.33
  -4   2   6    3.23    0.27
   3  -2  -6    0.60    0.10
  -3   2   6    0.39    0.08
  -3   2   6    0.41    0.12
   2  -2  -6   -0.04    0.04
   2  -2  -6    0.07    0.06
   2  -2  -6   -0.07    0.06
  -2   2   6   -0.02    0.06
  -2   2   6   -0.07    0.05
  -2   2   6   -0.07    0.07
   1  -2  -6    1.00    0.11
   1  -2  -6    0.64    0.08
   1  -2  -6    0.56    0.09
   1  -2  -6    0.64    0.08
  -1   2   6    0.99    0.12
  -1   2   6    0.98    0.17
  -1   2   6    1.05    0.13
   0  -2  -6    3.42    0.13
   0  -2  -6    3.36    0.16
   0  -2  -6    3.25    0.14
   0  -2  -6    3.20    0.15
   0   2   6    3.81    0.17
   0   2   6    3.77    0.20
   0   2   6    3.59    0.16
   0   2   6    3.64    0.15
  -1  -2  -6   20.86    0.55
  -1  -2  -6   21.33    0.54
  -1  -2  -6   21.09    0.53
  -1  -2  -6   21.48    0.53
   1   2   6   20.85    0.56
   1   2   6   20.97    0.56
   1   2   6   20.25    0.59
   1   2   6   20.66    0.55
   1   2   6   21.41    0.54
  -2  -2  -6    1.56    0.09
  -2  -2  -6    1.57    0.10
  -2  -2  -6    1.62    0.09
  -2  -2  -6    1.57    0.09
   2   2   6    1.37    0.13
   2   2   6    1.31    0.10
   2   2   6    1.38    0.10
   2   2   6    1.45    0.12
  -3  -2  -6   12.78    0.35
  -3  -2  -6   12.48    0.34
  -3  -2  -6   12.53    0.35
  -3  -2  -6   12.72    0.35
   3   2   6   12.23    0.37
   3   2   6   12.07    0.38
   3   2   6   12.18    0.39
   3   2   6   12.17    0.41
  -4  -2  -6    4.28    0.17
  -4  -2  -6    4.12    0.16
  -4  -2  -6    4.03    0.17
   4   2   6    3.97    0.21
   4   2   6    4.03    0.20
   4   2   6    4.09    0.19
   4   2   6    4.26    0.24
  -5  -2  -6    2.89    0.16
  -5  -2  -6    2.83    0.14
  -5  -2  -6    2.94    0.17
  -5  -2  -6    2.72    0.15
   5   2   6    3.01    0.19
   5   2   6    2.74    0.17
   5   2   6    2.95    0.22
   5   2   6    2.75    0.20
  -6  -2  -6    4.44    0.18
  -6  -2  -6    4.59    0.23
  -6  -2  -6    4.60    0.21
  -6  -2  -6    4.60    0.21
   6   2   6    4.50    0.29
   6   2   6    4.75    0.24
   6   2   6    4.59    0.27
   6   2   6    4.54    0.25
   4  -3  -6    0.79    0.13
   4  -3  -6    1.08    0.21
  -4   3   6    0.85    0.15
  -4   3   6    0.55    0.15
   3  -3  -6   -0.04    0.05
   3  -3  -6   -0.01    0.08
   3  -3  -6   -0.08    0.08
  -3   3   6   -0.05    0.09
   2  -3  -6    9.95    0.34
   2  -3  -6   10.16    0.36
   2  -3  -6    9.91    0.30
   2  -3  -6    9.99    0.30
  -2   3   6   10.13    0.34
  -2   3   6   10.51    0.41
  -2   3   6   10.03    0.36
   1  -3  -6    3.42    0.17
   1  -3  -6    3.37    0.18
   1  -3  -6    3.55    0.15
   1  -3  -6    3.48    0.14
  -1   3   6    3.74    0.18
  -1   3   6    3.59    0.19
  -1   3   6    3.57    0.23
   0  -3  -6    0.01    0.04
   0  -3  -6    0.00    0.03
   0  -3  -6   -0.02    0.03
   0  -3  -6   -0.06    0.04
   0   3   6    0.00    0.04
   0   3   6    0.00    0.05
   0   3   6   -0.02    0.05
  -1  -3  -6    4.25    0.17
  -1  -3  -6    4.51    0.15
  -1  -3  -6    4.43    0.16
  -1  -3  -6    4.34    0.14
   1   3   6    4.16    0.17
   1   3   6    4.21    0.16
   1   3   6    4.36    0.18
   1   3   6    4.29    0.17
   1   3   6    4.16    0.21
  -2  -3  -6    0.09    0.04
  -2  -3  -6    0.05    0.03
  -2  -3  -6    0.02    0.04
  -2  -3  -6    0.04    0.03
  -2  -3  -6    0.06    0.03
   2   3   6    0.05    0.04
   2   3   6    0.05    0.03
   2   3   6    0.09    0.04
   2   3   6    0.06    0.05
   2   3   6    0.10    0.04
  -3  -3  -6    0.16    0.04
  -3  -3  -6    0.18    0.05
  -3  -3  -6    0.10    0.04
  -3  -3  -6    0.15    0.04
   3   3   6    0.12    0.05
   3   3   6    0.14    0.06
   3   3   6    0.15    0.04
   3   3   6    0.14    0.04
  -4  -3  -6    6.78    0.23
  -4  -3  -6    6.68    0.21
  -4  -3  -6    6.61    0.25
  -4  -3  -6    6.61    0.23
   4   3   6    6.49    0.25
   4   3   6    6.52    0.27
   4   3   6    6.70    0.27
   4   3   6    6.73    0.32
  -5  -3  -6   43.99    1.17
  -5  -3  -6   44.01    1.14
  -5  -3  -6   45.60    1.11
  -5  -3  -6   45.62    1.12
  -5  -3  -6   44.76    1.09
   5   3   6   43.31    1.18
   5   3   6   44.34    1.18
   5   3   6   43.73    1.24
   5   3   6   43.74    1.15
  -6  -3  -6    1.33    0.14
  -6  -3  -6    1.45    0.21
  -6  -3  -6    1.41    0.16
   6   3   6    1.38    0.17
   6   3   6    1.41    0.19
   6   3   6    1.53    0.22
   6   3   6    1.27    0.29
   4  -4  -6    0.01    0.10
   4  -4  -6   -0.06    0.09
  -4   4   6    0.11    0.10
   3  -4  -6    0.05    0.06
   3  -4  -6    0.13    0.09
   3  -4  -6    0.13    0.06
   3  -4  -6   -0.04    0.09
  -3   4   6    0.00    0.11
  -3   4   6    0.25    0.09
   2  -4  -6    7.92    0.27
   2  -4  -6    8.08    0.32
   2  -4  -6    8.19    0.27
   2  -4  -6    7.76    0.31
  -2   4   6    7.92    0.34
  -2   4   6    8.27    0.30
  -2   4   6    8.41    0.30
  -2   4   6    8.28    0.38
   1  -4  -6    3.26    0.19
   1  -4  -6    3.37    0.15
   1  -4  -6    3.42    0.15
   1  -4  -6    3.11    0.17
  -1   4   6    3.22    0.21
  -1   4   6    3.31    0.16
  -1   4   6    3.25    0.24
  -1   4   6    3.57    0.18
   0  -4  -6    4.62    0.17
   0  -4  -6    4.46    0.18
   0  -4  -6    4.74    0.20
   0  -4  -6    4.69    0.17
   0   4   6    4.49    0.24
   0   4   6    4.76    0.20
   0   4   6    4.74    0.20
   0   4   6    4.39    0.22
  -1  -4  -6   49.33    1.20
  -1  -4  -6   49.26    1.22
  -1  -4  -6   50.19    1.20
  -1  -4  -6   49.28    1.19
   1   4   6   49.11    1.23
   1   4   6   47.80    1.28
   1   4   6   48.47    1.24
  -2  -4  -6    1.60    0.10
  -2  -4  -6    1.50    0.10
  -2  -4  -6    1.54    0.11
  -2  -4  -6    1.49    0.11
   2   4   6    1.57    0.17
   2   4   6    1.61    0.12
   2   4   6    1.61    0.12
   2   4   6    1.61    0.13
  -3  -4  -6    3.87    0.16
  -3  -4  -6    3.71    0.16
  -3  -4  -6    3.90    0.17
  -3  -4  -6    4.33    0.19
  -3  -4  -6    3.87    0.15
   3   4   6    3.98    0.25
   3   4   6    3.86    0.18
   3   4   6    3.88    0.20
   3   4   6    3.90    0.20
  -4  -4  -6    5.90    0.21
  -4  -4  -6    5.79    0.22
  -4  -4  -6    6.45    0.26
  -4  -4  -6    5.96    0.20
  -4  -4  -6    5.79    0.24
   4   4   6    5.76    0.26
   4   4   6    5.92    0.26
   4   4   6    6.25    0.33
  -5  -4  -6   18.92    0.53
  -5  -4  -6   19.19    0.56
  -5  -4  -6   19.07    0.52
  -5  -4  -6   19.18    0.59
   5   4   6   19.10    0.67
   5   4   6   18.99    0.59
   5   4   6   18.83    0.60
   3  -5  -6   -0.01    0.09
   3  -5  -6    0.01    0.06
   3  -5  -6    0.00    0.10
   3  -5  -6   -0.08    0.06
  -3   5   6   -0.15    0.12
  -3   5   6    0.08    0.09
   2  -5  -6    0.11    0.06
   2  -5  -6    0.04    0.06
   2  -5  -6    0.03    0.08
   2  -5  -6    0.13    0.09
  -2   5   6    0.15    0.10
  -2   5   6   -0.05    0.10
  -2   5   6    0.18    0.08
   1  -5  -6    0.59    0.08
   1  -5  -6    0.91    0.16
   1  -5  -6    0.83    0.13
  -1   5   6    0.95    0.13
  -1   5   6    0.59    0.12
   0  -5  -6   17.48    0.52
   0  -5  -6   17.55    0.49
   0  -5  -6   17.87    0.48
   0   5   6   17.87    0.57
   0   5   6   17.26    0.55
   0   5   6   19.05    0.52
  -1  -5  -6   57.99    1.41
  -1  -5  -6   58.05    1.42
  -1  -5  -6   58.42    1.40
   1   5   6   56.81    1.47
   1   5   6   57.49    1.44
   1   5   6   58.29    1.51
  -2  -5  -6    2.11    0.13
  -2  -5  -6    2.18    0.12
  -2  -5  -6    2.10    0.13
   2   5   6    2.16    0.23
   2   5   6    2.11    0.16
   2   5   6    2.16    0.16
  -3  -5  -6    0.00    0.04
  -3  -5  -6    0.01    0.05
  -3  -5  -6    0.01    0.05
  -3  -5  -6   -0.05    0.05
   3   5   6    0.10    0.07
   3   5   6    0.03    0.04
   3   5   6    0.04    0.06
  -4  -5  -6    0.34    0.07
  -4  -5  -6    0.31    0.07
  -4  -5  -6    0.38    0.07
   4   5   6    0.27    0.08
  -5  -5  -6    0.29    0.08
  -5  -5  -6    0.30    0.07
   5   5   6    0.35    0.11
   5   5   6    0.19    0.08
   2  -6  -6   -0.09    0.07
   2  -6  -6   -0.10    0.10
   2  -6  -6    0.08    0.09
  -2   6   6   -0.12    0.12
  -2   6   6    0.07    0.09
   1  -6  -6    0.11    0.08
   1  -6  -6    0.11    0.08
   1  -6  -6    0.29    0.09
  -1   6   6    0.24    0.12
  -1   6   6    0.25    0.13
   0  -6  -6    7.06    0.27
   0  -6  -6    6.87    0.26
   0   6   6    6.62    0.33
   0   6   6    8.45    0.37
  -1  -6  -6    2.36    0.15
  -1  -6  -6    1.89    0.14
  -1  -6  -6    2.22    0.14
   1   6   6    2.51    0.24
   1   6   6    2.15    0.22
   1   6   6    2.25    0.20
  -2  -6  -6    1.62    0.14
  -2  -6  -6    1.26    0.14
  -2  -6  -6    1.60    0.13
   2   6   6    1.69    0.23
   2   6   6    1.52    0.15
   2   6   6    1.69    0.18
  -3  -6  -6    6.72    0.26
  -3  -6  -6    7.55    0.25
  -3  -6  -6    7.28    0.26
   3   6   6    7.19    0.30
   3   6   6    7.19    0.32
   3   6   6    7.91    0.40
  -4  -6  -6    2.36    0.18
   4   6   6    2.62    0.20
   4   6   6    2.82    0.22
   4   6   6    3.05    0.29
  -1  -7  -6    1.34    0.24
  -1  -7  -6    1.13    0.15
   1   7   6    1.68    0.21
  -2  -7  -6    0.12    0.08
  -2  -7  -6    0.07    0.06
   2   7   6    0.21    0.09
   2   7   6    0.15    0.09
   0   3  -7   14.84    0.49
   0   3  -7   15.21    0.49
   0  -3   7   14.92    0.47
  -1   3  -7    1.70    0.16
  -1   3  -7    1.34    0.17
   1  -3   7    1.74    0.19
   1  -3   7    1.36    0.16
  -2   3  -7    2.17    0.19
   2  -3   7    2.24    0.17
   2  -3   7    2.63    0.22
   2  -3   7    2.12    0.19
  -3   3  -7    4.91    0.21
  -3   3  -7    4.92    0.26
  -3   3  -7    4.62    0.21
   3  -3   7    4.43    0.26
   3  -3   7    4.52    0.23
   2   2  -7   -0.02    0.07
   2   2  -7   -0.04    0.08
   1   2  -7    3.33    0.20
   1   2  -7    3.30    0.22
  -1  -2   7    3.43    0.21
  -1  -2   7    3.79    0.19
   0   2  -7    2.65    0.19
   0   2  -7    2.65    0.18
   0  -2   7    2.52    0.17
   0  -2   7    2.65    0.19
  -1   2  -7    0.04    0.06
  -1   2  -7    0.10    0.06
   1  -2   7    0.12    0.06
   1  -2   7    0.15    0.06
  -2   2  -7    7.06    0.28
  -2   2  -7    6.92    0.24
  -2   2  -7    6.92    0.24
   2  -2   7    6.46    0.27
   2  -2   7    7.15    0.30
   2  -2   7    7.02    0.25
  -3   2  -7    3.22    0.17
  -3   2  -7    3.22    0.17
  -3   2  -7    3.04    0.20
   3  -2   7    3.24    0.18
   3  -2   7    3.55    0.22
   3  -2   7    3.09    0.20
  -4   2  -7    2.13    0.17
  -4   2  -7    2.22    0.16
  -4   2  -7    1.93    0.20
   4  -2   7    2.09    0.16
   4  -2   7    2.39    0.21
   4  -2   7    1.90    0.19
   2   1  -7    1.53    0.18
   2   1  -7    1.50    0.17
  -2  -1   7    1.63    0.18
   1   1  -7    0.04    0.07
   1   1  -7    0.08    0.06
  -1  -1   7    0.10    0.06
   0   1  -7    4.27    0.21
   0   1  -7    4.23    0.20
   0  -1   7    4.27    0.21
   0  -1   7    4.54    0.19
   0  -1   7    3.99    0.21
  -1   1  -7    4.49    0.17
  -1   1  -7    4.63    0.19
  -1   1  -7    4.62    0.21
  -1   1  -7    4.60    0.17
   1  -1   7    4.65    0.22
   1  -1   7    4.60    0.20
   1  -1   7    4.70    0.20
  -2   1  -7    0.44    0.06
  -2   1  -7    0.43    0.06
  -2   1  -7    0.39    0.07
   2  -1   7    0.57    0.10
   2  -1   7    0.54    0.11
   2  -1   7    0.57    0.13
  -3   1  -7    4.58    0.22
  -3   1  -7    4.80    0.20
  -3   1  -7    4.86    0.19
   3  -1   7    4.75    0.20
   3  -1   7    4.77    0.24
   3  -1   7    4.62    0.22
  -4   1  -7   38.64    1.01
  -4   1  -7   40.02    0.99
  -4   1  -7   39.56    0.98
   4  -1   7   36.91    1.02
   4  -1   7   38.10    1.05
   4  -1   7   37.10    0.99
  -5   1  -7    3.31    0.22
  -5   1  -7    3.50    0.22
  -5   1  -7    3.15    0.19
   5  -1   7    3.71    0.25
   5  -1   7    3.45    0.22
   5  -1   7    3.47    0.20
   3   0  -7    4.74    0.26
   3   0  -7    4.68    0.27
   3   0  -7    4.34    0.30
  -3   0   7    3.64    0.32
  -3   0   7    4.02    0.33
  -3   0   7    5.28    0.27
   2   0  -7    5.17    0.25
   2   0  -7    4.98    0.25
   2   0  -7    4.35    0.26
  -2   0   7    4.36    0.26
  -2   0   7    4.63    0.35
  -2   0   7    5.26    0.23
  -2   0   7    4.17    0.30
   1   0  -7    1.12    0.14
   1   0  -7    1.22    0.15
  -1   0   7    1.35    0.14
   0   0  -7   29.90    0.74
   0   0  -7   30.02    0.78
   0   0  -7   29.79    0.79
   0   0   7   30.76    0.77
   0   0   7   29.58    0.79
   0   0   7   29.79    0.79
   0   0   7   30.00    0.83
  -1   0  -7    3.72    0.18
  -1   0  -7    3.71    0.15
  -1   0  -7    3.74    0.15
   1   0   7    3.69    0.17
   1   0   7    3.54    0.18
   1   0   7    3.69    0.18
   1   0   7    3.68    0.20
  -2   0  -7    2.23    0.15
  -2   0  -7    2.22    0.13
  -2   0  -7    2.18    0.12
   2   0   7    2.08    0.15
   2   0   7    2.45    0.13
   2   0   7    2.34    0.14
   2   0   7    2.23    0.14
  -3   0  -7   12.62    0.39
  -3   0  -7   12.80    0.37
  -3   0  -7   12.90    0.36
  -3   0  -7   12.79    0.37
   3   0   7   12.23    0.39
   3   0   7   12.21    0.41
   3   0   7   12.61    0.37
   3   0   7   12.29    0.38
  -4   0  -7   26.55    0.70
  -4   0  -7   26.29    0.67
  -4   0  -7   26.65    0.69
  -4   0  -7   25.08    0.69
   4   0   7   24.79    0.70
   4   0   7   24.67    0.71
   4   0   7   25.99    0.75
   4   0   7   24.86    0.69
  -5   0  -7    2.05    0.15
  -5   0  -7    2.35    0.16
  -5   0  -7    1.85    0.17
   5   0   7    2.46    0.21
   5   0   7    2.19    0.16
   5   0   7    2.17    0.18
   3  -1  -7    0.16    0.09
   3  -1  -7    0.04    0.10
   3  -1  -7    0.15    0.09
  -3   1   7    0.18    0.09
   2  -1  -7    2.68    0.19
   2  -1  -7    2.14    0.21
   2  -1  -7    2.85    0.20
  -2   1   7    2.00    0.26
  -2   1   7    2.55    0.19
  -2   1   7    2.07    0.21
   1  -1  -7   13.66    0.42
   1  -1  -7   13.38    0.41
   1  -1  -7   13.15    0.36
  -1   1   7   12.63    0.41
  -1   1   7   13.16    0.41
  -1   1   7   13.28    0.47
  -1   1   7   13.97    0.40
   0  -1  -7   91.72    2.25
   0  -1  -7   89.88    2.24
   0  -1  -7   93.53    2.21
   0  -1  -7   93.93    2.21
   0   1   7   91.71    2.25
   0   1   7   94.26    2.29
   0   1   7   94.85    2.25
  -1  -1  -7    0.49    0.09
   1   1   7    0.26    0.05
   1   1   7    0.25    0.07
   1   1   7    0.27    0.06
   1   1   7    0.35    0.05
  -2  -1  -7    0.04    0.04
  -2  -1  -7    0.05    0.04
  -2  -1  -7   -0.01    0.04
  -2  -1  -7    0.06    0.04
   2   1   7    0.00    0.04
   2   1   7    0.00    0.04
   2   1   7    0.06    0.05
   2   1   7    0.04    0.04
   2   1   7    0.02    0.03
  -3  -1  -7    0.29    0.06
  -3  -1  -7    0.29    0.05
  -3  -1  -7    0.30    0.05
  -3  -1  -7    0.31    0.06
   3   1   7    0.31    0.05
   3   1   7    0.26    0.06
   3   1   7    0.53    0.10
   3   1   7    0.32    0.06
  -4  -1  -7    1.86    0.13
  -4  -1  -7    1.67    0.13
  -4  -1  -7    1.57    0.12
  -4  -1  -7    1.71    0.13
   4   1   7    1.83    0.20
   4   1   7    1.68    0.17
   4   1   7    1.50    0.13
   4   1   7    1.53    0.14
   4   1   7    1.91    0.15
  -5  -1  -7    1.60    0.14
  -5  -1  -7    1.64    0.14
  -5  -1  -7    1.54    0.13
   5   1   7    1.67    0.15
   5   1   7    1.76    0.16
   5   1   7    1.65    0.18
   5   1   7    1.40    0.15
  -6  -1  -7   11.82    0.37
   6   1   7   12.26    0.44
   6   1   7   12.22    0.43
   3  -2  -7    0.14    0.09
   3  -2  -7    0.11    0.09
  -3   2   7    0.12    0.09
   2  -2  -7    0.10    0.08
   2  -2  -7    0.16    0.08
   2  -2  -7    0.09    0.05
  -2   2   7    0.04    0.10
  -2   2   7    0.21    0.08
  -2   2   7    0.15    0.07
   1  -2  -7   13.69    0.42
   1  -2  -7   13.62    0.43
   1  -2  -7   13.51    0.37
   1  -2  -7   13.04    0.37
  -1   2   7   14.01    0.42
  -1   2   7   13.10    0.42
  -1   2   7   13.64    0.47
   0  -2  -7   11.94    0.33
   0  -2  -7   11.82    0.37
   0  -2  -7   11.49    0.35
   0  -2  -7   12.05    0.33
   0   2   7   12.19    0.42
   0   2   7   11.02    0.36
   0   2   7   11.80    0.35
   0   2   7   11.83    0.37
  -1  -2  -7    0.04    0.04
  -1  -2  -7    0.05    0.04
  -1  -2  -7    0.02    0.04
   1   2   7   -0.02    0.04
   1   2   7   -0.04    0.05
  -2  -2  -7   10.86    0.31
  -2  -2  -7   10.82    0.33
  -2  -2  -7   11.40    0.31
  -2  -2  -7   10.94    0.32
   2   2   7   10.77    0.36
   2   2   7   10.32    0.34
   2   2   7   10.98    0.33
   2   2   7   10.28    0.38
  -3  -2  -7   12.20    0.34
  -3  -2  -7   12.31    0.35
  -3  -2  -7   12.17    0.35
  -3  -2  -7   12.45    0.35
   3   2   7   12.12    0.40
   3   2   7   11.79    0.38
   3   2   7   12.26    0.38
   3   2   7   11.55    0.41
  -4  -2  -7    8.05    0.27
  -4  -2  -7    8.04    0.27
  -4  -2  -7    7.72    0.25
   4   2   7    8.12    0.34
   4   2   7    7.78    0.29
   4   2   7    8.10    0.30
   4   2   7    7.89    0.31
  -5  -2  -7    3.38    0.18
  -5  -2  -7    3.24    0.16
  -5  -2  -7    3.37    0.18
  -5  -2  -7    3.68    0.19
   5   2   7    3.39    0.22
   5   2   7    3.29    0.20
   5   2   7    3.60    0.21
   5   2   7    3.67    0.25
  -6  -2  -7    3.27    0.17
  -6  -2  -7    3.14    0.27
  -6  -2  -7    3.44    0.21
   6   2   7    3.53    0.25
   6   2   7    3.37    0.22
   3  -3  -7    0.07    0.10
   3  -3  -7    0.00    0.09
  -3   3   7   -0.10    0.08
  -3   3   7    0.12    0.11
   2  -3  -7    0.23    0.09
   2  -3  -7    0.23    0.06
   2  -3  -7    0.19    0.09
  -2   3   7    0.34    0.10
  -2   3   7    0.18    0.07
  -2   3   7    0.17    0.10
   1  -3  -7    0.89    0.10
   1  -3  -7    0.93    0.15
   1  -3  -7    0.65    0.09
   1  -3  -7    0.99    0.10
  -1   3   7    0.79    0.20
  -1   3   7    0.99    0.15
  -1   3   7    0.78    0.15
   0  -3  -7    5.33    0.19
   0  -3  -7    5.43    0.19
   0  -3  -7    5.34    0.22
   0   3   7    4.89    0.22
   0   3   7    5.25    0.27
   0   3   7    5.36    0.22
  -2  -3  -7   10.10    0.30
  -2  -3  -7    9.96    0.29
  -2  -3  -7   10.03    0.31
  -2  -3  -7   10.06    0.29
   2   3   7    9.96    0.33
   2   3   7   10.23    0.34
   2   3   7    9.76    0.37
   2   3   7    9.79    0.30
  -3  -3  -7    0.68    0.09
  -3  -3  -7    0.75    0.10
  -3  -3  -7    0.69    0.09
  -3  -3  -7    0.90    0.10
   3   3   7    0.67    0.10
   3   3   7    0.56    0.12
   3   3   7    0.75    0.12
   3   3   7    0.86    0.16
  -4  -3  -7    8.82    0.29
  -4  -3  -7    8.76    0.27
  -4  -3  -7    8.88    0.29
  -4  -3  -7    8.96    0.31
   4   3   7    8.62    0.31
   4   3   7    8.56    0.34
   4   3   7    9.19    0.39
   4   3   7    8.99    0.34
  -5  -3  -7    3.54    0.16
  -5  -3  -7    3.81    0.20
  -5  -3  -7    3.54    0.18
  -5  -3  -7    3.42    0.18
   5   3   7    3.61    0.23
   5   3   7    3.65    0.20
   5   3   7    3.80    0.23
   5   3   7    3.93    0.27
   3  -4  -7    2.27    0.17
   3  -4  -7    2.21    0.24
   3  -4  -7    2.21    0.23
  -3   4   7    1.94    0.27
   2  -4  -7    1.86    0.14
   2  -4  -7    1.66    0.14
   2  -4  -7    1.48    0.20
   2  -4  -7    1.45    0.18
  -2   4   7    1.96    0.19
  -2   4   7    1.53    0.28
  -2   4   7    1.48    0.22
   1  -4  -7    0.01    0.05
   1  -4  -7    0.04    0.05
   1  -4  -7   -0.02    0.06
  -1   4   7    0.07    0.06
  -1   4   7   -0.05    0.08
  -1   4   7    0.09    0.05
  -1   4   7   -0.11    0.07
   0  -4  -7    0.05    0.04
   0  -4  -7    0.05    0.06
   0  -4  -7    0.07    0.05
   0   4   7    0.12    0.07
   0   4   7   -0.07    0.07
   0   4   7    0.13    0.05
  -1  -4  -7    0.66    0.11
  -1  -4  -7    0.61    0.10
  -1  -4  -7    0.62    0.09
   1   4   7    0.53    0.12
   1   4   7    0.90    0.16
  -2  -4  -7    0.00    0.04
  -2  -4  -7    0.00    0.04
  -2  -4  -7    0.04    0.04
   2   4   7    0.03    0.06
   2   4   7    0.06    0.04
   2   4   7    0.07    0.06
  -3  -4  -7    4.45    0.19
  -3  -4  -7    4.50    0.18
  -3  -4  -7    4.43    0.17
  -3  -4  -7    4.51    0.19
   3   4   7    4.46    0.19
   3   4   7    4.90    0.29
   3   4   7    4.56    0.22
   3   4   7    4.60    0.23
  -4  -4  -7   45.18    1.13
  -4  -4  -7   44.32    1.16
  -4  -4  -7   45.39    1.12
  -4  -4  -7   45.58    1.13
   4   4   7   45.56    1.20
   4   4   7   46.24    1.28
   4   4   7   44.39    1.20
   4   4   7   44.99    1.16
  -5  -4  -7    0.30    0.07
  -5  -4  -7    0.27    0.07
  -5  -4  -7    0.30    0.08
  -5  -4  -7    0.32    0.06
   5   4   7    0.26    0.08
   5   4   7    0.31    0.08
   2  -5  -7    1.11    0.20
   2  -5  -7    0.67    0.11
   2  -5  -7    0.81    0.15
   2  -5  -7    0.90    0.15
  -2   5   7    0.63    0.14
   1  -5  -7    3.43    0.19
   1  -5  -7    3.33    0.18
   1  -5  -7    3.44    0.23
  -1   5   7    4.18    0.20
  -1   5   7    3.71    0.29
   0  -5  -7   21.41    0.58
   0  -5  -7   21.42    0.62
   0  -5  -7   21.65    0.59
   0   5   7   20.18    0.64
   0   5   7   21.74    0.68
   0   5   7   23.32    0.62
  -1  -5  -7    0.31    0.06
  -1  -5  -7    0.34    0.06
   1   5   7    0.36    0.09
  -2  -5  -7    2.33    0.15
  -2  -5  -7    2.60    0.14
  -2  -5  -7    2.22    0.14
   2   5   7    3.18    0.26
   2   5   7    2.71    0.17
   2   5   7    2.87    0.18
  -3  -5  -7    0.71    0.08
  -3  -5  -7    0.72    0.12
  -3  -5  -7    0.67    0.12
  -4  -5  -7   10.36    0.33
  -4  -5  -7   10.49    0.32
  -4  -5  -7   10.26    0.33
  -4  -5  -7   11.10    0.45
  -4  -5  -7    9.82    0.35
   4   5   7   10.14    0.38
   4   5   7   11.06    0.50
   4   5   7    9.79    0.39
   1  -6  -7    8.09    0.31
   1  -6  -7    8.07    0.35
  -1   6   7    7.02    0.38
  -1   6   7    9.61    0.42
   0  -6  -7   16.06    0.49
   0  -6  -7   15.59    0.47
   0   6   7   15.24    0.55
   0   6   7   18.39    0.61
  -1  -6  -7    0.41    0.08
  -1  -6  -7    0.44    0.07
   1   6   7    0.41    0.10
  -2  -6  -7    0.13    0.06
  -2  -6  -7    0.09    0.06
   2   6   7    0.17    0.05
  -3  -6  -7    0.98    0.13
  -3  -6  -7    0.98    0.12
   3   6   7    1.07    0.15
   0   2  -8    1.14    0.17
   0   2  -8    1.18    0.17
   0  -2   8    1.42    0.15
  -1   2  -8    3.13    0.22
   1  -2   8    3.19    0.20
  -2   2  -8    5.29    0.22
  -2   2  -8    5.14    0.26
   2  -2   8    4.84    0.25
  -3   2  -8    2.18    0.20
  -3   2  -8    2.12    0.16
  -3   2  -8    2.11    0.17
   3  -2   8    2.19    0.19
   3  -2   8    2.22    0.17
   1   1  -8    1.18    0.17
   1   1  -8    1.13    0.17
   0   1  -8    0.39    0.08
   0   1  -8    0.40    0.08
  -1   1  -8    5.66    0.26
  -1   1  -8    5.60    0.23
   1  -1   8    5.37    0.25
   1  -1   8    5.28    0.23
   1  -1   8    5.50    0.23
  -2   1  -8    1.24    0.12
  -2   1  -8    1.38    0.16
  -2   1  -8    1.08    0.12
   2  -1   8    1.31    0.14
  -3   1  -8    6.51    0.24
  -3   1  -8    6.20    0.24
  -3   1  -8    6.66    0.28
   3  -1   8    5.96    0.27
   3  -1   8    6.58    0.30
   3  -1   8    6.30    0.25
  -4   1  -8    0.55    0.08
  -4   1  -8    0.59    0.10
  -4   1  -8    0.55    0.09
   4  -1   8    0.88    0.15
   4  -1   8    0.90    0.13
   2   0  -8   -0.12    0.09
   2   0  -8   -0.02    0.08
   1   0  -8    0.40    0.09
   1   0  -8    0.44    0.09
   0   0  -8    3.88    0.27
   0   0  -8    4.23    0.22
   0   0   8    4.42    0.22
   0   0   8    3.53    0.26
   0   0   8    3.86    0.21
  -1   0  -8   -0.04    0.05
  -1   0  -8    0.05    0.06
  -1   0  -8   -0.04    0.05
   1   0   8    0.12    0.04
   1   0   8    0.06    0.05
   1   0   8    0.07    0.05
  -2   0  -8    4.51    0.22
  -2   0  -8    4.43    0.19
  -2   0  -8    4.42    0.18
   2   0   8    4.54    0.20
   2   0   8    4.40    0.20
   2   0   8    4.52    0.23
  -3   0  -8   48.74    1.17
  -3   0  -8   48.39    1.18
  -3   0  -8   47.55    1.21
  -3   0  -8   48.48    1.19
   3   0   8   47.00    1.18
   3   0   8   43.93    1.20
   3   0   8   46.40    1.24
   3   0   8   45.90    1.21
  -4   0  -8    2.84    0.19
  -4   0  -8    2.63    0.17
  -4   0  -8    2.66    0.17
  -4   0  -8    3.05    0.18
   4   0   8    2.68    0.19
   4   0   8    2.95    0.22
   4   0   8    2.98    0.17
  -5   0  -8    1.32    0.15
   5   0   8    1.49    0.17
   2  -1  -8    1.51    0.19
   2  -1  -8    1.15    0.19
   1  -1  -8   15.54    0.48
   1  -1  -8   16.29    0.50
  -1   1   8   15.03    0.55
  -1   1   8   15.15    0.49
   0  -1  -8    1.53    0.12
   0  -1  -8    1.75    0.16
   0   1   8    1.70    0.14
   0   1   8    1.50    0.16
   0   1   8    1.19    0.21
  -1  -1  -8    2.08    0.13
  -1  -1  -8    1.98    0.13
  -1  -1  -8    2.14    0.16
   1   1   8    2.06    0.15
   1   1   8    2.11    0.19
   1   1   8    2.05    0.15
  -2  -1  -8    4.56    0.19
  -2  -1  -8    4.66    0.19
  -2  -1  -8    4.81    0.21
   2   1   8    4.97    0.24
   2   1   8    5.03    0.21
   2   1   8    4.81    0.21
   2   1   8    4.84    0.23
  -3  -1  -8   16.88    0.48
  -3  -1  -8   17.24    0.47
  -3  -1  -8   17.25    0.48
  -3  -1  -8   17.13    0.50
   3   1   8   16.82    0.53
   3   1   8   16.73    0.48
   3   1   8   16.86    0.50
   3   1   8   16.13    0.50
  -4  -1  -8    2.10    0.16
  -4  -1  -8    2.19    0.15
  -4  -1  -8    2.21    0.16
  -4  -1  -8    2.56    0.17
   4   1   8    2.30    0.15
   4   1   8    2.18    0.17
   4   1   8    2.43    0.17
   4   1   8    2.27    0.20
  -5  -1  -8   12.63    0.41
  -5  -1  -8   14.18    0.51
  -5  -1  -8   12.56    0.39
   5   1   8   12.29    0.62
   5   1   8   12.85    0.41
   5   1   8   12.86    0.44
   5   1   8   12.10    0.43
   2  -2  -8    7.58    0.32
   2  -2  -8    8.14    0.34
  -2   2   8    7.03    0.32
  -2   2   8    7.22    0.41
  -2   2   8    7.03    0.33
   1  -2  -8   28.46    0.79
   1  -2  -8   29.96    0.81
   1  -2  -8   27.91    0.73
  -1   2   8   28.92    0.79
  -1   2   8   29.03    0.86
   0  -2  -8    0.02    0.04
   0  -2  -8    0.03    0.06
   0  -2  -8    0.03    0.04
   0   2   8   -0.02    0.05
   0   2   8   -0.04    0.07
  -1  -2  -8    0.12    0.06
  -1  -2  -8    0.09    0.05
  -1  -2  -8    0.07    0.05
   1   2   8    0.12    0.05
   1   2   8    0.14    0.07
   1   2   8    0.15    0.05
  -2  -2  -8    1.02    0.12
  -2  -2  -8    0.79    0.11
  -2  -2  -8    0.82    0.11
   2   2   8    1.12    0.13
   2   2   8    1.06    0.14
   2   2   8    0.91    0.11
   2   2   8    1.26    0.16
  -3  -2  -8    2.60    0.16
  -3  -2  -8    2.93    0.16
  -3  -2  -8    2.84    0.15
  -3  -2  -8    2.90    0.15
   3   2   8    2.99    0.19
   3   2   8    3.28    0.18
   3   2   8    2.76    0.17
   3   2   8    3.26    0.21
  -4  -2  -8    2.08    0.14
  -4  -2  -8    2.17    0.15
  -4  -2  -8    2.10    0.15
   4   2   8    2.44    0.18
   4   2   8    2.50    0.21
   4   2   8    2.20    0.18
   4   2   8    2.21    0.16
  -5  -2  -8   17.81    0.50
  -5  -2  -8   17.81    0.51
  -5  -2  -8   17.95    0.52
   5   2   8   17.14    0.59
   5   2   8   17.24    0.54
   5   2   8   17.51    0.56
   2  -3  -8    4.92    0.27
   2  -3  -8    5.71    0.30
   2  -3  -8    5.17    0.21
  -2   3   8    5.12    0.28
  -2   3   8    5.38    0.38
  -2   3   8    4.95    0.29
   1  -3  -8    3.30    0.16
   1  -3  -8    3.24    0.22
   1  -3  -8    3.16    0.16
  -1   3   8    3.45    0.22
  -1   3   8    3.28    0.29
   0  -3  -8    0.08    0.06
   0  -3  -8    0.07    0.05
   0  -3  -8    0.06    0.05
   0   3   8    0.08    0.05
   0   3   8    0.03    0.08
  -1  -3  -8    8.45    0.30
  -1  -3  -8    8.08    0.26
  -1  -3  -8    8.04    0.27
   1   3   8    7.88    0.35
   1   3   8    8.16    0.30
  -2  -3  -8    4.37    0.19
  -2  -3  -8    4.23    0.18
  -2  -3  -8    4.24    0.18
   2   3   8    4.29    0.21
   2   3   8    4.35    0.26
   2   3   8    4.36    0.21
  -3  -3  -8    2.94    0.15
  -3  -3  -8    2.48    0.15
  -3  -3  -8    2.38    0.14
  -3  -3  -8    2.26    0.14
   3   3   8    2.78    0.22
   3   3   8    2.75    0.18
   3   3   8    2.41    0.15
   3   3   8    2.61    0.18
  -4  -3  -8    2.59    0.16
  -4  -3  -8    2.92    0.17
  -4  -3  -8    2.57    0.16
  -4  -3  -8    2.53    0.15
   4   3   8    2.65    0.17
   4   3   8    2.81    0.20
   4   3   8    2.98    0.24
   4   3   8    2.91    0.20
  -5  -3  -8    3.59    0.18
  -5  -3  -8    3.32    0.23
  -5  -3  -8    3.75    0.22
  -5  -3  -8    4.04    0.22
   5   3   8    3.80    0.22
   5   3   8    3.59    0.25
   5   3   8    3.84    0.28
   2  -4  -8    0.06    0.10
   2  -4  -8    0.14    0.10
   2  -4  -8    0.21    0.07
  -2   4   8    0.14    0.08
  -2   4   8    0.07    0.11
  -2   4   8    0.06    0.12
   1  -4  -8    0.41    0.07
   1  -4  -8    0.38    0.07
   1  -4  -8    0.40    0.10
  -1   4   8    0.25    0.10
  -1   4   8    0.42    0.12
   0  -4  -8    0.49    0.07
   0  -4  -8    0.46    0.09
   0  -4  -8    0.66    0.11
   0   4   8    0.29    0.10
  -1  -4  -8    4.50    0.21
  -1  -4  -8    4.31    0.19
  -1  -4  -8    4.37    0.19
   1   4   8    4.76    0.28
   1   4   8    5.08    0.23
  -2  -4  -8   -0.06    0.05
  -2  -4  -8   -0.04    0.05
   2   4   8    0.08    0.05
   2   4   8    0.08    0.07
  -3  -4  -8   11.70    0.36
  -3  -4  -8   12.03    0.37
  -3  -4  -8   12.01    0.36
   3   4   8   12.59    0.49
   3   4   8   11.68    0.49
   3   4   8   12.10    0.42
  -4  -4  -8    1.63    0.14
  -4  -4  -8    1.86    0.15
  -4  -4  -8    1.60    0.14
  -4  -4  -8    1.60    0.13
   4   4   8    1.74    0.18
   4   4   8    2.05    0.25
   4   4   8    2.12    0.19
   4   4   8    1.61    0.15
   1  -5  -8    0.85    0.14
   0  -5  -8    0.38    0.07
   0  -5  -8    0.35    0.07
   0  -5  -8    0.24    0.09
   0   5   8    0.19    0.10
  -2  -5  -8    1.18    0.12
  -2  -5  -8    0.95    0.13
  -3  -5  -8   25.70    0.70
  -3  -5  -8   25.84    0.70
  -3  -5  -8   26.78    0.69
   3   5   8   28.26    0.87
   3   5   8   25.46    0.76
  -4  -5  -8    0.00    0.07
  -4  -5  -8    0.09    0.06
   4   5   8    0.22    0.10
   0  -6  -8    0.03    0.07
   0   6   8    0.01    0.10
   1   6   8    1.59    0.16
   1   6   8    1.13    0.18
  -2  -6  -8   -0.02    0.06
   2   6   8    0.10    0.05
  -2   1  -9    1.06    0.17
  -2   1  -9    0.64    0.08
   0   0  -9    2.90    0.22
   0   0   9    2.38    0.21
   0   0   9    3.15    0.20
  -1   0  -9    0.07    0.06
  -1   0  -9    0.24    0.08
  -2   0  -9    9.61    0.35
  -2   0  -9    9.25    0.30
  -2   0  -9    8.99    0.31
   2   0   9    9.29    0.36
   2   0   9    9.14    0.33
   2   0   9    9.14    0.33
  -3   0  -9    0.22    0.07
  -3   0  -9    0.28    0.09
  -3   0  -9    0.18    0.07
   3   0   9    0.30    0.08
  -1   1   9    0.88    0.15
   0  -1  -9    0.06    0.07
   0   1   9    0.18    0.08
   0   1   9    0.07    0.06
   0   1   9   -0.03    0.08
  -1  -1  -9    1.91    0.18
  -1  -1  -9    1.56    0.15
  -1  -1  -9    1.62    0.14
   1   1   9    2.12    0.17
   1   1   9    2.26    0.21
   1   1   9    2.11    0.16
  -2  -1  -9   34.27    0.85
  -2  -1  -9   33.64    0.86
  -2  -1  -9   32.81    0.89
   2   1   9   32.78    0.91
   2   1   9   31.56    0.88
  -3  -1  -9    1.81    0.15
  -3  -1  -9    1.73    0.15
  -3  -1  -9    2.12    0.17
   3   1   9    2.13    0.20
   3   1   9    1.97    0.16
   3   1   9    2.33    0.17
  -4  -1  -9    1.87    0.16
  -4  -1  -9    2.00    0.15
   4   1   9    2.05    0.15
   4   1   9    2.37    0.18
   4   1   9    1.90    0.18
   1  -2  -9    0.28    0.09
  -1   2   9    0.04    0.10
   0  -2  -9    0.62    0.08
   0  -2  -9    0.67    0.11
   0   2   9    0.81    0.22
  -1  -2  -9    0.45    0.07
  -1  -2  -9    0.45    0.09
  -1  -2  -9    0.39    0.07
  -2  -2  -9    6.81    0.25
  -2  -2  -9    6.73    0.26
  -2  -2  -9    7.15    0.29
   2   2   9    7.40    0.30
   2   2   9    7.39    0.33
   2   2   9    7.32    0.29
  -3  -2  -9    2.24    0.17
  -3  -2  -9    2.02    0.15
  -3  -2  -9    1.94    0.16
   3   2   9    2.33    0.17
   3   2   9    1.82    0.17
   3   2   9    2.03    0.19
   3   2   9    2.49    0.21
  -4  -2  -9   15.89    0.47
  -4  -2  -9   16.17    0.46
   4   2   9   15.43    0.54
   4   2   9   15.95    0.50
   4   2   9   15.77    0.52
   1  -3  -9    0.10    0.06
   1  -3  -9    0.01    0.08
  -1   3   9   -0.06    0.10
   0  -3  -9    0.12    0.06
   0  -3  -9    0.12    0.08
   0  -3  -9    0.19    0.06
   0   3   9    0.24    0.06
   0   3   9    0.18    0.09
  -1  -3  -9    0.37    0.07
  -1  -3  -9    0.40    0.09
  -1  -3  -9    0.20    0.07
  -2  -3  -9    1.15    0.13
  -2  -3  -9    1.05    0.13
  -2  -3  -9    1.44    0.15
  -3  -3  -9    1.21    0.13
  -3  -3  -9    1.18    0.14
   3   3   9    1.51    0.16
   3   3   9    1.85    0.17
   3   3   9    1.90    0.20
  -4  -3  -9   19.10    0.54
  -4  -3  -9   19.13    0.53
  -4  -3  -9   18.81    0.57
   4   3   9   19.05    0.66
   4   3   9   18.95    0.57
   4   3   9   18.73    0.61
   0  -4  -9    3.46    0.18
   0  -4  -9    3.90    0.24
   0  -4  -9    3.57    0.19
   0   4   9    4.22    0.31
   0   4   9    4.34    0.24
  -1  -4  -9    0.78    0.12
  -1  -4  -9    0.86    0.15
  -1  -5  -9    0.02    0.06
  -2  -5  -9    8.13    0.30
   2   5   9    9.89    0.46
   0   0   0    0.00    0.00
;
_shelx_hkl_checksum              86461
loop_
_space_group_symop_operation_xyz
'x, y, z'
'-x, -y, -z'
loop_
_atom_site_label
_atom_site_type_symbol
_atom_site_fract_x
_atom_site_fract_y
_atom_site_fract_z
_atom_site_U_iso_or_equiv
_atom_site_adp_type
_atom_site_occupancy
_atom_site_site_symmetry_order
_atom_site_calc_flag
_atom_site_refinement_flags_posn
_atom_site_refinement_flags_adp
C2 C 0.6406(2) 0.0025(2) 0.14640(16) 0.0249(4) Uani 1 1 d . .
O2 O 0.7804(2) -0.19630(19) 0.45756(14) 0.0402(4) Uani 1 1 d . .
O1 O 0.9303(2) 0.21173(19) 0.27359(15) 0.0406(4) Uani 1 1 d . .
C3 C 0.4792(3) -0.2156(2) 0.17614(19) 0.0294(3) Uani 1 1 d . .
H3 H 0.4658 -0.3591 0.2941 0.035 Uiso 1 1 calc R U
C4 C 0.6617(3) 0.2183(2) -0.02926(19) 0.0290(3) Uani 1 1 d . .
H4 H 0.7698 0.3637 -0.0482 0.035 Uiso 1 1 calc R U
C1 C 0.7924(2) 0.0032(2) 0.30414(18) 0.0277(4) Uani 1 1 d . .
H1 H 1.048(7) 0.217(6) 0.392(5) 0.146(13) Uiso 1 1 d . .
loop_
_atom_site_aniso_label
_atom_site_aniso_U_11
_atom_site_aniso_U_22
_atom_site_aniso_U_33
_atom_site_aniso_U_23
_atom_site_aniso_U_13
_atom_site_aniso_U_12
C2 0.0243(6) 0.0295(6) 0.0238(7) -0.0098(5) -0.0090(5) 0.0013(5)
O2 0.0490(6) 0.0411(6) 0.0308(6) 0.0005(4) -0.0226(4) -0.0112(5)
O1 0.0508(6) 0.0379(6) 0.0385(6) -0.0062(4) -0.0252(5) -0.0121(4)
C3 0.0356(6) 0.0281(6) 0.0247(6) -0.0023(5) -0.0142(5) -0.0038(5)
C4 0.0330(6) 0.0276(6) 0.0289(7) -0.0066(5) -0.0134(5) -0.0053(5)
C1 0.0278(6) 0.0325(6) 0.0250(6) -0.0086(5) -0.0107(5) -0.0009(5)
loop_
_atom_type_symbol
_atom_type_description
_atom_type_scat_dispersion_real
_atom_type_scat_dispersion_imag
_atom_type_scat_source
C C 0.0033 0.0016 'International Tables Vol C Tables 4.2.6.8 and 6.1.1.4'
H H 0.0000 0.0000 'International Tables Vol C Tables 4.2.6.8 and 6.1.1.4'
O O 0.0106 0.0060 'International Tables Vol C Tables 4.2.6.8 and 6.1.1.4'
loop_
_geom_angle_atom_site_label_1
_geom_angle_atom_site_label_2
_geom_angle_atom_site_label_3
_geom_angle
_geom_angle_site_symmetry_1
C3 C2 C4 120.56(11) .
C3 C2 C1 119.44(11) .
C4 C2 C1 120.00(11) .
C1 O1 H1 118.5(15) .
C4 C3 C2 119.78(12) 2_655
C4 C3 H3 120.1 2_655
C2 C3 H3 120.1 .
C3 C4 C2 119.66(12) 2_655
C3 C4 H4 120.2 2_655
C2 C4 H4 120.2 .
O2 C1 O1 123.47(11) .
O2 C1 C2 119.39(11) .
O1 C1 C2 117.14(11) .
loop_
_geom_bond_atom_site_label_1
_geom_bond_atom_site_label_2
_geom_bond_distance
_geom_bond_site_symmetry_2
C2 C3 1.3901(18) .
C2 C4 1.3907(18) .
C2 C1 1.4884(15) .
O2 C1 1.2521(15) .
O1 C1 1.2787(15) .
O1 H1 1.13(4) .
C3 C4 1.3876(18) 2_655
C3 H3 0.9300 .
C4 C3 1.3876(18) 2_655
C4 H4 0.9300 .
loop_
_geom_torsion_atom_site_label_1
_geom_torsion_atom_site_label_2
_geom_torsion_atom_site_label_3
_geom_torsion_atom_site_label_4
_geom_torsion
_geom_torsion_site_symmetry_4
C4 C2 C3 C4 0.1(2) 2_655
C1 C2 C3 C4 -179.67(10) 2_655
C3 C2 C4 C3 -0.1(2) 2_655
C1 C2 C4 C3 179.67(10) 2_655
C3 C2 C1 O2 2.60(19) .
C4 C2 C1 O2 -177.18(10) .
C3 C2 C1 O1 -177.58(10) .
C4 C2 C1 O1 2.63(18) .
