#------------------------------------------------------------------------------
#$Date: 2019-11-25 11:40:57 +0200 (Mon, 25 Nov 2019) $
#$Revision: 240785 $
#$URL: file:///home/coder/svn-repositories/cod/cif/4/13/03/4130304.cif $
#------------------------------------------------------------------------------
#
# This file is available in the Crystallography Open Database (COD),
# http://www.crystallography.net/
#
# All data on this site have been placed in the public domain by the
# contributors.
#
data_4130304
loop_
_publ_author_name
'Obradors, Carla'
'Martinez, Ruben M.'
'Shenvi, Ryan A.'
_publ_section_title
;
 Ph(i-PrO)SiH2: An Exceptional Reductant for Metal-Catalyzed Hydrogen Atom
 Transfers.
;
_journal_issue                   14
_journal_name_full               'Journal of the American Chemical Society'
_journal_page_first              4962
_journal_page_last               4971
_journal_paper_doi               10.1021/jacs.6b02032
_journal_volume                  138
_journal_year                    2016
_chemical_absolute_configuration ad
_chemical_formula_moiety         'C23 H38 O3'
_chemical_formula_sum            'C23 H38 O3'
_chemical_formula_weight         362.53
_space_group_crystal_system      triclinic
_space_group_IT_number           1
_space_group_name_Hall           'P 1'
_space_group_name_H-M_alt        'P 1'
_atom_sites_solution_hydrogens   mixed
_atom_sites_solution_primary     direct
_audit_creation_date             2015-09-29
_audit_creation_method
;
Olex2 1.2
(compiled 2015.01.26 svn.r3150 for OlexSys, GUI svn.r4998)
;
_cell_angle_alpha                77.552(3)
_cell_angle_beta                 80.072(3)
_cell_angle_gamma                68.189(2)
_cell_formula_units_Z            1
_cell_length_a                   6.2267(4)
_cell_length_b                   6.7164(5)
_cell_length_c                   13.4269(9)
_cell_measurement_reflns_used    9952
_cell_measurement_temperature    100
_cell_measurement_theta_max      68.00
_cell_measurement_theta_min      3.39
_cell_volume                     506.43(6)
_computing_molecular_graphics    'Olex2 (Dolomanov et al., 2009)'
_computing_publication_material  'Olex2 (Dolomanov et al., 2009)'
_computing_structure_refinement  'XL (Sheldrick, 2008)'
_computing_structure_solution    'SIR2004 (Burla et al., 2007)'
_diffrn_ambient_temperature      100
_diffrn_detector                 'Bruker APEX-II CCD'
_diffrn_detector_area_resol_mean 7.9
_diffrn_detector_type            'CCD Area Detector'
_diffrn_measured_fraction_theta_full 0.969
_diffrn_measured_fraction_theta_max 0.966
_diffrn_measurement_device       'Kappa Four-Circle Diffractometer'
_diffrn_measurement_device_type  'Bruker APEX-II CCD'
_diffrn_measurement_method       '\f and \w scans'
_diffrn_radiation_monochromator  'Double Bounce Multilayer Mirrors'
_diffrn_radiation_probe          x-ray
_diffrn_radiation_type           CuK\a
_diffrn_radiation_wavelength     1.54178
_diffrn_reflns_av_R_equivalents  0.0194
_diffrn_reflns_av_unetI/netI     0.0175
_diffrn_reflns_Laue_measured_fraction_full 0.969
_diffrn_reflns_Laue_measured_fraction_max 0.966
_diffrn_reflns_limit_h_max       7
_diffrn_reflns_limit_h_min       -7
_diffrn_reflns_limit_k_max       8
_diffrn_reflns_limit_k_min       -8
_diffrn_reflns_limit_l_max       16
_diffrn_reflns_limit_l_min       -16
_diffrn_reflns_number            12634
_diffrn_reflns_point_group_measured_fraction_full 0.925
_diffrn_reflns_point_group_measured_fraction_max 0.920
_diffrn_reflns_theta_full        67.679
_diffrn_reflns_theta_max         67.991
_diffrn_reflns_theta_min         3.388
_diffrn_source                   'Micro Focus Rotating Anode'
_diffrn_source_type              'Bruker TXS'
_diffrn_standards_number         0
_exptl_absorpt_coefficient_mu    0.593
_exptl_absorpt_correction_T_max  0.1662
_exptl_absorpt_correction_T_min  0.0707
_exptl_absorpt_correction_type   multi-scan
_exptl_absorpt_process_details
'SADABS-2014/4 (Bruker,2014/4) was used for absorption correction. wR2(int) was 0.1190 before and 0.0313 after correction. The Ratio of minimum to maximum transmission is 0.4254. The \l/2 correction factor is 0.00150.'
_exptl_crystal_colour            colourless
_exptl_crystal_colour_primary    colourless
_exptl_crystal_density_diffrn    1.189
_exptl_crystal_description       needle
_exptl_crystal_F_000             200
_exptl_crystal_size_max          0.2
_exptl_crystal_size_mid          0.06
_exptl_crystal_size_min          0.04
_refine_diff_density_max         0.303
_refine_diff_density_min         -0.134
_refine_diff_density_rms         0.031
_refine_ls_abs_structure_details
;
 Flack x determined using 1592 quotients [(I+)-(I-)]/[(I+)+(I-)]
 (Parsons, Flack and Wagner, Acta Cryst. B69 (2013) 249-259).
;
_refine_ls_abs_structure_Flack   0.09(4)
_refine_ls_extinction_method     none
_refine_ls_goodness_of_fit_ref   1.060
_refine_ls_hydrogen_treatment    mixed
_refine_ls_matrix_type           full
_refine_ls_number_parameters     241
_refine_ls_number_reflns         3387
_refine_ls_number_restraints     3
_refine_ls_restrained_S_all      1.059
_refine_ls_R_factor_all          0.0309
_refine_ls_R_factor_gt           0.0309
_refine_ls_shift/su_max          0.000
_refine_ls_shift/su_mean         0.000
_refine_ls_structure_factor_coef Fsqd
_refine_ls_weighting_details
'w=1/[\s^2^(Fo^2^)+(0.0543P)^2^+0.0624P] where P=(Fo^2^+2Fc^2^)/3'
_refine_ls_weighting_scheme      calc
_refine_ls_wR_factor_gt          0.0841
_refine_ls_wR_factor_ref         0.0842
_reflns_Friedel_coverage         0.905
_reflns_Friedel_fraction_full    0.881
_reflns_Friedel_fraction_max     0.874
_reflns_number_gt                3377
_reflns_number_total             3387
_reflns_threshold_expression     'I > 2\s(I)'
_cod_data_source_file            ja6b02032_si_001.cif
_cod_data_source_block           shenvi53
_cod_depositor_comments
;
The following automatic conversions were performed:

data item '_diffrn_radiation_probe' value 'X-ray' was changed to
'x-ray' in accordance with the
/home/saulius/struct/COD-crude-data/automatic-downloads/DataCite-retrospective/ACS/depositions/lib/dictionaries/cif_core.dic
dictionary named 'cif_core.dic' version 2.4.2 last updated on
2011-04-26.

Automatic conversion script
Id: cif_fix_values 6909 2019-04-08 15:41:33Z antanas 
;
_cod_database_code               4130304
_shelx_space_group_comment
;
The symmetry employed for this shelxl refinement is uniquely defined
by the following loop, which should always be used as a source of
symmetry information in preference to the above space-group names.
They are only intended as comments.
;
_olex2_refinement_description
;
1. Fixed Uiso
 At 1.2 times of:
  All C(H) groups, All C(H,H) groups
 At 1.5 times of:
  All C(H,H,H) groups, All O(H) groups
2.a Ternary CH refined with riding coordinates:
 C1(H1A), C3(H3), C6(H6), C7(H7), C9(H9), C16(H16)
2.b Secondary CH2 refined with riding coordinates:
 C2(H2A,H2B), C4(H4A,H4B), C5(H5A,H5B), C11(H11A,H11B), C13(H13A,H13B),
 C14(H14A,H14B), C17(H17A,H17B), C19(H19A,H19B), C20(H20A,H20B), C21(H21A,H21B),
  C22(H22A,H22B)
2.c Idealised Me refined as rotating group:
 C15(H15A,H15B,H15C), C18(H18A,H18B,H18C), C23(H23A,H23B,H23C)
;
_shelx_res_file
;
    shenvi53.res created by SHELXL-2014/7

TITL shenvi50 in P1
CELL 1.54178 6.2267 6.7164 13.4269 77.552 80.072 68.189
ZERR 1 0.0004 0.0005 0.0009 0.003 0.003 0.002
LATT -1
SFAC C H O
UNIT 23 38 3

L.S. 5
PLAN  -5 0 0
TEMP -173.15
HTAB
BOND $H
CONF
MORE -1
fmap 2
acta
REM <olex2.extras>
REM <HklSrc "%.\\shenvi53.hkl">
REM </olex2.extras>

WGHT    0.054300    0.062400
FVAR       0.62866
O1    3    0.442269    0.454352    0.522869    11.00000    0.03580    0.06667 =
         0.03248    0.00785   -0.00332   -0.01745
H1    2    0.554748    0.382419    0.557293    11.00000   -1.50000
O2    3    0.805046    1.165176   -0.357539    11.00000    0.03925    0.03767 =
         0.02973   -0.00636   -0.00320   -0.01327
O3    3    1.116601    1.066485   -0.268177    11.00000    0.03288    0.03864 =
         0.03131   -0.00250   -0.00129   -0.00535
C1    1    0.514704    0.587061    0.436323    11.00000    0.03758    0.04545 =
         0.02900   -0.00262   -0.00273   -0.01716
AFIX  13
H1A   2    0.549645    0.701271    0.460721    11.00000   -1.20000
AFIX   0
C2    1    0.313537    0.697503    0.370913    11.00000    0.03068    0.04093 =
         0.03125   -0.00684    0.00127   -0.01057
AFIX  23
H2A   2    0.178957    0.789837    0.411097    11.00000   -1.20000
H2B   2    0.266863    0.585562    0.352340    11.00000   -1.20000
AFIX   0
C3    1    0.377844    0.837954    0.272977    11.00000    0.03121    0.03369 =
         0.03105   -0.00793   -0.00149   -0.01107
AFIX  13
H3    2    0.428513    0.944810    0.295441    11.00000   -1.20000
AFIX   0
C4    1    0.170338    0.971469    0.212090    11.00000    0.02842    0.03605 =
         0.03416   -0.00753    0.00056   -0.00952
AFIX  23
H4A   2    0.114880    0.872429    0.187174    11.00000   -1.20000
H4B   2    0.041889    1.056971    0.257335    11.00000   -1.20000
AFIX   0
C5    1    0.236158    1.124503    0.121326    11.00000    0.02820    0.03069 =
         0.03354   -0.00630   -0.00245   -0.00737
AFIX  23
H5A   2    0.275085    1.233484    0.146816    11.00000   -1.20000
H5B   2    0.101187    1.203092    0.081134    11.00000   -1.20000
AFIX   0
C6    1    0.443562    1.002893    0.051568    11.00000    0.02666    0.03066 =
         0.02788   -0.00484   -0.00179   -0.00960
AFIX  13
H6    2    0.397114    0.903572    0.020965    11.00000   -1.20000
AFIX   0
C7    1    0.517854    1.158966   -0.035000    11.00000    0.02857    0.02789 =
         0.03004   -0.00611   -0.00337   -0.00919
AFIX  13
H7    2    0.572348    1.248983   -0.001810    11.00000   -1.20000
AFIX   0
C8    1    0.724230    1.047318   -0.109551    11.00000    0.02718    0.03099 =
         0.02699   -0.00494   -0.00005   -0.00994
C9    1    0.744189    1.252518   -0.183729    11.00000    0.03079    0.02980 =
         0.03010   -0.00412   -0.00524   -0.00940
AFIX  13
H9    2    0.804711    1.327481   -0.144325    11.00000   -1.20000
AFIX   0
C10   1    0.899683    1.233400   -0.285212    11.00000    0.03198    0.03342 =
         0.02947   -0.00316   -0.00429   -0.00962
C11   1    0.993068    1.006621   -0.407329    11.00000    0.05983    0.03323 =
         0.03234   -0.00576    0.00060   -0.01234
AFIX  23
H11A  2    1.004876    1.054113   -0.482547    11.00000   -1.20000
H11B  2    0.970724    0.864258   -0.391974    11.00000   -1.20000
AFIX   0
C12   1    0.589807    0.702946    0.205910    11.00000    0.02706    0.03087 =
         0.02946   -0.00366   -0.00213   -0.00887
C13   1    0.791315    0.595988    0.274663    11.00000    0.02952    0.03772 =
         0.03031   -0.00250   -0.00196   -0.01161
AFIX  23
H13A  2    0.928180    0.503366    0.235661    11.00000   -1.20000
H13B  2    0.834684    0.711368    0.291791    11.00000   -1.20000
AFIX   0
C14   1    0.731620    0.457110    0.374367    11.00000    0.03168    0.04450 =
         0.03053    0.00309   -0.00484   -0.01177
AFIX  23
H14A  2    0.705995    0.331424    0.357862    11.00000   -1.20000
H14B  2    0.864489    0.400137    0.416282    11.00000   -1.20000
AFIX   0
C15   1    0.538182    0.526118    0.168479    11.00000    0.03130    0.03175 =
         0.03154   -0.00353    0.00009   -0.01150
AFIX 137
H15A  2    0.682915    0.427169    0.138563    11.00000   -1.50000
H15B  2    0.428042    0.594291    0.116532    11.00000   -1.50000
H15C  2    0.470678    0.444165    0.226481    11.00000   -1.50000
AFIX   0
C16   1    0.652957    0.864050    0.113751    11.00000    0.02711    0.02941 =
         0.02931   -0.00530   -0.00258   -0.00875
AFIX  13
H16   2    0.693838    0.967785    0.143713    11.00000   -1.20000
AFIX   0
C17   1    1.208171    0.991710   -0.363759    11.00000    0.04684    0.03768 =
         0.03519   -0.00490    0.00583   -0.00408
AFIX  23
H17A  2    1.318639    0.840163   -0.353500    11.00000   -1.20000
H17B  2    1.287707    1.085921   -0.409195    11.00000   -1.20000
AFIX   0
C18   1    0.930814    1.448360   -0.334273    11.00000    0.03552    0.03689 =
         0.03528   -0.00387   -0.00061   -0.01381
AFIX 137
H18A  2    1.003529    1.493073   -0.287965    11.00000   -1.50000
H18B  2    0.778710    1.559506   -0.347318    11.00000   -1.50000
H18C  2    1.030276    1.431110   -0.399171    11.00000   -1.50000
AFIX   0
C19   1    0.487113    1.400805   -0.197948    11.00000    0.03205    0.03043 =
         0.03111   -0.00379   -0.00334   -0.00861
AFIX  23
H19A  2    0.466016    1.554699   -0.198833    11.00000   -1.20000
H19B  2    0.442660    1.388675   -0.263124    11.00000   -1.20000
AFIX   0
C20   1    0.338020    1.319492   -0.105704    11.00000    0.02982    0.03178 =
         0.03294   -0.00375   -0.00337   -0.00774
AFIX  23
H20A  2    0.230510    1.441227   -0.071257    11.00000   -1.20000
H20B  2    0.246548    1.246233   -0.127510    11.00000   -1.20000
AFIX   0
C21   1    0.931135    0.916822   -0.046982    11.00000    0.02759    0.03088 =
         0.02904   -0.00311   -0.00146   -0.00897
AFIX  23
H21A  2    0.979075    1.017727   -0.019538    11.00000   -1.20000
H21B  2    1.064128    0.836340   -0.092075    11.00000   -1.20000
AFIX   0
C22   1    0.867350    0.755131    0.042336    11.00000    0.02608    0.03155 =
         0.02933   -0.00335   -0.00309   -0.00650
AFIX  23
H22A  2    1.001746    0.678666    0.083040    11.00000   -1.20000
H22B  2    0.836829    0.644876    0.014006    11.00000   -1.20000
AFIX   0
C23   1    0.668928    0.897029   -0.165032    11.00000    0.03331    0.03012 =
         0.02796   -0.00438   -0.00182   -0.01046
AFIX 137
H23A  2    0.808463    0.821304   -0.207208    11.00000   -1.50000
H23B  2    0.544589    0.983807   -0.208925    11.00000   -1.50000
H23C  2    0.618478    0.790170   -0.114329    11.00000   -1.50000
AFIX   0
HKLF 4

REM  shenvi50 in P1
REM R1 =  0.0309 for    3377 Fo > 4sig(Fo)  and  0.0309 for all    3387 data
REM    241 parameters refined using      3 restraints

END

WGHT      0.0543      0.0624

REM Instructions for potential hydrogen bonds
EQIV $1 x, y-1, z+1
HTAB O1 O2_$1
EQIV $2 x+1, y+1, z-1
HTAB C18 O1_$2

REM Highest difference peak  0.303,  deepest hole -0.134,  1-sigma level  0.031
Q1    1   0.4586  1.0200  0.3314  11.00000  0.05    0.30
Q2    1   0.4817  0.7778  0.2404  11.00000  0.05    0.21
Q3    1   0.6177  1.0986 -0.0723  11.00000  0.05    0.18
Q4    1   0.6224  0.5269  0.4038  11.00000  0.05    0.17
Q5    1   0.3427  1.0645  0.0882  11.00000  0.05    0.16
;
_shelx_res_checksum              11968
_shelx_hkl_file
;
  -1   0   0  202.21    5.15
  -1   0   0  204.34    5.14
   1   0   0  194.43    5.17
   1   0   0  205.24    5.16
  -2   0   0   36.25    0.98
  -2   0   0   36.31    0.95
  -2   0   0   34.29    0.98
  -2   0   0   37.72    0.95
  -2   0   0   36.22    0.95
   2   0   0   36.03    0.95
   2   0   0   34.64    0.97
  -3   0   0   39.98    1.08
  -3   0   0   39.00    1.10
  -3   0   0   38.85    1.03
  -3   0   0   39.55    1.06
  -3   0   0   40.28    1.12
  -3   0   0   39.53    1.07
   3   0   0   38.95    1.07
   3   0   0   39.86    1.06
  -4   0   0   14.25    0.46
  -4   0   0   14.65    0.41
  -4   0   0   15.19    0.50
  -4   0   0   13.82    0.52
  -4   0   0   14.55    0.45
  -4   0   0   15.37    0.42
  -4   0   0   14.79    0.43
  -4   0   0   14.69    0.47
   4   0   0   14.29    0.41
   4   0   0   14.29    0.40
   4   0   0   15.13    0.46
   4   0   0   14.05    0.44
  -5   0   0    9.13    0.34
  -5   0   0    9.34    0.27
  -5   0   0    9.43    0.29
  -5   0   0    9.30    0.29
  -5   0   0    8.86    0.29
  -5   0   0    8.78    0.35
   5   0   0    9.06    0.28
   5   0   0    8.97    0.31
   5   0   0    9.23    0.28
   5   0   0    9.14    0.32
   5   0   0    9.23    0.26
  -6   0   0    0.07    0.03
  -6   0   0    0.08    0.04
   6   0   0    0.08    0.02
   6   0   0    0.05    0.03
   6   0   0    0.09    0.03
   6  -1   0    1.85    0.07
   6  -1   0    1.79    0.07
   6  -1   0    1.90    0.08
  -6   1   0    1.85    0.09
  -6   1   0    1.84    0.09
  -6   1   0    1.80    0.13
   5  -1   0    6.52    0.19
   5  -1   0    6.67    0.22
   5  -1   0    6.25    0.21
  -5   1   0    6.37    0.21
  -5   1   0    6.42    0.20
  -5   1   0    6.19    0.23
  -5   1   0    6.50    0.23
  -5   1   0    6.71    0.23
  -5   1   0    6.76    0.24
  -5   1   0    6.65    0.29
   4  -1   0   73.87    1.90
   4  -1   0   71.97    1.88
   4  -1   0   72.78    1.92
   4  -1   0   71.46    1.90
   4  -1   0   67.75    1.92
   4  -1   0   77.11    1.95
   4  -1   0   71.94    1.88
  -4   1   0   76.14    2.02
  -4   1   0   75.24    1.99
  -4   1   0   73.27    1.91
  -4   1   0   72.00    1.96
  -4   1   0   70.60    1.90
  -4   1   0   73.68    1.92
  -4   1   0   73.29    1.93
  -4   1   0   75.32    1.89
  -4   1   0   68.48    1.90
  -4   1   0   73.97    1.97
   3  -1   0   50.71    1.36
   3  -1   0   49.36    1.32
   3  -1   0   48.61    1.33
  -3   1   0   48.77    1.31
  -3   1   0   52.86    1.37
  -3   1   0   47.12    1.30
  -3   1   0   51.82    1.34
  -3   1   0   48.24    1.38
  -3   1   0   49.32    1.41
  -3   1   0   50.25    1.31
  -3   1   0   50.03    1.36
   2  -1   0  170.47    4.40
   2  -1   0  169.46    4.43
  -2   1   0  161.34    4.40
  -2   1   0  177.61    4.42
  -2   1   0  163.43    4.38
  -2   1   0  169.19    4.42
  -2   1   0  177.38    4.45
  -2   1   0  174.59    4.41
  -2   1   0  174.23    4.40
   1  -1   0  206.46    5.27
   1  -1   0  197.87    5.27
  -1   1   0  198.88    5.30
  -1   1   0  210.17    5.28
  -1   1   0  214.53    5.27
  -1   1   0  204.58    5.29
  -1   1   0  208.65    5.29
   0  -1   0  112.17    2.96
   0   1   0  114.61    2.97
   0   1   0  116.34    2.97
   0   1   0  118.32    3.00
   1   1   0  394.71   10.15
  -2  -1   0   93.38    2.31
  -2  -1   0   89.32    2.33
  -2  -1   0   89.42    2.32
  -2  -1   0   86.33    2.31
   2   1   0   92.27    2.38
  -3  -1   0   24.16    0.66
  -3  -1   0   24.18    0.69
  -3  -1   0   23.54    0.68
  -3  -1   0   24.47    0.63
  -3  -1   0   25.14    0.66
  -3  -1   0   24.38    0.71
   3   1   0   24.82    0.68
   3   1   0   25.31    0.74
  -4  -1   0    9.79    0.35
  -4  -1   0    9.83    0.31
  -4  -1   0    9.56    0.33
  -4  -1   0   10.06    0.28
  -4  -1   0   10.90    0.33
   4   1   0    9.87    0.33
   4   1   0   10.15    0.33
   4   1   0    9.07    0.30
  -5  -1   0    7.12    0.23
  -5  -1   0    7.13    0.28
  -5  -1   0    7.29    0.23
   5   1   0    7.30    0.26
   5   1   0    7.44    0.23
   5   1   0    7.46    0.22
  -6  -1   0    1.16    0.08
  -6  -1   0    1.44    0.08
   6   1   0    1.39    0.09
   6   1   0    1.30    0.06
   6   1   0    1.42    0.08
   7   1   0    2.99    0.10
   7   1   0    2.92    0.10
   5  -2   0    1.17    0.07
   5  -2   0    1.09    0.05
  -5   2   0    1.12    0.07
  -5   2   0    1.15    0.08
  -5   2   0    0.95    0.13
  -5   2   0    1.15    0.06
  -5   2   0    1.01    0.09
   4  -2   0  149.97    4.05
   4  -2   0  157.97    4.03
   4  -2   0  155.61    4.08
   4  -2   0  152.34    4.03
   4  -2   0  157.35    4.00
  -4   2   0  158.71    4.06
  -4   2   0  158.69    4.04
  -4   2   0  162.55    4.15
  -4   2   0  157.16    4.01
  -4   2   0  155.29    4.11
  -4   2   0  158.23    4.15
  -4   2   0  151.56    4.03
  -4   2   0  157.98    4.02
   3  -2   0   87.03    2.35
   3  -2   0   88.99    2.33
   3  -2   0   90.03    2.36
   3  -2   0   91.05    2.42
   3  -2   0   90.96    2.38
  -3   2   0   93.00    2.47
  -3   2   0   87.62    2.36
  -3   2   0   89.85    2.38
  -3   2   0   94.44    2.37
  -3   2   0   90.51    2.43
  -3   2   0   93.27    2.34
  -3   2   0   93.29    2.36
   2  -2   0  123.51    3.18
   2  -2   0  120.76    3.14
  -2   2   0  117.73    3.20
  -2   2   0  122.53    3.13
  -2   2   0  124.86    3.16
  -2   2   0  124.57    3.18
  -2   2   0  118.21    3.20
  -2   2   0  118.58    3.17
  -2   2   0  118.60    3.12
   1  -2   0    2.51    0.16
   1  -2   0    2.55    0.12
   1  -2   0    2.65    0.14
   1  -2   0    2.83    0.13
  -1   2   0    2.67    0.14
  -1   2   0    3.34    0.17
  -1   2   0    2.57    0.12
  -1   2   0    2.29    0.13
   0  -2   0  147.84    3.73
   0  -2   0  143.91    3.72
   0  -2   0  145.61    3.76
   0   2   0  145.00    3.73
   0   2   0  145.21    3.74
   0   2   0  141.45    3.75
  -1  -2   0   81.56    2.10
  -1  -2   0   80.11    2.08
  -1  -2   0   79.71    2.06
   1   2   0   79.97    2.12
  -2  -2   0   43.72    1.16
  -2  -2   0   45.90    1.17
  -2  -2   0   44.82    1.19
   2   2   0   46.40    1.26
  -3  -2   0   19.34    0.54
  -3  -2   0   20.04    0.53
  -3  -2   0   21.26    0.63
   3   2   0   18.94    0.63
   3   2   0   20.70    0.66
  -4  -2   0   29.67    0.80
  -4  -2   0   28.85    0.80
  -4  -2   0   29.62    0.76
   4   2   0   30.17    0.93
   4   2   0   28.32    0.79
   4   2   0   29.60    0.82
  -5  -2   0    1.77    0.12
  -5  -2   0    1.69    0.08
   5   2   0    1.83    0.08
   5   2   0    1.65    0.11
   5   2   0    1.80    0.09
  -6  -2   0    4.69    0.16
  -6  -2   0    4.33    0.16
   6   2   0    4.52    0.18
   6   2   0    4.27    0.14
   6   2   0    4.36    0.16
   7   2   0    3.21    0.11
   5  -3   0    2.64    0.10
  -5   3   0    2.65    0.11
  -5   3   0    2.64    0.09
   4  -3   0    0.13    0.04
   4  -3   0    0.14    0.06
   4  -3   0    0.10    0.02
   4  -3   0    0.12    0.04
  -4   3   0    0.06    0.04
  -4   3   0    0.10    0.03
  -4   3   0    0.11    0.07
  -4   3   0    0.09    0.04
  -4   3   0    0.12    0.08
  -4   3   0    0.09    0.05
   3  -3   0    6.36    0.22
   3  -3   0    6.51    0.24
   3  -3   0    6.44    0.28
   3  -3   0    6.68    0.22
  -3   3   0    6.52    0.30
  -3   3   0    6.32    0.20
  -3   3   0    6.20    0.21
  -3   3   0    6.84    0.24
  -3   3   0    6.40    0.32
  -3   3   0    6.73    0.24
  -3   3   0    6.96    0.31
   2  -3   0    0.00    0.07
   2  -3   0    0.05    0.03
   2  -3   0    0.04    0.04
  -2   3   0    0.04    0.04
  -2   3   0    0.00    0.04
  -2   3   0    0.03    0.05
  -2   3   0    0.10    0.07
  -2   3   0    0.03    0.07
  -2   3   0    0.05    0.03
  -2   3   0    0.00    0.07
   1  -3   0   60.45    1.68
   1  -3   0   61.76    1.63
  -1   3   0   61.43    1.69
  -1   3   0   61.78    1.66
  -1   3   0   60.83    1.61
  -1   3   0   60.52    1.71
   0  -3   0    6.08    0.27
   0  -3   0    5.42    0.19
   0  -3   0    6.30    0.21
   0  -3   0    5.57    0.24
   0  -3   0    5.77    0.21
   0   3   0    5.74    0.27
   0   3   0    5.79    0.25
   0   3   0    5.55    0.23
  -1  -3   0   63.00    1.63
  -1  -3   0   61.58    1.61
  -1  -3   0   64.15    1.66
  -1  -3   0   60.97    1.63
   1   3   0   60.88    1.68
   1   3   0   59.53    1.65
  -2  -3   0   24.22    0.66
  -2  -3   0   24.50    0.71
  -2  -3   0   25.05    0.68
   2   3   0   26.17    0.78
  -3  -3   0    1.91    0.10
  -3  -3   0    1.84    0.09
  -3  -3   0    2.01    0.13
   3   3   0    2.00    0.11
   3   3   0    2.19    0.19
  -4  -3   0    0.18    0.04
  -4  -3   0    0.11    0.06
  -4  -3   0    0.15    0.04
   4   3   0    0.18    0.05
   4   3   0    0.15    0.05
   4   3   0    0.19    0.04
   4   3   0    0.12    0.09
  -5  -3   0    6.51    0.28
  -5  -3   0    6.64    0.19
  -5  -3   0    6.43    0.24
   5   3   0    6.21    0.21
   5   3   0    5.97    0.20
   5   3   0    6.18    0.24
  -6  -3   0    7.32    0.23
   6   3   0    7.42    0.23
   6   3   0    7.69    0.26
   7   3   0   36.68    0.96
   4  -4   0    2.40    0.09
   4  -4   0    2.27    0.09
  -4   4   0    2.41    0.09
  -4   4   0    2.47    0.11
  -4   4   0    2.32    0.08
  -4   4   0    2.15    0.11
   3  -4   0    3.66    0.19
   3  -4   0    3.74    0.14
   3  -4   0    3.51    0.13
   3  -4   0    3.75    0.14
  -3   4   0    3.63    0.21
  -3   4   0    3.57    0.16
  -3   4   0    4.05    0.17
  -3   4   0    3.61    0.20
  -3   4   0    3.79    0.14
  -3   4   0    3.80    0.13
   2  -4   0    3.88    0.15
   2  -4   0    3.94    0.22
   2  -4   0    4.01    0.18
   2  -4   0    3.93    0.15
  -2   4   0    3.65    0.22
  -2   4   0    3.82    0.17
  -2   4   0    3.79    0.17
  -2   4   0    4.03    0.24
  -2   4   0    4.04    0.15
  -2   4   0    3.56    0.21
  -2   4   0    4.09    0.16
  -2   4   0    3.88    0.14
   1  -4   0   21.81    0.62
   1  -4   0   23.92    0.72
   1  -4   0   22.53    0.65
   1  -4   0   22.60    0.62
  -1   4   0   21.72    0.60
  -1   4   0   21.78    0.61
  -1   4   0   22.98    0.70
  -1   4   0   22.73    0.73
  -1   4   0   21.88    0.62
  -1   4   0   22.38    0.62
  -1   4   0   21.69    0.72
  -1   4   0   22.25    0.62
  -1   4   0   22.39    0.64
  -1   4   0   23.25    0.64
  -1   4   0   23.17    0.64
   0  -4   0   14.01    0.42
   0  -4   0   15.05    0.45
   0  -4   0   14.15    0.42
   0  -4   0   14.70    0.48
   0  -4   0   14.53    0.51
   0  -4   0   15.00    0.45
   0   4   0   14.23    0.42
   0   4   0   14.12    0.43
   0   4   0   13.49    0.55
   0   4   0   13.59    0.50
   0   4   0   13.68    0.41
   0   4   0   13.86    0.39
   0   4   0   14.09    0.48
   0   4   0   14.89    0.50
  -1  -4   0    0.56    0.07
  -1  -4   0    0.69    0.07
  -1  -4   0    0.45    0.07
  -1  -4   0    0.51    0.08
  -1  -4   0    0.45    0.08
  -1  -4   0    0.37    0.10
   1   4   0    0.35    0.05
   1   4   0    0.56    0.05
   1   4   0    0.55    0.07
   1   4   0    0.63    0.07
   1   4   0    0.48    0.10
   1   4   0    0.58    0.13
  -2  -4   0    8.90    0.29
  -2  -4   0    8.81    0.29
  -2  -4   0    8.75    0.32
  -2  -4   0    8.38    0.27
  -2  -4   0    8.66    0.27
   2   4   0    8.61    0.25
   2   4   0    8.19    0.27
   2   4   0    8.62    0.36
   2   4   0    8.41    0.26
   2   4   0    8.19    0.37
   2   4   0    8.84    0.28
  -3  -4   0   24.82    0.70
  -3  -4   0   24.73    0.68
  -3  -4   0   26.29    0.75
   3   4   0   24.28    0.67
   3   4   0   25.38    0.69
   3   4   0   25.07    0.85
   3   4   0   25.50    0.70
   3   4   0   24.67    0.70
   3   4   0   27.15    0.81
  -4  -4   0   16.93    0.52
  -4  -4   0   17.17    0.48
   4   4   0   16.94    0.51
   4   4   0   16.79    0.65
   4   4   0   16.74    0.48
   4   4   0   17.59    0.49
  -5  -4   0    4.42    0.19
   5   4   0    4.84    0.18
   5   4   0    4.67    0.16
   5   4   0    4.66    0.19
   3  -5   0    1.65    0.07
   3  -5   0    1.58    0.07
  -3   5   0    1.56    0.08
  -3   5   0    1.58    0.07
  -3   5   0    1.49    0.09
  -3   5   0    1.50    0.09
  -3   5   0    1.64    0.07
   2  -5   0    4.73    0.16
   2  -5   0    4.64    0.16
   2  -5   0    4.35    0.21
  -2   5   0    4.49    0.15
  -2   5   0    4.28    0.18
  -2   5   0    4.14    0.16
  -2   5   0    4.29    0.16
  -2   5   0    4.15    0.22
  -2   5   0    4.44    0.18
   1  -5   0    1.16    0.11
   1  -5   0    1.29    0.08
   1  -5   0    1.32    0.15
   1  -5   0    1.16    0.08
   1  -5   0    1.26    0.08
  -1   5   0    1.23    0.10
  -1   5   0    1.10    0.08
  -1   5   0    1.31    0.10
  -1   5   0    1.30    0.07
  -1   5   0    1.41    0.16
  -1   5   0    1.30    0.08
  -1   5   0    1.40    0.09
  -1   5   0    1.37    0.11
  -1   5   0    1.48    0.07
   0  -5   0    4.45    0.16
   0  -5   0    4.77    0.20
   0  -5   0    4.28    0.16
   0  -5   0    4.50    0.26
   0  -5   0    4.79    0.17
   0   5   0    4.26    0.16
   0   5   0    4.36    0.18
   0   5   0    4.27    0.15
   0   5   0    3.96    0.18
   0   5   0    4.57    0.17
   0   5   0    4.60    0.17
   0   5   0    4.54    0.15
   0   5   0    4.36    0.16
  -1  -5   0    4.24    0.16
  -1  -5   0    4.46    0.23
  -1  -5   0    4.10    0.19
  -1  -5   0    4.63    0.27
  -1  -5   0    4.42    0.19
  -1  -5   0    4.56    0.17
  -1  -5   0    4.32    0.17
   1   5   0    4.41    0.18
   1   5   0    4.43    0.16
   1   5   0    4.40    0.18
   1   5   0    4.48    0.15
   1   5   0    4.34    0.21
   1   5   0    4.23    0.17
   1   5   0    4.22    0.18
   1   5   0    4.29    0.15
   1   5   0    4.37    0.16
  -2  -5   0    9.15    0.30
  -2  -5   0    9.87    0.40
  -2  -5   0    9.22    0.36
  -2  -5   0    9.15    0.32
  -2  -5   0    8.88    0.29
  -2  -5   0    9.01    0.31
   2   5   0    9.10    0.27
   2   5   0    9.74    0.27
   2   5   0    9.26    0.29
   2   5   0    9.60    0.31
   2   5   0    8.93    0.30
   2   5   0    8.99    0.53
   2   5   0    9.63    0.34
   2   5   0    9.19    0.30
   2   5   0    9.29    0.30
  -3  -5   0  148.62    3.81
  -3  -5   0  147.60    3.80
  -3  -5   0  141.04    3.84
  -3  -5   0  142.30    3.78
  -3  -5   0  151.93    3.78
   3   5   0  151.86    3.76
   3   5   0  147.55    3.79
   3   5   0  145.11    3.79
   3   5   0  138.22    3.96
   3   5   0  152.25    3.77
   3   5   0  141.34    3.76
   3   5   0  149.11    3.79
  -4  -5   0   49.61    1.41
  -4  -5   0   52.64    1.37
  -4  -5   0   52.91    1.40
   4   5   0   52.05    1.36
   4   5   0   53.38    1.38
   4   5   0   49.17    1.37
  -5  -5   0    4.23    0.16
   5   5   0    4.68    0.18
   5   5   0    4.66    0.16
   6   5   0   11.77    0.34
   2  -6   0    3.52    0.11
   2  -6   0    3.33    0.11
  -2   6   0    3.12    0.12
  -2   6   0    3.23    0.14
  -2   6   0    3.29    0.10
  -2   6   0    3.44    0.11
   1  -6   0   28.20    0.75
   1  -6   0   27.74    0.75
  -1   6   0   28.40    0.79
  -1   6   0   28.08    0.76
  -1   6   0   27.52    0.75
  -1   6   0   27.29    0.73
  -1   6   0   28.00    0.76
   0  -6   0    0.99    0.07
   0  -6   0    1.25    0.15
   0  -6   0    0.96    0.07
   0  -6   0    1.29    0.07
   0   6   0    1.19    0.09
   0   6   0    1.15    0.11
   0   6   0    1.16    0.09
   0   6   0    1.14    0.07
   0   6   0    1.06    0.07
   0   6   0    0.92    0.07
   0   6   0    1.11    0.07
   0   6   0    1.05    0.07
  -1  -6   0    1.99    0.10
  -1  -6   0    1.90    0.19
  -1  -6   0    2.15    0.11
  -1  -6   0    2.30    0.10
   1   6   0    2.03    0.12
   1   6   0    2.06    0.15
   1   6   0    1.74    0.11
   1   6   0    1.99    0.11
   1   6   0    1.91    0.09
   1   6   0    2.01    0.10
   1   6   0    1.91    0.10
  -2  -6   0    3.97    0.21
  -2  -6   0    4.31    0.17
  -2  -6   0    4.76    0.17
  -2  -6   0    4.24    0.26
  -2  -6   0    4.48    0.20
   2   6   0    4.31    0.18
   2   6   0    4.18    0.16
   2   6   0    4.47    0.18
   2   6   0    4.02    0.17
   2   6   0    4.58    0.15
   2   6   0    4.31    0.21
   2   6   0    4.43    0.17
   2   6   0    4.38    0.15
  -3  -6   0    6.41    0.32
  -3  -6   0    6.57    0.22
  -3  -6   0    6.39    0.22
   3   6   0    6.51    0.22
   3   6   0    6.55    0.21
   3   6   0    7.02    0.23
   3   6   0    6.55    0.23
   3   6   0    7.03    0.21
  -4  -6   0    1.63    0.09
  -4  -6   0    1.78    0.09
  -4  -6   0    1.79    0.17
   4   6   0    1.67    0.09
   4   6   0    1.73    0.09
   4   6   0    1.60    0.11
   5   6   0   11.34    0.33
   5   6   0   11.85    0.35
   0  -7   0   12.59    0.33
   0  -7   0   11.61    0.32
   0   7   0   11.90    0.32
   0   7   0   11.31    0.34
   0   7   0   11.39    0.33
   0   7   0   11.90    0.32
   0   7   0   11.26    0.36
  -1  -7   0    1.84    0.08
  -1  -7   0    1.87    0.08
   1   7   0    1.74    0.08
   1   7   0    1.77    0.11
   1   7   0    1.85    0.08
   1   7   0    1.77    0.07
   1   7   0    1.83    0.09
   1   7   0    1.78    0.08
  -2  -7   0    1.91    0.08
  -2  -7   0    1.81    0.09
   2   7   0    2.08    0.08
   2   7   0    1.91    0.09
   2   7   0    1.90    0.08
   2   7   0    1.77    0.08
  -3  -7   0    2.49    0.10
  -3  -7   0    2.65    0.10
   3   7   0    2.77    0.11
   3   7   0    2.64    0.10
   3   7   0    2.49    0.09
  -4  -7   0    3.92    0.13
   4   7   0    3.84    0.14
   4   7   0    3.95    0.14
   4   7   0    3.80    0.13
   4   7  -1    0.36    0.04
   4   7  -1    0.35    0.04
   3   7  -1    4.46    0.14
   3   7  -1    4.52    0.15
   3   7  -1    4.41    0.14
  -3  -7   1    4.22    0.15
  -3  -7   1    4.29    0.14
   2   7  -1    2.45    0.11
   2   7  -1    2.57    0.09
   2   7  -1    2.57    0.09
   2   7  -1    2.45    0.14
   2   7  -1    2.76    0.10
  -2  -7   1    2.75    0.10
  -2  -7   1    2.37    0.10
   1   7  -1    1.24    0.06
   1   7  -1    1.25    0.10
   1   7  -1    1.22    0.08
   1   7  -1    1.31    0.06
   1   7  -1    1.17    0.06
   1   7  -1    1.25    0.07
  -1  -7   1    1.16    0.06
  -1  -7   1    1.23    0.06
   0   7  -1    5.97    0.17
   0   7  -1    5.61    0.19
   0   7  -1    5.88    0.17
   0  -7   1    5.60    0.17
   0  -7   1    6.26    0.17
   5   6  -1    2.29    0.09
   5   6  -1    2.51    0.11
   4   6  -1   17.27    0.48
   4   6  -1   17.75    0.50
   4   6  -1   17.57    0.49
  -4  -6   1   15.74    0.56
  -4  -6   1   16.90    0.48
  -4  -6   1   17.36    0.48
   3   6  -1    3.73    0.13
   3   6  -1    3.79    0.17
   3   6  -1    4.06    0.16
   3   6  -1    3.48    0.14
   3   6  -1    3.75    0.13
  -3  -6   1    3.48    0.14
  -3  -6   1    3.59    0.23
  -3  -6   1    3.97    0.15
   2   6  -1   12.83    0.40
   2   6  -1   13.17    0.39
   2   6  -1   13.02    0.37
   2   6  -1   12.41    0.43
   2   6  -1   12.97    0.38
   2   6  -1   13.41    0.36
   2   6  -1   12.42    0.39
  -2  -6   1   13.34    0.38
  -2  -6   1   12.81    0.38
  -2  -6   1   12.65    0.48
   1   6  -1    5.19    0.20
   1   6  -1    5.17    0.18
   1   6  -1    5.20    0.18
   1   6  -1    5.66    0.23
   1   6  -1    4.97    0.19
   1   6  -1    5.28    0.17
   1   6  -1    5.46    0.17
  -1  -6   1    5.00    0.18
  -1  -6   1    5.37    0.19
  -1  -6   1    5.13    0.27
  -1  -6   1    5.23    0.17
  -1  -6   1    5.17    0.18
   0   6  -1    1.87    0.11
   0   6  -1    1.90    0.10
   0   6  -1    1.84    0.10
   0   6  -1    1.81    0.09
   0   6  -1    1.94    0.08
   0   6  -1    2.01    0.14
   0   6  -1    1.96    0.11
   0  -6   1    1.83    0.09
   0  -6   1    2.03    0.09
   0  -6   1    1.98    0.09
   0  -6   1    1.86    0.16
  -1   6  -1   32.86    0.89
  -1   6  -1   33.39    0.91
  -1   6  -1   32.57    0.88
  -1   6  -1   32.96    0.89
  -1   6  -1   34.35    0.94
  -1   6  -1   33.79    0.91
  -1   6  -1   34.00    0.90
  -1   6  -1   34.47    0.88
   1  -6   1   34.04    0.89
   1  -6   1   35.38    0.90
  -2   6  -1    7.08    0.20
  -2   6  -1    7.33    0.21
   2  -6   1    7.22    0.21
   2  -6   1    7.51    0.21
   5   5  -1   10.88    0.32
   5   5  -1   11.27    0.34
   4   5  -1   17.80    0.51
   4   5  -1   18.06    0.50
   4   5  -1   18.64    0.53
  -4  -5   1   18.36    0.50
  -4  -5   1   17.35    0.54
  -4  -5   1   17.89    0.54
   3   5  -1   25.33    0.67
   3   5  -1   22.83    0.64
   3   5  -1   24.06    0.75
   3   5  -1   23.75    0.66
   3   5  -1   23.76    0.64
   3   5  -1   24.54    0.65
  -3  -5   1   22.37    0.65
  -3  -5   1   22.86    0.71
  -3  -5   1   22.86    0.65
  -3  -5   1   24.61    0.69
  -3  -5   1   23.60    0.77
   2   5  -1   21.05    0.56
   2   5  -1   20.87    0.58
   2   5  -1   20.94    0.59
   2   5  -1   20.22    0.58
   2   5  -1   20.68    0.59
   2   5  -1   20.72    0.57
   2   5  -1   20.42    0.60
   2   5  -1   21.14    0.64
  -2  -5   1   20.79    0.62
  -2  -5   1   21.39    0.65
  -2  -5   1   20.97    0.58
  -2  -5   1   21.32    0.70
  -2  -5   1   19.33    0.60
  -2  -5   1   20.93    0.59
   1   5  -1    4.17    0.16
   1   5  -1    4.07    0.15
   1   5  -1    3.66    0.15
   1   5  -1    3.86    0.17
   1   5  -1    4.11    0.14
   1   5  -1    4.12    0.20
   1   5  -1    3.93    0.17
   1   5  -1    3.80    0.14
   1   5  -1    4.03    0.17
  -1  -5   1    3.92    0.21
  -1  -5   1    3.87    0.14
  -1  -5   1    3.89    0.19
  -1  -5   1    3.73    0.17
  -1  -5   1    4.03    0.26
  -1  -5   1    4.08    0.16
  -1  -5   1    3.96    0.16
   0   5  -1   26.30    0.75
   0   5  -1   25.19    0.70
   0   5  -1   25.83    0.72
   0   5  -1   26.08    0.68
   0   5  -1   25.22    0.70
   0   5  -1   24.19    0.69
   0   5  -1   25.53    0.72
   0   5  -1   25.79    0.69
   0   5  -1   25.31    0.70
   0  -5   1   25.77    0.81
   0  -5   1   24.82    0.70
   0  -5   1   24.99    0.70
   0  -5   1   25.55    0.69
   0  -5   1   25.09    0.74
   0  -5   1   25.29    0.70
  -1   5  -1   23.83    0.65
  -1   5  -1   23.75    0.63
  -1   5  -1   24.30    0.67
  -1   5  -1   22.33    0.84
  -1   5  -1   24.40    0.63
  -1   5  -1   23.25    0.64
  -1   5  -1   22.67    0.65
  -1   5  -1   23.32    0.75
  -1   5  -1   23.23    0.67
  -1   5  -1   24.15    0.67
   1  -5   1   23.02    0.69
   1  -5   1   23.45    0.65
   1  -5   1   24.34    0.65
   1  -5   1   22.71    0.64
   1  -5   1   23.84    0.75
  -2   5  -1    4.28    0.17
  -2   5  -1    3.88    0.22
  -2   5  -1    4.29    0.15
  -2   5  -1    4.13    0.14
  -2   5  -1    3.88    0.14
  -2   5  -1    4.23    0.18
  -2   5  -1    4.39    0.16
   2  -5   1    4.20    0.21
   2  -5   1    4.24    0.15
   2  -5   1    3.93    0.14
  -3   5  -1    2.85    0.16
  -3   5  -1    2.97    0.10
  -3   5  -1    2.73    0.11
  -3   5  -1    2.83    0.09
  -3   5  -1    2.82    0.13
   3  -5   1    2.80    0.10
   3  -5   1    2.81    0.10
   6   4  -1    3.39    0.14
   5   4  -1    5.22    0.19
   5   4  -1    4.91    0.20
   4   4  -1    4.65    0.19
   4   4  -1    4.43    0.30
   4   4  -1    4.08    0.15
   4   4  -1    4.57    0.18
  -4  -4   1    4.41    0.18
   3   4  -1   63.94    1.74
   3   4  -1   67.45    1.70
   3   4  -1   63.84    1.86
   3   4  -1   65.87    1.68
   3   4  -1   64.84    1.67
   3   4  -1   61.16    1.69
  -3  -4   1   65.04    1.72
  -3  -4   1   63.12    1.68
  -3  -4   1   65.13    1.73
  -3  -4   1   63.95    1.67
   2   4  -1  191.08    5.03
   2   4  -1  191.43    5.13
   2   4  -1  194.97    4.99
   2   4  -1  190.90    4.97
   2   4  -1  194.27    4.99
   2   4  -1  194.40    5.00
  -2  -4   1  193.22    5.01
  -2  -4   1  196.59    4.99
  -2  -4   1  202.64    5.05
  -2  -4   1  193.26    5.00
   1   4  -1    9.21    0.32
   1   4  -1    8.42    0.27
   1   4  -1    8.91    0.29
   1   4  -1    8.96    0.26
   1   4  -1    8.95    0.38
   1   4  -1    8.70    0.29
  -1  -4   1    9.22    0.30
  -1  -4   1    8.85    0.34
  -1  -4   1    9.00    0.28
  -1  -4   1    9.33    0.29
  -1  -4   1    9.49    0.38
  -1  -4   1    9.38    0.31
   0   4  -1    9.41    0.29
   0   4  -1    9.36    0.34
   0   4  -1    8.98    0.30
   0   4  -1    9.83    0.38
   0   4  -1    9.16    0.36
   0   4  -1    9.13    0.31
   0   4  -1    9.03    0.30
   0   4  -1    9.40    0.27
   0  -4   1    9.57    0.29
   0  -4   1    9.61    0.32
   0  -4   1    9.79    0.29
   0  -4   1    9.60    0.39
   0  -4   1   10.17    0.32
   0  -4   1    9.14    0.35
  -1   4  -1   36.08    0.96
  -1   4  -1   35.13    0.95
  -1   4  -1   33.35    0.95
  -1   4  -1   33.70    0.94
  -1   4  -1   37.19    1.09
  -1   4  -1   38.24    1.06
  -1   4  -1   36.37    0.98
  -1   4  -1   35.31    0.98
  -1   4  -1   37.78    0.99
   1  -4   1   36.97    1.00
   1  -4   1   37.19    1.07
   1  -4   1   34.12    0.96
   1  -4   1   34.98    0.96
  -2   4  -1    0.95    0.09
  -2   4  -1    1.10    0.16
  -2   4  -1    0.91    0.09
  -2   4  -1    1.00    0.07
  -2   4  -1    1.03    0.07
  -2   4  -1    1.05    0.07
  -2   4  -1    0.96    0.10
  -2   4  -1    0.96    0.15
   2  -4   1    0.94    0.07
   2  -4   1    0.95    0.07
   2  -4   1    0.94    0.09
   2  -4   1    0.89    0.13
  -3   4  -1    5.02    0.17
  -3   4  -1    4.98    0.20
  -3   4  -1    5.10    0.19
  -3   4  -1    5.03    0.16
  -3   4  -1    4.68    0.25
  -3   4  -1    4.65    0.18
   3  -4   1    4.82    0.16
   3  -4   1    5.19    0.17
   3  -4   1    4.83    0.16
   3  -4   1    4.67    0.22
  -4   4  -1    0.07    0.04
  -4   4  -1    0.08    0.03
  -4   4  -1    0.07    0.03
  -4   4  -1    0.07    0.02
   4  -4   1    0.11    0.03
   4  -4   1    0.06    0.03
   7   3  -1   19.57    0.52
   6   3  -1   54.94    1.43
   6   3  -1   54.17    1.45
  -6  -3   1   54.55    1.42
   5   3  -1    0.88    0.07
   5   3  -1    0.92    0.09
  -5  -3   1    0.92    0.12
  -5  -3   1    0.77    0.07
   4   3  -1    7.45    0.38
   4   3  -1    7.47    0.24
   4   3  -1    7.59    0.25
   4   3  -1    7.66    0.27
  -4  -3   1    7.82    0.30
   3   3  -1   20.47    0.69
   3   3  -1   19.24    0.55
   3   3  -1   19.77    0.57
  -3  -3   1   19.63    0.53
   2   3  -1  155.09    4.04
  -2  -3   1  149.45    3.93
  -2  -3   1  151.52    3.90
   1   3  -1   85.70    2.34
   1   3  -1   86.24    2.35
   1   3  -1   87.60    2.38
  -1  -3   1   91.37    2.29
  -1  -3   1   89.80    2.34
  -1  -3   1   87.40    2.30
  -1  -3   1   90.79    2.31
   0   3  -1    9.04    0.38
   0   3  -1    9.13    0.34
   0   3  -1    8.34    0.32
   0  -3   1    9.56    0.30
   0  -3   1    9.01    0.32
   0  -3   1    8.69    0.27
   0  -3   1    8.88    0.29
   0  -3   1    9.16    0.35
  -1   3  -1   11.24    0.46
  -1   3  -1   12.30    0.42
  -1   3  -1   11.49    0.36
  -1   3  -1   12.33    0.44
   1  -3   1   11.96    0.43
   1  -3   1   12.14    0.38
  -2   3  -1   29.24    0.76
  -2   3  -1   29.60    0.86
  -2   3  -1   26.88    0.77
  -2   3  -1   29.07    0.79
  -2   3  -1   28.68    0.79
  -2   3  -1   28.06    0.85
  -2   3  -1   28.19    0.88
  -2   3  -1   30.02    0.79
  -2   3  -1   28.04    0.82
   2  -3   1   27.10    0.77
   2  -3   1   28.17    0.80
   2  -3   1   28.27    0.85
  -3   3  -1    9.62    0.38
  -3   3  -1    9.87    0.32
  -3   3  -1    9.87    0.31
  -3   3  -1    9.83    0.32
  -3   3  -1    8.78    0.40
  -3   3  -1    9.56    0.38
  -3   3  -1    9.28    0.28
  -3   3  -1    9.31    0.29
   3  -3   1    9.68    0.29
   3  -3   1    9.64    0.36
   3  -3   1    9.57    0.32
   3  -3   1    9.40    0.29
  -4   3  -1    5.10    0.19
  -4   3  -1    4.69    0.23
  -4   3  -1    4.88    0.17
  -4   3  -1    4.59    0.24
  -4   3  -1    4.79    0.15
  -4   3  -1    4.80    0.19
   4  -3   1    4.64    0.14
   4  -3   1    4.80    0.17
   4  -3   1    4.61    0.16
   4  -3   1    4.22    0.20
  -5   3  -1    1.69    0.06
  -5   3  -1    1.58    0.07
  -5   3  -1    1.69    0.08
   5  -3   1    1.58    0.07
   7   2  -1    3.84    0.12
   6   2  -1   14.83    0.41
   6   2  -1   15.36    0.46
   6   2  -1   15.24    0.43
  -6  -2   1   15.97    0.43
  -6  -2   1   15.20    0.43
   5   2  -1    5.56    0.22
   5   2  -1    5.61    0.18
   5   2  -1    5.54    0.19
  -5  -2   1    5.89    0.18
  -5  -2   1    5.84    0.21
   4   2  -1   27.54    0.78
   4   2  -1   27.03    0.88
  -4  -2   1   27.51    0.74
  -4  -2   1   28.02    0.74
   3   2  -1   20.39    0.60
   3   2  -1   22.32    0.70
  -3  -2   1   20.74    0.56
  -3  -2   1   21.55    0.62
   2   2  -1   22.86    0.71
   1   2  -1  236.35    6.22
   1   2  -1  247.67    6.26
  -1  -2   1  242.35    6.20
  -1  -2   1  229.88    6.17
  -1  -2   1  253.43    6.20
   0   2  -1   15.69    0.48
   0   2  -1   16.31    0.51
   0   2  -1   15.57    0.49
   0  -2   1   16.07    0.48
   0  -2   1   16.38    0.45
   0  -2   1   15.48    0.45
  -1   2  -1    4.35    0.21
  -1   2  -1    4.28    0.23
  -1   2  -1    4.22    0.20
   1  -2   1    4.73    0.17
   1  -2   1    4.60    0.22
   1  -2   1    4.59    0.17
   1  -2   1    4.40    0.19
  -2   2  -1   45.04    1.27
  -2   2  -1   42.49    1.29
  -2   2  -1   45.97    1.24
  -2   2  -1   44.89    1.19
   2  -2   1   43.75    1.20
   2  -2   1   45.12    1.24
  -3   2  -1   18.43    0.55
  -3   2  -1   20.35    0.64
  -3   2  -1   18.38    0.55
  -3   2  -1   19.39    0.52
  -3   2  -1   19.94    0.61
  -3   2  -1   18.94    0.55
  -3   2  -1   18.85    0.53
   3  -2   1   18.70    0.53
   3  -2   1   18.70    0.51
   3  -2   1   17.73    0.53
   3  -2   1   18.94    0.60
   3  -2   1   19.67    0.56
  -4   2  -1    1.04    0.14
  -4   2  -1    0.97    0.07
  -4   2  -1    1.07    0.10
  -4   2  -1    1.02    0.10
  -4   2  -1    0.97    0.15
  -4   2  -1    1.02    0.13
  -4   2  -1    0.72    0.08
  -4   2  -1    0.89    0.07
   4  -2   1    0.63    0.07
   4  -2   1    0.94    0.11
   4  -2   1    0.82    0.05
   4  -2   1    0.77    0.07
   4  -2   1    0.91    0.09
  -5   2  -1    0.24    0.05
  -5   2  -1    0.29    0.05
  -5   2  -1    0.26    0.08
  -5   2  -1    0.22    0.04
  -5   2  -1    0.13    0.03
   5  -2   1    0.21    0.04
   5  -2   1    0.16    0.03
   6  -2   1    0.26    0.03
   7   1  -1    3.63    0.11
   6   1  -1    5.77    0.19
   6   1  -1    5.78    0.21
   6   1  -1    5.67    0.17
  -6  -1   1    5.96    0.19
  -6  -1   1    5.30    0.20
  -6  -1   1    5.70    0.19
   5   1  -1    5.55    0.17
   5   1  -1    5.46    0.19
   5   1  -1    5.64    0.22
  -5  -1   1    5.32    0.18
  -5  -1   1    5.36    0.18
  -5  -1   1    5.29    0.22
   4   1  -1   15.49    0.46
   4   1  -1   14.61    0.41
  -4  -1   1   14.79    0.44
  -4  -1   1   15.05    0.44
  -4  -1   1   15.19    0.41
  -4  -1   1   14.89    0.51
  -4  -1   1   15.28    0.47
  -4  -1   1   15.93    0.49
   3   1  -1    1.31    0.14
  -3  -1   1    0.97    0.06
  -3  -1   1    1.39    0.11
  -3  -1   1    1.03    0.06
  -3  -1   1    1.21    0.11
   2   1  -1   23.32    0.66
  -2  -1   1   20.80    0.61
  -2  -1   1   21.71    0.62
   1   1  -1  112.56    2.94
   0   1  -1  183.90    4.95
   0   1  -1  200.41    4.95
   0  -1   1  191.92    4.92
  -1   1  -1   31.16    0.89
  -1   1  -1   33.65    0.87
  -1   1  -1   33.01    0.91
   1  -1   1   32.53    0.86
   1  -1   1   32.00    0.86
  -2   1  -1  150.69    3.90
  -2   1  -1  146.00    3.94
  -2   1  -1  152.68    3.93
  -2   1  -1  154.25    3.93
  -2   1  -1  142.76    3.92
   2  -1   1  154.87    3.93
   2  -1   1  157.92    3.90
  -3   1  -1   11.03    0.32
  -3   1  -1   10.21    0.32
  -3   1  -1   11.03    0.37
  -3   1  -1   10.44    0.39
  -3   1  -1   10.52    0.32
  -3   1  -1   10.40    0.35
  -3   1  -1   10.58    0.37
  -3   1  -1   10.71    0.42
   3  -1   1   10.62    0.36
   3  -1   1   10.96    0.33
  -4   1  -1  185.73    4.64
  -4   1  -1  170.14    4.68
  -4   1  -1  175.54    4.63
  -4   1  -1  183.37    4.72
  -4   1  -1  185.33    4.74
  -4   1  -1  176.47    4.70
  -4   1  -1  185.18    4.61
  -4   1  -1  177.95    4.65
  -4   1  -1  182.48    4.64
   4  -1   1  182.06    4.61
   4  -1   1  176.78    4.61
   4  -1   1  180.81    4.65
   4  -1   1  178.10    4.62
   4  -1   1  185.35    4.68
   4  -1   1  175.55    4.63
  -5   1  -1   50.17    1.35
  -5   1  -1   50.13    1.31
  -5   1  -1   49.46    1.34
  -5   1  -1   50.17    1.33
  -5   1  -1   50.77    1.30
  -5   1  -1   49.29    1.40
  -5   1  -1   49.79    1.34
   5  -1   1   50.58    1.32
   5  -1   1   50.92    1.30
   5  -1   1   50.92    1.31
   5  -1   1   47.09    1.36
  -6   1  -1    0.34    0.08
  -6   1  -1    0.33    0.03
  -6   1  -1    0.40    0.06
   6  -1   1    0.32    0.03
   6  -1   1    0.34    0.04
   6  -1   1    0.27    0.04
   6   0  -1    2.09    0.11
   6   0  -1    2.32    0.09
   6   0  -1    2.42    0.08
  -6   0   1    2.18    0.10
  -6   0   1    2.21    0.16
  -6   0   1    2.21    0.11
   5   0  -1   10.41    0.36
   5   0  -1   11.09    0.33
   5   0  -1   10.53    0.33
   5   0  -1   11.39    0.31
  -5   0   1   11.08    0.42
  -5   0   1   11.09    0.33
  -5   0   1   11.22    0.33
  -5   0   1   12.38    0.40
  -5   0   1   10.47    0.39
  -5   0   1   11.00    0.34
   4   0  -1    0.82    0.09
   4   0  -1    0.68    0.05
   4   0  -1    0.53    0.06
   4   0  -1    0.67    0.09
   4   0  -1    0.66    0.06
  -4   0   1    0.64    0.07
  -4   0   1    0.61    0.05
  -4   0   1    0.60    0.05
  -4   0   1    0.76    0.11
  -4   0   1    0.66    0.07
  -4   0   1    0.64    0.11
  -4   0   1    0.79    0.09
  -4   0   1    0.56    0.06
   3   0  -1   19.08    0.58
   3   0  -1   19.36    0.58
   3   0  -1   19.25    0.56
  -3   0   1   20.53    0.63
  -3   0   1   21.28    0.56
  -3   0   1   20.64    0.54
  -3   0   1   21.23    0.57
  -3   0   1   20.21    0.61
  -3   0   1   20.57    0.59
   2   0  -1   39.65    1.15
   2   0  -1   41.25    1.11
  -2   0   1   43.23    1.11
  -2   0   1   44.09    1.15
  -2   0   1   43.36    1.14
  -2   0   1   41.73    1.12
  -2   0   1   43.19    1.10
   1   0  -1   89.61    2.22
  -1   0   1   83.29    2.19
  -1   0   1   85.68    2.19
  -1   0   1   85.28    2.21
  -1   0   1   81.14    2.18
  -1   0   1   84.68    2.18
   0   0   1  107.57    2.80
   0   0   1  113.60    2.83
   0   0   1  107.26    2.80
  -2   0  -1   19.45    0.52
  -2   0  -1   19.40    0.58
  -2   0  -1   19.56    0.54
  -2   0  -1   19.85    0.57
  -2   0  -1   20.13    0.55
   2   0   1   20.13    0.54
   2   0   1   19.21    0.55
  -3   0  -1   18.67    0.59
  -3   0  -1   20.25    0.57
  -3   0  -1   19.26    0.53
  -3   0  -1   19.35    0.57
  -3   0  -1   20.11    0.62
  -3   0  -1   19.64    0.58
   3   0   1   19.89    0.56
   3   0   1   20.14    0.58
  -4   0  -1   22.78    0.69
  -4   0  -1   23.29    0.61
  -4   0  -1   23.04    0.67
  -4   0  -1   22.18    0.62
  -4   0  -1   18.50    0.65
  -4   0  -1   21.75    0.72
  -4   0  -1   21.10    0.62
  -4   0  -1   22.88    0.65
  -4   0  -1   22.10    0.61
   4   0   1   22.50    0.65
   4   0   1   22.76    0.59
   4   0   1   21.28    0.63
   4   0   1   21.89    0.59
   4   0   1   22.04    0.61
   4   0   1   22.85    0.63
   4   0   1   22.63    0.59
  -5   0  -1   20.90    0.58
  -5   0  -1   19.85    0.55
  -5   0  -1   20.59    0.58
  -5   0  -1   20.54    0.64
  -5   0  -1   19.84    0.58
  -5   0  -1   19.97    0.65
   5   0   1   20.30    0.55
   5   0   1   20.75    0.55
   5   0   1   19.77    0.56
   5   0   1   21.01    0.61
   5   0   1   19.71    0.57
  -6   0  -1    3.54    0.12
  -6   0  -1    3.58    0.14
  -6   0  -1    3.32    0.15
   6   0   1    3.67    0.13
   6   0   1    3.53    0.13
   6   0   1    3.58    0.12
   6  -1  -1    5.54    0.17
   6  -1  -1    5.61    0.16
  -6   1   1    5.56    0.18
  -6   1   1    5.15    0.21
  -6   1   1    5.53    0.23
   5  -1  -1    8.36    0.28
   5  -1  -1    8.58    0.26
   5  -1  -1    8.52    0.25
   5  -1  -1    8.50    0.27
  -5   1   1    8.38    0.27
  -5   1   1    8.66    0.29
  -5   1   1    8.91    0.36
  -5   1   1    8.51    0.33
  -5   1   1    8.24    0.28
  -5   1   1    8.34    0.27
   4  -1  -1   19.94    0.53
   4  -1  -1   18.25    0.51
   4  -1  -1   18.76    0.59
   4  -1  -1   18.97    0.54
   4  -1  -1   18.80    0.56
   4  -1  -1   17.88    0.53
   4  -1  -1   19.37    0.51
   4  -1  -1   19.44    0.57
  -4   1   1   19.10    0.52
  -4   1   1   19.49    0.60
  -4   1   1   19.51    0.54
  -4   1   1   19.45    0.54
  -4   1   1   18.52    0.62
  -4   1   1   19.44    0.60
  -4   1   1   19.48    0.55
  -4   1   1   17.63    0.53
  -4   1   1   18.88    0.58
  -4   1   1   20.38    0.56
   3  -1  -1   15.24    0.45
   3  -1  -1   15.00    0.48
   3  -1  -1   15.07    0.46
  -3   1   1   15.25    0.43
  -3   1   1   15.98    0.43
  -3   1   1   15.84    0.48
  -3   1   1   15.54    0.49
  -3   1   1   15.39    0.44
  -3   1   1   15.24    0.54
  -3   1   1   15.93    0.46
  -3   1   1   15.53    0.51
   2  -1  -1   89.04    2.29
   2  -1  -1   86.26    2.31
  -2   1   1   88.02    2.31
  -2   1   1   85.60    2.31
  -2   1   1   87.01    2.30
  -2   1   1   89.71    2.33
  -2   1   1   88.85    2.33
  -2   1   1   91.55    2.29
  -2   1   1   87.14    2.27
   1  -1  -1   99.59    2.59
   1  -1  -1   99.85    2.59
  -1   1   1  101.63    2.60
  -1   1   1  102.97    2.59
  -1   1   1  102.22    2.60
  -1   1   1   98.89    2.57
  -1   1   1  100.28    2.59
  -1   1   1   98.24    2.61
  -2  -1  -1   54.10    1.42
  -2  -1  -1   53.08    1.41
  -2  -1  -1   54.44    1.41
  -2  -1  -1   54.10    1.41
  -2  -1  -1   57.18    1.42
  -2  -1  -1   55.20    1.42
   2   1   1   55.10    1.47
  -3  -1  -1   40.25    1.05
  -3  -1  -1   40.57    1.06
  -3  -1  -1   39.47    1.07
  -3  -1  -1   39.73    1.08
  -3  -1  -1   36.71    1.06
  -3  -1  -1   40.49    1.02
   3   1   1   39.47    1.11
   3   1   1   38.84    1.07
  -4  -1  -1    0.86    0.06
  -4  -1  -1    0.97    0.06
  -4  -1  -1    0.88    0.08
  -4  -1  -1    1.03    0.09
   4   1   1    0.98    0.07
   4   1   1    1.07    0.10
   4   1   1    0.95    0.08
  -5  -1  -1    8.46    0.26
  -5  -1  -1    7.81    0.32
  -5  -1  -1    8.38    0.26
   5   1   1    8.20    0.28
   5   1   1    8.11    0.24
   5   1   1    8.00    0.25
  -6  -1  -1    4.16    0.17
  -6  -1  -1    4.22    0.14
  -6  -1  -1    4.32    0.16
   6   1   1    4.41    0.15
   6   1   1    4.42    0.14
   7   1   1    3.03    0.10
   7   1   1    2.82    0.09
   5  -2  -1    2.04    0.08
   5  -2  -1    2.00    0.09
  -5   2   1    2.18    0.11
  -5   2   1    2.21    0.11
  -5   2   1    2.26    0.16
  -5   2   1    1.99    0.11
  -5   2   1    2.07    0.09
   4  -2  -1   26.41    0.73
   4  -2  -1   26.86    0.71
   4  -2  -1   25.75    0.73
   4  -2  -1   26.49    0.72
  -4   2   1   27.02    0.75
  -4   2   1   27.24    0.76
  -4   2   1   25.77    0.84
  -4   2   1   26.68    0.81
  -4   2   1   27.04    0.74
  -4   2   1   27.37    0.73
  -4   2   1   26.38    0.74
  -4   2   1   27.07    0.71
  -4   2   1   27.42    0.84
   3  -2  -1   75.39    1.98
   3  -2  -1   73.52    1.90
   3  -2  -1   71.73    1.92
   3  -2  -1   73.53    1.94
   3  -2  -1   70.52    1.95
   3  -2  -1   72.89    1.92
  -3   2   1   75.60    1.93
  -3   2   1   69.37    1.97
  -3   2   1   79.41    2.00
  -3   2   1   73.74    1.91
  -3   2   1   75.19    1.95
  -3   2   1   73.32    1.99
  -3   2   1   75.55    1.94
  -3   2   1   76.26    2.03
  -3   2   1   68.84    1.93
  -3   2   1   73.68    1.93
  -3   2   1   75.54    2.03
   2  -2  -1   33.91    0.98
   2  -2  -1   34.43    0.96
   2  -2  -1   34.99    0.95
  -2   2   1   36.15    1.01
  -2   2   1   35.49    0.98
  -2   2   1   33.55    0.93
  -2   2   1   34.51    0.96
  -2   2   1   34.35    0.94
  -2   2   1   35.77    0.98
  -2   2   1   34.77    1.03
  -2   2   1   37.87    0.96
  -2   2   1   34.24    0.98
   1  -2  -1    6.66    0.23
   1  -2  -1    7.03    0.23
   1  -2  -1    6.86    0.26
  -1   2   1    6.31    0.24
  -1   2   1    6.56    0.22
  -1   2   1    6.78    0.26
  -1   2   1    6.89    0.24
  -1   2   1    6.45    0.24
  -1   2   1    6.99    0.28
   0  -2  -1  149.23    3.70
   0  -2  -1  144.33    3.69
   0  -2  -1  145.47    3.71
   0  -2  -1  145.56    3.73
   0   2   1  143.35    3.68
   0   2   1  147.44    3.72
   0   2   1  140.96    3.68
   0   2   1  139.16    3.70
   0   2   1  136.41    3.71
  -1  -2  -1   47.28    1.28
  -1  -2  -1   47.80    1.26
  -1  -2  -1   47.15    1.25
   1   2   1   47.85    1.28
  -2  -2  -1   13.65    0.39
  -2  -2  -1   13.32    0.38
  -2  -2  -1   13.47    0.41
  -2  -2  -1   13.83    0.39
   2   2   1   14.89    0.45
  -3  -2  -1   11.80    0.34
  -3  -2  -1   11.79    0.34
   3   2   1   11.73    0.42
  -4  -2  -1   23.81    0.67
  -4  -2  -1   24.09    0.64
  -4  -2  -1   24.17    0.68
   4   2   1   24.00    0.77
   4   2   1   23.86    0.65
   4   2   1   24.61    0.68
   4   2   1   23.93    0.65
  -5  -2  -1    1.34    0.08
  -5  -2  -1    1.22    0.07
  -5  -2  -1    1.24    0.11
  -5  -2  -1    1.38    0.14
   5   2   1    1.30    0.07
   5   2   1    1.22    0.08
   5   2   1    1.28    0.06
   5   2   1    1.31    0.10
  -6  -2  -1   13.30    0.40
  -6  -2  -1   14.08    0.39
   6   2   1   13.01    0.37
   6   2   1   13.53    0.39
   6   2   1   13.56    0.41
  -7  -2  -1    0.16    0.04
   7   2   1    0.20    0.03
   5  -3  -1    3.66    0.12
  -5   3   1    3.66    0.12
  -5   3   1    3.88    0.14
   4  -3  -1    1.65    0.09
   4  -3  -1    1.67    0.09
  -4   3   1    1.62    0.11
  -4   3   1    1.71    0.09
  -4   3   1    1.62    0.14
  -4   3   1    1.64    0.08
  -4   3   1    2.11    0.16
  -4   3   1    1.69    0.11
   3  -3  -1  108.68    2.94
   3  -3  -1  107.90    2.98
   3  -3  -1  115.32    2.92
   3  -3  -1  111.68    2.92
  -3   3   1  116.76    3.03
  -3   3   1  114.64    2.90
  -3   3   1  114.73    2.94
  -3   3   1  113.53    2.92
  -3   3   1  113.34    3.00
  -3   3   1  114.52    2.95
  -3   3   1  109.14    3.04
   2  -3  -1    3.04    0.13
   2  -3  -1    3.12    0.19
   2  -3  -1    3.13    0.15
   2  -3  -1    2.80    0.15
  -2   3   1    2.99    0.15
  -2   3   1    3.31    0.19
  -2   3   1    3.36    0.14
  -2   3   1    3.15    0.20
  -2   3   1    3.25    0.33
  -2   3   1    3.30    0.20
  -2   3   1    3.14    0.11
   1  -3  -1   18.62    0.53
   1  -3  -1   18.08    0.58
  -1   3   1   17.55    0.51
  -1   3   1   17.64    0.58
  -1   3   1   18.19    0.60
  -1   3   1   18.08    0.55
   0  -3  -1   27.63    0.81
   0  -3  -1   27.84    0.81
   0  -3  -1   27.29    0.77
   0  -3  -1   28.55    0.76
   0  -3  -1   27.65    0.75
   0   3   1   25.95    0.77
   0   3   1   27.82    0.81
   0   3   1   26.45    0.77
   0   3   1   27.35    0.79
  -1  -3  -1   30.66    0.86
  -1  -3  -1   29.11    0.81
  -1  -3  -1   31.12    0.83
  -1  -3  -1   30.00    0.81
   1   3   1   28.39    0.86
  -2  -3  -1   42.21    1.10
  -2  -3  -1   43.22    1.16
  -2  -3  -1   40.68    1.14
  -2  -3  -1   42.15    1.13
   2   3   1   42.02    1.20
  -3  -3  -1   15.72    0.47
  -3  -3  -1   15.19    0.42
  -3  -3  -1   15.92    0.49
  -3  -3  -1   16.16    0.46
   3   3   1   15.53    0.46
   3   3   1   15.85    0.56
  -4  -3  -1   18.02    0.53
  -4  -3  -1   18.18    0.55
  -4  -3  -1   18.03    0.50
  -4  -3  -1   18.91    0.59
   4   3   1   19.41    0.52
   4   3   1   18.45    0.51
   4   3   1   18.59    0.54
   4   3   1   19.01    0.66
  -5  -3  -1    1.07    0.11
  -5  -3  -1    1.15    0.07
  -5  -3  -1    1.28    0.14
   5   3   1    1.15    0.08
   5   3   1    1.04    0.06
   5   3   1    1.27    0.10
   5   3   1    1.02    0.08
   5   3   1    1.21    0.07
  -6  -3  -1    5.79    0.19
  -6  -3  -1    5.98    0.19
   6   3   1    5.48    0.21
   6   3   1    5.35    0.18
   7   3   1    1.48    0.06
   4  -4  -1    6.16    0.19
   4  -4  -1    6.11    0.19
  -4   4   1    5.69    0.20
  -4   4   1    6.45    0.19
  -4   4   1    5.89    0.23
  -4   4   1    6.40    0.20
   3  -4  -1    6.93    0.22
   3  -4  -1    6.65    0.22
   3  -4  -1    6.85    0.27
   3  -4  -1    7.15    0.23
  -3   4   1    6.96    0.21
  -3   4   1    7.00    0.30
  -3   4   1    7.20    0.25
  -3   4   1    7.32    0.25
  -3   4   1    7.29    0.23
  -3   4   1    7.10    0.30
   2  -4  -1   12.41    0.39
   2  -4  -1   11.94    0.43
   2  -4  -1   12.04    0.36
   2  -4  -1   12.25    0.36
  -2   4   1   12.28    0.44
  -2   4   1   11.68    0.44
  -2   4   1   12.32    0.35
  -2   4   1   12.50    0.39
  -2   4   1   11.96    0.38
  -2   4   1   12.27    0.36
  -2   4   1   12.61    0.47
   1  -4  -1   16.61    0.46
   1  -4  -1   15.51    0.45
   1  -4  -1   16.79    0.49
   1  -4  -1   15.69    0.46
   1  -4  -1   17.35    0.56
  -1   4   1   15.47    0.46
  -1   4   1   16.42    0.56
  -1   4   1   16.13    0.48
  -1   4   1   15.26    0.46
  -1   4   1   16.29    0.44
  -1   4   1   16.10    0.54
  -1   4   1   16.64    0.53
  -1   4   1   16.44    0.48
  -1   4   1   16.35    0.47
   0  -4  -1    5.01    0.24
   0  -4  -1    5.20    0.19
   0  -4  -1    4.94    0.21
   0  -4  -1    5.10    0.26
   0  -4  -1    4.96    0.18
   0  -4  -1    5.21    0.21
   0   4   1    4.82    0.23
   0   4   1    5.33    0.25
   0   4   1    5.15    0.16
   0   4   1    4.85    0.19
   0   4   1    5.18    0.25
   0   4   1    4.78    0.17
   0   4   1    5.12    0.19
  -1  -4  -1    7.08    0.23
  -1  -4  -1    6.84    0.23
  -1  -4  -1    6.84    0.25
  -1  -4  -1    6.67    0.29
  -1  -4  -1    7.00    0.24
  -1  -4  -1    6.82    0.30
   1   4   1    6.60    0.29
   1   4   1    6.47    0.30
   1   4   1    5.60    0.34
   1   4   1    6.54    0.23
   1   4   1    6.56    0.22
  -2  -4  -1    5.98    0.22
  -2  -4  -1    6.32    0.27
  -2  -4  -1    6.50    0.23
  -2  -4  -1    6.49    0.23
  -2  -4  -1    6.47    0.21
   2   4   1    6.48    0.22
   2   4   1    6.71    0.30
   2   4   1    6.39    0.20
   2   4   1    5.77    0.25
   2   4   1    5.90    0.19
   2   4   1    6.21    0.21
   2   4   1    6.25    0.30
  -3  -4  -1   26.61    0.71
  -3  -4  -1   25.39    0.73
  -3  -4  -1   25.93    0.77
   3   4   1   26.76    0.72
   3   4   1   25.99    0.70
   3   4   1   26.20    0.81
   3   4   1   25.92    0.72
   3   4   1   25.67    0.85
   3   4   1   25.68    0.76
   3   4   1   25.63    0.69
  -4  -4  -1   17.52    0.49
  -4  -4  -1   16.80    0.55
  -4  -4  -1   17.62    0.51
   4   4   1   17.13    0.49
   4   4   1   18.44    0.51
   4   4   1   17.87    0.52
   4   4   1   17.84    0.66
  -5  -4  -1    7.64    0.30
  -5  -4  -1    8.25    0.25
   5   4   1    7.99    0.28
   5   4   1    8.21    0.26
   5   4   1    8.02    0.25
  -6  -4  -1    1.76    0.09
   6   4   1    1.70    0.09
   6   4   1    1.60    0.11
   3  -5  -1    1.58    0.08
   3  -5  -1    1.55    0.07
  -3   5   1    1.67    0.09
  -3   5   1    1.78    0.08
  -3   5   1    1.57    0.09
  -3   5   1    1.53    0.09
  -3   5   1    1.55    0.06
   2  -5  -1   14.48    0.50
   2  -5  -1   16.07    0.45
   2  -5  -1   15.98    0.44
  -2   5   1   16.21    0.43
  -2   5   1   15.95    0.47
  -2   5   1   15.62    0.47
  -2   5   1   16.22    0.45
  -2   5   1   14.65    0.52
   1  -5  -1    0.13    0.04
   1  -5  -1    0.16    0.04
   1  -5  -1    0.12    0.04
   1  -5  -1    0.09    0.08
   1  -5  -1    0.16    0.05
  -1   5   1    0.09    0.03
  -1   5   1    0.17    0.05
  -1   5   1    0.12    0.04
  -1   5   1    0.12    0.05
  -1   5   1    0.11    0.09
  -1   5   1    0.11    0.04
  -1   5   1    0.16    0.06
   0  -5  -1   13.67    0.40
   0  -5  -1   13.24    0.40
   0  -5  -1   13.86    0.44
   0  -5  -1   13.83    0.50
   0  -5  -1   13.50    0.39
   0   5   1   13.37    0.40
   0   5   1   13.74    0.38
   0   5   1   13.25    0.40
   0   5   1   14.11    0.40
   0   5   1   13.55    0.41
   0   5   1   13.49    0.42
   0   5   1   13.86    0.39
   0   5   1   14.34    0.40
  -1  -5  -1   12.85    0.40
  -1  -5  -1   12.35    0.37
  -1  -5  -1   12.40    0.47
  -1  -5  -1   11.87    0.35
  -1  -5  -1   12.06    0.37
  -1  -5  -1   12.02    0.40
  -1  -5  -1   12.46    0.44
   1   5   1   12.43    0.36
   1   5   1   11.93    0.38
   1   5   1   11.96    0.47
   1   5   1   12.49    0.37
   1   5   1   11.90    0.35
   1   5   1   11.84    0.40
   1   5   1   11.98    0.36
   1   5   1   11.71    0.34
   1   5   1   11.94    0.36
   1   5   1   11.67    0.36
   1   5   1   12.16    0.38
  -2  -5  -1   15.70    0.46
  -2  -5  -1   15.80    0.56
  -2  -5  -1   15.13    0.48
  -2  -5  -1   15.76    0.54
  -2  -5  -1   16.03    0.47
  -2  -5  -1   16.35    0.49
   2   5   1   15.93    0.44
   2   5   1   16.09    0.47
   2   5   1   16.18    0.44
   2   5   1   15.34    0.45
   2   5   1   16.45    0.58
   2   5   1   15.03    0.46
   2   5   1   15.15    0.58
   2   5   1   15.58    0.46
   2   5   1   15.46    0.47
  -3  -5  -1   65.09    1.79
  -3  -5  -1   64.24    1.77
  -3  -5  -1   68.86    1.85
  -3  -5  -1   65.59    1.80
  -3  -5  -1   70.06    1.78
   3   5   1   68.06    1.75
   3   5   1   66.00    1.77
   3   5   1   66.07    1.75
   3   5   1   66.99    1.78
   3   5   1   66.52    1.94
   3   5   1   70.54    1.91
   3   5   1   67.53    1.77
   3   5   1   69.08    1.76
  -4  -5  -1    9.46    0.35
  -4  -5  -1    9.82    0.30
  -4  -5  -1    9.75    0.33
   4   5   1    9.44    0.31
   4   5   1    9.76    0.29
   4   5   1    8.94    0.30
  -5  -5  -1    6.88    0.23
   5   5   1    7.19    0.24
   5   5   1    6.98    0.22
   6   5   1    1.09    0.06
   6   5   1    1.26    0.08
   2  -6  -1    2.07    0.08
   2  -6  -1    2.09    0.08
  -2   6   1    2.15    0.08
  -2   6   1    1.91    0.10
  -2   6   1    1.89    0.07
  -2   6   1    2.12    0.09
   1  -6  -1   18.18    0.51
   1  -6  -1   18.95    0.51
  -1   6   1   19.05    0.50
  -1   6   1   18.99    0.51
  -1   6   1   18.31    0.55
  -1   6   1   18.25    0.57
  -1   6   1   19.02    0.53
   0  -6  -1   10.29    0.30
   0  -6  -1   10.11    0.30
   0  -6  -1   10.14    0.30
   0  -6  -1    9.89    0.39
   0   6   1    9.71    0.31
   0   6   1    9.84    0.29
   0   6   1    9.92    0.30
   0   6   1   10.27    0.32
   0   6   1    9.93    0.29
   0   6   1   10.18    0.35
   0   6   1   10.09    0.29
  -1  -6  -1    0.80    0.10
  -1  -6  -1    0.96    0.07
  -1  -6  -1    1.12    0.08
  -1  -6  -1    0.99    0.16
  -1  -6  -1    0.84    0.07
  -1  -6  -1    0.83    0.07
   1   6   1    0.79    0.09
   1   6   1    0.89    0.07
   1   6   1    0.92    0.08
   1   6   1    1.07    0.11
   1   6   1    0.96    0.09
   1   6   1    0.89    0.07
   1   6   1    0.97    0.07
   1   6   1    0.94    0.07
  -2  -6  -1   12.07    0.45
  -2  -6  -1   12.64    0.38
  -2  -6  -1   12.56    0.48
  -2  -6  -1   12.36    0.38
  -2  -6  -1   11.85    0.41
   2   6   1   12.49    0.36
   2   6   1   12.15    0.38
   2   6   1   12.59    0.38
   2   6   1   13.41    0.39
   2   6   1   12.51    0.38
   2   6   1   12.83    0.36
   2   6   1   12.76    0.37
  -3  -6  -1   30.07    0.93
  -3  -6  -1   31.02    0.97
  -3  -6  -1   31.55    0.91
  -3  -6  -1   31.80    0.86
  -3  -6  -1   31.66    0.86
   3   6   1   32.37    0.86
   3   6   1   31.99    0.84
   3   6   1   31.27    0.86
   3   6   1   32.28    0.84
   3   6   1   31.32    0.85
   3   6   1   31.21    0.86
  -4  -6  -1   39.69    1.17
  -4  -6  -1   38.99    1.07
  -4  -6  -1   39.53    1.07
   4   6   1   39.41    1.07
   4   6   1   40.07    1.06
   4   6   1   41.52    1.08
  -5  -6  -1    5.50    0.19
   5   6   1    5.58    0.18
   5   6   1    5.71    0.20
   6   6   1    1.72    0.08
   1  -7  -1    6.01    0.18
   0  -7  -1    4.32    0.14
   0  -7  -1    4.43    0.14
   0   7   1    4.43    0.15
   0   7   1    4.24    0.17
   0   7   1    4.30    0.14
   0   7   1    4.55    0.15
   0   7   1    4.44    0.13
   0   7   1    4.43    0.13
  -1  -7  -1    5.22    0.16
  -1  -7  -1    5.32    0.17
   1   7   1    4.72    0.19
   1   7   1    5.29    0.16
   1   7   1    5.13    0.17
   1   7   1    4.99    0.16
   1   7   1    5.12    0.15
   1   7   1    4.88    0.17
  -2  -7  -1    0.23    0.04
  -2  -7  -1    0.30    0.04
   2   7   1    0.15    0.04
   2   7   1    0.20    0.04
   2   7   1    0.17    0.04
   2   7   1    0.21    0.03
   2   7   1    0.16    0.03
  -3  -7  -1    2.36    0.10
  -3  -7  -1    2.30    0.09
   3   7   1    2.29    0.10
   3   7   1    2.37    0.09
   3   7   1    2.75    0.11
   3   7   1    2.08    0.14
   3   7   1    2.42    0.11
  -4  -7  -1   14.67    0.41
   4   7   1   14.66    0.40
   4   7   1   14.41    0.41
   4   7   1   14.51    0.41
   5   7   1    1.46    0.07
   5   7   1    1.56    0.10
   4   7  -2    1.94    0.08
   3   7  -2    2.65    0.10
   3   7  -2    2.57    0.10
   3   7  -2    2.48    0.09
  -3  -7   2    2.52    0.09
  -3  -7   2    2.54    0.10
   2   7  -2   11.09    0.30
   2   7  -2   10.69    0.30
   2   7  -2   10.26    0.34
   2   7  -2   10.77    0.30
   2   7  -2   11.16    0.31
  -2  -7   2   11.02    0.30
  -2  -7   2   10.83    0.30
   1   7  -2    2.33    0.12
   1   7  -2    2.40    0.08
   1   7  -2    2.33    0.09
   1   7  -2    2.28    0.10
   1   7  -2    2.35    0.09
   1   7  -2    2.32    0.08
  -1  -7   2    2.44    0.09
  -1  -7   2    2.43    0.09
   0   7  -2    1.71    0.06
   0  -7   2    1.68    0.07
   5   6  -2    0.94    0.08
   4   6  -2    0.09    0.03
   4   6  -2    0.06    0.05
   4   6  -2    0.15    0.04
  -4  -6   2    0.12    0.03
  -4  -6   2    0.13    0.03
   3   6  -2   12.24    0.42
   3   6  -2   12.77    0.35
   3   6  -2   13.10    0.38
   3   6  -2   12.91    0.39
   3   6  -2   13.07    0.37
  -3  -6   2   12.68    0.37
  -3  -6   2   12.28    0.37
  -3  -6   2   11.76    0.45
   2   6  -2    7.69    0.30
   2   6  -2    7.50    0.25
   2   6  -2    7.84    0.24
   2   6  -2    7.66    0.23
   2   6  -2    8.12    0.26
   2   6  -2    7.64    0.23
  -2  -6   2    7.49    0.24
  -2  -6   2    7.85    0.34
  -2  -6   2    7.48    0.24
   1   6  -2    7.89    0.27
   1   6  -2    8.49    0.32
   1   6  -2    9.19    0.29
   1   6  -2    8.73    0.26
   1   6  -2    8.42    0.27
   1   6  -2    8.92    0.27
   1   6  -2    8.99    0.25
  -1  -6   2    8.16    0.26
  -1  -6   2    9.06    0.27
  -1  -6   2    8.45    0.27
  -1  -6   2    8.20    0.26
  -1  -6   2    8.98    0.36
   0   6  -2   18.99    0.53
   0   6  -2   19.03    0.52
   0   6  -2   18.70    0.54
   0   6  -2   19.45    0.53
   0   6  -2   19.19    0.51
   0   6  -2   18.84    0.57
   0  -6   2   19.43    0.53
   0  -6   2   19.02    0.52
   0  -6   2   18.37    0.61
  -1   6  -2   10.21    0.28
  -1   6  -2   10.36    0.29
  -1   6  -2    9.75    0.30
  -1   6  -2    9.71    0.33
  -1   6  -2    9.99    0.28
  -1   6  -2    9.63    0.29
   1  -6   2   10.53    0.29
   1  -6   2   10.16    0.29
  -2   6  -2    4.33    0.13
   2  -6   2    4.57    0.14
   2  -6   2    4.58    0.14
   5   5  -2   21.35    0.60
   4   5  -2   14.32    0.42
   4   5  -2   13.43    0.41
   4   5  -2   14.74    0.40
  -4  -5   2   14.09    0.50
  -4  -5   2   13.23    0.42
  -4  -5   2   14.34    0.40
   3   5  -2   27.84    0.76
   3   5  -2   28.86    0.84
   3   5  -2   28.63    0.79
   3   5  -2   29.35    0.80
   3   5  -2   28.94    0.78
  -3  -5   2   28.10    0.82
  -3  -5   2   28.39    0.78
  -3  -5   2   28.69    0.82
  -3  -5   2   28.93    0.89
   2   5  -2   18.14    0.50
   2   5  -2   18.30    0.54
   2   5  -2   18.90    0.51
   2   5  -2   17.92    0.58
   2   5  -2   18.82    0.53
   2   5  -2   18.46    0.52
   2   5  -2   18.62    0.54
   2   5  -2   18.97    0.52
  -2  -5   2   17.82    0.52
  -2  -5   2   17.42    0.62
  -2  -5   2   17.36    0.57
  -2  -5   2   18.83    0.53
  -2  -5   2   19.53    0.57
   1   5  -2    6.08    0.22
   1   5  -2    5.80    0.26
   1   5  -2    6.04    0.19
   1   5  -2    6.00    0.20
   1   5  -2    5.88    0.20
   1   5  -2    6.05    0.21
   1   5  -2    5.87    0.19
  -1  -5   2    5.99    0.21
  -1  -5   2    5.80    0.26
  -1  -5   2    5.84    0.19
  -1  -5   2    6.00    0.21
  -1  -5   2    5.85    0.24
  -1  -5   2    5.60    0.30
   0   5  -2   19.61    0.57
   0   5  -2   20.87    0.62
   0   5  -2   19.74    0.55
   0   5  -2   19.20    0.56
   0   5  -2   19.87    0.56
   0   5  -2   20.64    0.55
   0   5  -2   21.02    0.65
   0   5  -2   20.48    0.58
   0  -5   2   19.66    0.60
   0  -5   2   19.25    0.56
   0  -5   2   20.67    0.67
   0  -5   2   20.23    0.56
   0  -5   2   19.98    0.56
  -1   5  -2   19.69    0.53
  -1   5  -2   19.22    0.80
  -1   5  -2   19.61    0.55
  -1   5  -2   19.30    0.53
  -1   5  -2   19.42    0.65
  -1   5  -2   19.24    0.54
  -1   5  -2   19.15    0.54
  -1   5  -2   19.81    0.60
  -1   5  -2   19.03    0.56
  -1   5  -2   19.29    0.58
  -1   5  -2   20.01    0.57
   1  -5   2   17.89    0.66
   1  -5   2   19.30    0.64
   1  -5   2   20.41    0.55
   1  -5   2   20.13    0.54
  -2   5  -2   41.42    1.25
  -2   5  -2   44.74    1.15
  -2   5  -2   43.99    1.15
  -2   5  -2   43.62    1.17
  -2   5  -2   45.28    1.14
  -2   5  -2   44.31    1.18
  -2   5  -2   44.52    1.16
  -2   5  -2   44.03    1.20
  -2   5  -2   43.45    1.17
   2  -5   2   44.84    1.16
   2  -5   2   41.73    1.22
   2  -5   2   43.57    1.15
  -3   5  -2    2.41    0.08
  -3   5  -2    2.27    0.11
  -3   5  -2    2.11    0.09
  -3   5  -2    2.44    0.09
   3  -5   2    2.43    0.09
   3  -5   2    2.36    0.09
   6   4  -2    3.30    0.13
   5   4  -2   15.69    0.47
   5   4  -2   15.48    0.45
   4   4  -2    1.41    0.08
   4   4  -2    1.44    0.10
   4   4  -2    1.30    0.10
   3   4  -2   38.74    1.09
   3   4  -2   37.51    1.20
   3   4  -2   38.48    1.04
   3   4  -2   37.31    1.04
   3   4  -2   37.51    1.01
   3   4  -2   39.16    1.03
  -3  -4   2   39.71    1.02
  -3  -4   2   39.91    1.06
  -3  -4   2   39.57    1.06
  -3  -4   2   37.83    1.01
   2   4  -2   55.84    1.50
   2   4  -2   55.47    1.48
   2   4  -2   57.09    1.51
   2   4  -2   57.74    1.65
   2   4  -2   57.58    1.55
   2   4  -2   56.52    1.49
   2   4  -2   55.69    1.51
  -2  -4   2   55.92    1.52
  -2  -4   2   56.97    1.50
  -2  -4   2   58.09    1.55
  -2  -4   2   58.49    1.49
  -2  -4   2   57.25    1.59
   1   4  -2    3.56    0.22
   1   4  -2    3.85    0.16
   1   4  -2    4.13    0.22
   1   4  -2    3.77    0.16
   1   4  -2    4.09    0.19
   1   4  -2    3.83    0.15
   1   4  -2    3.86    0.13
  -1  -4   2    3.62    0.19
  -1  -4   2    3.86    0.15
  -1  -4   2    3.66    0.23
  -1  -4   2    3.89    0.15
  -1  -4   2    4.15    0.18
  -1  -4   2    3.77    0.16
   0   4  -2   21.61    0.70
   0   4  -2   20.15    0.58
   0   4  -2   20.87    0.60
   0   4  -2   21.15    0.61
   0   4  -2   19.70    0.59
   0   4  -2   20.19    0.58
   0   4  -2   21.36    0.68
   0   4  -2   21.80    0.57
   0   4  -2   19.94    0.59
   0   4  -2   21.87    0.60
   0  -4   2   21.46    0.59
   0  -4   2   20.98    0.64
   0  -4   2   21.79    0.62
   0  -4   2   21.30    0.58
   0  -4   2   20.29    0.61
   0  -4   2   21.47    0.59
   0  -4   2   20.98    0.68
  -1   4  -2   20.06    0.53
  -1   4  -2   19.07    0.56
  -1   4  -2   19.67    0.65
  -1   4  -2   20.15    0.67
  -1   4  -2   19.00    0.54
  -1   4  -2   19.54    0.55
  -1   4  -2   18.54    0.53
  -1   4  -2   18.72    0.56
  -1   4  -2   20.14    0.58
   1  -4   2   18.56    0.54
   1  -4   2   20.04    0.59
   1  -4   2   20.11    0.64
  -2   4  -2   21.30    0.62
  -2   4  -2   21.96    0.74
  -2   4  -2   22.97    0.64
  -2   4  -2   22.81    0.59
  -2   4  -2   21.80    0.60
  -2   4  -2   22.73    0.72
  -2   4  -2   22.28    0.61
  -2   4  -2   21.17    0.63
   2  -4   2   20.80    0.60
   2  -4   2   20.95    0.64
   2  -4   2   21.93    0.69
   2  -4   2   21.68    0.60
  -3   4  -2    0.07    0.05
  -3   4  -2    0.08    0.08
  -3   4  -2    0.11    0.03
  -3   4  -2    0.11    0.04
  -3   4  -2    0.12    0.04
  -3   4  -2    0.08    0.04
   3  -4   2    0.12    0.03
   3  -4   2    0.13    0.04
   3  -4   2    0.11    0.03
   3  -4   2    0.17    0.07
  -4   4  -2    1.04    0.08
  -4   4  -2    1.25    0.06
  -4   4  -2    1.08    0.07
  -4   4  -2    1.23    0.06
   4  -4   2    1.20    0.06
   4  -4   2    1.31    0.06
   6   3  -2    3.26    0.12
   6   3  -2    3.50    0.15
   5   3  -2    0.19    0.06
   4   3  -2    8.86    0.29
   4   3  -2    9.39    0.31
   4   3  -2    9.32    0.44
   3   3  -2    9.76    0.31
   3   3  -2    9.60    0.35
   3   3  -2    9.85    0.32
   3   3  -2   10.54    0.44
   2   3  -2  325.92    8.56
  -2  -3   2  327.28    8.43
  -2  -3   2  334.75    8.42
  -2  -3   2  329.43    8.43
   1   3  -2  101.16    2.73
   1   3  -2  102.93    2.74
   1   3  -2   98.61    2.76
  -1  -3   2  104.65    2.66
  -1  -3   2  108.22    2.71
  -1  -3   2  104.70    2.67
  -1  -3   2  101.40    2.73
  -1  -3   2  102.43    2.68
   0   3  -2   46.29    1.27
   0   3  -2   43.95    1.25
   0  -3   2   44.42    1.18
   0  -3   2   45.18    1.19
   0  -3   2   43.69    1.26
   0  -3   2   44.51    1.22
   0  -3   2   43.51    1.20
  -1   3  -2    5.46    0.20
  -1   3  -2    5.18    0.30
  -1   3  -2    4.92    0.26
  -1   3  -2    5.24    0.25
  -1   3  -2    5.42    0.20
  -1   3  -2    5.09    0.16
   1  -3   2    5.26    0.26
   1  -3   2    5.31    0.20
   1  -3   2    4.88    0.17
   1  -3   2    5.13    0.18
  -2   3  -2   24.06    0.65
  -2   3  -2   24.30    0.69
  -2   3  -2   23.90    0.67
  -2   3  -2   24.59    0.67
  -2   3  -2   25.19    0.80
  -2   3  -2   24.40    0.69
  -2   3  -2   25.33    0.77
  -2   3  -2   26.20    0.70
   2  -3   2   24.86    0.70
   2  -3   2   23.37    0.66
   2  -3   2   24.59    0.75
   2  -3   2   21.84    0.70
  -3   3  -2    6.80    0.31
  -3   3  -2    7.12    0.22
  -3   3  -2    6.74    0.21
  -3   3  -2    6.85    0.24
  -3   3  -2    6.86    0.25
  -3   3  -2    6.59    0.24
  -3   3  -2    6.74    0.25
  -3   3  -2    6.83    0.33
   3  -3   2    6.79    0.25
   3  -3   2    6.56    0.22
   3  -3   2    6.74    0.29
   3  -3   2    6.89    0.22
  -4   3  -2    1.21    0.08
  -4   3  -2    1.36    0.07
  -4   3  -2    1.17    0.09
  -4   3  -2    1.21    0.09
  -4   3  -2    1.00    0.13
  -4   3  -2    1.25    0.10
   4  -3   2    1.09    0.11
   4  -3   2    1.13    0.07
   4  -3   2    1.20    0.05
   4  -3   2    1.16    0.07
  -5   3  -2    2.77    0.09
  -5   3  -2    2.77    0.10
  -5   3  -2    2.76    0.11
   5  -3   2    2.97    0.10
   7   2  -2    0.68    0.04
   6   2  -2   36.66    0.97
   6   2  -2   36.85    1.02
   6   2  -2   38.38    0.99
  -6  -2   2   37.17    0.98
   5   2  -2    3.01    0.15
   5   2  -2    3.22    0.13
   5   2  -2    3.03    0.11
  -5  -2   2    3.32    0.11
  -5  -2   2    3.11    0.14
   4   2  -2    3.62    0.22
   4   2  -2    3.86    0.17
   4   2  -2    3.44    0.12
   4   2  -2    3.47    0.25
  -4  -2   2    3.84    0.12
  -4  -2   2    3.81    0.12
   3   2  -2    7.02    0.25
   3   2  -2    7.51    0.34
  -3  -2   2    7.25    0.27
  -3  -2   2    6.94    0.26
   2   2  -2   82.03    2.24
   1   2  -2  125.91    3.29
   1   2  -2  127.24    3.27
  -1  -2   2  127.78    3.20
  -1  -2   2  124.53    3.22
  -1  -2   2  117.89    3.21
   0   2  -2   92.44    2.40
   0   2  -2   85.39    2.38
   0  -2   2   86.49    2.45
   0  -2   2   92.19    2.34
   0  -2   2   89.64    2.33
   0  -2   2   94.64    2.37
   0  -2   2   92.41    2.35
  -1   2  -2  107.41    2.80
  -1   2  -2  104.62    2.77
  -1   2  -2  103.51    2.79
   1  -2   2  106.49    2.71
   1  -2   2  104.82    2.73
   1  -2   2  105.39    2.78
   1  -2   2  108.99    2.75
   1  -2   2  101.53    2.73
  -2   2  -2   42.54    1.17
  -2   2  -2   40.80    1.20
  -2   2  -2   38.31    1.22
  -2   2  -2   41.70    1.12
   2  -2   2   41.92    1.12
   2  -2   2   43.74    1.17
  -3   2  -2    6.28    0.23
  -3   2  -2    6.08    0.20
  -3   2  -2    6.26    0.23
  -3   2  -2    6.72    0.23
  -3   2  -2    6.06    0.20
  -3   2  -2    6.80    0.30
   3  -2   2    5.97    0.19
   3  -2   2    5.80    0.20
   3  -2   2    6.27    0.21
   3  -2   2    6.60    0.24
   3  -2   2    6.35    0.27
  -4   2  -2    3.45    0.16
  -4   2  -2    3.60    0.21
  -4   2  -2    3.24    0.23
  -4   2  -2    3.77    0.16
  -4   2  -2    3.48    0.14
  -4   2  -2    3.52    0.13
  -4   2  -2    3.57    0.22
  -4   2  -2    3.45    0.16
   4  -2   2    3.45    0.16
   4  -2   2    3.13    0.14
   4  -2   2    3.38    0.14
   4  -2   2    3.54    0.12
   4  -2   2    3.62    0.19
  -5   2  -2   14.50    0.42
  -5   2  -2   14.35    0.40
  -5   2  -2   13.93    0.42
  -5   2  -2   14.35    0.39
  -5   2  -2   13.47    0.47
   5  -2   2   14.81    0.40
   5  -2   2   13.88    0.38
   6  -2   2    1.19    0.05
   7   1  -2    0.71    0.04
   6   1  -2    9.28    0.28
   6   1  -2    9.29    0.30
   6   1  -2    9.48    0.27
  -6  -1   2    9.32    0.28
  -6  -1   2    9.83    0.28
   5   1  -2    9.39    0.27
   5   1  -2    9.00    0.31
   5   1  -2    8.89    0.28
  -5  -1   2    9.30    0.32
  -5  -1   2    9.08    0.29
  -5  -1   2    9.38    0.27
  -5  -1   2    8.96    0.27
   4   1  -2    8.68    0.27
   4   1  -2    9.10    0.31
   4   1  -2    8.76    0.26
  -4  -1   2    8.67    0.36
  -4  -1   2    8.98    0.28
  -4  -1   2    9.13    0.25
  -4  -1   2    9.00    0.31
  -4  -1   2    9.68    0.34
  -4  -1   2    9.02    0.28
   3   1  -2    1.17    0.14
   3   1  -2    0.99    0.08
  -3  -1   2    0.95    0.10
  -3  -1   2    0.93    0.05
  -3  -1   2    1.01    0.08
  -3  -1   2    1.03    0.05
  -3  -1   2    1.09    0.11
   2   1  -2    3.66    0.21
  -2  -1   2    3.50    0.12
  -2  -1   2    3.55    0.16
  -2  -1   2    3.62    0.15
   1   1  -2  409.19   10.53
   0   1  -2  142.70    3.65
   0   1  -2  136.02    3.65
   0  -1   2  133.21    3.61
   0  -1   2  144.58    3.62
   0  -1   2  147.89    3.61
  -1   1  -2   43.38    1.16
  -1   1  -2   42.48    1.15
  -1   1  -2   41.87    1.11
   1  -1   2   41.46    1.08
   1  -1   2   40.65    1.11
   1  -1   2   41.84    1.10
   1  -1   2   40.75    1.10
  -2   1  -2  219.40    5.71
  -2   1  -2  224.39    5.71
  -2   1  -2  212.61    5.68
  -2   1  -2  224.03    5.72
  -2   1  -2  226.59    5.73
  -2   1  -2  218.58    5.74
   2  -1   2  221.38    5.69
   2  -1   2  226.60    5.72
  -3   1  -2   83.57    2.14
  -3   1  -2   81.44    2.14
  -3   1  -2   81.43    2.12
  -3   1  -2   84.91    2.25
  -3   1  -2   80.55    2.19
  -3   1  -2   82.35    2.21
  -3   1  -2   81.88    2.23
  -3   1  -2   80.49    2.14
   3  -1   2   81.81    2.15
   3  -1   2   81.98    2.19
  -4   1  -2   25.91    0.71
  -4   1  -2   24.34    0.78
  -4   1  -2   24.92    0.67
  -4   1  -2   25.49    0.80
  -4   1  -2   24.62    0.70
  -4   1  -2   24.77    0.70
  -4   1  -2   25.16    0.77
   4  -1   2   25.45    0.71
   4  -1   2   23.82    0.68
   4  -1   2   25.05    0.69
   4  -1   2   25.21    0.74
   4  -1   2   25.06    0.67
  -5   1  -2    2.60    0.18
  -5   1  -2    2.74    0.13
  -5   1  -2    2.46    0.11
  -5   1  -2    2.57    0.13
  -5   1  -2    2.77    0.11
  -5   1  -2    2.67    0.14
   5  -1   2    2.50    0.11
   5  -1   2    2.57    0.10
   5  -1   2    2.64    0.10
   5  -1   2    2.59    0.15
   5  -1   2    2.56    0.11
  -6   1  -2    0.48    0.08
  -6   1  -2    0.54    0.04
  -6   1  -2    0.43    0.04
  -6   1  -2    0.55    0.06
   6  -1   2    0.49    0.03
   6  -1   2    0.48    0.04
   6   0  -2    1.86    0.10
   6   0  -2    1.92    0.08
  -6   0   2    1.75    0.14
  -6   0   2    1.87    0.09
   5   0  -2   10.03    0.28
   5   0  -2    9.73    0.30
   5   0  -2    9.93    0.30
   5   0  -2    9.65    0.33
  -5   0   2    9.31    0.37
  -5   0   2    9.26    0.34
  -5   0   2    9.68    0.29
  -5   0   2    9.75    0.35
  -5   0   2    9.55    0.31
  -5   0   2   10.05    0.29
  -5   0   2    9.51    0.30
   4   0  -2    1.78    0.12
   4   0  -2    1.75    0.09
   4   0  -2    1.73    0.09
   4   0  -2    1.76    0.08
  -4   0   2    1.77    0.11
  -4   0   2    1.96    0.14
  -4   0   2    1.81    0.11
  -4   0   2    1.88    0.15
  -4   0   2    1.77    0.08
  -4   0   2    1.79    0.08
   3   0  -2   33.95    0.94
  -3   0   2   33.96    0.99
  -3   0   2   34.51    0.92
  -3   0   2   34.80    0.91
  -3   0   2   33.38    0.97
   2   0  -2  250.46    6.49
  -2   0   2  248.81    6.48
  -2   0   2  253.53    6.55
  -2   0   2  257.31    6.50
  -2   0   2  260.90    6.53
   1   0  -2  111.77    2.68
  -1   0   2   99.40    2.64
  -1   0   2  105.87    2.66
  -1   0   2  101.23    2.65
  -1   0   2  102.73    2.67
  -1   0   2  102.30    2.64
  -1   0   2   99.61    2.64
   0   0   2  160.59    4.10
   0   0   2  157.72    4.07
   0   0   2  158.94    4.07
  -1   0  -2  310.23    7.99
  -1   0  -2  302.48    8.02
   1   0   2  319.89    7.98
   1   0   2  317.20    8.00
   1   0   2  310.14    7.99
  -2   0  -2   52.14    1.37
  -2   0  -2   51.57    1.36
  -2   0  -2   51.78    1.38
  -2   0  -2   51.52    1.38
   2   0   2   50.18    1.35
   2   0   2   49.69    1.34
   2   0   2   52.63    1.32
  -3   0  -2  121.71    3.21
  -3   0  -2  123.64    3.20
  -3   0  -2  122.92    3.18
  -3   0  -2  121.32    3.15
  -3   0  -2  121.06    3.20
  -3   0  -2  118.58    3.18
   3   0   2  125.40    3.19
   3   0   2  122.72    3.16
  -4   0  -2   37.58    1.02
  -4   0  -2   37.39    1.06
  -4   0  -2   38.13    1.07
  -4   0  -2   37.68    1.02
  -4   0  -2   37.49    1.02
  -4   0  -2   36.23    1.13
  -4   0  -2   38.93    1.10
  -4   0  -2   38.46    1.03
  -4   0  -2   38.02    1.09
   4   0   2   35.96    1.04
   4   0   2   38.07    0.99
   4   0   2   37.70    0.99
   4   0   2   39.68    1.04
   4   0   2   39.06    1.06
  -5   0  -2   86.54    2.17
  -5   0  -2   79.75    2.13
  -5   0  -2   84.93    2.16
  -5   0  -2   81.99    2.25
  -5   0  -2   78.38    2.23
  -5   0  -2   82.60    2.16
   5   0   2   80.93    2.14
   5   0   2   82.17    2.19
   5   0   2   82.48    2.14
   5   0   2   85.25    2.12
   5   0   2   80.90    2.12
  -6   0  -2    2.30    0.12
  -6   0  -2    2.08    0.11
  -6   0  -2    2.21    0.09
  -6   0  -2    2.33    0.09
   6   0   2    2.15    0.09
   6   0   2    2.25    0.08
   6   0   2    2.13    0.09
   6  -1  -2    2.82    0.10
   6  -1  -2    2.84    0.09
  -6   1   2    2.73    0.15
   5  -1  -2   28.40    0.75
   5  -1  -2   26.44    0.72
   5  -1  -2   26.82    0.73
   5  -1  -2   27.18    0.70
  -5   1   2   25.68    0.74
  -5   1   2   26.09    0.73
  -5   1   2   26.30    0.82
  -5   1   2   26.15    0.73
  -5   1   2   26.10    0.78
  -5   1   2   26.33    0.73
   4  -1  -2   30.24    0.82
   4  -1  -2   28.57    0.82
   4  -1  -2   30.05    0.85
   4  -1  -2   29.58    0.82
   4  -1  -2   29.48    0.80
  -4   1   2   31.07    0.82
  -4   1   2   30.46    0.92
  -4   1   2   31.61    0.82
  -4   1   2   31.01    0.84
  -4   1   2   28.84    0.85
  -4   1   2   29.79    0.83
  -4   1   2   30.38    0.88
  -4   1   2   30.75    0.88
   3  -1  -2   23.06    0.67
   3  -1  -2   23.38    0.64
  -3   1   2   22.85    0.73
  -3   1   2   23.33    0.66
  -3   1   2   22.56    0.68
  -3   1   2   23.33    0.71
  -3   1   2   23.12    0.62
  -3   1   2   23.94    0.67
  -3   1   2   23.16    0.63
   2  -1  -2   79.36    2.13
   2  -1  -2   79.15    2.08
  -2   1   2   79.24    2.13
  -2   1   2   79.89    2.07
  -2   1   2   82.00    2.10
  -2   1   2   80.34    2.11
  -2   1   2   81.63    2.09
  -2   1   2   81.95    2.13
  -2   1   2   79.19    2.11
   1  -1  -2   71.50    1.84
   1  -1  -2   71.63    1.88
  -1   1   2   71.63    1.84
  -1   1   2   71.92    1.85
  -1   1   2   69.35    1.87
  -1   1   2   72.73    1.87
  -1   1   2   70.33    1.87
  -1   1   2   71.21    1.83
   0  -1  -2  110.16    2.87
   0   1   2  113.70    2.83
   0   1   2  113.27    2.88
   0   1   2  109.13    2.85
   0   1   2  110.19    2.85
  -1  -1  -2  968.56   24.71
  -2  -1  -2  134.92    3.40
  -2  -1  -2  136.17    3.41
  -2  -1  -2  130.43    3.37
   2   1   2  130.06    3.42
   2   1   2  128.55    3.38
  -3  -1  -2   11.98    0.33
  -3  -1  -2   11.31    0.36
  -3  -1  -2   11.71    0.39
  -3  -1  -2   11.80    0.37
  -3  -1  -2   11.59    0.37
   3   1   2   12.17    0.40
   3   1   2   12.25    0.37
  -4  -1  -2    6.45    0.24
  -4  -1  -2    6.27    0.20
  -4  -1  -2    6.21    0.20
  -4  -1  -2    6.33    0.25
   4   1   2    6.00    0.22
   4   1   2    6.10    0.24
   4   1   2    5.66    0.19
   4   1   2    5.78    0.19
  -5  -1  -2   12.70    0.38
  -5  -1  -2   12.53    0.37
  -5  -1  -2   12.58    0.44
  -5  -1  -2   12.64    0.45
  -5  -1  -2   12.16    0.37
   5   1   2   11.84    0.38
   5   1   2   11.77    0.34
   5   1   2   12.50    0.34
   5   1   2   12.37    0.34
   5   1   2   11.77    0.36
  -6  -1  -2    8.58    0.25
  -6  -1  -2    8.44    0.27
  -6  -1  -2    7.97    0.27
   6   1   2    8.37    0.24
   6   1   2    8.38    0.25
   6   1   2    8.20    0.24
  -7  -1  -2    0.62    0.06
   7   1   2    0.75    0.04
   7   1   2    0.61    0.03
   5  -2  -2    1.19    0.07
   5  -2  -2    1.09    0.06
   5  -2  -2    1.08    0.05
   5  -2  -2    1.11    0.07
  -5   2   2    1.22    0.13
  -5   2   2    1.13    0.08
  -5   2   2    1.24    0.09
  -5   2   2    1.14    0.08
   4  -2  -2   18.21    0.56
   4  -2  -2   18.51    0.54
   4  -2  -2   20.10    0.53
   4  -2  -2   18.84    0.51
   4  -2  -2   19.00    0.54
  -4   2   2   19.94    0.65
  -4   2   2   18.57    0.54
  -4   2   2   19.60    0.53
  -4   2   2   19.57    0.55
  -4   2   2   18.39    0.60
  -4   2   2   19.66    0.54
  -4   2   2   18.84    0.56
  -4   2   2   18.77    0.64
   3  -2  -2    5.72    0.20
   3  -2  -2    6.04    0.18
   3  -2  -2    5.43    0.19
   3  -2  -2    6.03    0.23
   3  -2  -2    5.96    0.20
  -3   2   2    5.79    0.27
  -3   2   2    5.69    0.20
  -3   2   2    5.98    0.20
  -3   2   2    6.41    0.26
  -3   2   2    5.48    0.19
  -3   2   2    5.86    0.25
  -3   2   2    6.27    0.22
  -3   2   2    6.42    0.21
  -3   2   2    5.72    0.23
  -3   2   2    6.19    0.29
   2  -2  -2   62.26    1.70
   2  -2  -2   61.94    1.68
   2  -2  -2   64.12    1.66
  -2   2   2   61.62    1.65
  -2   2   2   63.79    1.64
  -2   2   2   65.32    1.72
  -2   2   2   62.42    1.73
  -2   2   2   60.41    1.73
  -2   2   2   62.41    1.64
  -2   2   2   63.94    1.67
  -2   2   2   63.85    1.70
  -2   2   2   65.63    1.69
  -2   2   2   63.29    1.69
   1  -2  -2   47.06    1.30
   1  -2  -2   48.17    1.33
   1  -2  -2   49.28    1.34
   1  -2  -2   46.18    1.36
  -1   2   2   50.74    1.35
  -1   2   2   49.68    1.34
  -1   2   2   50.89    1.30
  -1   2   2   49.65    1.33
  -1   2   2   49.50    1.32
  -1   2   2   51.90    1.32
   0  -2  -2   74.85    1.96
   0  -2  -2   73.08    1.93
   0  -2  -2   77.51    1.99
   0  -2  -2   74.36    1.95
   0   2   2   70.79    1.95
   0   2   2   74.02    1.93
   0   2   2   76.45    1.94
   0   2   2   76.68    1.96
   0   2   2   73.84    1.93
  -1  -2  -2  621.20   15.59
  -1  -2  -2  596.39   15.55
  -1  -2  -2  612.43   15.56
   1   2   2  603.25   15.53
  -2  -2  -2   51.08    1.34
  -2  -2  -2   52.44    1.35
  -2  -2  -2   48.77    1.36
   2   2   2   49.94    1.38
  -3  -2  -2   60.54    1.64
  -3  -2  -2   60.67    1.60
  -3  -2  -2   62.11    1.63
  -3  -2  -2   62.54    1.67
   3   2   2   63.86    1.70
  -4  -2  -2   10.55    0.35
  -4  -2  -2   10.74    0.38
  -4  -2  -2   10.28    0.30
  -4  -2  -2   10.04    0.33
   4   2   2   10.55    0.41
   4   2   2    9.94    0.30
   4   2   2   10.48    0.31
   4   2   2   10.27    0.33
  -5  -2  -2    2.27    0.10
  -5  -2  -2    2.10    0.10
  -5  -2  -2    2.22    0.17
  -5  -2  -2    2.34    0.20
  -5  -2  -2    1.77    0.14
   5   2   2    2.09    0.09
   5   2   2    2.02    0.09
   5   2   2    2.16    0.12
   5   2   2    1.88    0.08
   5   2   2    2.06    0.08
   5   2   2    2.01    0.10
   5   2   2    1.98    0.10
  -6  -2  -2   18.23    0.54
  -6  -2  -2   19.17    0.54
   6   2   2   18.93    0.54
   6   2   2   19.69    0.53
   6   2   2   18.45    0.50
  -7  -2  -2    2.04    0.11
  -7  -2  -2    2.20    0.08
   7   2   2    2.13    0.08
   5  -3  -2    5.53    0.17
  -5   3   2    5.66    0.18
   4  -3  -2    6.00    0.20
   4  -3  -2    5.76    0.19
  -4   3   2    5.67    0.21
  -4   3   2    5.84    0.19
  -4   3   2    5.64    0.26
  -4   3   2    5.72    0.21
  -4   3   2    5.84    0.27
   3  -3  -2   20.26    0.60
   3  -3  -2   20.53    0.62
   3  -3  -2   21.29    0.59
   3  -3  -2   21.31    0.60
  -3   3   2   22.41    0.61
  -3   3   2   20.81    0.62
  -3   3   2   21.76    0.59
  -3   3   2   20.89    0.70
  -3   3   2   21.53    0.57
  -3   3   2   21.55    0.70
  -3   3   2   22.16    0.68
   2  -3  -2    3.46    0.16
   2  -3  -2    3.98    0.20
   2  -3  -2    3.22    0.15
   2  -3  -2    3.39    0.14
  -2   3   2    3.44    0.21
  -2   3   2    3.38    0.20
  -2   3   2    3.36    0.15
  -2   3   2    3.70    0.16
  -2   3   2    3.28    0.12
  -2   3   2    3.48    0.19
  -2   3   2    3.26    0.19
   1  -3  -2    7.44    0.25
   1  -3  -2    7.49    0.30
  -1   3   2    7.31    0.24
  -1   3   2    7.42    0.30
  -1   3   2    7.29    0.30
  -1   3   2    7.51    0.32
  -1   3   2    7.77    0.28
  -1   3   2    7.67    0.30
   0  -3  -2   17.13    0.53
   0  -3  -2   16.44    0.49
   0  -3  -2   15.95    0.47
   0  -3  -2   15.93    0.49
   0  -3  -2   16.20    0.53
   0  -3  -2   16.58    0.47
   0   3   2   16.34    0.50
   0   3   2   16.03    0.49
   0   3   2   16.98    0.52
   0   3   2   15.47    0.48
   0   3   2   16.89    0.52
  -1  -3  -2    1.18    0.11
  -1  -3  -2    1.05    0.13
  -1  -3  -2    1.14    0.09
  -1  -3  -2    1.15    0.11
  -1  -3  -2    1.12    0.09
   1   3   2    1.37    0.12
  -2  -3  -2   39.58    1.08
  -2  -3  -2   38.51    1.10
  -2  -3  -2   40.08    1.12
  -2  -3  -2   39.36    1.09
  -2  -3  -2   40.59    1.05
   2   3   2   39.97    1.13
  -3  -3  -2    6.21    0.26
  -3  -3  -2    5.95    0.24
  -3  -3  -2    5.91    0.25
  -3  -3  -2    6.17    0.19
  -3  -3  -2    6.17    0.22
   3   3   2    6.34    0.22
   3   3   2    6.30    0.29
  -4  -3  -2   23.89    0.72
  -4  -3  -2   22.38    0.67
  -4  -3  -2   24.35    0.64
  -4  -3  -2   23.59    0.70
   4   3   2   24.65    0.65
   4   3   2   23.33    0.67
   4   3   2   23.81    0.78
   4   3   2   22.99    0.64
  -5  -3  -2    9.81    0.30
  -5  -3  -2    9.65    0.36
  -5  -3  -2   10.06    0.39
   5   3   2    9.66    0.32
   5   3   2    9.51    0.29
   5   3   2    9.79    0.30
   5   3   2    9.61    0.28
   5   3   2    9.97    0.29
  -6  -3  -2    3.66    0.14
  -6  -3  -2    3.48    0.14
  -6  -3  -2    3.46    0.21
   6   3   2    3.46    0.13
   6   3   2    3.32    0.15
  -7  -3  -2    7.65    0.22
   7   3   2    8.20    0.23
   4  -4  -2    2.71    0.10
  -4   4   2    2.56    0.11
  -4   4   2    2.51    0.10
  -4   4   2    2.54    0.14
  -4   4   2    2.87    0.12
   3  -4  -2   23.46    0.64
   3  -4  -2   23.65    0.65
   3  -4  -2   23.18    0.64
  -3   4   2   24.44    0.64
  -3   4   2   23.87    0.67
  -3   4   2   23.42    0.66
  -3   4   2   23.94    0.73
  -3   4   2   22.60    0.72
  -3   4   2   22.90    0.62
   2  -4  -2   39.00    1.09
   2  -4  -2   38.60    1.13
   2  -4  -2   39.54    1.06
   2  -4  -2   38.80    1.08
   2  -4  -2   38.72    1.06
  -2   4   2   39.87    1.08
  -2   4   2   39.74    1.17
  -2   4   2   41.45    1.16
  -2   4   2   39.97    1.08
  -2   4   2   40.91    1.04
  -2   4   2   40.39    1.14
  -2   4   2   38.48    1.06
   1  -4  -2    0.19    0.05
   1  -4  -2    0.19    0.04
   1  -4  -2    0.18    0.09
   1  -4  -2    0.13    0.04
   1  -4  -2    0.16    0.04
  -1   4   2    0.19    0.05
  -1   4   2    0.19    0.03
  -1   4   2    0.14    0.07
  -1   4   2    0.33    0.09
  -1   4   2    0.10    0.05
  -1   4   2    0.29    0.09
  -1   4   2    0.12    0.04
   0  -4  -2    8.76    0.30
   0  -4  -2    8.52    0.28
   0  -4  -2    9.17    0.36
   0  -4  -2    8.63    0.27
   0   4   2    8.51    0.29
   0   4   2    8.52    0.25
   0   4   2    8.73    0.28
   0   4   2    8.71    0.33
   0   4   2    8.83    0.34
   0   4   2    8.56    0.30
  -1  -4  -2    2.44    0.13
  -1  -4  -2    2.60    0.15
  -1  -4  -2    3.11    0.20
  -1  -4  -2    2.82    0.18
  -1  -4  -2    2.24    0.12
  -1  -4  -2    2.64    0.13
   1   4   2    2.57    0.17
   1   4   2    2.76    0.17
   1   4   2    2.89    0.19
  -2  -4  -2    3.24    0.19
  -2  -4  -2    3.23    0.14
  -2  -4  -2    3.25    0.16
  -2  -4  -2    2.96    0.14
  -2  -4  -2    3.00    0.15
   2   4   2    2.93    0.20
   2   4   2    2.99    0.17
   2   4   2    2.62    0.13
   2   4   2    3.09    0.15
   2   4   2    3.24    0.12
   2   4   2    2.95    0.11
   2   4   2    3.24    0.20
  -3  -4  -2   42.33    1.21
  -3  -4  -2   43.03    1.14
  -3  -4  -2   41.04    1.13
  -3  -4  -2   42.61    1.16
   3   4   2   43.34    1.11
   3   4   2   41.74    1.26
   3   4   2   42.41    1.14
   3   4   2   43.32    1.13
   3   4   2   42.52    1.22
   3   4   2   41.47    1.12
   3   4   2   42.30    1.18
  -4  -4  -2    0.16    0.05
  -4  -4  -2    0.09    0.06
  -4  -4  -2    0.12    0.04
  -4  -4  -2    0.17    0.08
  -4  -4  -2    0.14    0.08
   4   4   2    0.12    0.04
   4   4   2    0.16    0.09
   4   4   2    0.18    0.06
  -5  -4  -2   14.14    0.49
  -5  -4  -2   13.54    0.51
  -5  -4  -2   14.10    0.49
  -5  -4  -2   14.81    0.42
   5   4   2   13.95    0.41
   5   4   2   14.52    0.42
   5   4   2   14.37    0.41
  -6  -4  -2    2.08    0.11
  -6  -4  -2    2.43    0.11
  -6  -4  -2    1.86    0.17
   6   4   2    2.22    0.11
   6   4   2    2.25    0.10
   6   4   2    2.32    0.09
   7   4   2    2.03    0.08
   3  -5  -2    0.19    0.03
   3  -5  -2    0.22    0.03
  -3   5   2    0.17    0.04
  -3   5   2    0.17    0.03
  -3   5   2    0.14    0.04
  -3   5   2    0.15    0.06
   2  -5  -2   21.95    0.59
   2  -5  -2   21.92    0.59
  -2   5   2   22.03    0.61
  -2   5   2   22.23    0.59
  -2   5   2   20.54    0.60
  -2   5   2   21.16    0.66
  -2   5   2   18.93    0.57
  -2   5   2   21.68    0.62
   1  -5  -2    3.82    0.14
   1  -5  -2    3.96    0.18
   1  -5  -2    3.99    0.15
   1  -5  -2    3.86    0.15
   1  -5  -2    3.76    0.22
  -1   5   2    3.71    0.17
  -1   5   2    3.98    0.15
  -1   5   2    3.95    0.15
  -1   5   2    3.96    0.21
  -1   5   2    4.00    0.14
  -1   5   2    4.15    0.18
   0  -5  -2    2.82    0.16
   0  -5  -2    2.86    0.12
   0  -5  -2    3.28    0.22
   0  -5  -2    2.97    0.12
   0  -5  -2    2.95    0.12
   0   5   2    2.83    0.18
   0   5   2    3.03    0.15
   0   5   2    3.08    0.20
   0   5   2    3.14    0.14
   0   5   2    3.06    0.13
   0   5   2    3.00    0.13
   0   5   2    3.19    0.14
   0   5   2    3.04    0.11
   0   5   2    3.05    0.15
   0   5   2    3.05    0.12
  -1  -5  -2    8.83    0.29
  -1  -5  -2    9.16    0.29
  -1  -5  -2    8.53    0.37
  -1  -5  -2    8.52    0.27
  -1  -5  -2    8.20    0.35
  -1  -5  -2    8.83    0.31
  -1  -5  -2    8.64    0.31
   1   5   2    8.37    0.29
   1   5   2    8.60    0.26
   1   5   2    8.09    0.27
   1   5   2    9.13    0.27
   1   5   2    8.64    0.29
   1   5   2    8.71    0.33
   1   5   2    8.60    0.37
   1   5   2    8.81    0.28
  -2  -5  -2    5.72    0.21
  -2  -5  -2    5.73    0.29
  -2  -5  -2    5.72    0.23
  -2  -5  -2    5.63    0.27
  -2  -5  -2    5.58    0.23
  -2  -5  -2    5.43    0.21
   2   5   2    5.34    0.20
   2   5   2    5.79    0.25
   2   5   2    5.62    0.18
   2   5   2    5.65    0.20
   2   5   2    5.29    0.29
   2   5   2    5.74    0.29
   2   5   2    5.47    0.21
   2   5   2    5.74    0.18
   2   5   2    5.57    0.21
   2   5   2    5.69    0.19
   2   5   2    5.28    0.19
  -3  -5  -2   34.30    0.97
  -3  -5  -2   35.82    1.00
  -3  -5  -2   36.71    0.98
  -3  -5  -2   35.74    1.06
  -3  -5  -2   36.51    1.00
   3   5   2   34.84    0.95
   3   5   2   36.34    0.95
   3   5   2   35.43    0.97
   3   5   2   37.19    0.96
   3   5   2   35.22    0.98
   3   5   2   36.79    1.09
   3   5   2   35.55    0.97
   3   5   2   35.67    1.12
   3   5   2   36.19    1.02
   3   5   2   34.57    0.94
  -4  -5  -2   22.07    0.61
  -4  -5  -2   21.66    0.61
  -4  -5  -2   20.74    0.68
   4   5   2   20.42    0.71
   4   5   2   21.71    0.61
   4   5   2   21.87    0.59
   4   5   2   21.64    0.60
  -5  -5  -2    6.29    0.22
  -5  -5  -2    5.91    0.21
   5   5   2    6.12    0.22
   5   5   2    6.12    0.20
  -6  -5  -2   12.47    0.37
   6   5   2   13.46    0.38
   6   5   2   13.24    0.36
   2  -6  -2    1.96    0.08
   2  -6  -2    2.01    0.08
  -2   6   2    2.06    0.09
  -2   6   2    2.07    0.08
   1  -6  -2    1.55    0.08
   1  -6  -2    1.54    0.08
   1  -6  -2    1.54    0.08
  -1   6   2    1.63    0.07
  -1   6   2    1.73    0.09
  -1   6   2    1.55    0.10
   0  -6  -2    4.66    0.17
   0  -6  -2    4.86    0.17
   0  -6  -2    4.31    0.24
   0  -6  -2    4.69    0.16
   0   6   2    4.86    0.16
   0   6   2    4.95    0.19
   0   6   2    5.01    0.17
   0   6   2    4.70    0.16
   0   6   2    4.73    0.18
  -1  -6  -2   12.55    0.36
  -1  -6  -2   12.16    0.35
  -1  -6  -2   12.08    0.35
  -1  -6  -2   12.16    0.46
  -1  -6  -2   11.53    0.39
   1   6   2   11.35    0.37
   1   6   2   12.19    0.35
   1   6   2   11.98    0.36
   1   6   2   11.94    0.34
   1   6   2   12.39    0.35
   1   6   2   11.40    0.35
   1   6   2   12.11    0.38
   1   6   2   11.85    0.39
  -2  -6  -2   10.17    0.41
  -2  -6  -2    9.87    0.31
  -2  -6  -2    9.32    0.34
  -2  -6  -2    9.86    0.31
  -2  -6  -2    9.90    0.29
  -2  -6  -2    9.26    0.38
   2   6   2    9.72    0.42
   2   6   2    9.65    0.30
   2   6   2   10.08    0.32
   2   6   2    9.14    0.30
   2   6   2    9.55    0.32
   2   6   2   10.07    0.29
   2   6   2   10.11    0.31
   2   6   2    9.52    0.29
   2   6   2    9.64    0.29
  -3  -6  -2    3.86    0.14
  -3  -6  -2    3.60    0.16
  -3  -6  -2    3.65    0.16
  -3  -6  -2    3.75    0.18
  -3  -6  -2    3.82    0.24
  -3  -6  -2    3.71    0.21
   3   6   2    3.44    0.16
   3   6   2    3.53    0.13
   3   6   2    3.80    0.13
   3   6   2    3.88    0.14
   3   6   2    3.65    0.16
   3   6   2    3.52    0.13
   3   6   2    3.98    0.16
  -4  -6  -2   19.72    0.57
  -4  -6  -2   19.36    0.57
   4   6   2   20.52    0.57
   4   6   2   20.79    0.55
   4   6   2   19.45    0.56
  -5  -6  -2   11.50    0.36
  -5  -6  -2   12.33    0.36
   5   6   2   12.26    0.34
   5   6   2   12.08    0.36
   6   6   2    1.02    0.05
   6   6   2    1.11    0.07
   1  -7  -2    2.98    0.10
  -1   7   2    3.31    0.12
   0  -7  -2   21.59    0.58
   0  -7  -2   22.06    0.58
   0   7   2   21.86    0.57
   0   7   2   21.51    0.57
   0   7   2   20.56    0.61
   0   7   2   22.08    0.59
   0   7   2   22.38    0.58
  -1  -7  -2    1.40    0.07
  -1  -7  -2    1.54    0.07
   1   7   2    1.35    0.07
   1   7   2    1.50    0.07
   1   7   2    1.42    0.08
   1   7   2    1.46    0.07
   1   7   2    1.33    0.08
  -2  -7  -2    9.65    0.28
  -2  -7  -2    9.36    0.28
   2   7   2    9.63    0.27
   2   7   2    9.72    0.27
   2   7   2    9.40    0.29
   2   7   2    9.41    0.28
   2   7   2    9.65    0.29
   2   7   2    9.28    0.27
  -3  -7  -2    0.54    0.06
  -3  -7  -2    0.62    0.05
   3   7   2    0.63    0.07
   3   7   2    0.61    0.07
   3   7   2    0.61    0.06
   3   7   2    0.58    0.05
   3   7   2    0.61    0.06
  -4  -7  -2   14.20    0.41
   4   7   2   14.12    0.40
   4   7   2   15.00    0.41
   4   7   2   14.64    0.41
   5   7   2    5.64    0.18
   5   7   2    5.74    0.17
   2   8   2    2.84    0.09
   3   8   2    2.63    0.10
   3   7  -3    6.27    0.18
   3   7  -3    6.64    0.19
   3   7  -3    6.16    0.19
   2   7  -3    1.43    0.07
   2   7  -3    1.35    0.15
   2   7  -3    1.44    0.06
   2   7  -3    1.38    0.06
   1   7  -3    4.96    0.17
   1   7  -3    5.56    0.15
   1   7  -3    5.28    0.16
   1   7  -3    4.95    0.19
  -1  -7   3    5.19    0.16
  -1  -7   3    5.47    0.16
   0  -7   3    5.60    0.17
   4   6  -3    1.67    0.08
   4   6  -3    1.79    0.08
   4   6  -3    1.59    0.10
  -4  -6   3    1.53    0.07
   3   6  -3    3.09    0.13
   3   6  -3    3.21    0.12
   3   6  -3    3.18    0.18
   3   6  -3    3.13    0.11
  -3  -6   3    3.08    0.12
  -3  -6   3    3.27    0.12
   2   6  -3    2.54    0.12
   2   6  -3    2.49    0.10
   2   6  -3    2.64    0.11
   2   6  -3    2.54    0.12
   2   6  -3    2.44    0.16
   2   6  -3    2.52    0.10
  -2  -6   3    2.29    0.18
  -2  -6   3    2.42    0.11
  -2  -6   3    2.43    0.10
   1   6  -3   39.57    1.02
   1   6  -3   40.89    1.10
   1   6  -3   38.84    1.02
   1   6  -3   38.87    1.03
   1   6  -3   39.52    1.04
   1   6  -3   39.71    1.05
   1   6  -3   38.83    1.04
  -1  -6   3   36.63    1.11
  -1  -6   3   38.59    1.03
  -1  -6   3   40.10    1.03
  -1  -6   3   38.80    1.03
  -1  -6   3   36.14    1.03
   0   6  -3    7.25    0.25
   0   6  -3    7.56    0.22
   0   6  -3    7.27    0.23
   0   6  -3    7.52    0.23
   0   6  -3    7.62    0.28
   0   6  -3    7.14    0.22
   0  -6   3    7.73    0.23
   0  -6   3    7.54    0.23
  -1   6  -3    2.02    0.12
  -1   6  -3    2.08    0.10
  -1   6  -3    2.18    0.09
  -1   6  -3    2.15    0.09
  -1   6  -3    2.10    0.08
  -1   6  -3    2.11    0.08
   1  -6   3    2.19    0.09
   1  -6   3    2.33    0.09
   2  -6   3    1.14    0.05
   2  -6   3    1.13    0.05
   5   5  -3    8.20    0.26
   4   5  -3    2.59    0.11
   4   5  -3    2.64    0.14
   4   5  -3    2.59    0.12
   4   5  -3    2.59    0.18
  -4  -5   3    2.73    0.10
   3   5  -3    0.84    0.07
   3   5  -3    0.80    0.08
   3   5  -3    0.90    0.10
   3   5  -3    0.81    0.12
  -3  -5   3    0.74    0.08
  -3  -5   3    0.78    0.13
  -3  -5   3    0.82    0.06
   2   5  -3   15.59    0.43
   2   5  -3   15.36    0.43
   2   5  -3   15.79    0.47
   2   5  -3   15.70    0.47
   2   5  -3   15.59    0.45
   2   5  -3   15.75    0.51
   2   5  -3   15.38    0.44
   2   5  -3   15.63    0.46
  -2  -5   3   14.98    0.48
  -2  -5   3   16.19    0.56
  -2  -5   3   14.37    0.49
  -2  -5   3   15.60    0.45
  -2  -5   3   15.49    0.45
   1   5  -3    9.78    0.31
   1   5  -3   10.19    0.29
   1   5  -3    9.93    0.32
   1   5  -3    9.96    0.31
   1   5  -3   10.03    0.29
   1   5  -3    9.48    0.36
   1   5  -3   10.23    0.31
  -1  -5   3    9.56    0.36
  -1  -5   3    9.95    0.31
  -1  -5   3    9.70    0.31
  -1  -5   3    9.98    0.30
  -1  -5   3   10.10    0.41
  -1  -5   3    9.84    0.34
   0   5  -3   17.40    0.54
   0   5  -3   17.87    0.51
   0   5  -3   18.63    0.53
   0   5  -3   17.93    0.49
   0   5  -3   18.02    0.50
   0   5  -3   18.46    0.57
   0   5  -3   19.14    0.52
   0   5  -3   17.32    0.61
   0   5  -3   18.17    0.51
   0  -5   3   17.24    0.51
   0  -5   3   18.12    0.51
   0  -5   3   17.24    0.60
   0  -5   3   18.49    0.51
   0  -5   3   17.97    0.55
  -1   5  -3   26.86    0.77
  -1   5  -3   27.19    0.73
  -1   5  -3   27.15    0.74
  -1   5  -3   28.20    0.74
  -1   5  -3   27.38    0.73
  -1   5  -3   27.96    0.76
  -1   5  -3   25.51    0.84
  -1   5  -3   27.51    0.80
   1  -5   3   27.46    0.74
   1  -5   3   25.16    0.82
   1  -5   3   28.56    0.74
  -2   5  -3   10.39    0.35
  -2   5  -3   10.18    0.34
  -2   5  -3   10.54    0.30
  -2   5  -3   10.56    0.31
  -2   5  -3   10.30    0.31
  -2   5  -3   11.60    0.36
  -2   5  -3   10.53    0.33
  -2   5  -3   11.06    0.31
   2  -5   3   11.03    0.31
   2  -5   3   10.77    0.31
  -3   5  -3    2.57    0.09
  -3   5  -3    2.69    0.09
   3  -5   3    2.71    0.09
   5   4  -3   59.42    1.58
   4   4  -3   13.34    0.40
   4   4  -3   13.18    0.46
   4   4  -3   13.48    0.41
   3   4  -3   22.55    0.79
   3   4  -3   22.07    0.62
   3   4  -3   21.49    0.60
   3   4  -3   22.13    0.67
   3   4  -3   21.75    0.61
  -3  -4   3   21.00    0.59
  -3  -4   3   21.03    0.63
  -3  -4   3   21.91    0.59
  -3  -4   3   22.03    0.62
   2   4  -3   36.45    0.97
   2   4  -3   33.59    0.96
   2   4  -3   36.14    0.97
   2   4  -3   36.76    0.96
   2   4  -3   36.10    1.02
   2   4  -3   34.54    0.94
   2   4  -3   35.09    1.12
   2   4  -3   36.11    0.97
  -2  -4   3   36.94    0.99
  -2  -4   3   36.92    1.00
  -2  -4   3   35.91    1.05
  -2  -4   3   35.75    0.95
  -2  -4   3   35.01    0.96
   1   4  -3   10.53    0.41
   1   4  -3   10.65    0.32
   1   4  -3   10.30    0.33
   1   4  -3   10.92    0.34
   1   4  -3   11.62    0.38
   1   4  -3   10.62    0.30
   1   4  -3   10.28    0.32
   1   4  -3   10.93    0.33
   1   4  -3   10.77    0.35
   1   4  -3   10.79    0.31
   1   4  -3   10.54    0.34
  -1  -4   3   10.43    0.32
  -1  -4   3   10.56    0.37
  -1  -4   3   10.46    0.41
  -1  -4   3   10.47    0.34
  -1  -4   3   10.61    0.32
  -1  -4   3   10.88    0.35
   0   4  -3    7.48    0.26
   0   4  -3    7.32    0.23
   0   4  -3    8.18    0.35
   0   4  -3    7.78    0.28
   0   4  -3    7.26    0.25
   0   4  -3    7.68    0.26
   0   4  -3    7.76    0.25
   0   4  -3    7.64    0.23
   0   4  -3    7.75    0.36
   0   4  -3    7.33    0.24
   0   4  -3    7.46    0.29
   0  -4   3    8.21    0.25
   0  -4   3    7.74    0.28
   0  -4   3    7.77    0.30
   0  -4   3    8.11    0.34
   0  -4   3    8.08    0.25
   0  -4   3    7.26    0.27
  -1   4  -3   38.68    1.13
  -1   4  -3   38.79    1.03
  -1   4  -3   38.10    1.03
  -1   4  -3   38.35    0.99
  -1   4  -3   35.58    1.00
  -1   4  -3   37.43    0.99
  -1   4  -3   36.20    1.01
  -1   4  -3   37.68    1.15
  -1   4  -3   38.58    1.05
   1  -4   3   37.07    1.05
   1  -4   3   38.46    1.11
   1  -4   3   36.79    1.01
   1  -4   3   38.09    1.00
  -2   4  -3   58.69    1.73
  -2   4  -3   62.81    1.61
  -2   4  -3   61.66    1.57
  -2   4  -3   63.17    1.63
  -2   4  -3   59.91    1.60
  -2   4  -3   58.73    1.58
  -2   4  -3   60.40    1.58
  -2   4  -3   60.92    1.70
   2  -4   3   57.08    1.62
   2  -4   3   59.45    1.58
   2  -4   3   61.05    1.58
   2  -4   3   60.18    1.67
  -3   4  -3   11.31    0.34
  -3   4  -3   11.63    0.32
  -3   4  -3   11.25    0.31
  -3   4  -3   10.19    0.41
  -3   4  -3   11.07    0.35
  -3   4  -3   10.71    0.32
  -3   4  -3   10.83    0.33
   3  -4   3   10.39    0.38
   3  -4   3   10.76    0.31
   3  -4   3   10.37    0.31
   3  -4   3   11.13    0.32
  -4   4  -3   12.58    0.34
  -4   4  -3   11.46    0.34
  -4   4  -3   12.33    0.33
   4  -4   3   12.20    0.33
   4  -4   3   11.97    0.33
   6   3  -3    3.43    0.14
   5   3  -3    5.96    0.23
   4   3  -3    2.79    0.14
   4   3  -3    2.86    0.25
   4   3  -3    2.99    0.19
   3   3  -3   21.83    0.63
   3   3  -3   23.09    0.64
   3   3  -3   23.70    0.80
   3   3  -3   22.45    0.69
  -3  -3   3   23.32    0.70
  -3  -3   3   21.51    0.69
   2   3  -3  111.40    3.11
   2   3  -3  104.91    2.97
   2   3  -3  116.26    3.04
   2   3  -3  118.82    3.04
  -2  -3   3  119.03    2.97
  -2  -3   3  116.84    2.94
  -2  -3   3  114.31    2.97
   1   3  -3  191.97    5.35
   1   3  -3  207.94    5.34
   1   3  -3  200.09    5.31
  -1  -3   3  210.13    5.24
  -1  -3   3  205.01    5.25
  -1  -3   3  208.73    5.27
  -1  -3   3  209.16    5.22
  -1  -3   3  199.30    5.30
   0   3  -3   14.70    0.45
   0   3  -3   14.70    0.52
   0   3  -3   15.88    0.52
   0  -3   3   14.56    0.47
   0  -3   3   14.14    0.42
   0  -3   3   15.19    0.45
   0  -3   3   15.68    0.51
   0  -3   3   15.04    0.44
   0  -3   3   14.95    0.42
  -1   3  -3    4.02    0.18
  -1   3  -3    3.92    0.16
  -1   3  -3    3.86    0.27
  -1   3  -3    3.82    0.13
  -1   3  -3    3.89    0.23
  -1   3  -3    3.78    0.24
   1  -3   3    4.01    0.20
   1  -3   3    3.98    0.14
   1  -3   3    3.82    0.14
   1  -3   3    3.99    0.22
   1  -3   3    3.98    0.17
  -2   3  -3   38.72    1.13
  -2   3  -3   38.64    1.16
  -2   3  -3   39.26    1.03
  -2   3  -3   38.23    1.01
  -2   3  -3   37.25    1.04
  -2   3  -3   39.65    1.06
  -2   3  -3   37.96    1.03
  -2   3  -3   38.90    1.05
  -2   3  -3   38.75    1.03
   2  -3   3   37.48    1.02
   2  -3   3   38.81    1.06
   2  -3   3   39.00    1.11
   2  -3   3   36.48    1.02
  -3   3  -3   12.63    0.37
  -3   3  -3   12.70    0.36
  -3   3  -3   12.71    0.39
  -3   3  -3   12.78    0.37
  -3   3  -3   12.40    0.47
  -3   3  -3   11.50    0.38
  -3   3  -3   12.62    0.40
  -3   3  -3   12.18    0.49
   3  -3   3   12.88    0.44
   3  -3   3   12.52    0.37
   3  -3   3   12.59    0.36
   3  -3   3   12.26    0.40
  -4   3  -3    1.04    0.07
  -4   3  -3    0.91    0.08
  -4   3  -3    0.83    0.13
  -4   3  -3    0.96    0.08
  -4   3  -3    0.95    0.06
  -4   3  -3    0.82    0.09
   4  -3   3    0.95    0.05
   4  -3   3    0.96    0.06
   4  -3   3    0.95    0.10
   4  -3   3    1.03    0.07
  -5   3  -3    5.70    0.18
  -5   3  -3    6.13    0.17
  -5   3  -3    5.44    0.17
   5  -3   3    5.94    0.17
   6   2  -3   12.36    0.38
   6   2  -3   12.45    0.34
   6   2  -3   12.59    0.35
   5   2  -3   12.64    0.35
   5   2  -3   12.37    0.37
   5   2  -3   12.99    0.40
  -5  -2   3   12.63    0.34
  -5  -2   3   12.45    0.37
   4   2  -3    2.60    0.14
   4   2  -3    2.30    0.09
   4   2  -3    2.28    0.11
   4   2  -3    2.31    0.19
   4   2  -3    2.68    0.23
  -4  -2   3    2.58    0.15
   3   2  -3   20.80    0.72
   3   2  -3   22.33    0.66
   3   2  -3   21.37    0.60
  -3  -2   3   20.55    0.58
  -3  -2   3   20.94    0.65
  -3  -2   3   20.85    0.64
   2   2  -3   20.94    0.67
  -2  -2   3   19.49    0.52
  -2  -2   3   19.09    0.53
   1   2  -3  470.15   12.21
   1   2  -3  467.24   12.26
  -1  -2   3  462.98   12.16
  -1  -2   3  505.60   12.20
   0   2  -3  108.56    2.79
   0   2  -3  105.67    2.78
   0  -2   3  102.79    2.76
   0  -2   3  101.55    2.72
   0  -2   3  106.95    2.74
   0  -2   3  102.89    2.70
   0  -2   3  105.27    2.72
  -1   2  -3   43.61    1.22
  -1   2  -3   44.60    1.27
  -1   2  -3   42.75    1.24
   1  -2   3   43.58    1.14
   1  -2   3   43.84    1.17
   1  -2   3   44.31    1.14
   1  -2   3   42.79    1.16
   1  -2   3   43.16    1.18
   1  -2   3   42.69    1.21
  -2   2  -3   13.34    0.39
  -2   2  -3   14.54    0.43
  -2   2  -3   13.12    0.41
  -2   2  -3   13.65    0.47
  -2   2  -3   13.92    0.49
  -2   2  -3   13.41    0.53
   2  -2   3   13.69    0.46
   2  -2   3   14.02    0.42
  -3   2  -3   13.83    0.42
  -3   2  -3   13.15    0.51
  -3   2  -3   13.70    0.39
  -3   2  -3   13.99    0.49
  -3   2  -3   14.68    0.43
  -3   2  -3   13.74    0.43
  -3   2  -3   13.66    0.40
  -3   2  -3   13.54    0.40
   3  -2   3   13.76    0.38
   3  -2   3   13.18    0.39
   3  -2   3   14.30    0.43
   3  -2   3   13.92    0.40
   3  -2   3   14.49    0.47
  -4   2  -3    5.68    0.21
  -4   2  -3    5.96    0.29
  -4   2  -3    5.78    0.28
  -4   2  -3    5.87    0.30
  -4   2  -3    5.49    0.22
  -4   2  -3    5.84    0.20
  -4   2  -3    5.74    0.22
  -4   2  -3    5.94    0.19
   4  -2   3    5.56    0.22
   4  -2   3    5.98    0.20
   4  -2   3    5.70    0.25
  -5   2  -3    6.29    0.19
  -5   2  -3    6.46    0.22
  -5   2  -3    6.03    0.22
  -5   2  -3    6.16    0.19
  -5   2  -3    5.57    0.20
   5  -2   3    6.43    0.20
   5  -2   3    6.20    0.18
   6   1  -3   27.27    0.71
   6   1  -3   26.93    0.75
   6   1  -3   27.37    0.73
  -6  -1   3   26.61    0.80
  -6  -1   3   27.42    0.72
   5   1  -3   18.47    0.52
   5   1  -3   19.07    0.54
   5   1  -3   19.74    0.57
  -5  -1   3   18.79    0.52
  -5  -1   3   19.54    0.59
  -5  -1   3   19.34    0.56
   4   1  -3    2.68    0.14
   4   1  -3    2.50    0.11
   4   1  -3    2.61    0.10
  -4  -1   3    2.86    0.11
  -4  -1   3    2.74    0.12
  -4  -1   3    2.88    0.17
  -4  -1   3    2.61    0.09
   3   1  -3   17.57    0.52
  -3  -1   3   17.61    0.47
  -3  -1   3   17.31    0.47
  -3  -1   3   18.12    0.57
  -3  -1   3   17.88    0.54
   2   1  -3   45.69    1.24
  -2  -1   3   42.16    1.18
  -2  -1   3   41.57    1.17
  -2  -1   3   41.62    1.12
  -2  -1   3   42.96    1.10
  -2  -1   3   41.03    1.11
   1   1  -3   92.84    2.41
  -1  -1   3   90.74    2.31
  -1  -1   3   88.31    2.32
  -1  -1   3   89.27    2.30
  -1  -1   3   88.43    2.32
   0   1  -3   86.71    2.22
   0  -1   3   80.77    2.15
   0  -1   3   84.25    2.16
   0  -1   3   83.69    2.15
   0  -1   3   82.71    2.16
  -1   1  -3  257.74    6.73
  -1   1  -3  251.42    6.68
  -1   1  -3  255.44    6.69
   1  -1   3  264.84    6.68
   1  -1   3  266.99    6.67
   1  -1   3  262.86    6.67
   1  -1   3  266.84    6.69
  -2   1  -3  335.01    8.45
  -2   1  -3  313.06    8.38
  -2   1  -3  317.04    8.40
  -2   1  -3  337.36    8.42
  -2   1  -3  323.71    8.40
  -2   1  -3  327.50    8.45
  -2   1  -3  326.88    8.43
   2  -1   3  343.18    8.42
   2  -1   3  327.13    8.39
  -3   1  -3   98.15    2.71
  -3   1  -3  102.74    2.63
  -3   1  -3   97.77    2.62
  -3   1  -3  100.94    2.67
  -3   1  -3  100.62    2.68
  -3   1  -3  103.77    2.73
  -3   1  -3   99.05    2.70
  -3   1  -3   96.91    2.59
  -3   1  -3   96.05    2.62
   3  -1   3  108.13    2.67
   3  -1   3  104.80    2.63
  -4   1  -3    9.74    0.38
  -4   1  -3    8.96    0.26
  -4   1  -3    9.35    0.30
  -4   1  -3    8.73    0.29
  -4   1  -3    8.96    0.29
  -4   1  -3    8.81    0.35
   4  -1   3    8.75    0.33
   4  -1   3    8.53    0.28
   4  -1   3    9.25    0.31
   4  -1   3    8.61    0.26
   4  -1   3    8.40    0.25
  -5   1  -3    0.87    0.06
  -5   1  -3    0.93    0.07
  -5   1  -3    0.88    0.09
  -5   1  -3    0.80    0.13
  -5   1  -3    0.90    0.09
  -5   1  -3    0.90    0.09
  -5   1  -3    0.84    0.08
   5  -1   3    0.96    0.11
   5  -1   3    0.85    0.06
   5  -1   3    0.85    0.05
   5  -1   3    0.77    0.06
  -6   1  -3    4.23    0.23
  -6   1  -3    4.59    0.14
  -6   1  -3    4.68    0.14
  -6   1  -3    4.59    0.16
   6  -1   3    4.60    0.13
   6  -1   3    4.69    0.15
   6   0  -3    1.28    0.07
   6   0  -3    1.33    0.08
   6   0  -3    1.39    0.06
  -6   0   3    1.40    0.12
  -6   0   3    1.31    0.07
  -6   0   3    1.15    0.08
   5   0  -3   21.04    0.56
   5   0  -3   20.14    0.60
   5   0  -3   20.72    0.55
  -5   0   3   19.58    0.55
  -5   0   3   20.88    0.62
  -5   0   3   20.26    0.56
  -5   0   3   19.57    0.61
  -5   0   3   19.18    0.57
   4   0  -3   15.38    0.43
   4   0  -3   15.82    0.48
   4   0  -3   15.22    0.45
   4   0  -3   15.01    0.45
   4   0  -3   15.32    0.44
  -4   0   3   15.42    0.52
  -4   0   3   14.88    0.45
  -4   0   3   15.81    0.43
  -4   0   3   15.82    0.50
  -4   0   3   15.73    0.43
  -4   0   3   16.24    0.47
   3   0  -3    5.07    0.20
  -3   0   3    5.25    0.23
  -3   0   3    5.18    0.17
  -3   0   3    5.23    0.25
  -3   0   3    5.18    0.15
  -3   0   3    5.32    0.18
  -3   0   3    5.30    0.23
   2   0  -3  189.26    4.76
  -2   0   3  185.98    4.72
  -2   0   3  181.01    4.70
  -2   0   3  180.02    4.68
  -2   0   3  179.83    4.69
  -2   0   3  183.92    4.74
  -2   0   3  186.64    4.71
   1   0  -3  330.23    8.33
  -1   0   3  335.51    8.31
  -1   0   3  329.08    8.39
  -1   0   3  307.79    8.31
  -1   0   3  328.32    8.31
  -1   0   3  320.57    8.31
   0   0   3   10.87    0.30
   0   0   3   10.62    0.31
   0   0   3   11.33    0.33
   0   0   3   11.17    0.30
  -1   0  -3  368.66    9.37
  -1   0  -3  346.93    9.37
  -1   0  -3  343.97    9.35
  -1   0  -3  380.08    9.36
   1   0   3  375.45    9.34
   1   0   3  372.76    9.37
   1   0   3  385.13    9.35
   1   0   3  353.01    9.32
  -2   0  -3  198.18    5.08
  -2   0  -3  201.00    5.09
  -2   0  -3  199.43    5.06
  -2   0  -3  195.87    5.10
   2   0   3  196.05    5.05
   2   0   3  196.76    5.03
   2   0   3  191.46    5.07
  -3   0  -3   26.59    0.78
  -3   0  -3   25.72    0.72
  -3   0  -3   26.90    0.75
  -3   0  -3   24.94    0.71
  -3   0  -3   26.35    0.76
  -3   0  -3   26.49    0.78
  -3   0  -3   27.38    0.81
   3   0   3   25.60    0.75
   3   0   3   26.73    0.73
  -4   0  -3    1.04    0.09
  -4   0  -3    1.01    0.13
  -4   0  -3    0.88    0.08
  -4   0  -3    0.96    0.13
  -4   0  -3    1.05    0.12
  -4   0  -3    0.85    0.08
  -4   0  -3    0.93    0.08
  -4   0  -3    0.95    0.12
  -4   0  -3    1.13    0.11
   4   0   3    0.91    0.06
   4   0   3    0.83    0.07
   4   0   3    0.96    0.11
   4   0   3    0.92    0.09
   4   0   3    1.00    0.06
   4   0   3    1.04    0.07
  -5   0  -3   45.34    1.24
  -5   0  -3   44.64    1.31
  -5   0  -3   45.85    1.25
  -5   0  -3   46.84    1.24
  -5   0  -3   45.07    1.34
  -5   0  -3   47.48    1.21
   5   0   3   47.40    1.21
   5   0   3   46.38    1.22
   5   0   3   46.94    1.22
   5   0   3   45.73    1.27
   5   0   3   46.96    1.20
   5   0   3   45.18    1.20
  -6   0  -3    1.17    0.07
  -6   0  -3    1.21    0.09
  -6   0  -3    1.28    0.09
  -6   0  -3    1.29    0.06
   6   0   3    1.19    0.07
   6   0   3    1.21    0.06
   6   0   3    1.15    0.07
   6   0   3    1.18    0.06
   6  -1  -3    0.21    0.02
   6  -1  -3    0.22    0.03
   5  -1  -3    2.85    0.13
   5  -1  -3    3.01    0.12
   5  -1  -3    3.23    0.11
   5  -1  -3    3.05    0.15
  -5   1   3    2.69    0.13
  -5   1   3    2.87    0.17
  -5   1   3    3.14    0.13
  -5   1   3    2.94    0.18
  -5   1   3    2.93    0.19
  -5   1   3    3.06    0.12
   4  -1  -3   54.40    1.48
   4  -1  -3   55.63    1.46
   4  -1  -3   54.21    1.51
   4  -1  -3   53.83    1.47
   4  -1  -3   56.32    1.48
  -4   1   3   55.48    1.53
  -4   1   3   57.37    1.48
  -4   1   3   57.54    1.50
  -4   1   3   55.98    1.54
  -4   1   3   57.78    1.47
  -4   1   3   55.25    1.57
  -4   1   3   58.39    1.47
   3  -1  -3   36.10    0.97
   3  -1  -3   33.86    0.94
  -3   1   3   34.51    0.95
  -3   1   3   33.29    1.03
  -3   1   3   35.75    0.96
  -3   1   3   35.11    0.98
  -3   1   3   33.86    0.92
  -3   1   3   35.18    1.01
  -3   1   3   35.79    0.92
   2  -1  -3  371.03    9.44
  -2   1   3  365.50    9.47
  -2   1   3  368.38    9.43
  -2   1   3  364.52    9.42
  -2   1   3  364.75    9.48
  -2   1   3  366.23    9.43
  -2   1   3  372.99    9.37
   1  -1  -3  419.00   10.73
  -1   1   3  410.98   10.69
  -1   1   3  420.42   10.71
  -1   1   3  426.34   10.78
  -1   1   3  416.76   10.68
   0  -1  -3   88.91    2.39
   0  -1  -3   94.29    2.41
   0   1   3   90.67    2.38
   0   1   3   91.57    2.36
   0   1   3   92.16    2.37
   0   1   3   92.93    2.37
   0   1   3   94.86    2.39
  -1  -1  -3  139.63    3.63
  -1  -1  -3  139.39    3.65
  -1  -1  -3  145.06    3.63
   1   1   3  139.99    3.62
   1   1   3  136.11    3.60
   1   1   3  143.00    3.60
  -2  -1  -3   23.76    0.66
  -2  -1  -3   24.40    0.66
  -2  -1  -3   23.75    0.68
  -2  -1  -3   23.04    0.67
   2   1   3   23.59    0.63
  -3  -1  -3   43.82    1.23
  -3  -1  -3   45.15    1.22
  -3  -1  -3   45.71    1.24
  -3  -1  -3   45.95    1.19
  -3  -1  -3   45.30    1.24
   3   1   3   44.86    1.24
   3   1   3   45.36    1.22
  -4  -1  -3    7.50    0.30
  -4  -1  -3    8.00    0.25
  -4  -1  -3    7.94    0.29
  -4  -1  -3    7.58    0.31
  -4  -1  -3    7.76    0.25
   4   1   3    7.35    0.23
   4   1   3    7.52    0.23
   4   1   3    7.39    0.23
   4   1   3    7.76    0.28
  -5  -1  -3   21.46    0.61
  -5  -1  -3   21.57    0.70
  -5  -1  -3   22.12    0.61
  -5  -1  -3   21.04    0.68
  -5  -1  -3   22.09    0.62
   5   1   3   20.91    0.57
   5   1   3   21.86    0.64
   5   1   3   20.36    0.59
   5   1   3   21.21    0.57
   5   1   3   21.21    0.58
  -6  -1  -3   35.77    0.94
  -6  -1  -3   33.24    0.96
  -6  -1  -3   35.35    0.98
  -6  -1  -3   36.17    0.97
   6   1   3   36.04    0.95
   6   1   3   36.27    0.93
   6   1   3   36.88    0.93
  -7  -1  -3    3.74    0.13
   7   1   3    3.60    0.11
   7   1   3    3.80    0.12
   5  -2  -3   10.94    0.31
   5  -2  -3    9.87    0.32
   5  -2  -3   11.20    0.31
   5  -2  -3   11.03    0.29
  -5   2   3   10.39    0.32
  -5   2   3   10.37    0.32
  -5   2   3   10.78    0.38
  -5   2   3   10.70    0.32
   4  -2  -3   30.81    0.82
   4  -2  -3   30.39    0.80
   4  -2  -3   30.09    0.85
   4  -2  -3   31.05    0.82
   4  -2  -3   30.21    0.82
  -4   2   3   30.36    0.82
  -4   2   3   31.41    0.94
  -4   2   3   30.69    0.82
  -4   2   3   26.70    0.91
  -4   2   3   29.85    0.84
  -4   2   3   29.97    0.83
  -4   2   3   30.83    0.89
  -4   2   3   29.72    0.92
   3  -2  -3   61.69    1.63
   3  -2  -3   62.95    1.64
   3  -2  -3   62.97    1.67
   3  -2  -3   63.44    1.61
   3  -2  -3   61.16    1.64
  -3   2   3   62.82    1.74
  -3   2   3   58.29    1.66
  -3   2   3   60.06    1.69
  -3   2   3   64.40    1.64
  -3   2   3   63.69    1.63
  -3   2   3   64.03    1.63
  -3   2   3   56.74    1.62
  -3   2   3   63.55    1.73
  -3   2   3   63.43    1.69
  -3   2   3   63.45    1.65
   2  -2  -3   13.59    0.41
   2  -2  -3   12.89    0.43
  -2   2   3   12.55    0.45
  -2   2   3   13.58    0.44
  -2   2   3   12.58    0.41
  -2   2   3   12.64    0.46
  -2   2   3   13.15    0.42
  -2   2   3   12.84    0.43
  -2   2   3   12.80    0.37
  -2   2   3   13.42    0.37
  -2   2   3   12.87    0.39
   1  -2  -3    0.89    0.13
   1  -2  -3    0.96    0.11
   1  -2  -3    0.89    0.07
  -1   2   3    0.83    0.08
  -1   2   3    0.84    0.08
  -1   2   3    0.88    0.10
  -1   2   3    0.81    0.09
  -1   2   3    0.93    0.06
  -1   2   3    0.89    0.10
  -1   2   3    1.00    0.08
   0  -2  -3   43.36    1.15
   0  -2  -3   44.99    1.18
   0  -2  -3   42.36    1.21
   0  -2  -3   43.88    1.20
   0   2   3   43.47    1.15
   0   2   3   43.19    1.16
   0   2   3   45.54    1.19
   0   2   3   42.52    1.17
   0   2   3   45.16    1.17
   0   2   3   44.75    1.15
  -1  -2  -3 1000.00   24.73
  -1  -2  -3  960.11   24.72
  -1  -2  -3  942.02   24.77
  -2  -2  -3  155.17    4.19
  -2  -2  -3  157.81    4.14
  -2  -2  -3  163.77    4.17
  -2  -2  -3  171.34    4.20
  -2  -2  -3  161.35    4.19
   2   2   3  160.49    4.14
   2   2   3  160.76    4.19
  -3  -2  -3   30.22    0.86
  -3  -2  -3   30.00    0.80
  -3  -2  -3   29.59    0.86
  -3  -2  -3   30.05    0.84
   3   2   3   30.54    0.88
  -4  -2  -3    5.90    0.26
  -4  -2  -3    5.94    0.23
  -4  -2  -3    6.29    0.21
  -4  -2  -3    6.20    0.20
  -4  -2  -3    6.64    0.28
   4   2   3    5.87    0.20
   4   2   3    6.28    0.20
   4   2   3    6.09    0.28
   4   2   3    6.19    0.22
  -5  -2  -3    1.01    0.08
  -5  -2  -3    0.86    0.12
  -5  -2  -3    0.99    0.08
  -5  -2  -3    0.88    0.14
   5   2   3    0.91    0.06
   5   2   3    0.77    0.08
   5   2   3    0.89    0.06
   5   2   3    0.88    0.08
   5   2   3    0.96    0.05
   5   2   3    0.80    0.07
   5   2   3    0.93    0.07
  -6  -2  -3    3.24    0.14
  -6  -2  -3    3.14    0.20
  -6  -2  -3    3.27    0.14
  -6  -2  -3    3.01    0.14
   6   2   3    3.34    0.11
   6   2   3    3.27    0.11
   6   2   3    3.55    0.13
  -7  -2  -3    0.78    0.04
   7   2   3    0.78    0.05
   5  -3  -3   14.84    0.41
  -5   3   3   15.16    0.43
   4  -3  -3    5.06    0.17
   4  -3  -3    5.22    0.18
   4  -3  -3    4.75    0.19
  -4   3   3    5.11    0.19
  -4   3   3    4.81    0.16
  -4   3   3    5.19    0.25
  -4   3   3    5.00    0.19
  -4   3   3    4.46    0.22
   3  -3  -3   22.12    0.61
   3  -3  -3   20.54    0.60
   3  -3  -3   21.65    0.64
   3  -3  -3   21.80    0.61
  -3   3   3   22.11    0.60
  -3   3   3   22.18    0.67
  -3   3   3   21.63    0.63
  -3   3   3   22.72    0.62
  -3   3   3   22.30    0.71
  -3   3   3   22.38    0.71
  -3   3   3   20.41    0.62
   2  -3  -3    2.85    0.15
   2  -3  -3    2.92    0.12
   2  -3  -3    2.99    0.14
   2  -3  -3    2.74    0.12
  -2   3   3    2.57    0.19
  -2   3   3    2.92    0.19
  -2   3   3    2.67    0.12
  -2   3   3    2.69    0.13
  -2   3   3    2.94    0.12
  -2   3   3    3.25    0.15
  -2   3   3    2.68    0.17
   1  -3  -3   48.67    1.27
   1  -3  -3   47.07    1.31
   1  -3  -3   47.04    1.31
  -1   3   3   45.96    1.25
  -1   3   3   46.19    1.34
  -1   3   3   47.71    1.33
  -1   3   3   47.20    1.31
  -1   3   3   47.40    1.29
  -1   3   3   49.21    1.32
   0  -3  -3   14.65    0.49
   0  -3  -3   14.97    0.45
   0  -3  -3   14.69    0.48
   0  -3  -3   14.24    0.46
   0  -3  -3   14.08    0.48
   0  -3  -3   14.57    0.43
   0  -3  -3   14.83    0.43
   0   3   3   13.94    0.45
   0   3   3   15.66    0.48
   0   3   3   15.00    0.47
  -1  -3  -3   56.87    1.58
  -1  -3  -3   59.53    1.54
  -1  -3  -3   55.92    1.51
  -1  -3  -3   56.03    1.51
  -1  -3  -3   54.42    1.56
  -1  -3  -3   57.24    1.54
   1   3   3   58.78    1.55
   1   3   3   58.51    1.55
  -2  -3  -3   67.81    1.77
  -2  -3  -3   66.57    1.80
  -2  -3  -3   67.01    1.82
  -2  -3  -3   65.83    1.81
  -2  -3  -3   69.39    1.84
   2   3   3   68.42    1.84
  -3  -3  -3    7.26    0.29
  -3  -3  -3    7.72    0.27
  -3  -3  -3    7.22    0.24
  -3  -3  -3    7.25    0.29
  -3  -3  -3    7.34    0.29
   3   3   3    7.39    0.32
   3   3   3    6.94    0.27
  -4  -3  -3   17.05    0.50
  -4  -3  -3   17.96    0.58
  -4  -3  -3   18.61    0.59
  -4  -3  -3   18.18    0.51
  -4  -3  -3   17.83    0.55
  -4  -3  -3   18.35    0.58
   4   3   3   18.44    0.63
   4   3   3   17.36    0.50
   4   3   3   19.53    0.51
   4   3   3   17.88    0.53
  -5  -3  -3    1.21    0.14
  -5  -3  -3    1.13    0.15
  -5  -3  -3    1.01    0.08
  -5  -3  -3    1.16    0.13
  -5  -3  -3    1.00    0.08
   5   3   3    1.11    0.07
   5   3   3    1.12    0.07
   5   3   3    1.10    0.09
   5   3   3    1.17    0.08
   5   3   3    1.11    0.08
   5   3   3    1.14    0.06
  -6  -3  -3    3.82    0.15
  -6  -3  -3    4.17    0.23
  -6  -3  -3    3.77    0.16
   6   3   3    4.05    0.13
   6   3   3    3.84    0.14
   6   3   3    4.11    0.15
   6   3   3    3.66    0.14
  -7  -3  -3    6.62    0.21
  -7  -3  -3    6.60    0.19
   7   3   3    6.67    0.20
   4  -4  -3    1.24    0.07
  -4   4   3    1.03    0.10
  -4   4   3    1.07    0.07
  -4   4   3    1.08    0.06
  -4   4   3    1.23    0.08
  -4   4   3    1.05    0.10
   3  -4  -3   33.93    0.89
   3  -4  -3   32.93    0.88
  -3   4   3   31.96    0.90
  -3   4   3   33.39    0.88
  -3   4   3   33.56    0.97
  -3   4   3   31.42    0.95
  -3   4   3   32.97    0.90
   2  -4  -3   25.98    0.72
   2  -4  -3   26.32    0.76
   2  -4  -3   25.72    0.72
  -2   4   3   26.35    0.75
  -2   4   3   27.18    0.74
  -2   4   3   26.39    0.82
  -2   4   3   26.12    0.72
  -2   4   3   27.13    0.80
  -2   4   3   26.98    0.70
  -2   4   3   25.59    0.82
   1  -4  -3    3.81    0.14
   1  -4  -3    3.43    0.14
   1  -4  -3    3.39    0.16
   1  -4  -3    3.63    0.14
   1  -4  -3    3.79    0.21
  -1   4   3    3.64    0.14
  -1   4   3    3.90    0.22
  -1   4   3    3.56    0.16
  -1   4   3    3.91    0.20
  -1   4   3    3.55    0.13
  -1   4   3    3.71    0.21
  -1   4   3    3.68    0.15
   0  -4  -3    7.18    0.24
   0  -4  -3    7.00    0.23
   0  -4  -3    7.27    0.26
   0  -4  -3    7.54    0.32
   0   4   3    7.35    0.25
   0   4   3    7.70    0.31
   0   4   3    7.29    0.30
   0   4   3    7.41    0.22
  -1  -4  -3    0.81    0.13
  -1  -4  -3    1.05    0.09
  -1  -4  -3    1.05    0.14
  -1  -4  -3    1.06    0.09
  -1  -4  -3    0.95    0.10
  -1  -4  -3    1.11    0.09
   1   4   3    1.31    0.13
   1   4   3    1.03    0.12
   1   4   3    1.02    0.13
  -2  -4  -3   12.16    0.37
  -2  -4  -3   12.34    0.38
  -2  -4  -3   12.46    0.38
  -2  -4  -3   12.23    0.40
  -2  -4  -3   12.47    0.45
   2   4   3   12.15    0.34
   2   4   3   12.07    0.36
   2   4   3   12.01    0.41
   2   4   3   12.37    0.45
   2   4   3   11.42    0.42
   2   4   3   12.00    0.35
   2   4   3   12.99    0.44
  -3  -4  -3   12.44    0.45
  -3  -4  -3   12.13    0.42
  -3  -4  -3   12.18    0.37
  -3  -4  -3   12.10    0.43
  -3  -4  -3   12.67    0.40
  -3  -4  -3   12.16    0.37
   3   4   3   12.05    0.35
   3   4   3   12.12    0.47
   3   4   3   12.24    0.41
   3   4   3   12.02    0.36
   3   4   3   12.10    0.44
   3   4   3   11.57    0.37
  -4  -4  -3   31.12    0.84
  -4  -4  -3   32.19    0.91
  -4  -4  -3   30.33    0.92
  -4  -4  -3   29.72    0.83
  -4  -4  -3   29.34    0.86
  -4  -4  -3   30.20    0.91
   4   4   3   29.75    0.97
   4   4   3   28.80    0.80
   4   4   3   30.79    0.89
   4   4   3   30.75    0.82
   4   4   3   31.00    0.83
  -5  -4  -3   21.93    0.63
  -5  -4  -3   23.63    0.73
  -5  -4  -3   23.34    0.72
  -5  -4  -3   22.02    0.64
  -5  -4  -3   23.03    0.72
   5   4   3   21.93    0.61
   5   4   3   22.38    0.62
   5   4   3   22.76    0.62
   5   4   3   22.88    0.63
  -6  -4  -3    2.95    0.13
  -6  -4  -3    2.86    0.20
  -6  -4  -3    2.77    0.13
   6   4   3    2.76    0.11
   6   4   3    2.83    0.11
   6   4   3    2.54    0.12
   7   4   3    8.60    0.24
   3  -5  -3    1.93    0.08
   3  -5  -3    1.94    0.08
  -3   5   3    1.89    0.10
  -3   5   3    1.92    0.08
  -3   5   3    1.80    0.09
  -3   5   3    1.57    0.11
   2  -5  -3   17.27    0.49
   2  -5  -3   17.61    0.49
  -2   5   3   16.88    0.48
  -2   5   3   17.49    0.56
  -2   5   3   17.12    0.50
  -2   5   3   17.52    0.48
  -2   5   3   17.35    0.52
   1  -5  -3    0.77    0.12
   1  -5  -3    0.80    0.07
   1  -5  -3    0.80    0.07
   1  -5  -3    0.83    0.07
  -1   5   3    0.84    0.09
  -1   5   3    1.00    0.08
  -1   5   3    0.99    0.06
  -1   5   3    0.94    0.12
  -1   5   3    0.97    0.10
   0  -5  -3    2.82    0.12
   0  -5  -3    3.11    0.13
   0  -5  -3    3.04    0.15
   0  -5  -3    2.95    0.12
   0  -5  -3    2.91    0.21
   0   5   3    3.14    0.14
   0   5   3    3.00    0.14
   0   5   3    3.08    0.20
   0   5   3    2.89    0.15
   0   5   3    3.14    0.13
   0   5   3    3.04    0.19
   0   5   3    3.07    0.12
   0   5   3    3.28    0.11
  -1  -5  -3   22.90    0.75
  -1  -5  -3   23.30    0.66
  -1  -5  -3   22.78    0.66
  -1  -5  -3   23.44    0.64
  -1  -5  -3   23.54    0.68
  -1  -5  -3   21.39    0.63
  -1  -5  -3   24.03    0.76
   1   5   3   23.62    0.66
   1   5   3   24.46    0.67
   1   5   3   22.94    0.65
   1   5   3   22.78    0.64
   1   5   3   23.10    0.64
   1   5   3   23.75    0.63
   1   5   3   23.50    0.63
   1   5   3   23.00    0.72
   1   5   3   24.95    0.76
  -2  -5  -3   18.31    0.50
  -2  -5  -3   19.29    0.53
  -2  -5  -3   17.80    0.61
  -2  -5  -3   17.95    0.54
  -2  -5  -3   18.87    0.54
  -2  -5  -3   17.80    0.56
   2   5   3   17.39    0.63
   2   5   3   17.79    0.53
   2   5   3   17.75    0.50
   2   5   3   17.38    0.49
   2   5   3   17.51    0.50
   2   5   3   17.33    0.51
   2   5   3   17.12    0.52
   2   5   3   17.97    0.58
   2   5   3   17.31    0.51
   2   5   3   19.28    0.53
   2   5   3   18.93    0.62
  -3  -5  -3   20.21    0.57
  -3  -5  -3   21.19    0.62
  -3  -5  -3   20.55    0.60
  -3  -5  -3   20.97    0.68
  -3  -5  -3   21.53    0.61
  -3  -5  -3   20.15    0.62
   3   5   3   20.73    0.72
   3   5   3   21.30    0.65
   3   5   3   20.38    0.59
   3   5   3   21.21    0.56
   3   5   3   20.76    0.58
   3   5   3   21.56    0.60
   3   5   3   20.65    0.57
   3   5   3   20.45    0.57
   3   5   3   21.10    0.69
   3   5   3   19.93    0.58
   3   5   3   20.38    0.58
  -4  -5  -3    8.95    0.30
  -4  -5  -3    8.77    0.29
  -4  -5  -3    8.74    0.37
   4   5   3    9.35    0.28
   4   5   3    9.16    0.29
   4   5   3    8.71    0.28
   4   5   3    9.18    0.34
   4   5   3    8.72    0.38
   4   5   3    8.92    0.26
  -5  -5  -3   17.98    0.54
  -5  -5  -3   18.62    0.53
   5   5   3   19.12    0.53
   5   5   3   18.52    0.52
  -6  -5  -3    5.37    0.18
   6   5   3    5.18    0.18
   6   5   3    5.04    0.17
   2  -6  -3    5.99    0.19
   2  -6  -3    6.28    0.19
  -2   6   3    6.36    0.20
  -2   6   3    6.43    0.19
   1  -6  -3    3.49    0.13
   1  -6  -3    3.39    0.13
   1  -6  -3    3.29    0.13
  -1   6   3    3.60    0.18
  -1   6   3    3.57    0.15
  -1   6   3    3.39    0.11
  -1   6   3    3.68    0.13
   0  -6  -3   20.56    0.65
   0  -6  -3   20.78    0.57
   0  -6  -3   20.38    0.57
   0   6   3   20.48    0.55
   0   6   3   20.30    0.56
   0   6   3   20.46    0.57
   0   6   3   20.97    0.59
   0   6   3   20.60    0.63
  -1  -6  -3   21.00    0.56
  -1  -6  -3   19.69    0.66
  -1  -6  -3   19.91    0.57
  -1  -6  -3   19.87    0.60
  -1  -6  -3   21.01    0.56
   1   6   3   20.49    0.55
   1   6   3   19.45    0.55
   1   6   3   20.30    0.58
   1   6   3   20.10    0.58
   1   6   3   20.80    0.57
   1   6   3   20.05    0.55
   1   6   3   19.62    0.67
   1   6   3   20.29    0.58
   1   6   3   20.19    0.63
  -2  -6  -3    0.95    0.10
  -2  -6  -3    0.97    0.07
  -2  -6  -3    1.03    0.09
  -2  -6  -3    0.98    0.13
  -2  -6  -3    0.94    0.09
  -2  -6  -3    0.95    0.15
   2   6   3    0.96    0.07
   2   6   3    1.04    0.07
   2   6   3    0.97    0.07
   2   6   3    1.01    0.12
   2   6   3    0.94    0.08
   2   6   3    0.93    0.15
   2   6   3    1.10    0.10
   2   6   3    0.91    0.09
  -3  -6  -3    9.01    0.31
  -3  -6  -3    9.06    0.37
  -3  -6  -3    9.13    0.28
  -3  -6  -3    9.87    0.40
  -3  -6  -3    8.88    0.32
  -3  -6  -3    9.31    0.30
   3   6   3    9.01    0.27
   3   6   3    9.69    0.30
   3   6   3    9.28    0.30
   3   6   3    9.14    0.28
   3   6   3    9.78    0.34
   3   6   3    9.76    0.41
   3   6   3    9.00    0.30
   3   6   3    9.45    0.29
   3   6   3    9.42    0.27
  -4  -6  -3   28.88    0.82
  -4  -6  -3   29.69    0.82
   4   6   3   30.20    0.86
   4   6   3   29.79    0.81
   4   6   3   29.99    0.81
   4   6   3   29.42    0.79
   4   6   3   30.36    0.80
  -5  -6  -3    3.77    0.15
  -5  -6  -3    3.74    0.15
   5   6   3    3.92    0.15
   5   6   3    4.10    0.14
   6   6   3    2.13    0.10
   6   6   3    2.16    0.08
   1  -7  -3    2.97    0.10
  -1   7   3    3.03    0.10
   0  -7  -3    4.74    0.15
   0  -7  -3    4.78    0.15
   0   7   3    4.70    0.14
   0   7   3    4.62    0.14
   0   7   3    4.97    0.15
   0   7   3    4.97    0.16
  -1  -7  -3    3.89    0.13
  -1  -7  -3    3.93    0.14
   1   7   3    3.75    0.12
   1   7   3    3.97    0.15
   1   7   3    3.63    0.13
   1   7   3    3.97    0.13
   1   7   3    3.92    0.14
  -2  -7  -3    4.56    0.16
  -2  -7  -3    4.94    0.17
   2   7   3    5.08    0.17
   2   7   3    4.71    0.16
   2   7   3    4.86    0.15
   2   7   3    4.82    0.16
   2   7   3    4.86    0.15
   2   7   3    4.79    0.16
   2   7   3    4.82    0.18
  -3  -7  -3    1.85    0.08
  -3  -7  -3    1.91    0.10
   3   7   3    1.76    0.08
   3   7   3    1.92    0.08
   3   7   3    1.93    0.10
   3   7   3    2.05    0.10
   3   7   3    1.78    0.08
  -4  -7  -3   24.98    0.68
   4   7   3   25.17    0.68
   4   7   3   25.28    0.67
   4   7   3   25.17    0.66
   4   7   3   25.32    0.68
   5   7   3    3.08    0.11
   5   7   3    3.16    0.12
   2   8   3    4.64    0.13
  -3  -8  -3    1.94    0.07
   3   8   3    1.93    0.07
   3   7  -4    3.35    0.11
   2   7  -4    0.91    0.05
   2   7  -4    0.96    0.04
   1   7  -4    6.13    0.17
   4   6  -4    4.72    0.15
  -4  -6   4    4.29    0.14
   3   6  -4    5.48    0.18
   3   6  -4    5.11    0.23
   3   6  -4    5.22    0.17
  -3  -6   4    5.35    0.17
   2   6  -4    2.22    0.09
   2   6  -4    2.35    0.15
   2   6  -4    2.10    0.11
   2   6  -4    2.11    0.11
   2   6  -4    2.10    0.10
  -2  -6   4    2.25    0.10
  -2  -6   4    1.92    0.09
   1   6  -4    2.38    0.10
   1   6  -4    2.40    0.10
   1   6  -4    2.38    0.15
   1   6  -4    2.39    0.09
   1   6  -4    2.36    0.12
   1   6  -4    2.41    0.10
   1   6  -4    2.42    0.11
  -1  -6   4    2.34    0.10
  -1  -6   4    2.23    0.10
  -1  -6   4    2.36    0.10
   0   6  -4    5.68    0.17
   0   6  -4    5.71    0.18
   0   6  -4    5.66    0.18
   0   6  -4    5.61    0.23
   0   6  -4    5.64    0.17
   0   6  -4    5.76    0.20
   0  -6   4    5.79    0.18
   0  -6   4    6.00    0.18
  -1   6  -4    2.85    0.09
  -1   6  -4    2.92    0.10
  -1   6  -4    2.86    0.11
  -1   6  -4    2.80    0.10
  -1   6  -4    2.89    0.14
  -1   6  -4    2.68    0.09
   1  -6   4    2.76    0.10
   1  -6   4    2.79    0.10
   4   5  -4    1.12    0.10
   4   5  -4    1.35    0.08
   4   5  -4    1.24    0.13
   3   5  -4    0.03    0.04
   3   5  -4    0.07    0.04
   3   5  -4    0.01    0.08
   3   5  -4    0.05    0.06
  -3  -5   4    0.06    0.03
  -3  -5   4    0.02    0.03
  -3  -5   4    0.04    0.03
   2   5  -4    6.67    0.23
   2   5  -4    6.79    0.22
   2   5  -4    6.71    0.24
   2   5  -4    6.39    0.22
   2   5  -4    6.87    0.21
   2   5  -4    7.03    0.29
  -2  -5   4    6.67    0.22
  -2  -5   4    6.87    0.31
  -2  -5   4    6.47    0.25
  -2  -5   4    6.73    0.22
   1   5  -4   56.83    1.47
   1   5  -4   56.18    1.48
   1   5  -4   57.52    1.51
   1   5  -4   56.82    1.49
   1   5  -4   55.03    1.50
   1   5  -4   56.53    1.49
   1   5  -4   58.20    1.56
  -1  -5   4   58.18    1.59
  -1  -5   4   58.37    1.49
  -1  -5   4   54.89    1.55
  -1  -5   4   57.61    1.49
  -1  -5   4   52.99    1.52
   0   5  -4   12.89    0.52
   0   5  -4   13.81    0.38
   0   5  -4   13.12    0.40
   0   5  -4   14.27    0.44
   0   5  -4   13.99    0.39
   0   5  -4   13.76    0.51
   0   5  -4   13.53    0.40
   0   5  -4   13.69    0.46
   0   5  -4   13.85    0.40
   0   5  -4   14.07    0.42
   0  -5   4   13.97    0.44
   0  -5   4   14.18    0.40
   0  -5   4   13.84    0.40
   0  -5   4   13.78    0.49
   0  -5   4   12.96    0.40
  -1   5  -4    3.29    0.13
  -1   5  -4    3.35    0.13
  -1   5  -4    3.22    0.22
  -1   5  -4    3.32    0.15
  -1   5  -4    3.21    0.12
  -1   5  -4    3.39    0.18
  -1   5  -4    3.39    0.17
  -1   5  -4    3.23    0.12
   1  -5   4    3.34    0.13
   1  -5   4    3.18    0.19
   1  -5   4    3.41    0.13
  -2   5  -4    2.53    0.10
  -2   5  -4    2.47    0.13
  -2   5  -4    2.43    0.10
  -2   5  -4    2.47    0.12
  -2   5  -4    2.62    0.09
  -2   5  -4    2.77    0.14
  -2   5  -4    2.47    0.10
   2  -5   4    2.39    0.10
   2  -5   4    2.69    0.10
  -3   5  -4    2.87    0.09
   3  -5   4    2.96    0.10
   5   4  -4   11.10    0.34
   4   4  -4   31.48    0.92
   4   4  -4   31.40    0.85
   4   4  -4   30.95    0.86
   3   4  -4   10.74    0.39
   3   4  -4    9.99    0.32
   3   4  -4   10.50    0.65
   3   4  -4    9.91    0.33
   3   4  -4    9.92    0.32
  -3  -4   4   10.09    0.29
  -3  -4   4   10.72    0.32
  -3  -4   4   10.02    0.29
   2   4  -4   43.29    1.18
   2   4  -4   42.18    1.15
   2   4  -4   42.99    1.17
   2   4  -4   46.74    1.24
   2   4  -4   41.99    1.34
   2   4  -4   44.40    1.16
   2   4  -4   45.14    1.18
  -2  -4   4   43.32    1.20
  -2  -4   4   43.54    1.16
  -2  -4   4   43.66    1.26
  -2  -4   4   44.40    1.19
  -2  -4   4   44.74    1.17
   1   4  -4    6.79    0.23
   1   4  -4    7.00    0.24
   1   4  -4    6.86    0.21
   1   4  -4    6.82    0.24
   1   4  -4    7.08    0.27
   1   4  -4    6.92    0.23
   1   4  -4    6.48    0.21
   1   4  -4    6.78    0.24
   1   4  -4    7.78    0.29
   1   4  -4    6.94    0.33
  -1  -4   4    7.07    0.27
  -1  -4   4    7.01    0.24
  -1  -4   4    7.19    0.23
  -1  -4   4    6.81    0.31
  -1  -4   4    7.48    0.26
  -1  -4   4    7.12    0.23
   0   4  -4    2.90    0.12
   0   4  -4    3.23    0.18
   0   4  -4    3.48    0.15
   0   4  -4    3.00    0.13
   0   4  -4    3.06    0.13
   0   4  -4    2.97    0.11
   0   4  -4    3.17    0.23
   0   4  -4    3.34    0.15
   0   4  -4    3.11    0.23
   0   4  -4    3.02    0.17
   0   4  -4    3.32    0.14
   0  -4   4    2.96    0.15
   0  -4   4    3.21    0.17
   0  -4   4    3.16    0.13
   0  -4   4    3.25    0.14
   0  -4   4    3.33    0.16
   0  -4   4    3.30    0.13
   0  -4   4    3.22    0.21
  -1   4  -4   24.69    0.80
  -1   4  -4   23.62    0.73
  -1   4  -4   24.74    0.72
  -1   4  -4   25.30    0.66
  -1   4  -4   24.26    0.82
  -1   4  -4   24.66    0.69
  -1   4  -4   24.58    0.70
  -1   4  -4   23.81    0.67
  -1   4  -4   24.42    0.66
   1  -4   4   24.35    0.66
   1  -4   4   24.28    0.67
   1  -4   4   24.69    0.77
   1  -4   4   24.84    0.71
  -2   4  -4    3.15    0.17
  -2   4  -4    3.10    0.17
  -2   4  -4    3.07    0.22
  -2   4  -4    3.21    0.13
  -2   4  -4    3.15    0.12
  -2   4  -4    3.14    0.15
  -2   4  -4    3.30    0.13
  -2   4  -4    3.30    0.24
   2  -4   4    3.28    0.13
   2  -4   4    3.25    0.13
   2  -4   4    2.99    0.19
   2  -4   4    3.23    0.16
  -3   4  -4    8.33    0.27
  -3   4  -4    8.38    0.25
  -3   4  -4    8.47    0.24
  -3   4  -4    8.23    0.25
  -3   4  -4    8.11    0.41
  -3   4  -4    8.37    0.29
  -3   4  -4    8.36    0.29
  -3   4  -4    8.19    0.26
   3  -4   4    8.34    0.25
   3  -4   4    8.74    0.25
   3  -4   4    7.86    0.32
  -4   4  -4    2.42    0.09
  -4   4  -4    2.38    0.08
   4  -4   4    2.55    0.10
   4  -4   4    2.44    0.08
   6   3  -4    1.28    0.08
   5   3  -4   13.87    0.43
   5   3  -4   14.25    0.49
   4   3  -4   30.05    0.83
   4   3  -4   29.37    0.89
   3   3  -4   72.20    1.92
   3   3  -4   72.12    2.04
   3   3  -4   67.64    1.84
   3   3  -4   71.18    1.86
   3   3  -4   69.31    1.85
  -3  -3   4   71.34    1.86
   2   3  -4    3.87    0.18
   2   3  -4    3.52    0.25
   2   3  -4    4.00    0.20
   2   3  -4    3.62    0.16
   2   3  -4    3.87    0.16
  -2  -3   4    3.93    0.15
  -2  -3   4    3.95    0.13
  -2  -3   4    3.69    0.13
   1   3  -4   39.75    1.07
   1   3  -4   38.77    1.19
   1   3  -4   40.03    1.11
   1   3  -4   39.55    1.09
   1   3  -4   39.96    1.16
  -1  -3   4   38.57    1.05
  -1  -3   4   41.36    1.07
  -1  -3   4   40.55    1.09
  -1  -3   4   41.38    1.05
  -1  -3   4   39.18    1.13
  -1  -3   4   39.91    1.08
   0   3  -4    5.48    0.22
   0   3  -4    5.74    0.28
   0   3  -4    5.50    0.28
   0   3  -4    5.09    0.20
   0   3  -4    5.33    0.23
   0  -3   4    5.61    0.19
   0  -3   4    5.29    0.21
   0  -3   4    5.37    0.18
   0  -3   4    5.31    0.20
   0  -3   4    4.97    0.18
   0  -3   4    5.26    0.25
   0  -3   4    5.47    0.22
  -1   3  -4   23.70    0.64
  -1   3  -4   23.37    0.76
  -1   3  -4   24.36    0.67
  -1   3  -4   23.04    0.66
  -1   3  -4   23.94    0.69
  -1   3  -4   23.97    0.79
  -1   3  -4   23.93    0.68
   1  -3   4   23.67    0.65
   1  -3   4   24.95    0.66
   1  -3   4   25.69    0.73
   1  -3   4   24.42    0.74
   1  -3   4   24.20    0.69
  -2   3  -4   38.62    1.03
  -2   3  -4   38.19    1.17
  -2   3  -4   39.11    1.02
  -2   3  -4   39.07    1.14
  -2   3  -4   35.86    1.04
  -2   3  -4   38.59    1.01
  -2   3  -4   38.75    1.06
  -2   3  -4   39.51    1.03
  -2   3  -4   38.80    1.05
   2  -3   4   39.43    1.11
   2  -3   4   36.55    1.02
   2  -3   4   37.18    1.06
   2  -3   4   38.27    1.02
  -3   3  -4   19.32    0.57
  -3   3  -4   19.26    0.52
  -3   3  -4   18.50    0.66
  -3   3  -4   19.59    0.55
  -3   3  -4   18.42    0.53
  -3   3  -4   18.07    0.63
  -3   3  -4   18.81    0.51
  -3   3  -4   18.49    0.54
   3  -3   4   18.40    0.60
   3  -3   4   18.84    0.56
   3  -3   4   18.79    0.52
   3  -3   4   18.40    0.52
  -4   3  -4   11.01    0.30
  -4   3  -4   10.76    0.33
  -4   3  -4   11.42    0.49
  -4   3  -4   10.36    0.34
  -4   3  -4   10.53    0.33
  -4   3  -4   11.18    0.31
   4  -3   4    9.52    0.37
   4  -3   4   10.53    0.29
   4  -3   4   10.89    0.31
  -5   3  -4    1.50    0.06
   5  -3   4    1.48    0.06
   6   2  -4   12.35    0.34
   6   2  -4   11.66    0.32
   6   2  -4   11.72    0.36
   5   2  -4   34.56    0.93
   5   2  -4   33.62    0.90
   5   2  -4   33.75    0.88
  -5  -2   4   34.10    0.87
  -5  -2   4   31.74    0.90
   4   2  -4    9.91    0.29
   4   2  -4   10.56    0.40
   4   2  -4   10.86    0.34
  -4  -2   4   10.41    0.37
  -4  -2   4   10.26    0.29
   3   2  -4   13.83    0.53
   3   2  -4   13.62    0.45
   3   2  -4   12.65    0.39
  -3  -2   4   12.08    0.44
  -3  -2   4   11.96    0.43
  -3  -2   4   12.40    0.37
   2   2  -4  202.86    5.22
  -2  -2   4  202.60    5.04
  -2  -2   4  192.52    5.04
  -2  -2   4  190.50    5.06
  -2  -2   4  198.11    5.14
   1   2  -4  593.64   14.57
   1   2  -4  529.52   14.60
  -1  -2   4  566.99   14.53
  -1  -2   4  574.89   14.53
  -1  -2   4  578.70   14.47
  -1  -2   4  580.59   14.50
  -1  -2   4  550.97   14.47
   0   2  -4   41.01    1.17
   0   2  -4   40.47    1.18
   0  -2   4   40.89    1.09
   0  -2   4   40.92    1.11
   0  -2   4   40.26    1.14
   0  -2   4   41.17    1.09
   0  -2   4   41.56    1.08
   0  -2   4   41.94    1.09
  -1   2  -4    6.47    0.28
  -1   2  -4    6.29    0.23
  -1   2  -4    5.98    0.29
   1  -2   4    6.44    0.20
   1  -2   4    6.57    0.21
   1  -2   4    6.42    0.22
   1  -2   4    6.62    0.23
   1  -2   4    6.36    0.26
   1  -2   4    6.55    0.24
  -2   2  -4   19.49    0.64
  -2   2  -4   18.33    0.68
  -2   2  -4   19.03    0.62
  -2   2  -4   18.75    0.55
  -2   2  -4   18.28    0.55
  -2   2  -4   18.48    0.51
   2  -2   4   20.01    0.56
   2  -2   4   18.72    0.59
  -3   2  -4    1.50    0.10
  -3   2  -4    1.43    0.12
  -3   2  -4    1.62    0.09
  -3   2  -4    1.62    0.09
  -3   2  -4    1.45    0.16
  -3   2  -4    1.56    0.08
  -3   2  -4    1.47    0.17
  -3   2  -4    1.50    0.11
   3  -2   4    1.44    0.08
   3  -2   4    1.44    0.08
   3  -2   4    1.57    0.14
   3  -2   4    1.50    0.08
   3  -2   4    1.61    0.11
  -4   2  -4    7.55    0.26
  -4   2  -4    6.90    0.27
  -4   2  -4    7.55    0.24
  -4   2  -4    7.57    0.23
  -4   2  -4    7.22    0.35
  -4   2  -4    7.74    0.24
  -4   2  -4    7.26    0.26
  -4   2  -4    7.43    0.34
   4  -2   4    7.83    0.24
   4  -2   4    7.39    0.27
   4  -2   4    8.05    0.30
  -5   2  -4    6.52    0.22
  -5   2  -4    6.27    0.21
  -5   2  -4    6.51    0.19
  -5   2  -4    6.85    0.20
  -5   2  -4    5.93    0.22
   5  -2   4    6.87    0.20
   5  -2   4    6.57    0.19
   6   1  -4    0.43    0.06
   6   1  -4    0.38    0.04
   6   1  -4    0.43    0.04
  -6  -1   4    0.48    0.05
   5   1  -4   71.37    1.86
   5   1  -4   70.12    1.87
   5   1  -4   72.70    1.91
  -5  -1   4   73.98    1.93
  -5  -1   4   73.22    1.86
  -5  -1   4   70.38    1.90
  -5  -1   4   71.55    1.86
   4   1  -4    5.67    0.20
   4   1  -4    6.00    0.23
   4   1  -4    5.98    0.19
   4   1  -4    5.80    0.21
  -4  -1   4    6.08    0.19
  -4  -1   4    5.93    0.17
  -4  -1   4    6.03    0.20
  -4  -1   4    6.28    0.27
   3   1  -4    5.38    0.26
   3   1  -4    5.34    0.20
  -3  -1   4    5.04    0.16
  -3  -1   4    5.23    0.16
  -3  -1   4    5.12    0.22
  -3  -1   4    5.25    0.25
  -2  -1   4   72.10    1.94
  -2  -1   4   75.68    1.93
  -2  -1   4   75.16    1.93
  -2  -1   4   76.48    2.01
  -2  -1   4   75.54    2.01
  -1  -1   4  102.73    2.70
  -1  -1   4  103.44    2.63
  -1  -1   4   99.97    2.63
  -1  -1   4  103.40    2.64
   0   1  -4   48.25    1.34
   0   1  -4   52.39    1.41
   0  -1   4   48.64    1.27
   0  -1   4   47.60    1.28
   0  -1   4   47.78    1.27
   0  -1   4   47.83    1.27
  -1   1  -4   20.51    0.65
  -1   1  -4   20.60    0.63
   1  -1   4   20.21    0.62
   1  -1   4   20.63    0.59
   1  -1   4   21.66    0.59
   1  -1   4   21.38    0.58
   1  -1   4   22.14    0.57
  -2   1  -4  137.46    3.62
  -2   1  -4  135.40    3.62
  -2   1  -4  138.19    3.59
   2  -1   4  141.36    3.58
   2  -1   4  132.87    3.54
  -3   1  -4   11.22    0.40
  -3   1  -4   11.28    0.46
  -3   1  -4   10.88    0.32
  -3   1  -4   10.38    0.42
  -3   1  -4   11.23    0.35
  -3   1  -4   10.85    0.35
   3  -1   4   11.51    0.35
   3  -1   4   11.74    0.39
  -4   1  -4    5.90    0.20
  -4   1  -4    5.68    0.22
  -4   1  -4    5.59    0.19
  -4   1  -4    5.53    0.27
  -4   1  -4    5.80    0.22
  -4   1  -4    5.91    0.29
   4  -1   4    5.81    0.18
   4  -1   4    5.61    0.22
   4  -1   4    5.70    0.25
   4  -1   4    5.69    0.18
   4  -1   4    5.95    0.20
  -5   1  -4    4.53    0.18
  -5   1  -4    4.74    0.19
  -5   1  -4    4.52    0.18
  -5   1  -4    4.71    0.16
  -5   1  -4    4.50    0.15
   5  -1   4    4.70    0.14
   5  -1   4    4.53    0.16
   5  -1   4    4.53    0.21
   5  -1   4    4.71    0.15
  -6   1  -4   11.63    0.32
  -6   1  -4   11.45    0.34
  -6   1  -4   11.33    0.32
   6  -1   4   11.63    0.32
   6  -1   4   11.84    0.31
   6   0  -4    6.75    0.18
   6   0  -4    6.55    0.19
  -6   0   4    5.47    0.29
  -6   0   4    6.29    0.19
   5   0  -4   25.17    0.68
   5   0  -4   25.24    0.72
   5   0  -4   25.74    0.66
  -5   0   4   24.11    0.67
  -5   0   4   24.99    0.69
  -5   0   4   24.14    0.67
  -5   0   4   24.00    0.77
  -5   0   4   25.66    0.74
   4   0  -4   41.78    1.12
   4   0  -4   40.97    1.06
   4   0  -4   38.65    1.08
   4   0  -4   39.03    1.07
  -4   0   4   40.30    1.06
  -4   0   4   40.42    1.13
  -4   0   4   41.87    1.17
  -4   0   4   40.06    1.10
  -4   0   4   38.41    1.08
  -4   0   4   41.09    1.06
   3   0  -4    0.32    0.07
  -3   0   4    0.28    0.03
  -3   0   4    0.45    0.11
  -3   0   4    0.29    0.05
  -3   0   4    0.28    0.07
  -3   0   4    0.26    0.05
   2   0  -4   91.45    2.46
  -2   0   4   94.12    2.46
  -2   0   4   94.01    2.46
  -2   0   4   95.00    2.40
  -2   0   4   96.49    2.40
  -2   0   4   91.27    2.38
  -2   0   4   90.45    2.40
   1   0  -4   85.25    2.25
  -1   0   4   86.99    2.20
  -1   0   4   83.19    2.20
  -1   0   4   84.78    2.20
  -1   0   4   85.37    2.25
   0   0  -4   64.59    1.77
   0   0   4   68.23    1.74
   0   0   4   67.77    1.74
   0   0   4   67.71    1.75
   0   0   4   68.40    1.78
  -1   0  -4    5.07    0.20
  -1   0  -4    5.35    0.22
  -1   0  -4    5.09    0.20
   1   0   4    5.00    0.17
   1   0   4    4.97    0.16
   1   0   4    5.25    0.18
   1   0   4    5.00    0.17
   1   0   4    5.00    0.16
  -2   0  -4  508.43   13.25
  -2   0  -4  548.72   13.30
  -2   0  -4  507.32   13.17
  -2   0  -4  532.15   13.21
  -2   0  -4  512.60   13.21
  -2   0  -4  482.49   13.17
  -2   0  -4  502.48   13.23
   2   0   4  530.06   13.20
   2   0   4  517.07   13.17
   2   0   4  523.67   13.20
  -3   0  -4  348.98    9.30
  -3   0  -4  368.52    9.26
  -3   0  -4  373.28    9.35
  -3   0  -4  343.98    9.25
  -3   0  -4  349.24    9.29
  -3   0  -4  373.96    9.25
  -3   0  -4  361.23    9.30
  -3   0  -4  363.93    9.32
   3   0   4  365.23    9.26
   3   0   4  371.06    9.29
  -4   0  -4    6.95    0.32
  -4   0  -4    6.94    0.25
  -4   0  -4    6.58    0.22
  -4   0  -4    6.74    0.29
  -4   0  -4    6.93    0.29
  -4   0  -4    7.30    0.24
   4   0   4    6.76    0.22
   4   0   4    6.76    0.21
   4   0   4    7.16    0.21
   4   0   4    7.37    0.23
   4   0   4    6.72    0.27
   4   0   4    7.30    0.25
  -5   0  -4   24.96    0.72
  -5   0  -4   25.80    0.68
  -5   0  -4   25.32    0.71
  -5   0  -4   25.11    0.71
  -5   0  -4   24.23    0.78
   5   0   4   24.54    0.67
   5   0   4   24.74    0.74
   5   0   4   25.16    0.68
   5   0   4   25.92    0.67
   5   0   4   25.80    0.69
  -6   0  -4    0.50    0.06
  -6   0  -4    0.40    0.05
  -6   0  -4    0.37    0.05
  -6   0  -4    0.42    0.05
  -6   0  -4    0.33    0.05
   6   0   4    0.47    0.04
   6   0   4    0.48    0.05
   6   0   4    0.45    0.04
   6   0   4    0.45    0.05
   6  -1  -4    0.85    0.04
   6  -1  -4    0.88    0.04
   5  -1  -4    2.76    0.11
   5  -1  -4    2.57    0.11
   5  -1  -4    2.67    0.10
   5  -1  -4    2.67    0.13
  -5   1   4    2.57    0.12
  -5   1   4    2.50    0.11
  -5   1   4    2.66    0.18
  -5   1   4    2.59    0.16
  -5   1   4    2.72    0.11
   4  -1  -4   38.28    1.04
   4  -1  -4   38.23    1.02
   4  -1  -4   38.39    1.04
   4  -1  -4   40.13    1.08
   4  -1  -4   37.81    1.05
  -4   1   4   40.08    1.10
  -4   1   4   40.10    1.05
  -4   1   4   38.95    1.03
  -4   1   4   38.11    1.09
  -4   1   4   38.05    1.14
  -4   1   4   38.66    1.14
   3  -1  -4   27.63    0.72
   3  -1  -4   25.91    0.74
   3  -1  -4   26.55    0.77
   3  -1  -4   28.48    0.77
  -3   1   4   27.18    0.72
  -3   1   4   26.53    0.75
  -3   1   4   26.80    0.72
  -3   1   4   26.43    0.83
  -3   1   4   26.80    0.79
  -3   1   4   27.59    0.76
  -3   1   4   27.31    0.82
   2  -1  -4  246.86    6.31
   2  -1  -4  236.68    6.27
  -2   1   4  241.88    6.22
  -2   1   4  243.61    6.26
  -2   1   4  248.07    6.26
  -2   1   4  248.73    6.29
  -2   1   4  250.73    6.25
  -2   1   4  234.51    6.30
   1  -1  -4  150.47    3.93
   1  -1  -4  153.09    3.91
  -1   1   4  149.13    3.87
  -1   1   4  145.89    3.85
  -1   1   4  149.46    3.84
  -1   1   4  149.59    3.86
  -1   1   4  149.98    3.89
  -1   1   4  154.29    3.86
   0  -1  -4    7.61    0.29
   0  -1  -4    8.14    0.27
   0   1   4    8.25    0.27
   0   1   4    8.27    0.24
   0   1   4    8.44    0.27
   0   1   4    8.25    0.24
   0   1   4    8.08    0.24
  -1  -1  -4   77.74    2.07
  -1  -1  -4   77.87    2.05
  -1  -1  -4   79.61    2.04
   1   1   4   77.91    2.01
   1   1   4   76.16    2.00
   1   1   4   76.45    2.00
  -2  -1  -4   44.80    1.17
  -2  -1  -4   43.04    1.14
  -2  -1  -4   41.75    1.19
  -2  -1  -4   41.09    1.17
  -2  -1  -4   43.27    1.16
   2   1   4   41.59    1.14
   2   1   4   44.17    1.12
  -3  -1  -4   63.54    1.67
  -3  -1  -4   63.29    1.64
  -3  -1  -4   62.90    1.69
  -3  -1  -4   63.10    1.70
   3   1   4   60.17    1.66
   3   1   4   61.38    1.68
  -4  -1  -4   29.30    0.80
  -4  -1  -4   28.18    0.83
  -4  -1  -4   28.33    0.79
  -4  -1  -4   29.81    0.88
  -4  -1  -4   29.59    0.86
   4   1   4   28.17    0.76
   4   1   4   28.64    0.77
   4   1   4   27.13    0.76
   4   1   4   29.39    0.82
  -5  -1  -4   61.29    1.56
  -5  -1  -4   55.75    1.65
  -5  -1  -4   57.62    1.56
  -5  -1  -4   61.73    1.56
  -5  -1  -4   59.46    1.64
   5   1   4   54.91    1.53
   5   1   4   57.60    1.53
   5   1   4   57.68    1.52
   5   1   4   57.64    1.53
   5   1   4   58.25    1.52
   5   1   4   60.25    1.59
  -6  -1  -4    7.11    0.25
  -6  -1  -4    7.41    0.24
  -6  -1  -4    6.61    0.30
  -6  -1  -4    7.28    0.25
  -6  -1  -4    7.55    0.22
   6   1   4    6.96    0.22
   6   1   4    7.33    0.21
   6   1   4    7.23    0.21
  -7  -1  -4    0.43    0.06
   7   1   4    0.45    0.03
   5  -2  -4    2.42    0.09
   5  -2  -4    2.34    0.08
   5  -2  -4    2.38    0.11
   5  -2  -4    2.40    0.10
  -5   2   4    2.39    0.15
  -5   2   4    2.28    0.10
  -5   2   4    2.32    0.11
   4  -2  -4   11.96    0.36
   4  -2  -4   11.99    0.39
   4  -2  -4   11.77    0.35
   4  -2  -4   11.89    0.34
  -4   2   4   12.05    0.37
  -4   2   4   12.83    0.46
  -4   2   4   11.59    0.36
  -4   2   4   13.70    0.59
  -4   2   4   12.12    0.42
  -4   2   4   11.93    0.36
  -4   2   4   12.34    0.37
  -4   2   4   11.24    0.41
   3  -2  -4    4.56    0.15
   3  -2  -4    4.19    0.19
   3  -2  -4    3.96    0.16
   3  -2  -4    4.53    0.16
   3  -2  -4    4.08    0.13
  -3   2   4    3.96    0.15
  -3   2   4    4.12    0.23
  -3   2   4    3.77    0.19
  -3   2   4    3.95    0.18
  -3   2   4    4.23    0.15
  -3   2   4    4.01    0.21
  -3   2   4    3.96    0.16
  -3   2   4    3.78    0.23
  -3   2   4    4.00    0.17
   2  -2  -4   51.01    1.37
   2  -2  -4   48.41    1.40
  -2   2   4   49.84    1.32
  -2   2   4   49.64    1.40
  -2   2   4   50.96    1.43
  -2   2   4   52.16    1.40
  -2   2   4   52.82    1.37
  -2   2   4   50.75    1.37
  -2   2   4   49.18    1.32
  -2   2   4   50.87    1.42
  -2   2   4   50.02    1.35
   1  -2  -4  195.19    5.24
   1  -2  -4  202.42    5.26
  -1   2   4  198.30    5.21
  -1   2   4  199.98    5.23
  -1   2   4  218.67    5.22
  -1   2   4  200.36    5.24
  -1   2   4  206.99    5.20
  -1   2   4  206.11    5.19
  -1   2   4  193.55    5.18
   0  -2  -4   47.94    1.28
   0  -2  -4   48.60    1.36
   0  -2  -4   49.32    1.32
   0  -2  -4   49.82    1.34
   0   2   4   50.01    1.30
   0   2   4   47.62    1.30
   0   2   4   49.80    1.29
   0   2   4   49.23    1.32
   0   2   4   49.29    1.30
   0   2   4   48.18    1.28
  -1  -2  -4   77.92    2.21
  -1  -2  -4   84.26    2.19
  -1  -2  -4   83.62    2.23
  -1  -2  -4   84.42    2.21
   1   2   4   82.49    2.12
   1   2   4   83.87    2.17
   1   2   4   85.72    2.16
  -2  -2  -4   89.49    2.29
  -2  -2  -4   86.17    2.25
  -2  -2  -4   84.51    2.30
  -2  -2  -4   88.61    2.32
  -2  -2  -4   84.68    2.29
   2   2   4   85.50    2.25
   2   2   4   87.48    2.25
  -3  -2  -4  133.51    3.55
  -3  -2  -4  133.92    3.56
  -3  -2  -4  139.79    3.53
  -3  -2  -4  136.45    3.55
  -3  -2  -4  133.50    3.49
   3   2   4  134.81    3.55
   3   2   4  134.89    3.48
  -4  -2  -4    1.56    0.14
  -4  -2  -4    1.66    0.10
  -4  -2  -4    1.75    0.16
  -4  -2  -4    1.55    0.09
  -4  -2  -4    1.55    0.12
   4   2   4    1.41    0.07
   4   2   4    1.67    0.09
   4   2   4    1.51    0.08
   4   2   4    1.52    0.10
  -5  -2  -4   13.58    0.41
  -5  -2  -4   13.74    0.49
  -5  -2  -4   13.85    0.49
  -5  -2  -4   13.85    0.50
  -5  -2  -4   13.34    0.41
   5   2   4   13.41    0.38
   5   2   4   13.66    0.39
   5   2   4   13.39    0.39
   5   2   4   13.06    0.40
   5   2   4   13.27    0.39
   5   2   4   13.39    0.37
  -6  -2  -4   33.95    0.93
  -6  -2  -4   34.35    0.93
  -6  -2  -4   34.27    0.93
  -6  -2  -4   33.41    1.00
   6   2   4   34.04    0.90
   6   2   4   33.00    0.94
   6   2   4   33.11    0.89
   6   2   4   33.69    0.89
   6   2   4   34.51    0.89
  -7  -2  -4    2.17    0.08
   7   2   4    2.17    0.08
  -5   3   4   12.19    0.35
   4  -3  -4    0.24    0.04
   4  -3  -4    0.24    0.05
   4  -3  -4    0.33    0.05
  -4   3   4    0.37    0.10
  -4   3   4    0.33    0.06
  -4   3   4    0.34    0.05
  -4   3   4    0.34    0.08
   3  -3  -4   19.50    0.53
   3  -3  -4   18.73    0.52
   3  -3  -4   18.17    0.52
   3  -3  -4   17.63    0.52
   3  -3  -4   18.48    0.56
  -3   3   4   18.89    0.59
  -3   3   4   17.43    0.52
  -3   3   4   18.38    0.52
  -3   3   4   19.29    0.54
  -3   3   4   19.11    0.63
  -3   3   4   18.75    0.63
  -3   3   4   18.32    0.54
   2  -3  -4   20.85    0.62
   2  -3  -4   21.19    0.61
   2  -3  -4   22.66    0.62
   2  -3  -4   22.40    0.62
   2  -3  -4   23.22    0.66
  -2   3   4   22.68    0.72
  -2   3   4   22.71    0.64
  -2   3   4   23.15    0.67
  -2   3   4   22.94    0.71
  -2   3   4   22.27    0.62
  -2   3   4   21.61    0.61
  -2   3   4   22.92    0.63
   1  -3  -4   27.94    0.80
   1  -3  -4   27.58    0.81
  -1   3   4   28.60    0.80
  -1   3   4   26.27    0.77
  -1   3   4   27.24    0.81
  -1   3   4   26.79    0.82
  -1   3   4   26.74    0.74
  -1   3   4   27.46    0.83
   0  -3  -4    7.13    0.31
   0  -3  -4    7.14    0.28
   0  -3  -4    7.10    0.24
   0  -3  -4    7.40    0.29
   0   3   4    7.97    0.24
   0   3   4    7.47    0.28
   0   3   4    7.22    0.29
   0   3   4    7.38    0.28
  -1  -3  -4  148.36    3.89
  -1  -3  -4  147.10    3.98
  -1  -3  -4  154.51    3.95
  -1  -3  -4  156.87    3.97
  -1  -3  -4  147.85    3.93
  -1  -3  -4  145.84    3.90
   1   3   4  150.21    3.93
   1   3   4  157.86    3.90
  -2  -3  -4  558.46   14.12
  -2  -3  -4  547.83   14.15
  -2  -3  -4  550.48   14.16
  -2  -3  -4  565.78   14.23
  -2  -3  -4  550.94   14.14
   2   3   4  545.80   14.11
   2   3   4  548.28   14.21
  -3  -3  -4    1.88    0.15
  -3  -3  -4    2.00    0.11
  -3  -3  -4    1.82    0.10
  -3  -3  -4    2.00    0.16
  -3  -3  -4    1.88    0.13
  -3  -3  -4    2.24    0.17
   3   3   4    1.86    0.16
   3   3   4    1.95    0.14
   3   3   4    2.10    0.14
   3   3   4    1.81    0.10
  -4  -3  -4    8.00    0.26
  -4  -3  -4    7.66    0.33
  -4  -3  -4    7.93    0.26
  -4  -3  -4    8.13    0.33
  -4  -3  -4    7.92    0.33
  -4  -3  -4    7.25    0.29
   4   3   4    7.55    0.23
   4   3   4    8.11    0.35
   4   3   4    8.68    0.25
   4   3   4    7.56    0.23
   4   3   4    8.10    0.25
   4   3   4    7.69    0.24
  -5  -3  -4    1.27    0.10
  -5  -3  -4    1.21    0.09
  -5  -3  -4    1.19    0.16
  -5  -3  -4    1.05    0.14
  -5  -3  -4    1.14    0.15
   5   3   4    1.23    0.09
   5   3   4    1.26    0.08
   5   3   4    1.23    0.07
   5   3   4    1.27    0.08
   5   3   4    1.11    0.07
  -6  -3  -4    1.59    0.10
  -6  -3  -4    1.49    0.10
  -6  -3  -4    1.72    0.17
   6   3   4    1.54    0.08
   6   3   4    1.49    0.07
   6   3   4    1.46    0.08
   6   3   4    1.40    0.07
   6   3   4    1.39    0.09
  -7  -3  -4    4.20    0.13
  -7  -3  -4    4.03    0.14
  -7  -3  -4    3.91    0.16
   7   3   4    4.42    0.14
   4  -4  -4    0.41    0.04
  -4   4   4    0.37    0.05
  -4   4   4    0.33    0.09
  -4   4   4    0.44    0.06
   3  -4  -4    8.01    0.26
   3  -4  -4    8.25    0.25
   3  -4  -4    8.29    0.28
  -3   4   4    8.09    0.27
  -3   4   4    7.99    0.31
  -3   4   4    7.94    0.25
  -3   4   4    8.21    0.27
  -3   4   4    8.32    0.33
   2  -4  -4   12.46    0.38
   2  -4  -4   12.62    0.38
   2  -4  -4   12.71    0.41
  -2   4   4   13.38    0.39
  -2   4   4   13.04    0.47
  -2   4   4   12.76    0.37
  -2   4   4   12.46    0.47
  -2   4   4   12.63    0.44
  -2   4   4   12.85    0.40
   1  -4  -4   18.33    0.51
   1  -4  -4   17.39    0.51
   1  -4  -4   17.57    0.50
  -1   4   4   18.00    0.53
  -1   4   4   18.19    0.60
  -1   4   4   17.97    0.51
   0  -4  -4    1.49    0.11
   0  -4  -4    1.57    0.16
   0  -4  -4    1.40    0.08
   0   4   4    1.57    0.14
   0   4   4    1.53    0.15
   0   4   4    1.65    0.13
   0   4   4    1.84    0.11
   0   4   4    1.66    0.08
  -1  -4  -4   44.77    1.33
  -1  -4  -4   49.81    1.28
  -1  -4  -4   46.93    1.27
  -1  -4  -4   47.84    1.39
  -1  -4  -4   48.69    1.36
  -1  -4  -4   46.69    1.28
  -1  -4  -4   46.21    1.31
   1   4   4   49.35    1.33
   1   4   4   47.31    1.34
   1   4   4   47.22    1.27
   1   4   4   48.74    1.34
   1   4   4   46.27    1.33
  -2  -4  -4   12.94    0.47
  -2  -4  -4   12.41    0.38
  -2  -4  -4   12.50    0.41
  -2  -4  -4   12.64    0.39
  -2  -4  -4   11.98    0.44
  -2  -4  -4   12.12    0.43
   2   4   4   12.34    0.38
   2   4   4   12.39    0.45
   2   4   4   12.21    0.34
   2   4   4   13.14    0.44
   2   4   4   11.48    0.36
   2   4   4   11.79    0.35
   2   4   4   12.28    0.42
  -3  -4  -4   24.27    0.76
  -3  -4  -4   24.01    0.74
  -3  -4  -4   24.00    0.73
  -3  -4  -4   23.92    0.67
  -3  -4  -4   24.20    0.70
  -3  -4  -4   25.01    0.68
   3   4   4   22.91    0.65
   3   4   4   21.18    0.65
   3   4   4   23.70    0.64
   3   4   4   22.89    0.66
   3   4   4   23.38    0.77
   3   4   4   23.32    0.71
   3   4   4   23.94    0.73
  -4  -4  -4   15.10    0.45
  -4  -4  -4   14.71    0.48
  -4  -4  -4   14.58    0.53
  -4  -4  -4   15.77    0.52
  -4  -4  -4   14.78    0.45
  -4  -4  -4   15.53    0.55
   4   4   4   14.76    0.57
   4   4   4   15.57    0.44
   4   4   4   14.77    0.42
   4   4   4   15.03    0.43
   4   4   4   14.87    0.50
   4   4   4   14.72    0.43
  -5  -4  -4   22.71    0.64
  -5  -4  -4   21.64    0.73
  -5  -4  -4   21.73    0.71
  -5  -4  -4   22.07    0.63
  -5  -4  -4   23.34    0.73
   5   4   4   21.95    0.60
   5   4   4   22.62    0.61
   5   4   4   22.14    0.62
   5   4   4   22.84    0.62
  -6  -4  -4   13.29    0.39
  -6  -4  -4   12.81    0.40
  -6  -4  -4   12.65    0.47
   6   4   4   13.51    0.38
   6   4   4   13.41    0.37
   6   4   4   12.55    0.37
   6   4   4   13.28    0.36
   6   4   4   12.96    0.36
  -7  -4  -4    1.90    0.12
   7   4   4    2.11    0.08
   3  -5  -4    2.01    0.08
   3  -5  -4    1.94    0.08
  -3   5   4    1.82    0.09
  -3   5   4    1.93    0.08
  -3   5   4    2.04    0.10
  -3   5   4    1.70    0.12
   2  -5  -4   30.27    0.80
   2  -5  -4   29.91    0.80
   2  -5  -4   28.67    0.83
  -2   5   4   29.55    0.83
  -2   5   4   29.32    0.82
  -2   5   4   30.74    0.88
  -2   5   4   30.09    0.80
   1  -5  -4   12.44    0.36
   1  -5  -4   12.19    0.36
   1  -5  -4   11.98    0.36
  -1   5   4   12.28    0.44
  -1   5   4   11.88    0.36
  -1   5   4   11.97    0.38
  -1   5   4   12.05    0.39
   0  -5  -4    7.51    0.29
   0  -5  -4    7.47    0.32
   0  -5  -4    7.57    0.25
   0  -5  -4    7.84    0.24
   0   5   4    7.43    0.28
   0   5   4    7.60    0.25
   0   5   4    8.13    0.23
   0   5   4    7.91    0.27
   0   5   4    7.73    0.26
   0   5   4    7.20    0.32
   0   5   4    7.84    0.24
   0   5   4    7.62    0.32
  -1  -5  -4    7.18    0.32
  -1  -5  -4    6.95    0.26
  -1  -5  -4    7.10    0.24
  -1  -5  -4    6.94    0.23
  -1  -5  -4    7.13    0.25
  -1  -5  -4    6.44    0.22
   1   5   4    6.91    0.23
   1   5   4    7.53    0.32
   1   5   4    7.67    0.31
   1   5   4    7.27    0.22
   1   5   4    7.28    0.24
   1   5   4    7.36    0.22
   1   5   4    6.98    0.24
   1   5   4    7.02    0.25
  -2  -5  -4    3.68    0.17
  -2  -5  -4    3.88    0.20
  -2  -5  -4    3.60    0.17
  -2  -5  -4    3.85    0.23
  -2  -5  -4    4.04    0.15
  -2  -5  -4    3.95    0.18
   2   5   4    4.15    0.17
   2   5   4    3.81    0.15
   2   5   4    3.93    0.21
   2   5   4    3.76    0.24
   2   5   4    4.14    0.15
   2   5   4    4.13    0.24
   2   5   4    3.89    0.14
   2   5   4    4.09    0.14
   2   5   4    3.46    0.16
  -3  -5  -4   14.55    0.46
  -3  -5  -4   14.06    0.41
  -3  -5  -4   14.54    0.54
  -3  -5  -4   14.65    0.48
  -3  -5  -4   15.04    0.45
  -3  -5  -4   15.22    0.46
   3   5   4   14.97    0.45
   3   5   4   14.36    0.41
   3   5   4   14.71    0.56
   3   5   4   14.61    0.43
   3   5   4   15.14    0.53
   3   5   4   14.43    0.42
   3   5   4   14.58    0.49
   3   5   4   14.04    0.41
   3   5   4   14.83    0.44
   3   5   4   14.66    0.42
  -4  -5  -4   25.66    0.71
  -4  -5  -4   24.25    0.79
  -4  -5  -4   25.50    0.70
   4   5   4   24.96    0.74
   4   5   4   23.97    0.66
   4   5   4   25.01    0.68
   4   5   4   24.39    0.78
   4   5   4   23.06    0.68
   4   5   4   24.85    0.67
  -5  -5  -4   21.36    0.64
  -5  -5  -4   22.10    0.64
   5   5   4   22.81    0.62
   5   5   4   22.55    0.60
   5   5   4   22.85    0.61
  -6  -5  -4    7.84    0.25
   6   5   4    7.53    0.23
   6   5   4    7.53    0.24
   2  -6  -4    0.97    0.05
   2  -6  -4    1.02    0.05
  -2   6   4    1.14    0.06
  -2   6   4    1.05    0.07
  -2   6   4    1.04    0.06
   1  -6  -4    7.09    0.22
   1  -6  -4    7.08    0.22
   1  -6  -4    6.97    0.22
  -1   6   4    7.28    0.24
  -1   6   4    7.06    0.27
  -1   6   4    7.28    0.22
  -1   6   4    6.79    0.24
   0  -6  -4    8.99    0.27
   0  -6  -4    8.89    0.27
   0   6   4    8.89    0.33
   0   6   4    8.30    0.25
   0   6   4    9.00    0.27
   0   6   4    9.15    0.29
   0   6   4    8.76    0.26
  -1  -6  -4   29.07    0.91
  -1  -6  -4   28.80    0.88
  -1  -6  -4   29.27    0.81
  -1  -6  -4   30.86    0.82
   1   6   4   31.68    0.84
   1   6   4   30.84    0.82
   1   6   4   31.09    0.89
   1   6   4   30.15    0.92
   1   6   4   29.29    0.82
   1   6   4   29.82    0.80
   1   6   4   29.95    0.80
  -2  -6  -4   16.01    0.53
  -2  -6  -4   17.82    0.60
  -2  -6  -4   17.21    0.49
  -2  -6  -4   18.33    0.51
  -2  -6  -4   16.86    0.51
   2   6   4   17.17    0.51
   2   6   4   18.07    0.52
   2   6   4   17.67    0.61
   2   6   4   17.49    0.49
   2   6   4   17.82    0.56
   2   6   4   17.08    0.50
   2   6   4   17.84    0.49
   2   6   4   17.78    0.48
  -3  -6  -4    4.20    0.18
  -3  -6  -4    4.59    0.18
  -3  -6  -4    4.58    0.20
  -3  -6  -4    4.39    0.24
  -3  -6  -4    4.57    0.16
  -3  -6  -4    4.74    0.26
   3   6   4    4.80    0.16
   3   6   4    4.53    0.18
   3   6   4    4.69    0.16
   3   6   4    4.71    0.16
   3   6   4    4.74    0.22
   3   6   4    4.78    0.18
   3   6   4    4.58    0.26
   3   6   4    4.76    0.17
   3   6   4    4.75    0.19
  -4  -6  -4    4.32    0.18
  -4  -6  -4    4.37    0.18
   4   6   4    4.39    0.14
   4   6   4    4.30    0.15
   4   6   4    4.42    0.25
   4   6   4    3.97    0.14
   4   6   4    4.08    0.16
   4   6   4    4.78    0.21
   4   6   4    4.03    0.17
  -5  -6  -4    0.28    0.05
  -5  -6  -4    0.35    0.05
   5   6   4    0.34    0.04
   5   6   4    0.35    0.05
  -6  -6  -4    5.75    0.19
   6   6   4    5.42    0.18
   6   6   4    5.82    0.17
   0  -7  -4    2.10    0.09
   0  -7  -4    2.33    0.09
   0   7   4    2.12    0.08
   0   7   4    2.03    0.09
   0   7   4    2.18    0.09
   0   7   4    2.16    0.10
  -1  -7  -4   16.72    0.45
  -1  -7  -4   16.56    0.45
   1   7   4   15.81    0.44
   1   7   4   15.90    0.44
   1   7   4   16.57    0.45
   1   7   4   16.27    0.46
  -2  -7  -4    4.62    0.16
   2   7   4    4.63    0.15
   2   7   4    4.59    0.15
   2   7   4    4.73    0.16
   2   7   4    4.63    0.15
   2   7   4    4.75    0.17
   2   7   4    4.85    0.17
  -3  -7  -4    2.10    0.10
  -3  -7  -4    2.16    0.09
   3   7   4    2.16    0.11
   3   7   4    2.08    0.10
   3   7   4    2.09    0.09
   3   7   4    1.96    0.09
   3   7   4    2.12    0.08
   3   7   4    1.98    0.08
  -4  -7  -4    9.09    0.25
  -4  -7  -4    9.00    0.28
   4   7   4    9.07    0.25
   4   7   4    9.32    0.27
   4   7   4    9.03    0.26
   4   7   4    8.96    0.25
   4   7   4    8.64    0.27
   5   7   4    8.54    0.24
   5   7   4    8.46    0.26
   2   8   4    2.87    0.09
  -3  -8  -4    3.42    0.10
   3   8   4    3.40    0.10
   4   6  -5    3.91    0.13
   3   6  -5    3.07    0.16
   3   6  -5    2.95    0.11
   3   6  -5    3.10    0.12
  -3  -6   5    2.95    0.11
   2   6  -5    7.02    0.21
   2   6  -5    6.98    0.23
   2   6  -5    6.96    0.27
   2   6  -5    7.29    0.22
  -2  -6   5    7.11    0.21
  -2  -6   5    6.90    0.21
   1   6  -5    9.81    0.29
   1   6  -5    9.47    0.30
   1   6  -5    9.81    0.29
   1   6  -5    9.97    0.29
   1   6  -5    9.79    0.34
   1   6  -5    9.93    0.28
  -1  -6   5    9.58    0.28
  -1  -6   5   10.31    0.28
  -1  -6   5    9.88    0.28
   0   6  -5    0.17    0.03
   0   6  -5    0.22    0.04
   0   6  -5    0.24    0.04
   0   6  -5    0.20    0.03
   0   6  -5    0.21    0.06
   0   6  -5    0.21    0.03
   0  -6   5    0.25    0.03
   0  -6   5    0.26    0.04
  -1   6  -5    3.21    0.10
  -1   6  -5    3.03    0.11
   1  -6   5    3.29    0.10
   1  -6   5    3.20    0.10
   4   5  -5    1.96    0.09
   4   5  -5    2.01    0.15
   3   5  -5    4.27    0.18
   3   5  -5    4.25    0.22
   3   5  -5    4.72    0.17
  -3  -5   5    4.30    0.15
  -3  -5   5    4.27    0.15
   2   5  -5    4.49    0.17
   2   5  -5    4.08    0.22
   2   5  -5    4.35    0.17
   2   5  -5    4.50    0.16
   2   5  -5    4.33    0.15
  -2  -5   5    4.27    0.15
  -2  -5   5    4.24    0.15
  -2  -5   5    4.08    0.23
   1   5  -5   10.40    0.36
   1   5  -5   11.09    0.34
   1   5  -5   10.98    0.32
   1   5  -5   10.51    0.31
   1   5  -5   10.99    0.33
   1   5  -5   11.08    0.32
   1   5  -5   10.84    0.38
  -1  -5   5    9.93    0.36
  -1  -5   5   10.45    0.32
  -1  -5   5   10.72    0.32
  -1  -5   5   10.03    0.40
   0   5  -5   39.95    1.12
   0   5  -5   39.04    1.10
   0   5  -5   41.04    1.08
   0   5  -5   37.22    1.17
   0   5  -5   40.78    1.06
   0   5  -5   40.47    1.04
   0   5  -5   39.80    1.06
   0   5  -5   40.68    1.04
   0   5  -5   40.09    1.06
   0  -5   5   39.61    1.05
   0  -5   5   37.53    1.05
   0  -5   5   38.18    1.14
   0  -5   5   41.04    1.05
  -1   5  -5    6.14    0.19
  -1   5  -5    6.12    0.20
  -1   5  -5    6.22    0.20
  -1   5  -5    5.60    0.29
  -1   5  -5    6.25    0.18
  -1   5  -5    5.98    0.24
  -1   5  -5    6.34    0.22
  -1   5  -5    5.86    0.23
   1  -5   5    6.17    0.20
   1  -5   5    6.37    0.20
   1  -5   5    5.67    0.25
  -2   5  -5    5.70    0.22
  -2   5  -5    6.30    0.23
  -2   5  -5    6.54    0.19
  -2   5  -5    6.21    0.18
  -2   5  -5    6.05    0.20
  -2   5  -5    6.32    0.20
   2  -5   5    6.46    0.19
   2  -5   5    6.51    0.19
   5   4  -5    1.76    0.15
   4   4  -5    2.17    0.17
   3   4  -5    5.12    0.25
   3   4  -5    4.75    0.19
   3   4  -5    4.67    0.18
  -3  -4   5    4.79    0.15
  -3  -4   5    4.77    0.17
   2   4  -5    4.80    0.24
   2   4  -5    4.70    0.22
   2   4  -5    4.69    0.19
   2   4  -5    4.81    0.17
   2   4  -5    4.88    0.18
   2   4  -5    4.49    0.15
  -2  -4   5    4.75    0.20
  -2  -4   5    4.58    0.16
  -2  -4   5    4.48    0.19
  -2  -4   5    4.60    0.16
   1   4  -5    1.09    0.09
   1   4  -5    0.98    0.08
   1   4  -5    1.00    0.09
   1   4  -5    1.02    0.07
   1   4  -5    0.97    0.08
   1   4  -5    1.03    0.17
   1   4  -5    1.02    0.13
   1   4  -5    0.94    0.07
   1   4  -5    1.15    0.12
  -1  -4   5    0.91    0.10
  -1  -4   5    1.05    0.14
  -1  -4   5    1.00    0.10
  -1  -4   5    1.00    0.07
  -1  -4   5    1.08    0.09
  -1  -4   5    1.03    0.08
  -1  -4   5    1.01    0.07
   0   4  -5   42.11    1.13
   0   4  -5   41.58    1.15
   0   4  -5   41.35    1.22
   0   4  -5   40.57    1.09
   0   4  -5   40.72    1.09
   0   4  -5   41.52    1.07
   0   4  -5   42.09    1.11
   0   4  -5   39.71    1.23
   0   4  -5   39.06    1.07
   0   4  -5   39.97    1.09
   0   4  -5   41.41    1.10
   0  -4   5   39.29    1.12
   0  -4   5   39.19    1.12
   0  -4   5   40.58    1.14
   0  -4   5   41.58    1.08
   0  -4   5   40.26    1.08
   0  -4   5   40.53    1.12
   0  -4   5   40.49    1.17
  -1   4  -5    8.55    0.33
  -1   4  -5    8.59    0.32
  -1   4  -5    9.04    0.26
  -1   4  -5    8.57    0.39
  -1   4  -5    8.50    0.40
  -1   4  -5    8.67    0.29
  -1   4  -5    8.99    0.28
  -1   4  -5    8.67    0.29
  -1   4  -5    8.92    0.26
   1  -4   5    9.00    0.27
   1  -4   5    9.03    0.31
   1  -4   5    8.96    0.27
   1  -4   5    9.09    0.36
  -2   4  -5   17.89    0.63
  -2   4  -5   17.51    0.52
  -2   4  -5   18.50    0.54
  -2   4  -5   19.00    0.56
  -2   4  -5   18.72    0.53
  -2   4  -5   18.46    0.49
  -2   4  -5   18.22    0.49
  -2   4  -5   17.41    0.55
   2  -4   5   17.88    0.58
   2  -4   5   18.39    0.51
  -3   4  -5    2.04    0.12
  -3   4  -5    2.13    0.09
  -3   4  -5    2.02    0.10
  -3   4  -5    2.14    0.09
  -3   4  -5    2.11    0.08
   3  -4   5    2.24    0.09
  -4   4  -5    3.44    0.11
   5   3  -5    5.68    0.27
   5   3  -5    5.69    0.21
   4   3  -5   92.42    2.45
   4   3  -5   88.69    2.37
   3   3  -5   21.70    0.59
   3   3  -5   20.16    0.58
   3   3  -5   22.08    0.66
  -3  -3   5   20.16    0.59
  -3  -3   5   19.86    0.55
  -3  -3   5   20.46    0.56
   2   3  -5   98.76    2.59
   2   3  -5   96.22    2.56
   2   3  -5  101.39    2.62
   2   3  -5   95.69    2.56
  -2  -3   5   96.58    2.54
  -2  -3   5   98.72    2.56
  -2  -3   5   99.99    2.53
  -2  -3   5   99.10    2.57
   1   3  -5   57.46    1.54
   1   3  -5   57.47    1.60
   1   3  -5   50.64    1.48
   1   3  -5   56.27    1.52
   1   3  -5   54.02    1.47
  -1  -3   5   58.49    1.51
  -1  -3   5   58.01    1.47
  -1  -3   5   54.37    1.47
  -1  -3   5   57.92    1.50
  -1  -3   5   57.66    1.48
   0   3  -5   10.63    0.33
   0   3  -5   10.60    0.43
   0   3  -5   10.39    0.42
   0   3  -5   10.84    0.36
   0   3  -5   10.22    0.32
   0   3  -5   10.45    0.36
   0  -3   5   10.41    0.31
   0  -3   5   10.24    0.34
   0  -3   5   10.99    0.36
   0  -3   5   10.29    0.39
   0  -3   5   10.51    0.33
   0  -3   5   10.87    0.33
   0  -3   5   11.25    0.32
  -1   3  -5    8.48    0.27
  -1   3  -5    8.16    0.26
  -1   3  -5    8.85    0.28
  -1   3  -5    9.50    0.41
  -1   3  -5    8.77    0.32
  -1   3  -5    8.42    0.26
  -1   3  -5    8.61    0.29
  -1   3  -5    8.78    0.31
  -1   3  -5    8.45    0.26
  -1   3  -5    8.82    0.39
   1  -3   5    9.28    0.30
   1  -3   5    9.05    0.27
   1  -3   5    8.63    0.26
   1  -3   5    9.24    0.35
  -2   3  -5    3.45    0.17
  -2   3  -5    3.48    0.25
  -2   3  -5    3.18    0.12
  -2   3  -5    3.30    0.16
  -2   3  -5    3.36    0.14
  -2   3  -5    3.15    0.12
  -2   3  -5    3.12    0.23
  -2   3  -5    3.12    0.14
  -2   3  -5    3.28    0.17
  -2   3  -5    3.19    0.13
   2  -3   5    3.44    0.16
   2  -3   5    3.15    0.13
   2  -3   5    3.33    0.13
   2  -3   5    3.49    0.20
  -3   3  -5   48.11    1.31
  -3   3  -5   49.85    1.27
  -3   3  -5   48.69    1.32
  -3   3  -5   48.08    1.28
  -3   3  -5   50.26    1.29
  -3   3  -5   47.11    1.40
   3  -3   5   48.84    1.28
   3  -3   5   49.45    1.28
   3  -3   5   46.29    1.35
  -4   3  -5    0.61    0.08
  -4   3  -5    0.55    0.05
  -4   3  -5    0.54    0.05
  -4   3  -5    0.53    0.06
  -4   3  -5    0.64    0.07
  -4   3  -5    0.57    0.05
   4  -3   5    0.66    0.04
   4  -3   5    0.66    0.05
  -5   3  -5    2.90    0.09
   5  -3   5    2.82    0.11
   6   2  -5    1.58    0.09
   6   2  -5    1.69    0.07
   6   2  -5    1.50    0.06
   5   2  -5    5.84    0.18
   5   2  -5    6.20    0.22
   5   2  -5    5.61    0.19
  -5  -2   5    5.61    0.18
   4   2  -5   16.75    0.57
   4   2  -5   16.68    0.50
   4   2  -5   16.08    0.45
  -4  -2   5   16.54    0.45
   3   2  -5    6.10    0.27
   3   2  -5    5.77    0.22
   3   2  -5    5.83    0.18
  -3  -2   5    6.22    0.17
  -3  -2   5    5.49    0.26
  -3  -2   5    6.00    0.18
  -3  -2   5    6.78    0.39
   2   2  -5   14.03    0.46
  -2  -2   5   14.10    0.40
  -2  -2   5   13.56    0.39
  -2  -2   5   13.51    0.38
  -2  -2   5   13.48    0.47
   1   2  -5  100.20    2.64
   1   2  -5  103.01    2.72
  -1  -2   5   98.98    2.59
  -1  -2   5   99.39    2.62
  -1  -2   5  101.61    2.61
  -1  -2   5  102.61    2.62
   0   2  -5    7.03    0.31
   0   2  -5    6.46    0.24
   0   2  -5    6.67    0.30
   0  -2   5    6.71    0.21
   0  -2   5    6.44    0.26
   0  -2   5    6.71    0.22
   0  -2   5    6.74    0.22
   0  -2   5    6.78    0.24
   0  -2   5    6.94    0.23
  -1   2  -5    0.48    0.11
  -1   2  -5    0.35    0.09
  -1   2  -5    0.65    0.08
   1  -2   5    0.39    0.06
   1  -2   5    0.49    0.07
   1  -2   5    0.46    0.06
   1  -2   5    0.40    0.05
   1  -2   5    0.46    0.06
   1  -2   5    0.41    0.05
   1  -2   5    0.44    0.09
  -2   2  -5   17.10    0.50
  -2   2  -5   16.40    0.58
  -2   2  -5   15.75    0.46
  -2   2  -5   16.34    0.47
  -2   2  -5   16.54    0.56
  -2   2  -5   15.93    0.48
  -2   2  -5   15.58    0.44
   2  -2   5   16.99    0.53
   2  -2   5   16.01    0.49
  -3   2  -5    7.26    0.35
  -3   2  -5    7.40    0.22
  -3   2  -5    7.24    0.25
  -3   2  -5    7.58    0.24
  -3   2  -5    7.91    0.27
  -3   2  -5    7.70    0.34
  -3   2  -5    7.06    0.23
  -3   2  -5    7.22    0.27
   3  -2   5    6.92    0.26
   3  -2   5    6.82    0.23
   3  -2   5    7.63    0.22
   3  -2   5    7.56    0.30
  -4   2  -5   17.34    0.47
  -4   2  -5   17.76    0.48
  -4   2  -5   17.16    0.59
  -4   2  -5   17.25    0.48
  -4   2  -5   16.93    0.50
  -4   2  -5   16.59    0.51
  -4   2  -5   16.99    0.50
   4  -2   5   16.53    0.54
   4  -2   5   17.71    0.49
  -5   2  -5    0.41    0.06
  -5   2  -5    0.50    0.05
  -5   2  -5    0.50    0.06
  -5   2  -5    0.48    0.04
  -5   2  -5    0.34    0.05
   5  -2   5    0.37    0.03
   5  -2   5    0.38    0.04
   6   1  -5   11.67    0.33
   6   1  -5   12.06    0.32
   6   1  -5   11.66    0.38
  -6  -1   5   11.86    0.34
   5   1  -5   26.08    0.72
   5   1  -5   26.85    0.76
   5   1  -5   25.86    0.71
  -5  -1   5   26.88    0.77
  -5  -1   5   26.54    0.71
  -5  -1   5   27.56    0.71
   4   1  -5    2.12    0.09
   4   1  -5    2.23    0.10
   4   1  -5    2.24    0.13
   4   1  -5    2.10    0.11
  -4  -1   5    2.19    0.10
  -4  -1   5    2.14    0.08
  -4  -1   5    2.23    0.16
   3   1  -5    3.22    0.12
   3   1  -5    3.94    0.22
   3   1  -5    3.67    0.16
  -3  -1   5    3.43    0.20
  -3  -1   5    3.42    0.12
  -3  -1   5    3.36    0.12
  -3  -1   5    3.40    0.10
  -3  -1   5    3.39    0.18
  -2  -1   5   12.61    0.34
  -2  -1   5   13.36    0.36
  -2  -1   5   13.16    0.44
  -2  -1   5   13.29    0.36
  -2  -1   5   13.08    0.38
  -1  -1   5  289.91    7.43
  -1  -1   5  291.27    7.38
  -1  -1   5  281.37    7.37
  -1  -1   5  291.19    7.38
  -1  -1   5  287.46    7.35
   0   1  -5   70.74    1.90
   0  -1   5   70.78    1.83
   0  -1   5   69.22    1.83
   0  -1   5   70.88    1.81
   0  -1   5   71.74    1.83
   0  -1   5   67.43    1.81
  -1   1  -5   18.24    0.58
  -1   1  -5   17.73    0.59
   1  -1   5   18.01    0.53
   1  -1   5   17.67    0.54
   1  -1   5   18.59    0.50
   1  -1   5   18.67    0.51
   1  -1   5   18.17    0.49
   1  -1   5   18.32    0.52
  -2   1  -5   61.69    1.69
  -2   1  -5   65.20    1.75
  -2   1  -5   65.32    1.77
   2  -1   5   63.05    1.72
   2  -1   5   64.59    1.69
  -3   1  -5    5.54    0.32
  -3   1  -5    5.95    0.27
  -3   1  -5    5.85    0.29
  -3   1  -5    5.32    0.19
  -3   1  -5    5.54    0.18
  -3   1  -5    6.04    0.22
  -3   1  -5    5.64    0.21
   3  -1   5    5.43    0.17
   3  -1   5    5.40    0.24
   3  -1   5    5.44    0.19
   3  -1   5    5.58    0.21
  -4   1  -5    4.84    0.26
  -4   1  -5    4.87    0.20
  -4   1  -5    4.55    0.20
  -4   1  -5    4.86    0.27
  -4   1  -5    5.00    0.16
  -4   1  -5    4.89    0.17
  -4   1  -5    4.89    0.20
   4  -1   5    4.60    0.16
   4  -1   5    4.91    0.22
   4  -1   5    4.95    0.17
   4  -1   5    4.56    0.19
  -5   1  -5    2.47    0.13
  -5   1  -5    2.52    0.11
  -5   1  -5    2.32    0.12
  -5   1  -5    2.54    0.10
   5  -1   5    2.54    0.09
   5  -1   5    2.47    0.09
   5  -1   5    2.43    0.10
   5  -1   5    2.31    0.14
  -6   1  -5   10.16    0.28
  -6   1  -5    9.54    0.29
  -6   1  -5    9.93    0.27
   6  -1   5   10.28    0.28
   6  -1   5   10.20    0.27
   6   0  -5    4.29    0.13
   6   0  -5    4.36    0.14
   5   0  -5   23.99    0.68
   5   0  -5   23.96    0.67
   5   0  -5   25.28    0.71
   5   0  -5   24.42    0.66
  -5   0   5   26.01    0.73
  -5   0   5   23.52    0.66
  -5   0   5   25.25    0.67
  -5   0   5   24.66    0.75
  -5   0   5   25.21    0.68
   4   0  -5   17.28    0.47
   4   0  -5   17.60    0.53
   4   0  -5   17.02    0.48
   4   0  -5   16.89    0.49
  -4   0   5   16.93    0.47
  -4   0   5   16.89    0.56
  -4   0   5   17.54    0.54
  -4   0   5   17.10    0.57
  -4   0   5   16.05    0.50
  -4   0   5   16.97    0.47
   3   0  -5    1.68    0.12
   3   0  -5    1.65    0.08
  -3   0   5    1.74    0.12
  -3   0   5    1.83    0.07
  -3   0   5    1.75    0.14
  -3   0   5    1.73    0.08
  -3   0   5    1.93    0.10
  -3   0   5    1.77    0.09
  -3   0   5    1.69    0.16
   2   0  -5   84.82    2.30
   2   0  -5   89.25    2.35
  -2   0   5   88.19    2.27
  -2   0   5   88.41    2.34
  -2   0   5   87.81    2.26
  -2   0   5   89.89    2.35
  -2   0   5   85.30    2.27
  -2   0   5   90.56    2.28
   1   0  -5  103.69    2.72
   1   0  -5  101.90    2.74
  -1   0   5  104.90    2.73
  -1   0   5  104.41    2.68
  -1   0   5  104.91    2.68
  -1   0   5  103.01    2.67
  -1   0   5  104.06    2.66
   0   0  -5   21.07    0.63
   0   0   5   21.48    0.59
   0   0   5   22.79    0.63
   0   0   5   22.30    0.59
   0   0   5   20.89    0.57
   0   0   5   21.89    0.59
  -1   0  -5   26.99    0.77
  -1   0  -5   27.37    0.79
   1   0   5   27.52    0.73
   1   0   5   27.98    0.76
   1   0   5   27.45    0.74
   1   0   5   26.81    0.74
   1   0   5   27.18    0.73
  -2   0  -5   67.46    1.82
  -2   0  -5   68.33    1.80
  -2   0  -5   68.08    1.83
  -2   0  -5   66.14    1.82
  -2   0  -5   66.69    1.84
  -2   0  -5   68.86    1.87
  -2   0  -5   68.38    1.83
   2   0   5   69.50    1.77
   2   0   5   68.95    1.81
   2   0   5   69.57    1.78
  -3   0  -5   69.52    1.90
  -3   0  -5   67.81    1.85
  -3   0  -5   69.72    1.85
  -3   0  -5   70.93    1.82
  -3   0  -5   67.55    1.81
  -3   0  -5   68.08    1.81
  -3   0  -5   68.40    1.90
  -3   0  -5   66.94    1.85
  -3   0  -5   68.28    1.85
  -3   0  -5   66.10    1.87
   3   0   5   69.00    1.81
   3   0   5   71.30    1.84
  -4   0  -5   14.04    0.38
  -4   0  -5   13.14    0.47
  -4   0  -5   13.64    0.40
  -4   0  -5   14.17    0.47
  -4   0  -5   13.34    0.42
  -4   0  -5   13.96    0.43
   4   0   5   13.75    0.38
   4   0   5   13.31    0.42
   4   0   5   13.83    0.38
   4   0   5   13.19    0.39
   4   0   5   13.56    0.44
   4   0   5   13.44    0.40
  -5   0  -5    2.51    0.14
  -5   0  -5    2.59    0.13
  -5   0  -5    2.36    0.10
   5   0   5    2.31    0.11
   5   0   5    2.55    0.10
   5   0   5    2.58    0.10
   5   0   5    2.48    0.15
   5   0   5    2.49    0.11
   5   0   5    2.54    0.10
  -6   0  -5    3.31    0.11
  -6   0  -5    3.46    0.12
  -6   0  -5    3.21    0.13
  -6   0  -5    3.27    0.14
   6   0   5    3.39    0.11
   6   0   5    3.20    0.12
   6   0   5    3.41    0.11
   6  -1  -5    3.09    0.12
   5  -1  -5   13.55    0.38
   5  -1  -5   12.83    0.40
   5  -1  -5   13.28    0.37
   5  -1  -5   14.05    0.36
  -5   1   5   12.77    0.44
  -5   1   5   13.17    0.38
  -5   1   5   12.13    0.40
  -5   1   5   13.21    0.38
   4  -1  -5   28.48    0.75
   4  -1  -5   28.15    0.81
   4  -1  -5   28.18    0.78
   4  -1  -5   27.95    0.77
  -4   1   5   28.95    0.83
  -4   1   5   27.96    0.76
  -4   1   5   28.58    0.77
  -4   1   5   28.13    0.82
  -4   1   5   28.46    0.87
  -4   1   5   28.52    0.87
   3  -1  -5   22.45    0.65
   3  -1  -5   22.79    0.59
   3  -1  -5   20.91    0.62
   3  -1  -5   21.42    0.61
  -3   1   5   21.98    0.69
  -3   1   5   22.42    0.70
  -3   1   5   21.49    0.60
  -3   1   5   22.31    0.62
  -3   1   5   22.50    0.64
   2  -1  -5   17.37    0.51
   2  -1  -5   17.47    0.56
  -2   1   5   16.71    0.56
  -2   1   5   17.91    0.50
  -2   1   5   17.36    0.49
  -2   1   5   17.74    0.47
  -2   1   5   17.55    0.54
  -2   1   5   16.38    0.47
  -2   1   5   16.99    0.54
   1  -1  -5  216.84    5.54
   1  -1  -5  212.71    5.56
  -1   1   5  218.72    5.48
  -1   1   5  212.44    5.48
  -1   1   5  212.97    5.48
  -1   1   5  214.19    5.46
  -1   1   5  210.10    5.47
  -1   1   5  213.27    5.52
   0  -1  -5   20.97    0.66
   0  -1  -5   21.67    0.65
   0   1   5   21.70    0.59
   0   1   5   21.65    0.59
   0   1   5   21.84    0.62
   0   1   5   21.97    0.59
  -1  -1  -5   91.53    2.38
  -1  -1  -5   87.43    2.33
  -1  -1  -5   89.10    2.35
  -1  -1  -5   87.71    2.36
   1   1   5   87.48    2.29
   1   1   5   89.04    2.30
   1   1   5   87.50    2.29
   1   1   5   89.60    2.31
  -2  -1  -5   70.73    1.93
  -2  -1  -5   68.09    1.85
  -2  -1  -5   70.56    1.89
  -2  -1  -5   71.10    1.90
  -2  -1  -5   73.00    1.90
   2   1   5   70.93    1.83
   2   1   5   70.79    1.85
  -3  -1  -5  154.92    4.15
  -3  -1  -5  149.44    4.09
  -3  -1  -5  160.49    4.10
  -3  -1  -5  164.79    4.19
  -3  -1  -5  161.72    4.15
  -3  -1  -5  164.16    4.14
   3   1   5  160.57    4.11
   3   1   5  154.03    4.16
  -4  -1  -5    1.32    0.12
  -4  -1  -5    1.20    0.10
  -4  -1  -5    1.43    0.15
  -4  -1  -5    1.33    0.10
  -4  -1  -5    1.13    0.08
  -4  -1  -5    1.46    0.15
  -4  -1  -5    1.16    0.14
   4   1   5    1.28    0.07
   4   1   5    1.31    0.07
   4   1   5    1.30    0.08
   4   1   5    1.15    0.10
   4   1   5    1.20    0.06
   4   1   5    1.49    0.12
  -5  -1  -5   17.32    0.52
  -5  -1  -5   16.53    0.61
  -5  -1  -5   17.73    0.50
  -5  -1  -5   18.17    0.59
  -5  -1  -5   17.43    0.59
  -5  -1  -5   18.35    0.52
  -5  -1  -5   17.39    0.53
   5   1   5   17.18    0.47
   5   1   5   16.81    0.49
   5   1   5   17.68    0.49
   5   1   5   17.22    0.54
   5   1   5   17.48    0.48
   5   1   5   17.34    0.49
  -6  -1  -5    3.14    0.11
  -6  -1  -5    3.00    0.14
  -6  -1  -5    2.57    0.19
  -6  -1  -5    2.80    0.14
  -6  -1  -5    3.01    0.14
   6   1   5    2.88    0.10
   6   1   5    3.01    0.10
   6   1   5    2.94    0.10
   6   1   5    2.83    0.11
   5  -2  -5    1.17    0.06
   5  -2  -5    1.25    0.07
   5  -2  -5    1.21    0.05
  -5   2   5    1.31    0.11
  -5   2   5    1.17    0.07
  -5   2   5    1.11    0.07
  -5   2   5    1.18    0.07
   4  -2  -5    2.74    0.13
   4  -2  -5    2.74    0.10
   4  -2  -5    2.76    0.15
   4  -2  -5    2.54    0.11
  -4   2   5    2.68    0.12
  -4   2   5    2.77    0.12
  -4   2   5    2.84    0.19
  -4   2   5    2.78    0.17
  -4   2   5    2.76    0.13
   3  -2  -5   40.29    1.03
   3  -2  -5   39.57    1.06
   3  -2  -5   39.22    1.05
   3  -2  -5   40.46    1.10
  -3   2   5   39.16    1.16
  -3   2   5   39.18    1.15
  -3   2   5   38.22    1.08
  -3   2   5   40.49    1.05
  -3   2   5   37.04    1.10
  -3   2   5   39.58    1.11
   2  -2  -5    0.89    0.14
   2  -2  -5    0.95    0.10
  -2   2   5    0.89    0.10
  -2   2   5    0.90    0.08
  -2   2   5    0.81    0.07
  -2   2   5    1.02    0.11
  -2   2   5    1.01    0.12
  -2   2   5    1.03    0.09
  -2   2   5    1.02    0.13
  -2   2   5    1.07    0.06
  -2   2   5    0.96    0.12
   1  -2  -5  321.62    8.13
   1  -2  -5  314.72    8.15
  -1   2   5  316.68    8.09
  -1   2   5  314.50    8.11
  -1   2   5  310.73    8.12
  -1   2   5  322.05    8.07
  -1   2   5  305.19    8.05
  -1   2   5  314.49    8.04
  -1   2   5  317.46    8.04
   0  -2  -5   13.47    0.46
   0  -2  -5   13.76    0.49
   0   2   5   14.30    0.42
   0   2   5   13.22    0.40
   0   2   5   13.73    0.41
   0   2   5   15.58    0.40
   0   2   5   13.56    0.39
   0   2   5   13.83    0.44
   0   2   5   14.37    0.43
  -1  -2  -5   44.84    1.26
  -1  -2  -5   44.07    1.27
  -1  -2  -5   44.77    1.24
  -1  -2  -5   44.25    1.22
   1   2   5   45.29    1.20
   1   2   5   45.07    1.18
  -2  -2  -5   66.11    1.79
  -2  -2  -5   65.17    1.74
  -2  -2  -5   68.05    1.83
  -2  -2  -5   65.60    1.80
  -2  -2  -5   67.18    1.78
   2   2   5   65.42    1.73
  -3  -2  -5   55.58    1.56
  -3  -2  -5   54.15    1.47
  -3  -2  -5   56.69    1.48
  -3  -2  -5   57.21    1.54
  -3  -2  -5   55.23    1.51
  -3  -2  -5   55.03    1.53
   3   2   5   53.61    1.50
   3   2   5   57.12    1.53
   3   2   5   55.24    1.46
  -4  -2  -5   14.44    0.44
  -4  -2  -5   14.52    0.48
  -4  -2  -5   15.49    0.51
  -4  -2  -5   15.22    0.51
  -4  -2  -5   14.43    0.44
  -4  -2  -5   14.59    0.52
   4   2   5   14.81    0.42
   4   2   5   13.96    0.40
   4   2   5   14.75    0.42
   4   2   5   14.11    0.41
   4   2   5   14.91    0.42
  -5  -2  -5    5.30    0.21
  -5  -2  -5    5.19    0.28
  -5  -2  -5    5.53    0.28
  -5  -2  -5    5.49    0.27
  -5  -2  -5    5.03    0.18
  -5  -2  -5    5.24    0.20
   5   2   5    5.34    0.17
   5   2   5    5.23    0.18
   5   2   5    5.33    0.17
   5   2   5    5.00    0.18
   5   2   5    5.12    0.18
  -6  -2  -5   32.31    0.97
  -6  -2  -5   31.94    0.90
  -6  -2  -5   33.20    0.89
  -6  -2  -5   32.64    0.89
   6   2   5   32.48    0.85
   6   2   5   33.04    0.87
   6   2   5   30.80    0.86
   6   2   5   32.47    0.85
  -7  -2  -5    7.21    0.21
   7   2   5    7.49    0.21
   7   2   5    7.33    0.20
   4  -3  -5    3.49    0.12
   4  -3  -5    3.51    0.15
   4  -3  -5    3.64    0.14
  -4   3   5    3.36    0.19
  -4   3   5    3.59    0.16
  -4   3   5    3.23    0.14
   3  -3  -5   14.40    0.45
   3  -3  -5   14.57    0.41
   3  -3  -5   14.15    0.42
   3  -3  -5   14.57    0.42
  -3   3   5   14.83    0.52
  -3   3   5   14.63    0.43
  -3   3   5   14.29    0.43
  -3   3   5   13.57    0.41
  -3   3   5   14.21    0.47
  -3   3   5   13.70    0.50
   2  -3  -5    4.12    0.16
   2  -3  -5    4.65    0.20
   2  -3  -5    4.09    0.15
   2  -3  -5    4.57    0.23
   2  -3  -5    4.35    0.17
  -2   3   5    4.33    0.20
  -2   3   5    4.11    0.22
  -2   3   5    3.98    0.15
  -2   3   5    4.59    0.17
  -2   3   5    4.34    0.24
  -2   3   5    4.22    0.17
   1  -3  -5   86.54    2.38
   1  -3  -5   88.25    2.29
   1  -3  -5   89.65    2.37
  -1   3   5   90.28    2.36
  -1   3   5   87.68    2.38
  -1   3   5   87.29    2.29
  -1   3   5   87.77    2.37
  -1   3   5   90.81    2.33
  -1   3   5   86.54    2.36
   0  -3  -5   49.85    1.40
   0  -3  -5   48.96    1.38
   0   3   5   49.50    1.31
   0   3   5   50.79    1.37
   0   3   5   49.05    1.35
   0   3   5   49.50    1.38
  -1  -3  -5   15.70    0.44
  -1  -3  -5   15.33    0.51
  -1  -3  -5   16.30    0.49
  -1  -3  -5   15.50    0.53
  -1  -3  -5   15.07    0.46
  -1  -3  -5   15.44    0.54
   1   3   5   15.41    0.45
   1   3   5   15.30    0.53
   1   3   5   15.00    0.48
  -2  -3  -5  113.28    3.10
  -2  -3  -5  119.80    3.15
  -2  -3  -5  118.73    3.12
  -2  -3  -5  122.04    3.09
  -2  -3  -5  124.54    3.06
  -2  -3  -5  106.58    3.04
   2   3   5  113.89    3.06
   2   3   5  118.71    3.08
   2   3   5  118.45    3.04
  -3  -3  -5   16.34    0.48
  -3  -3  -5   16.60    0.51
  -3  -3  -5   16.14    0.53
  -3  -3  -5   16.46    0.55
  -3  -3  -5   15.97    0.56
  -3  -3  -5   15.11    0.46
   3   3   5   15.33    0.50
   3   3   5   15.85    0.50
   3   3   5   15.23    0.44
   3   3   5   15.68    0.54
   3   3   5   15.79    0.44
  -4  -3  -5    1.27    0.16
  -4  -3  -5    1.25    0.15
  -4  -3  -5    1.40    0.15
  -4  -3  -5    1.42    0.10
  -4  -3  -5    1.12    0.08
  -4  -3  -5    1.21    0.12
  -4  -3  -5    1.35    0.10
   4   3   5    1.35    0.07
   4   3   5    1.31    0.09
   4   3   5    1.25    0.14
   4   3   5    1.18    0.08
   4   3   5    1.15    0.07
  -5  -3  -5    2.55    0.19
  -5  -3  -5    2.59    0.13
  -5  -3  -5    2.58    0.20
  -5  -3  -5    2.60    0.14
  -5  -3  -5    2.61    0.20
   5   3   5    2.61    0.10
   5   3   5    2.51    0.11
   5   3   5    2.54    0.10
   5   3   5    2.33    0.11
   5   3   5    2.61    0.12
  -6  -3  -5    1.78    0.12
  -6  -3  -5    1.98    0.11
  -6  -3  -5    1.84    0.18
   6   3   5    2.04    0.10
   6   3   5    1.97    0.09
   6   3   5    2.00    0.08
   6   3   5    1.96    0.08
   6   3   5    2.06    0.09
  -7  -3  -5    2.96    0.12
  -7  -3  -5    3.09    0.10
   7   3   5    3.20    0.10
   7   3   5    2.80    0.09
   4  -4  -5   10.24    0.29
  -4   4   5   10.15    0.31
   3  -4  -5    6.47    0.21
   3  -4  -5    6.26    0.21
   3  -4  -5    6.52    0.23
  -3   4   5    6.47    0.22
  -3   4   5    6.23    0.22
  -3   4   5    5.90    0.27
  -3   4   5    6.41    0.24
  -3   4   5    6.21    0.20
  -3   4   5    6.91    0.28
   2  -4  -5   15.64    0.46
   2  -4  -5   16.06    0.50
   2  -4  -5   15.89    0.46
  -2   4   5   16.22    0.55
  -2   4   5   15.30    0.46
  -2   4   5   16.47    0.45
  -2   4   5   16.15    0.50
  -2   4   5   14.86    0.51
  -2   4   5   16.16    0.47
   1  -4  -5   27.80    0.76
   1  -4  -5   28.15    0.77
   1  -4  -5   26.68    0.76
  -1   4   5   28.11    0.81
  -1   4   5   28.55    0.76
  -1   4   5   28.49    0.78
  -1   4   5   27.99    0.86
   0  -4  -5   26.02    0.73
   0  -4  -5   25.53    0.75
   0  -4  -5   25.16    0.69
   0  -4  -5   23.46    0.77
   0   4   5   23.65    0.77
   0   4   5   26.57    0.71
   0   4   5   25.34    0.76
   0   4   5   25.35    0.77
   0   4   5   24.10    0.70
   0   4   5   25.04    0.70
  -1  -4  -5   13.05    0.41
  -1  -4  -5   13.96    0.40
  -1  -4  -5   13.61    0.49
  -1  -4  -5   13.86    0.41
  -1  -4  -5   13.97    0.42
  -1  -4  -5   13.30    0.47
  -1  -4  -5   13.19    0.46
   1   4   5   13.67    0.47
   1   4   5   13.86    0.47
   1   4   5   14.24    0.46
   1   4   5   13.67    0.47
   1   4   5   13.29    0.41
  -2  -4  -5  106.97    2.90
  -2  -4  -5  105.78    2.80
  -2  -4  -5  109.01    2.83
  -2  -4  -5  105.69    2.85
  -2  -4  -5  106.62    2.88
  -2  -4  -5  110.93    2.79
   2   4   5  106.90    2.79
   2   4   5  109.78    2.85
   2   4   5  109.01    2.87
   2   4   5  104.67    2.75
   2   4   5  106.30    2.84
   2   4   5  103.09    2.76
  -3  -4  -5   33.58    1.04
  -3  -4  -5   33.78    1.02
  -3  -4  -5   34.41    0.95
  -3  -4  -5   34.24    0.94
  -3  -4  -5   35.14    1.01
  -3  -4  -5   34.48    0.98
   3   4   5   32.82    0.92
   3   4   5   32.26    0.90
   3   4   5   33.76    0.91
   3   4   5   35.32    1.00
   3   4   5   33.53    0.93
   3   4   5   34.99    0.91
   3   4   5   34.43    1.04
   3   4   5   33.11    0.98
  -4  -4  -5   13.74    0.51
  -4  -4  -5   14.09    0.43
  -4  -4  -5   13.78    0.53
  -4  -4  -5   14.77    0.51
  -4  -4  -5   13.99    0.44
  -4  -4  -5   14.03    0.47
   4   4   5   13.86    0.40
   4   4   5   14.24    0.41
   4   4   5   14.01    0.47
   4   4   5   13.65    0.39
   4   4   5   13.61    0.53
  -5  -4  -5    0.80    0.14
  -5  -4  -5    1.03    0.09
  -5  -4  -5    0.96    0.09
  -5  -4  -5    0.83    0.14
  -5  -4  -5    0.88    0.14
   5   4   5    0.93    0.07
   5   4   5    0.82    0.06
   5   4   5    0.98    0.07
   5   4   5    0.88    0.08
   5   4   5    0.94    0.06
  -6  -4  -5    8.48    0.36
  -6  -4  -5    8.78    0.29
  -6  -4  -5    8.36    0.29
   6   4   5    8.83    0.26
   6   4   5    8.99    0.27
   6   4   5    8.99    0.25
   6   4   5    9.18    0.26
   6   4   5    8.65    0.25
  -7  -4  -5    0.35    0.05
   7   4   5    0.46    0.04
   3  -5  -5    4.90    0.16
   3  -5  -5    4.90    0.15
  -3   5   5    4.89    0.16
  -3   5   5    5.03    0.15
  -3   5   5    5.18    0.17
   2  -5  -5    8.00    0.25
   2  -5  -5    8.07    0.27
   2  -5  -5    7.95    0.25
  -2   5   5    7.72    0.24
  -2   5   5    7.86    0.31
  -2   5   5    7.75    0.26
  -2   5   5    7.93    0.28
   1  -5  -5   15.23    0.43
   1  -5  -5   15.13    0.44
   1  -5  -5   15.49    0.43
  -1   5   5   15.78    0.52
  -1   5   5   14.64    0.47
  -1   5   5   14.94    0.45
  -1   5   5   14.53    0.43
   0  -5  -5    5.61    0.20
   0   5   5    5.55    0.27
   0   5   5    5.64    0.21
   0   5   5    5.45    0.26
   0   5   5    5.62    0.18
   0   5   5    5.60    0.20
   0   5   5    5.51    0.23
  -1  -5  -5    4.67    0.17
  -1  -5  -5    4.54    0.18
  -1  -5  -5    4.62    0.20
  -1  -5  -5    5.01    0.26
  -1  -5  -5    5.00    0.18
   1   5   5    4.56    0.20
   1   5   5    4.95    0.20
   1   5   5    5.34    0.26
   1   5   5    4.87    0.17
   1   5   5    5.23    0.19
   1   5   5    5.05    0.16
   1   5   5    4.73    0.18
   1   5   5    4.93    0.24
  -2  -5  -5    5.04    0.17
  -2  -5  -5    5.15    0.21
  -2  -5  -5    4.89    0.20
  -2  -5  -5    4.45    0.22
  -2  -5  -5    4.68    0.27
  -2  -5  -5    5.09    0.20
   2   5   5    5.14    0.16
   2   5   5    4.83    0.17
   2   5   5    5.05    0.27
   2   5   5    4.88    0.19
   2   5   5    5.11    0.18
   2   5   5    5.19    0.26
   2   5   5    4.93    0.17
   2   5   5    4.92    0.20
   2   5   5    4.82    0.24
  -3  -5  -5   17.49    0.53
  -3  -5  -5   17.48    0.53
  -3  -5  -5   15.98    0.55
  -3  -5  -5   17.91    0.52
  -3  -5  -5   16.71    0.61
   3   5   5   17.00    0.51
   3   5   5   17.86    0.57
   3   5   5   16.73    0.48
   3   5   5   17.48    0.49
   3   5   5   18.73    0.61
   3   5   5   17.58    0.51
   3   5   5   16.75    0.49
   3   5   5   17.46    0.50
   3   5   5   18.19    0.64
   3   5   5   17.57    0.48
  -4  -5  -5   11.49    0.47
  -4  -5  -5   11.99    0.39
  -4  -5  -5   11.85    0.33
  -4  -5  -5   11.92    0.38
   4   5   5   11.93    0.45
   4   5   5   11.43    0.36
   4   5   5   12.05    0.34
   4   5   5   12.00    0.35
   4   5   5   11.91    0.42
   4   5   5   11.57    0.36
  -5  -5  -5   14.49    0.44
  -5  -5  -5   13.95    0.44
   5   5   5   14.60    0.46
   5   5   5   14.61    0.41
   5   5   5   14.54    0.42
   5   5   5   14.51    0.40
  -6  -5  -5   20.64    0.58
   6   5   5   21.06    0.56
   6   5   5   20.68    0.56
   6   5   5   20.56    0.57
   6   5   5   20.72    0.55
   2  -6  -5    0.77    0.05
   2  -6  -5    0.64    0.04
  -2   6   5    0.66    0.06
  -2   6   5    0.67    0.04
   1  -6  -5   33.42    0.86
   1  -6  -5   30.41    0.87
   1  -6  -5   31.37    0.85
   1  -6  -5   31.63    0.85
  -1   6   5   32.16    0.85
  -1   6   5   32.89    0.92
  -1   6   5   32.39    0.87
  -1   6   5   31.95    0.87
   0  -6  -5    2.34    0.11
   0  -6  -5    2.37    0.11
   0   6   5    2.36    0.11
   0   6   5    2.55    0.10
   0   6   5    2.41    0.13
   0   6   5    2.46    0.13
   0   6   5    2.17    0.16
  -1  -6  -5    0.10    0.04
  -1  -6  -5    0.10    0.04
   1   6   5    0.12    0.04
   1   6   5    0.12    0.05
   1   6   5    0.08    0.07
   1   6   5    0.11    0.03
   1   6   5    0.04    0.06
   1   6   5    0.05    0.05
   1   6   5    0.13    0.03
  -2  -6  -5   14.20    0.44
  -2  -6  -5   14.89    0.43
  -2  -6  -5   14.53    0.53
  -2  -6  -5   13.75    0.46
   2   6   5   15.66    0.45
   2   6   5   15.08    0.42
   2   6   5   14.65    0.41
   2   6   5   15.60    0.54
   2   6   5   14.98    0.44
   2   6   5   15.04    0.43
   2   6   5   15.53    0.50
  -3  -6  -5    8.41    0.27
  -3  -6  -5    8.05    0.28
  -3  -6  -5    8.26    0.35
  -3  -6  -5    7.81    0.25
  -3  -6  -5    7.18    0.34
   3   6   5    8.11    0.31
   3   6   5    7.90    0.35
   3   6   5    8.32    0.25
   3   6   5    7.62    0.24
   3   6   5    7.94    0.25
   3   6   5    8.07    0.27
   3   6   5    8.26    0.24
   3   6   5    8.22    0.27
  -4  -6  -5    1.19    0.10
  -4  -6  -5    1.01    0.06
  -4  -6  -5    1.15    0.10
   4   6   5    1.15    0.07
   4   6   5    1.22    0.07
   4   6   5    1.04    0.06
   4   6   5    1.18    0.08
   4   6   5    1.14    0.09
   4   6   5    1.06    0.11
   4   6   5    1.15    0.15
  -5  -6  -5    1.51    0.10
  -5  -6  -5    1.56    0.10
   5   6   5    1.61    0.07
   5   6   5    1.58    0.08
   5   6   5    1.59    0.09
  -6  -6  -5   15.99    0.46
   6   6   5   14.59    0.40
   6   6   5   14.06    0.41
   0  -7  -5    0.01    0.02
   0  -7  -5    0.00    0.02
   0   7   5    0.00    0.03
   0   7   5    0.04    0.03
  -1  -7  -5    8.45    0.23
  -1  -7  -5    8.57    0.25
  -1  -7  -5    8.10    0.24
   1   7   5    8.45    0.24
   1   7   5    7.93    0.28
   1   7   5    8.60    0.25
   1   7   5    7.96    0.23
   1   7   5    7.99    0.26
  -2  -7  -5   14.80    0.42
  -2  -7  -5   14.86    0.40
   2   7   5   15.26    0.41
   2   7   5   14.45    0.41
   2   7   5   15.18    0.43
   2   7   5   14.63    0.41
   2   7   5   14.42    0.50
   2   7   5   14.70    0.46
  -3  -7  -5    0.37    0.04
  -3  -7  -5    0.34    0.04
  -3  -7  -5    0.43    0.06
   3   7   5    0.36    0.05
   3   7   5    0.35    0.04
   3   7   5    0.35    0.04
   3   7   5    0.29    0.08
   3   7   5    0.38    0.07
   3   7   5    0.30    0.04
   3   7   5    0.32    0.04
  -4  -7  -5    6.03    0.18
  -4  -7  -5    5.86    0.20
   4   7   5    6.19    0.18
   4   7   5    5.87    0.22
   4   7   5    5.97    0.18
   4   7   5    5.84    0.18
   5   7   5    2.24    0.08
  -3  -8  -5    2.28    0.07
   3   8   5    2.12    0.07
   3   6  -6    9.87    0.34
   3   6  -6   10.48    0.30
   2   6  -6    1.43    0.11
   2   6  -6    1.56    0.06
   2   6  -6    1.51    0.07
   2   6  -6    1.52    0.08
  -2  -6   6    1.51    0.07
  -2  -6   6    1.46    0.07
   1   6  -6    0.80    0.06
   1   6  -6    0.73    0.06
   1   6  -6    0.78    0.09
   1   6  -6    0.79    0.05
   1   6  -6    0.81    0.05
  -1  -6   6    0.78    0.05
  -1  -6   6    0.92    0.05
  -1  -6   6    0.72    0.05
   0   6  -6    0.18    0.03
   0   6  -6    0.27    0.03
   0   6  -6    0.19    0.06
   0   6  -6    0.25    0.03
   0   6  -6    0.18    0.03
   0  -6   6    0.23    0.03
   0  -6   6    0.17    0.03
   1  -6   6    0.25    0.03
   4   5  -6    1.33    0.13
   4   5  -6    1.30    0.07
   3   5  -6    3.50    0.14
   3   5  -6    3.78    0.20
  -3  -5   6    3.72    0.12
  -3  -5   6    3.39    0.12
   2   5  -6    0.36    0.05
   2   5  -6    0.46    0.05
   2   5  -6    0.59    0.11
   2   5  -6    0.44    0.05
  -2  -5   6    0.44    0.05
  -2  -5   6    0.41    0.04
   1   5  -6    1.22    0.08
   1   5  -6    1.19    0.13
   1   5  -6    1.34    0.07
   1   5  -6    1.11    0.11
   1   5  -6    1.21    0.07
   1   5  -6    1.13    0.09
   1   5  -6    1.26    0.08
  -1  -5   6    1.23    0.07
  -1  -5   6    1.10    0.07
   0   5  -6    2.42    0.11
   0   5  -6    2.48    0.11
   0   5  -6    2.41    0.10
   0   5  -6    2.57    0.11
   0   5  -6    2.06    0.20
   0   5  -6    2.46    0.12
   0   5  -6    2.39    0.15
   0   5  -6    2.64    0.16
   0  -5   6    2.50    0.10
   0  -5   6    2.47    0.11
  -1   5  -6    5.11    0.17
  -1   5  -6    4.83    0.21
  -1   5  -6    4.81    0.17
  -1   5  -6    4.87    0.15
  -1   5  -6    4.83    0.15
  -1   5  -6    4.55    0.20
  -1   5  -6    5.12    0.18
   1  -5   6    5.15    0.16
   1  -5   6    5.06    0.16
  -2   5  -6    1.33    0.06
  -2   5  -6    1.16    0.05
  -2   5  -6    1.18    0.06
  -2   5  -6    1.19    0.07
   2  -5   6    1.27    0.06
   2  -5   6    1.27    0.06
   5   4  -6    0.60    0.10
   4   4  -6    3.39    0.20
   3   4  -6    3.37    0.14
   3   4  -6    3.29    0.21
  -3  -4   6    3.37    0.13
  -3  -4   6    3.46    0.11
   2   4  -6    7.95    0.26
   2   4  -6    7.38    0.30
   2   4  -6    7.97    0.32
   2   4  -6    7.50    0.23
  -2  -4   6    8.23    0.24
  -2  -4   6    7.65    0.27
  -2  -4   6    7.74    0.24
   1   4  -6    4.89    0.29
   1   4  -6    4.81    0.19
   1   4  -6    5.11    0.24
   1   4  -6    5.12    0.23
   1   4  -6    5.12    0.19
   1   4  -6    5.27    0.18
   1   4  -6    5.14    0.19
   1   4  -6    5.06    0.17
   1   4  -6    4.84    0.17
  -1  -4   6    4.92    0.21
  -1  -4   6    4.99    0.17
  -1  -4   6    5.12    0.17
   0   4  -6  131.34    3.31
   0   4  -6  124.44    3.44
   0   4  -6  128.81    3.37
   0   4  -6  126.36    3.31
   0   4  -6  128.40    3.32
   0   4  -6  128.36    3.33
   0   4  -6  130.13    3.31
   0   4  -6  126.85    3.35
   0   4  -6  129.82    3.29
   0  -4   6  121.34    3.35
   0  -4   6  127.86    3.30
   0  -4   6  131.44    3.30
   0  -4   6  129.51    3.40
  -1   4  -6    7.50    0.25
  -1   4  -6    7.11    0.22
  -1   4  -6    6.96    0.35
  -1   4  -6    7.48    0.24
  -1   4  -6    7.29    0.29
  -1   4  -6    6.96    0.36
  -1   4  -6    7.62    0.25
  -1   4  -6    7.31    0.22
  -1   4  -6    7.26    0.28
   1  -4   6    7.44    0.30
   1  -4   6    6.98    0.26
   1  -4   6    7.18    0.23
  -2   4  -6    4.12    0.16
  -2   4  -6    4.16    0.14
  -2   4  -6    4.32    0.19
  -2   4  -6    3.99    0.19
  -2   4  -6    3.90    0.24
  -2   4  -6    4.37    0.17
  -2   4  -6    4.35    0.14
  -2   4  -6    4.32    0.15
   2  -4   6    4.30    0.15
   2  -4   6    3.92    0.20
  -3   4  -6    5.15    0.16
  -3   4  -6    5.30    0.16
  -3   4  -6    4.97    0.17
  -3   4  -6    4.94    0.15
  -3   4  -6    4.76    0.19
   3  -4   6    5.07    0.16
   5   3  -6    1.00    0.08
   4   3  -6    1.88    0.18
   3   3  -6    6.40    0.22
   3   3  -6    6.48    0.30
  -3  -3   6    6.91    0.21
  -3  -3   6    6.90    0.19
   2   3  -6   28.74    0.80
   2   3  -6   29.88    0.85
   2   3  -6   30.00    0.87
   2   3  -6   28.17    0.78
  -2  -3   6   30.03    0.82
  -2  -3   6   29.87    0.79
  -2  -3   6   29.53    0.78
  -2  -3   6   28.42    0.80
   1   3  -6    0.23    0.04
   1   3  -6    0.29    0.08
   1   3  -6    0.22    0.05
   1   3  -6    0.14    0.03
   1   3  -6    0.31    0.09
   1   3  -6    0.23    0.04
   1   3  -6    0.23    0.05
   1   3  -6    0.23    0.12
  -1  -3   6    0.16    0.04
  -1  -3   6    0.33    0.06
  -1  -3   6    0.22    0.04
  -1  -3   6    0.24    0.04
  -1  -3   6    0.25    0.05
   0   3  -6   36.21    1.01
   0   3  -6   37.97    0.99
   0   3  -6   37.56    1.06
   0   3  -6   33.97    1.00
   0   3  -6   38.21    1.05
   0   3  -6   36.20    0.99
   0   3  -6   37.51    1.15
   0   3  -6   37.23    1.01
   0   3  -6   39.15    1.13
   0   3  -6   37.08    1.01
   0  -3   6   37.34    1.02
   0  -3   6   39.44    1.05
   0  -3   6   37.75    0.99
   0  -3   6   38.29    1.02
   0  -3   6   37.00    0.99
  -1   3  -6   20.72    0.68
  -1   3  -6   19.16    0.53
  -1   3  -6   19.75    0.57
  -1   3  -6   20.46    0.60
  -1   3  -6   19.90    0.53
  -1   3  -6   20.10    0.70
  -1   3  -6   18.90    0.55
  -1   3  -6   19.74    0.60
  -1   3  -6   18.69    0.53
  -1   3  -6   19.22    0.56
   1  -3   6   19.56    0.54
   1  -3   6   18.95    0.54
   1  -3   6   19.04    0.61
   1  -3   6   19.45    0.57
  -2   3  -6   30.28    0.85
  -2   3  -6   30.71    0.81
  -2   3  -6   29.06    0.98
  -2   3  -6   29.16    0.87
  -2   3  -6   31.52    0.83
  -2   3  -6   31.43    0.84
  -2   3  -6   30.07    0.96
  -2   3  -6   30.30    0.87
  -2   3  -6   31.12    0.81
   2  -3   6   30.92    0.86
   2  -3   6   31.24    0.83
   2  -3   6   31.41    0.90
   2  -3   6   29.69    0.82
  -3   3  -6    5.41    0.18
  -3   3  -6    5.05    0.22
  -3   3  -6    4.89    0.28
  -3   3  -6    5.23    0.18
  -3   3  -6    5.35    0.17
  -3   3  -6    5.34    0.20
  -3   3  -6    5.07    0.17
   3  -3   6    5.27    0.17
   3  -3   6    5.26    0.18
   3  -3   6    5.21    0.23
  -4   3  -6    7.03    0.21
  -4   3  -6    7.07    0.20
  -4   3  -6    6.82    0.23
  -4   3  -6    7.00    0.24
  -4   3  -6    7.04    0.21
   4  -3   6    7.23    0.21
   4  -3   6    7.11    0.20
   6   2  -6    4.08    0.12
   5   2  -6    4.42    0.14
   5   2  -6    4.65    0.18
  -5  -2   6    4.20    0.15
   4   2  -6  102.69    2.75
   4   2  -6  108.13    2.80
   4   2  -6  109.88    2.88
   3   2  -6  150.80    3.93
   3   2  -6  157.43    4.00
   3   2  -6  149.10    3.89
  -3  -2   6  151.38    3.88
  -3  -2   6  151.88    3.89
  -3  -2   6  150.07    3.88
   2   2  -6   69.43    1.86
   2   2  -6   67.64    1.79
  -2  -2   6   67.51    1.77
  -2  -2   6   69.71    1.88
  -2  -2   6   68.63    1.78
  -2  -2   6   68.13    1.80
  -2  -2   6   67.31    1.76
   1   2  -6   24.55    0.74
   1   2  -6   25.03    0.73
  -1  -2   6   25.87    0.69
  -1  -2   6   25.17    0.70
  -1  -2   6   24.44    0.67
  -1  -2   6   25.90    0.70
  -1  -2   6   25.04    0.77
  -1  -2   6   24.91    0.67
   0   2  -6    9.32    0.33
   0   2  -6    9.06    0.34
   0   2  -6    9.69    0.39
   0  -2   6    9.58    0.30
   0  -2   6   10.23    0.30
   0  -2   6    9.42    0.28
   0  -2   6    9.94    0.28
   0  -2   6    9.90    0.32
  -1   2  -6    0.42    0.08
  -1   2  -6    0.23    0.05
  -1   2  -6    0.34    0.12
  -1   2  -6    0.39    0.07
  -1   2  -6    0.30    0.10
  -1   2  -6    0.27    0.05
   1  -2   6    0.30    0.06
   1  -2   6    0.26    0.04
   1  -2   6    0.29    0.05
   1  -2   6    0.35    0.08
   1  -2   6    0.32    0.05
   1  -2   6    0.33    0.04
   1  -2   6    0.31    0.05
  -2   2  -6    0.41    0.06
  -2   2  -6    0.43    0.11
  -2   2  -6    0.49    0.08
  -2   2  -6    0.53    0.06
  -2   2  -6    0.50    0.05
  -2   2  -6    0.59    0.07
  -2   2  -6    0.47    0.12
  -2   2  -6    0.49    0.05
   2  -2   6    0.51    0.06
   2  -2   6    0.47    0.06
   2  -2   6    0.43    0.07
   2  -2   6    0.55    0.10
  -3   2  -6   30.40    0.95
  -3   2  -6   30.64    0.82
  -3   2  -6   30.62    0.98
  -3   2  -6   31.11    0.87
  -3   2  -6   32.05    0.86
  -3   2  -6   31.90    0.84
  -3   2  -6   30.46    0.83
  -3   2  -6   29.91    0.84
   3  -2   6   29.76    0.83
   3  -2   6   30.81    0.86
   3  -2   6   31.06    0.90
   3  -2   6   31.30    0.82
  -4   2  -6    0.07    0.04
  -4   2  -6    0.06    0.08
  -4   2  -6    0.05    0.03
  -4   2  -6    0.04    0.05
  -4   2  -6    0.01    0.04
  -4   2  -6    0.04    0.04
  -4   2  -6    0.05    0.03
   4  -2   6    0.00    0.05
   4  -2   6    0.05    0.03
  -5   2  -6    1.63    0.07
  -5   2  -6    1.44    0.08
  -5   2  -6    1.49    0.06
  -5   2  -6    1.51    0.08
   5  -2   6    1.59    0.06
   5  -2   6    1.61    0.07
   6   1  -6    0.81    0.04
   6   1  -6    0.72    0.04
   5   1  -6    5.02    0.17
   5   1  -6    5.29    0.16
   5   1  -6    5.30    0.20
  -5  -1   6    5.54    0.17
  -5  -1   6    5.34    0.16
  -5  -1   6    4.93    0.22
   4   1  -6    2.83    0.15
   4   1  -6    2.88    0.12
   4   1  -6    2.72    0.13
   4   1  -6    2.72    0.11
  -4  -1   6    2.86    0.18
  -4  -1   6    2.70    0.12
  -4  -1   6    2.85    0.10
   3   1  -6   25.19    0.72
   3   1  -6   28.46    0.83
   3   1  -6   26.47    0.73
   3   1  -6   26.48    0.71
   3   1  -6   27.06    0.75
  -3  -1   6   26.12    0.69
  -3  -1   6   25.73    0.71
  -3  -1   6   26.51    0.71
   2   1  -6    7.03    0.29
   2   1  -6    7.20    0.28
  -2  -1   6    7.39    0.22
  -2  -1   6    7.26    0.29
  -2  -1   6    7.33    0.32
  -2  -1   6    7.31    0.22
  -2  -1   6    7.57    0.24
  -2  -1   6    7.40    0.20
   1   1  -6   28.73    0.84
  -1  -1   6   30.18    0.87
  -1  -1   6   28.51    0.80
  -1  -1   6   30.11    0.79
  -1  -1   6   29.70    0.78
  -1  -1   6   30.45    0.80
   0   1  -6  100.50    2.76
   0  -1   6  103.49    2.67
   0  -1   6  103.74    2.67
   0  -1   6  104.12    2.73
   0  -1   6  104.85    2.68
   0  -1   6  102.73    2.65
  -1   1  -6   12.09    0.43
  -1   1  -6   11.79    0.43
  -1   1  -6   11.03    0.37
   1  -1   6   12.08    0.36
   1  -1   6   11.89    0.35
   1  -1   6   11.63    0.39
   1  -1   6   12.00    0.34
   1  -1   6   11.51    0.38
   1  -1   6   11.36    0.33
   1  -1   6   11.66    0.36
  -2   1  -6   46.09    1.25
  -2   1  -6   46.24    1.26
  -2   1  -6   47.64    1.33
  -2   1  -6   44.91    1.34
   2  -1   6   48.27    1.28
   2  -1   6   46.80    1.25
  -3   1  -6    0.79    0.07
  -3   1  -6    0.80    0.07
  -3   1  -6    0.92    0.14
  -3   1  -6    0.80    0.10
  -3   1  -6    0.82    0.09
  -3   1  -6    0.79    0.14
  -3   1  -6    0.66    0.06
   3  -1   6    0.65    0.06
   3  -1   6    0.75    0.08
   3  -1   6    0.73    0.10
   3  -1   6    0.69    0.05
  -4   1  -6   14.93    0.45
  -4   1  -6   15.09    0.42
  -4   1  -6   14.21    0.40
  -4   1  -6   14.09    0.44
  -4   1  -6   14.45    0.45
  -4   1  -6   14.42    0.51
   4  -1   6   14.47    0.40
   4  -1   6   14.55    0.44
   4  -1   6   14.51    0.42
   4  -1   6   14.06    0.47
  -5   1  -6    3.39    0.15
  -5   1  -6    3.47    0.15
  -5   1  -6    3.62    0.13
  -5   1  -6    3.45    0.12
  -5   1  -6    3.54    0.13
   5  -1   6    3.29    0.16
   5  -1   6    3.54    0.13
   5  -1   6    3.42    0.12
  -6   1  -6    4.55    0.14
   6  -1   6    4.53    0.14
   6  -1   6    4.53    0.13
   6   0  -6    1.72    0.06
   6   0  -6    1.77    0.07
   5   0  -6    6.83    0.22
   5   0  -6    7.17    0.21
   5   0  -6    7.07    0.25
   5   0  -6    7.08    0.22
  -5   0   6    7.10    0.21
  -5   0   6    6.79    0.21
  -5   0   6    7.16    0.23
  -5   0   6    6.42    0.28
   4   0  -6   13.05    0.42
   4   0  -6   13.05    0.40
   4   0  -6   13.14    0.39
   4   0  -6   13.31    0.37
  -4   0   6   13.93    0.48
  -4   0   6   13.77    0.45
  -4   0   6   12.81    0.41
  -4   0   6   13.09    0.38
  -4   0   6   13.66    0.37
   3   0  -6   11.08    0.34
   3   0  -6   11.61    0.37
   3   0  -6   11.02    0.33
   3   0  -6   10.56    0.31
  -3   0   6   10.59    0.31
  -3   0   6   11.22    0.40
  -3   0   6   11.40    0.34
  -3   0   6   10.80    0.33
  -3   0   6   11.07    0.31
   2   0  -6    1.51    0.16
   2   0  -6    1.69    0.11
   2   0  -6    1.75    0.15
  -2   0   6    1.94    0.15
  -2   0   6    1.89    0.09
  -2   0   6    1.84    0.07
  -2   0   6    1.90    0.07
  -2   0   6    1.94    0.09
  -2   0   6    1.88    0.13
  -2   0   6    1.85    0.09
   1   0  -6   40.23    1.16
   1   0  -6   41.04    1.15
  -1   0   6   42.58    1.09
  -1   0   6   41.93    1.16
  -1   0   6   41.59    1.10
  -1   0   6   41.47    1.07
  -1   0   6   41.15    1.10
   0   0  -6    0.33    0.08
   0   0  -6    0.52    0.11
   0   0   6    0.83    0.07
   0   0   6    0.48    0.06
   0   0   6    0.49    0.04
   0   0   6    0.57    0.09
   0   0   6    0.51    0.06
  -1   0  -6   88.48    2.40
  -1   0  -6   90.23    2.41
  -1   0  -6   87.51    2.38
  -1   0  -6   90.45    2.40
   1   0   6   89.18    2.32
   1   0   6   91.14    2.35
   1   0   6   90.55    2.35
   1   0   6   92.49    2.34
   1   0   6   91.85    2.37
  -2   0  -6    3.32    0.19
  -2   0  -6    3.10    0.17
  -2   0  -6    3.07    0.18
  -2   0  -6    3.23    0.19
   2   0   6    3.20    0.15
   2   0   6    3.30    0.13
   2   0   6    3.25    0.12
  -3   0  -6   16.07    0.54
  -3   0  -6   17.58    0.57
  -3   0  -6   15.64    0.44
  -3   0  -6   15.37    0.47
  -3   0  -6   15.81    0.52
  -3   0  -6   15.50    0.51
  -3   0  -6   16.29    0.47
   3   0   6   15.87    0.49
   3   0   6   15.90    0.47
  -4   0  -6   43.73    1.14
  -4   0  -6   43.53    1.16
  -4   0  -6   45.11    1.18
  -4   0  -6   41.92    1.17
   4   0   6   42.93    1.17
   4   0   6   42.94    1.15
   4   0   6   43.67    1.20
   4   0   6   43.39    1.13
   4   0   6   42.80    1.13
  -5   0  -6    2.44    0.10
  -5   0  -6    2.31    0.13
  -5   0  -6    2.53    0.11
   5   0   6    2.36    0.09
   5   0   6    2.33    0.09
   5   0   6    1.93    0.13
   5   0   6    2.16    0.10
   5   0   6    2.40    0.10
  -6   0  -6    2.24    0.10
  -6   0  -6    2.31    0.11
  -6   0  -6    2.40    0.09
  -6   0  -6    2.42    0.09
   6   0   6    2.26    0.09
   6   0   6    2.33    0.08
   6   0   6    2.21    0.08
   5  -1  -6    3.01    0.14
   5  -1  -6    3.24    0.12
   5  -1  -6    3.21    0.10
   5  -1  -6    3.32    0.12
  -5   1   6    3.17    0.12
  -5   1   6    3.21    0.12
  -5   1   6    2.85    0.17
   4  -1  -6    9.12    0.30
   4  -1  -6    9.83    0.29
   4  -1  -6    9.45    0.32
   4  -1  -6    9.74    0.27
  -4   1   6    9.15    0.28
  -4   1   6    8.66    0.32
  -4   1   6    9.01    0.34
  -4   1   6    9.04    0.36
  -4   1   6    9.18    0.39
  -4   1   6    9.56    0.28
   3  -1  -6    7.50    0.24
   3  -1  -6    7.63    0.23
   3  -1  -6    7.95    0.28
   3  -1  -6    7.38    0.26
  -3   1   6    7.71    0.26
  -3   1   6    7.82    0.32
  -3   1   6    7.48    0.24
  -3   1   6    7.75    0.27
  -3   1   6    7.78    0.33
   2  -1  -6   19.00    0.60
   2  -1  -6   18.41    0.54
  -2   1   6   18.56    0.57
  -2   1   6   18.22    0.50
  -2   1   6   18.67    0.52
  -2   1   6   17.87    0.53
  -2   1   6   18.09    0.60
  -2   1   6   18.74    0.49
  -2   1   6   18.17    0.57
  -2   1   6   16.95    0.58
   1  -1  -6   35.15    1.03
   1  -1  -6   37.15    1.06
  -1   1   6   36.41    0.97
  -1   1   6   35.09    0.96
  -1   1   6   36.44    0.94
  -1   1   6   35.79    0.96
  -1   1   6   35.76    1.02
  -1   1   6   36.55    1.02
   0  -1  -6   27.85    0.84
   0  -1  -6   27.96    0.81
   0   1   6   27.68    0.75
   0   1   6   27.50    0.79
   0   1   6   27.41    0.75
   0   1   6   27.84    0.74
   0   1   6   27.22    0.73
  -1  -1  -6    7.33    0.29
  -1  -1  -6    7.38    0.31
   1   1   6    7.32    0.24
   1   1   6    7.39    0.25
   1   1   6    7.04    0.23
   1   1   6    7.24    0.23
  -2  -1  -6   76.92    2.05
  -2  -1  -6   78.28    2.06
  -2  -1  -6   75.50    2.07
  -2  -1  -6   75.42    2.02
  -2  -1  -6   78.60    2.10
   2   1   6   77.09    1.99
   2   1   6   75.10    2.00
  -3  -1  -6  167.79    4.36
  -3  -1  -6  167.46    4.40
  -3  -1  -6  162.18    4.30
  -3  -1  -6  160.45    4.29
  -3  -1  -6  168.06    4.35
  -3  -1  -6  161.60    4.34
   3   1   6  174.36    4.30
   3   1   6  167.69    4.27
  -4  -1  -6   47.13    1.37
  -4  -1  -6   49.64    1.36
  -4  -1  -6   47.34    1.40
  -4  -1  -6   47.49    1.27
  -4  -1  -6   47.94    1.36
  -4  -1  -6   47.65    1.29
  -4  -1  -6   49.88    1.29
  -4  -1  -6   49.93    1.30
   4   1   6   47.56    1.25
   4   1   6   46.80    1.25
   4   1   6   45.82    1.26
   4   1   6   48.43    1.31
   4   1   6   45.96    1.30
   4   1   6   47.50    1.26
  -5  -1  -6   10.36    0.34
  -5  -1  -6   10.98    0.34
  -5  -1  -6   10.25    0.41
  -5  -1  -6   10.44    0.31
  -5  -1  -6    9.97    0.40
  -5  -1  -6   10.04    0.35
   5   1   6   10.63    0.30
   5   1   6   10.28    0.35
   5   1   6   10.08    0.29
   5   1   6   10.39    0.31
   5   1   6   10.51    0.31
   5   1   6   10.42    0.31
  -6  -1  -6    9.64    0.31
  -6  -1  -6    9.69    0.31
  -6  -1  -6   10.08    0.28
   6   1   6    9.93    0.28
   6   1   6    9.69    0.28
   6   1   6    9.83    0.27
   6   1   6   10.15    0.28
   5  -2  -6    0.87    0.04
   5  -2  -6    0.90    0.06
   5  -2  -6    0.82    0.05
   4  -2  -6    1.99    0.12
   4  -2  -6    1.86    0.10
   4  -2  -6    1.92    0.09
   4  -2  -6    1.75    0.07
  -4   2   6    1.84    0.11
  -4   2   6    1.71    0.13
  -4   2   6    1.80    0.09
  -4   2   6    1.71    0.10
  -4   2   6    1.55    0.15
  -4   2   6    1.70    0.09
   3  -2  -6    4.26    0.16
   3  -2  -6    3.94    0.16
   3  -2  -6    4.61    0.18
   3  -2  -6    4.27    0.20
   3  -2  -6    4.46    0.14
  -3   2   6    4.33    0.16
  -3   2   6    4.18    0.20
  -3   2   6    4.78    0.21
  -3   2   6    4.50    0.16
  -3   2   6    4.35    0.23
  -3   2   6    4.26    0.24
   2  -2  -6    0.74    0.06
   2  -2  -6    0.52    0.04
   2  -2  -6    0.44    0.06
   2  -2  -6    0.73    0.10
   2  -2  -6    0.48    0.08
   2  -2  -6    0.38    0.10
   2  -2  -6    0.50    0.07
  -2   2   6    0.65    0.08
  -2   2   6    0.59    0.10
  -2   2   6    0.50    0.10
  -2   2   6    0.56    0.05
  -2   2   6    0.63    0.09
  -2   2   6    0.56    0.07
  -2   2   6    0.59    0.06
   1  -2  -6   33.54    0.99
   1  -2  -6   33.66    0.97
  -1   2   6   32.20    0.88
  -1   2   6   32.61    0.96
  -1   2   6   33.27    0.92
  -1   2   6   32.15    0.96
  -1   2   6   34.18    0.96
  -1   2   6   33.06    0.94
  -1   2   6   35.41    0.88
  -1   2   6   33.36    0.91
  -1   2   6   33.71    0.90
   0  -2  -6    4.70    0.24
   0  -2  -6    5.21    0.27
   0   2   6    4.63    0.15
   0   2   6    4.95    0.21
   0   2   6    4.89    0.18
   0   2   6    5.83    0.22
   0   2   6    4.83    0.18
  -1  -2  -6   26.79    0.81
  -1  -2  -6   27.34    0.83
   1   2   6   27.58    0.74
   1   2   6   27.05    0.77
  -2  -2  -6   41.67    1.19
  -2  -2  -6   42.93    1.22
  -2  -2  -6   43.36    1.25
  -2  -2  -6   43.31    1.21
   2   2   6   43.47    1.14
  -3  -2  -6  183.21    4.77
  -3  -2  -6  182.59    4.81
  -3  -2  -6  181.45    4.69
  -3  -2  -6  183.66    4.75
  -3  -2  -6  182.94    4.70
  -3  -2  -6  185.66    4.76
   3   2   6  184.96    4.67
   3   2   6  178.67    4.68
   3   2   6  175.85    4.72
  -4  -2  -6   12.81    0.40
  -4  -2  -6   12.59    0.46
  -4  -2  -6   12.07    0.37
  -4  -2  -6   12.91    0.49
  -4  -2  -6   12.69    0.47
  -4  -2  -6   12.72    0.39
   4   2   6   12.40    0.35
   4   2   6   13.06    0.37
   4   2   6   12.43    0.35
   4   2   6   13.05    0.37
   4   2   6   11.79    0.40
  -5  -2  -6   18.65    0.56
  -5  -2  -6   16.99    0.64
  -5  -2  -6   18.57    0.63
  -5  -2  -6   18.61    0.52
  -5  -2  -6   18.96    0.55
  -5  -2  -6   18.86    0.63
   5   2   6   18.30    0.52
   5   2   6   18.76    0.50
   5   2   6   18.53    0.52
   5   2   6   18.63    0.51
   5   2   6   19.01    0.52
  -6  -2  -6    2.32    0.18
  -6  -2  -6    2.35    0.12
  -6  -2  -6    2.36    0.13
  -6  -2  -6    2.26    0.13
   6   2   6    2.34    0.09
   6   2   6    2.42    0.09
   6   2   6    2.49    0.10
   6   2   6    2.18    0.10
   7   2   6    0.95    0.05
   7   2   6    0.90    0.04
   4  -3  -6    0.23    0.03
   4  -3  -6    0.20    0.04
   4  -3  -6    0.14    0.05
  -4   3   6    0.15    0.04
  -4   3   6    0.17    0.06
  -4   3   6    0.13    0.04
   3  -3  -6    4.07    0.19
   3  -3  -6    4.00    0.15
   3  -3  -6    4.32    0.16
   3  -3  -6    3.91    0.15
  -3   3   6    4.05    0.15
  -3   3   6    3.89    0.18
  -3   3   6    4.13    0.23
  -3   3   6    4.19    0.16
  -3   3   6    3.90    0.20
   2  -3  -6   17.40    0.51
   2  -3  -6   16.22    0.47
   2  -3  -6   16.18    0.47
   2  -3  -6   16.61    0.46
   2  -3  -6   15.11    0.53
  -2   3   6   15.94    0.51
  -2   3   6   16.05    0.46
  -2   3   6   16.20    0.56
  -2   3   6   15.68    0.50
  -2   3   6   16.31    0.47
  -2   3   6   16.11    0.54
   1  -3  -6   83.03    2.21
   1  -3  -6   73.38    2.14
   1  -3  -6   82.60    2.12
   1  -3  -6   80.65    2.19
   1  -3  -6   85.37    2.19
  -1   3   6   80.17    2.16
  -1   3   6   78.88    2.10
  -1   3   6   81.80    2.15
  -1   3   6   84.44    2.21
  -1   3   6   81.06    2.17
   0  -3  -6  169.82    4.45
   0  -3  -6  168.92    4.48
   0   3   6  172.52    4.44
   0   3   6  168.67    4.44
   0   3   6  171.23    4.38
   0   3   6  168.85    4.42
  -1  -3  -6    6.43    0.29
  -1  -3  -6    6.51    0.31
   1   3   6    6.35    0.25
   1   3   6    6.67    0.26
   1   3   6    6.63    0.27
   1   3   6    6.39    0.22
  -2  -3  -6   24.98    0.78
  -2  -3  -6   25.25    0.76
  -2  -3  -6   24.39    0.70
  -2  -3  -6   23.90    0.79
  -2  -3  -6   24.61    0.71
  -2  -3  -6   23.75    0.74
   2   3   6   25.75    0.69
   2   3   6   24.11    0.73
   2   3   6   25.97    0.74
  -3  -3  -6   33.68    0.97
  -3  -3  -6   34.76    0.94
  -3  -3  -6   34.56    1.00
  -3  -3  -6   33.66    1.04
  -3  -3  -6   33.93    1.01
  -3  -3  -6   32.95    0.92
   3   3   6   33.72    0.96
   3   3   6   34.69    1.00
   3   3   6   33.27    0.96
   3   3   6   32.67    0.89
   3   3   6   32.69    0.91
   3   3   6   32.24    0.89
  -4  -3  -6   13.65    0.41
  -4  -3  -6   12.99    0.39
  -4  -3  -6   12.66    0.50
  -4  -3  -6   13.14    0.48
  -4  -3  -6   13.39    0.42
  -4  -3  -6   12.62    0.45
   4   3   6   13.10    0.38
   4   3   6   12.75    0.37
   4   3   6   13.12    0.38
   4   3   6   12.92    0.41
   4   3   6   12.81    0.48
   4   3   6   13.66    0.37
  -5  -3  -6   15.69    0.47
  -5  -3  -6   14.94    0.55
  -5  -3  -6   14.57    0.54
  -5  -3  -6   15.53    0.46
  -5  -3  -6   14.89    0.56
   5   3   6   15.15    0.43
   5   3   6   14.99    0.44
   5   3   6   14.96    0.41
   5   3   6   15.28    0.42
   5   3   6   15.41    0.43
   5   3   6   14.41    0.46
  -6  -3  -6   16.06    0.47
  -6  -3  -6   15.68    0.47
  -6  -3  -6   15.53    0.48
  -6  -3  -6   15.23    0.55
   6   3   6   15.79    0.43
   6   3   6   16.56    0.45
   6   3   6   16.19    0.45
   6   3   6   15.80    0.43
  -7  -3  -6    5.28    0.18
  -7  -3  -6    5.59    0.16
   7   3   6    5.30    0.15
   7   3   6    5.47    0.16
   4  -4  -6    1.40    0.06
  -4   4   6    1.42    0.07
   3  -4  -6    5.02    0.17
   3  -4  -6    5.07    0.17
   3  -4  -6    4.97    0.19
  -3   4   6    4.92    0.23
  -3   4   6    4.76    0.17
  -3   4   6    4.88    0.20
   2  -4  -6    5.65    0.20
   2  -4  -6    5.48    0.23
   2  -4  -6    5.50    0.20
   2  -4  -6    5.63    0.20
  -2   4   6    5.38    0.20
  -2   4   6    5.74    0.23
  -2   4   6    5.55    0.19
  -2   4   6    5.69    0.27
  -2   4   6    5.80    0.21
   1  -4  -6   24.71    0.67
   1  -4  -6   23.74    0.65
   1  -4  -6   23.19    0.66
   1  -4  -6   24.38    0.67
   1  -4  -6   23.64    0.74
  -1   4   6   24.76    0.66
  -1   4   6   24.12    0.68
  -1   4   6   24.38    0.71
  -1   4   6   23.21    0.75
   0  -4  -6    5.85    0.20
   0  -4  -6    5.77    0.26
   0  -4  -6    5.52    0.18
   0  -4  -6    5.75    0.20
   0  -4  -6    5.38    0.28
   0   4   6    5.40    0.24
   0   4   6    5.74    0.19
   0   4   6    6.02    0.27
   0   4   6    5.17    0.18
   0   4   6    5.58    0.21
   0   4   6    5.30    0.22
  -1  -4  -6    6.38    0.32
  -1  -4  -6    7.13    0.23
  -1  -4  -6    7.33    0.31
   1   4   6    7.17    0.24
   1   4   6    7.34    0.25
   1   4   6    6.70    0.29
   1   4   6    6.96    0.30
   1   4   6    7.34    0.29
  -2  -4  -6    2.81    0.15
  -2  -4  -6    2.52    0.14
  -2  -4  -6    2.55    0.19
  -2  -4  -6    2.82    0.12
  -2  -4  -6    2.95    0.17
  -2  -4  -6    2.64    0.13
  -2  -4  -6    3.30    0.23
   2   4   6    3.04    0.18
   2   4   6    3.23    0.14
   2   4   6    2.80    0.10
   2   4   6    2.79    0.11
   2   4   6    3.09    0.18
   2   4   6    2.67    0.18
   2   4   6    2.42    0.13
  -3  -4  -6   31.03    0.86
  -3  -4  -6   29.98    0.92
  -3  -4  -6   31.04    0.89
  -3  -4  -6   32.77    0.95
  -3  -4  -6   31.42    0.97
  -3  -4  -6   28.70    0.80
  -3  -4  -6   29.61    0.85
   3   4   6   32.56    0.90
   3   4   6   31.54    0.81
   3   4   6   30.90    0.89
   3   4   6   29.09    0.80
   3   4   6   30.76    0.83
   3   4   6   28.66    0.82
   3   4   6   28.89    0.81
   3   4   6   27.22    0.85
   3   4   6   29.02    0.80
   3   4   6   30.04    0.93
  -4  -4  -6    1.56    0.14
  -4  -4  -6    1.73    0.12
  -4  -4  -6    1.74    0.12
  -4  -4  -6    1.55    0.09
  -4  -4  -6    1.49    0.18
  -4  -4  -6    1.63    0.18
  -4  -4  -6    1.45    0.16
   4   4   6    1.56    0.09
   4   4   6    1.43    0.08
   4   4   6    1.70    0.14
   4   4   6    1.45    0.07
   4   4   6    1.43    0.10
   4   4   6    1.53    0.16
  -5  -4  -6    2.03    0.19
  -5  -4  -6    1.73    0.17
  -5  -4  -6    1.90    0.13
  -5  -4  -6    1.97    0.19
  -5  -4  -6    1.92    0.12
   5   4   6    2.03    0.10
   5   4   6    2.06    0.08
   5   4   6    2.01    0.09
   5   4   6    1.78    0.11
  -6  -4  -6    5.75    0.33
  -6  -4  -6    6.05    0.20
  -6  -4  -6    6.20    0.23
  -6  -4  -6    6.61    0.23
   6   4   6    6.70    0.19
   6   4   6    6.73    0.19
   6   4   6    6.71    0.20
   6   4   6    6.60    0.20
   6   4   6    6.39    0.21
   7   4   6    2.19    0.08
   3  -5  -6    0.67    0.04
   3  -5  -6    0.59    0.04
  -3   5   6    0.68    0.06
   2  -5  -6    5.58    0.18
   2  -5  -6    5.74    0.19
   2  -5  -6    5.48    0.21
  -2   5   6    5.52    0.24
  -2   5   6    5.48    0.18
  -2   5   6    5.64    0.21
  -2   5   6    5.46    0.19
   1  -5  -6    0.18    0.05
   1  -5  -6    0.24    0.05
   1  -5  -6    0.20    0.04
  -1   5   6    0.22    0.05
  -1   5   6    0.21    0.05
  -1   5   6    0.29    0.07
  -1   5   6    0.41    0.10
   0  -5  -6   27.82    0.75
   0  -5  -6   27.67    0.75
   0  -5  -6   25.82    0.72
   0   5   6   28.21    0.73
   0   5   6   26.82    0.83
   0   5   6   27.68    0.83
   0   5   6   26.92    0.74
   0   5   6   25.79    0.76
   0   5   6   27.95    0.79
  -1  -5  -6   21.92    0.61
  -1  -5  -6   21.68    0.60
   1   5   6   20.79    0.64
   1   5   6   21.87    0.69
   1   5   6   22.23    0.69
   1   5   6   22.13    0.59
   1   5   6   21.58    0.61
   1   5   6   21.42    0.62
  -2  -5  -6    0.15    0.09
  -2  -5  -6    0.18    0.06
  -2  -5  -6    0.28    0.06
  -2  -5  -6    0.24    0.06
  -2  -5  -6    0.17    0.05
   2   5   6    0.22    0.05
   2   5   6    0.21    0.04
   2   5   6    0.31    0.09
   2   5   6    0.16    0.08
   2   5   6    0.09    0.07
   2   5   6    0.22    0.04
   2   5   6    0.28    0.05
   2   5   6    0.34    0.06
   2   5   6    0.28    0.07
  -3  -5  -6   17.41    0.54
  -3  -5  -6   18.78    0.55
  -3  -5  -6   17.63    0.68
  -3  -5  -6   18.68    0.55
  -3  -5  -6   18.02    0.65
   3   5   6   18.37    0.59
   3   5   6   17.85    0.51
   3   5   6   18.79    0.51
   3   5   6   18.20    0.52
   3   5   6   18.34    0.51
   3   5   6   18.58    0.62
   3   5   6   18.57    0.53
   3   5   6   17.98    0.53
   3   5   6   18.17    0.50
  -4  -5  -6    2.40    0.14
  -4  -5  -6    2.41    0.10
  -4  -5  -6    2.47    0.14
  -4  -5  -6    2.51    0.21
  -4  -5  -6    2.56    0.22
   4   5   6    2.44    0.17
   4   5   6    2.55    0.12
   4   5   6    2.48    0.10
   4   5   6    2.44    0.11
   4   5   6    2.58    0.11
   4   5   6    2.75    0.19
  -5  -5  -6    0.18    0.04
  -5  -5  -6    0.22    0.06
  -5  -5  -6    0.14    0.05
  -5  -5  -6    0.31    0.10
   5   5   6    0.23    0.04
   5   5   6    0.18    0.04
   5   5   6    0.11    0.03
   5   5   6    0.19    0.05
  -6  -5  -6    7.57    0.25
   6   5   6    7.74    0.24
   6   5   6    7.99    0.23
   6   5   6    7.71    0.22
   6   5   6    7.74    0.23
   2  -6  -6    0.24    0.03
  -2   6   6    0.28    0.04
  -2   6   6    0.23    0.03
   1  -6  -6    4.72    0.18
   1  -6  -6    5.06    0.16
   1  -6  -6    4.74    0.16
  -1   6   6    4.90    0.21
  -1   6   6    4.86    0.17
  -1   6   6    4.78    0.16
  -1   6   6    4.65    0.18
   0  -6  -6    2.61    0.11
   0  -6  -6    2.71    0.11
   0   6   6    2.43    0.13
   0   6   6    2.42    0.10
   0   6   6    2.39    0.12
   0   6   6    2.45    0.11
   0   6   6    2.56    0.16
  -1  -6  -6   11.07    0.31
  -1  -6  -6   10.75    0.32
  -1  -6  -6   10.90    0.32
   1   6   6   10.78    0.33
   1   6   6   10.64    0.31
   1   6   6   10.25    0.40
   1   6   6   10.78    0.34
   1   6   6   10.45    0.39
  -2  -6  -6    0.66    0.07
   2   6   6    0.64    0.07
   2   6   6    0.87    0.13
   2   6   6    0.75    0.07
   2   6   6    0.86    0.06
   2   6   6    0.77    0.09
   2   6   6    0.78    0.11
   2   6   6    0.52    0.05
  -3  -6  -6   11.81    0.46
  -3  -6  -6   12.76    0.37
  -3  -6  -6   12.35    0.40
  -3  -6  -6   13.38    0.40
  -3  -6  -6   13.18    0.37
   3   6   6   12.63    0.47
   3   6   6   13.21    0.44
   3   6   6   12.30    0.37
   3   6   6   13.44    0.37
   3   6   6   13.27    0.38
   3   6   6   13.19    0.37
   3   6   6   13.51    0.40
  -4  -6  -6    5.61    0.22
  -4  -6  -6    5.70    0.18
  -4  -6  -6    6.24    0.22
   4   6   6    6.13    0.25
   4   6   6    5.83    0.19
   4   6   6    5.67    0.18
   4   6   6    5.79    0.28
   4   6   6    6.27    0.19
   4   6   6    6.02    0.20
  -5  -6  -6    0.58    0.07
  -5  -6  -6    0.58    0.05
   5   6   6    0.52    0.07
   5   6   6    0.50    0.05
   5   6   6    0.56    0.05
   6   6   6    6.90    0.21
   6   6   6    6.91    0.19
   6   6   6    6.94    0.20
   0  -7  -6    4.88    0.15
   0  -7  -6    5.22    0.16
   0   7   6    4.78    0.16
   0   7   6    5.10    0.15
  -1  -7  -6    1.27    0.07
  -1  -7  -6    1.31    0.06
  -1  -7  -6    1.34    0.07
   1   7   6    1.29    0.06
   1   7   6    1.42    0.07
   1   7   6    1.31    0.10
   1   7   6    1.38    0.06
   1   7   6    1.40    0.08
  -2  -7  -6    3.72    0.14
  -2  -7  -6    3.81    0.12
   2   7   6    3.93    0.13
   2   7   6    3.70    0.20
   2   7   6    3.78    0.13
   2   7   6    3.91    0.14
   2   7   6    3.89    0.15
   2   7   6    3.62    0.17
  -3  -7  -6    1.36    0.06
  -3  -7  -6    1.33    0.07
   3   7   6    1.35    0.11
   3   7   6    1.20    0.13
   3   7   6    1.33    0.07
   3   7   6    1.29    0.07
   3   7   6    1.32    0.06
   3   7   6    1.31    0.08
  -4  -7  -6    1.65    0.07
  -4  -7  -6    1.72    0.09
   4   7   6    1.62    0.07
   4   7   6    1.58    0.07
   4   7   6    1.71    0.11
   4   7   6    1.59    0.14
   4   7   6    1.69    0.07
  -5  -7  -6    1.12    0.06
   5   7   6    1.11    0.06
   5   7   6    1.14    0.05
   3   6  -7    0.89    0.05
   2   6  -7    0.95    0.06
   2   6  -7    0.95    0.04
  -2  -6   7    1.01    0.05
   1   6  -7    0.46    0.03
   1   6  -7    0.48    0.04
  -1  -6   7    0.62    0.04
  -1  -6   7    0.53    0.04
   0   6  -7    0.10    0.02
   0  -6   7    0.09    0.02
   0  -6   7    0.09    0.02
   4   5  -7    2.76    0.10
   4   5  -7    2.80    0.15
   3   5  -7   10.50    0.38
   3   5  -7   11.35    0.32
  -3  -5   7   10.96    0.31
   2   5  -7    1.35    0.08
   2   5  -7    1.41    0.14
   2   5  -7    1.48    0.07
  -2  -5   7    1.26    0.07
  -2  -5   7    1.27    0.06
   1   5  -7    0.48    0.09
   1   5  -7    0.46    0.05
   1   5  -7    0.55    0.06
   1   5  -7    0.56    0.06
   1   5  -7    0.45    0.08
  -1  -5   7    0.48    0.04
  -1  -5   7    0.50    0.05
   0   5  -7    2.50    0.15
   0   5  -7    2.69    0.11
   0   5  -7    2.76    0.11
   0   5  -7    2.75    0.11
   0   5  -7    2.79    0.10
   0   5  -7    2.65    0.12
   0   5  -7    2.56    0.14
   0  -5   7    2.51    0.10
   0  -5   7    2.78    0.11
  -1   5  -7    2.39    0.09
  -1   5  -7    2.07    0.12
  -1   5  -7    2.32    0.10
  -1   5  -7    2.50    0.09
  -1   5  -7    2.15    0.12
  -1   5  -7    2.38    0.11
   1  -5   7    2.39    0.09
   1  -5   7    2.31    0.09
  -2   5  -7    0.56    0.04
   2  -5   7    0.55    0.04
   2  -5   7    0.43    0.04
   4   4  -7    0.51    0.12
   3   4  -7    6.47    0.29
   3   4  -7    6.63    0.22
  -3  -4   7    6.59    0.19
   2   4  -7   18.23    0.58
   2   4  -7   17.48    0.51
   2   4  -7   17.21    0.48
  -2  -4   7   17.75    0.52
  -2  -4   7   17.47    0.49
  -2  -4   7   18.02    0.49
   1   4  -7    0.93    0.13
   1   4  -7    0.83    0.12
   1   4  -7    1.05    0.08
   1   4  -7    0.95    0.08
   1   4  -7    1.02    0.08
   1   4  -7    1.01    0.07
  -1  -4   7    1.04    0.07
  -1  -4   7    1.01    0.07
  -1  -4   7    0.94    0.09
   0   4  -7   10.03    0.37
   0   4  -7   10.54    0.31
   0   4  -7   10.12    0.35
   0   4  -7   10.24    0.32
   0   4  -7   10.14    0.29
   0   4  -7   10.16    0.30
   0   4  -7    9.79    0.32
   0   4  -7    9.55    0.43
   0   4  -7   10.12    0.31
   0  -4   7   10.28    0.30
   0  -4   7    9.74    0.30
   0  -4   7    9.50    0.34
  -1   4  -7    4.03    0.15
  -1   4  -7    4.01    0.14
  -1   4  -7    3.81    0.20
  -1   4  -7    4.06    0.15
  -1   4  -7    3.85    0.16
  -1   4  -7    3.86    0.19
  -1   4  -7    3.75    0.25
  -1   4  -7    3.91    0.16
   1  -4   7    4.13    0.15
  -2   4  -7    5.61    0.17
  -2   4  -7    5.65    0.20
  -2   4  -7    5.64    0.17
  -2   4  -7    5.87    0.19
  -2   4  -7    5.80    0.20
  -2   4  -7    5.72    0.23
   2  -4   7    5.83    0.18
  -3   4  -7    5.27    0.15
  -3   4  -7    5.51    0.16
  -3   4  -7    5.47    0.17
  -3   4  -7    5.28    0.17
   3  -4   7    5.11    0.16
   4   3  -7    7.25    0.31
   3   3  -7    9.20    0.36
   3   3  -7    9.01    0.28
  -3  -3   7    9.06    0.25
  -3  -3   7    8.86    0.27
   2   3  -7   30.30    0.88
   2   3  -7   29.34    0.81
   2   3  -7   29.86    0.78
  -2  -3   7   28.78    0.78
  -2  -3   7   28.59    0.81
  -2  -3   7   29.25    0.78
   1   3  -7   12.79    0.42
   1   3  -7   12.61    0.44
   1   3  -7   12.50    0.36
   1   3  -7   12.18    0.38
   1   3  -7   12.56    0.36
   1   3  -7   12.35    0.38
  -1  -3   7   12.74    0.36
  -1  -3   7   12.71    0.38
  -1  -3   7   12.85    0.39
  -1  -3   7   12.85    0.36
  -1  -3   7   12.38    0.39
   0   3  -7  102.88    2.62
   0   3  -7   99.50    2.63
   0   3  -7   94.53    2.56
   0   3  -7   98.23    2.55
   0   3  -7  100.27    2.71
   0   3  -7   95.15    2.58
   0   3  -7   98.80    2.57
   0   3  -7   97.86    2.55
   0   3  -7   99.34    2.58
   0  -3   7  102.30    2.61
   0  -3   7  102.07    2.56
   0  -3   7   99.08    2.56
   0  -3   7   97.74    2.59
   0  -3   7   97.19    2.59
  -1   3  -7  196.13    5.05
  -1   3  -7  190.91    4.95
  -1   3  -7  193.93    4.92
  -1   3  -7  197.92    4.95
  -1   3  -7  183.54    4.89
  -1   3  -7  186.95    4.91
  -1   3  -7  186.67    5.07
  -1   3  -7  197.74    4.92
  -1   3  -7  192.54    4.89
   1  -3   7  188.15    4.89
   1  -3   7  184.85    4.90
  -2   3  -7    1.30    0.13
  -2   3  -7    1.36    0.18
  -2   3  -7    1.44    0.09
  -2   3  -7    1.53    0.07
  -2   3  -7    1.28    0.09
  -2   3  -7    1.41    0.10
  -2   3  -7    1.38    0.18
  -2   3  -7    1.30    0.07
   2  -3   7    1.34    0.13
   2  -3   7    1.57    0.08
   2  -3   7    1.36    0.10
   2  -3   7    1.36    0.08
  -3   3  -7   10.73    0.32
  -3   3  -7   11.17    0.32
  -3   3  -7   10.76    0.30
  -3   3  -7   10.40    0.35
  -3   3  -7   10.44    0.30
  -3   3  -7   10.03    0.41
  -3   3  -7   10.87    0.33
   3  -3   7   10.49    0.31
   3  -3   7   10.15    0.36
   3  -3   7   10.53    0.31
  -4   3  -7    1.59    0.09
  -4   3  -7    1.77    0.07
  -4   3  -7    1.71    0.07
  -4   3  -7    1.61    0.06
   4  -3   7    1.62    0.06
   4  -3   7    1.77    0.07
   5   2  -7    7.47    0.21
   5   2  -7    7.42    0.25
   4   2  -7    3.39    0.21
   4   2  -7    3.11    0.14
   4   2  -7    3.31    0.11
  -4  -2   7    2.90    0.12
  -4  -2   7    3.12    0.10
   3   2  -7   24.00    0.67
   3   2  -7   26.16    0.79
  -3  -2   7   24.63    0.66
  -3  -2   7   25.40    0.68
   2   2  -7   48.24    1.33
   2   2  -7   49.86    1.33
   2   2  -7   51.03    1.35
   2   2  -7   51.20    1.43
   2   2  -7   50.96    1.36
  -2  -2   7   53.28    1.36
  -2  -2   7   52.34    1.32
  -2  -2   7   51.37    1.34
  -2  -2   7   51.04    1.35
   1   2  -7   18.01    0.57
   1   2  -7   18.36    0.56
   1   2  -7   17.64    0.49
   1   2  -7   17.50    0.51
   1   2  -7   17.20    0.52
  -1  -2   7   18.10    0.52
  -1  -2   7   18.43    0.52
  -1  -2   7   17.90    0.49
  -1  -2   7   18.45    0.51
  -1  -2   7   18.08    0.61
  -1  -2   7   18.86    0.49
   0   2  -7   12.19    0.46
   0   2  -7   10.80    0.39
   0   2  -7   11.12    0.32
   0   2  -7   11.43    0.35
   0   2  -7   11.40    0.35
   0   2  -7   12.04    0.39
   0  -2   7   11.14    0.36
   0  -2   7   11.76    0.33
   0  -2   7   11.17    0.42
   0  -2   7   11.76    0.36
   0  -2   7   11.83    0.33
   0  -2   7   11.74    0.37
  -1   2  -7   53.50    1.53
  -1   2  -7   63.28    1.58
  -1   2  -7   56.82    1.52
  -1   2  -7   59.67    1.54
  -1   2  -7   56.98    1.53
  -1   2  -7   60.22    1.68
  -1   2  -7   56.80    1.55
  -1   2  -7   61.30    1.66
   1  -2   7   57.30    1.52
   1  -2   7   56.59    1.54
   1  -2   7   58.56    1.57
   1  -2   7   59.80    1.52
   1  -2   7   57.56    1.54
  -2   2  -7    2.30    0.15
  -2   2  -7    1.98    0.11
  -2   2  -7    2.13    0.12
  -2   2  -7    2.31    0.20
  -2   2  -7    2.23    0.11
  -2   2  -7    2.46    0.21
   2  -2   7    2.32    0.12
   2  -2   7    2.16    0.11
   2  -2   7    2.30    0.15
  -3   2  -7   12.81    0.42
  -3   2  -7   13.57    0.41
  -3   2  -7   13.31    0.39
  -3   2  -7   12.65    0.51
  -3   2  -7   13.35    0.39
  -3   2  -7   12.98    0.38
  -3   2  -7   13.91    0.51
  -3   2  -7   13.00    0.37
   3  -2   7   12.70    0.38
   3  -2   7   12.77    0.41
   3  -2   7   13.66    0.37
   3  -2   7   13.59    0.44
  -4   2  -7    7.15    0.22
  -4   2  -7    7.05    0.22
  -4   2  -7    7.07    0.24
  -4   2  -7    6.13    0.30
  -4   2  -7    7.04    0.21
  -4   2  -7    6.87    0.25
   4  -2   7    7.14    0.22
   4  -2   7    6.71    0.26
  -5   2  -7    1.08    0.07
  -5   2  -7    1.14    0.05
  -5   2  -7    1.12    0.05
   5  -2   7    1.07    0.05
   5  -2   7    1.09    0.04
   5   1  -7    3.00    0.11
   5   1  -7    3.18    0.11
   5   1  -7    3.04    0.14
  -5  -1   7    3.03    0.11
   4   1  -7   42.52    1.14
   4   1  -7   40.48    1.10
   4   1  -7   41.41    1.09
  -4  -1   7   40.71    1.19
  -4  -1   7   43.87    1.09
  -4  -1   7   41.18    1.12
   3   1  -7  315.34    8.12
   3   1  -7  330.61    8.25
   3   1  -7  323.34    8.16
   3   1  -7  313.47    8.14
  -3  -1   7  312.78    8.13
  -3  -1   7  319.79    8.10
  -3  -1   7  310.82    8.12
   2   1  -7   14.58    0.44
   2   1  -7   15.80    0.43
   2   1  -7   15.94    0.52
  -2  -1   7   15.72    0.42
  -2  -1   7   15.34    0.44
  -2  -1   7   15.73    0.54
  -2  -1   7   15.34    0.44
  -2  -1   7   16.20    0.45
   1   1  -7   24.44    0.73
   1   1  -7   25.80    0.72
  -1  -1   7   24.92    0.68
  -1  -1   7   23.81    0.68
  -1  -1   7   25.16    0.68
  -1  -1   7   24.80    0.75
  -1  -1   7   24.82    0.65
  -1  -1   7   24.31    0.66
   0   1  -7   20.88    0.60
   0   1  -7   19.60    0.66
   0  -1   7   20.31    0.54
   0  -1   7   20.48    0.57
   0  -1   7   20.44    0.57
   0  -1   7   20.16    0.58
   0  -1   7   19.85    0.55
   0  -1   7   20.18    0.63
  -1   1  -7   11.42    0.43
  -1   1  -7   10.96    0.42
  -1   1  -7   11.03    0.36
   1  -1   7   10.87    0.38
   1  -1   7   10.95    0.32
   1  -1   7   11.21    0.35
   1  -1   7   11.22    0.35
   1  -1   7   11.24    0.33
   1  -1   7   11.22    0.32
  -2   1  -7    3.26    0.21
  -2   1  -7    3.09    0.14
  -2   1  -7    2.97    0.13
  -2   1  -7    3.20    0.16
  -2   1  -7    2.97    0.13
  -2   1  -7    3.22    0.22
   2  -1   7    2.87    0.16
   2  -1   7    2.98    0.13
  -3   1  -7    0.91    0.10
  -3   1  -7    0.76    0.15
  -3   1  -7    0.60    0.07
  -3   1  -7    0.71    0.06
  -3   1  -7    0.83    0.09
  -3   1  -7    0.88    0.07
  -3   1  -7    0.89    0.14
   3  -1   7    0.75    0.10
   3  -1   7    0.68    0.05
   3  -1   7    0.65    0.07
   3  -1   7    0.83    0.08
  -4   1  -7    1.53    0.08
  -4   1  -7    1.55    0.12
  -4   1  -7    1.37    0.09
  -4   1  -7    1.37    0.11
   4  -1   7    1.37    0.10
   4  -1   7    1.43    0.08
   4  -1   7    1.54    0.12
   4  -1   7    1.41    0.07
  -5   1  -7    5.42    0.17
  -5   1  -7    5.08    0.19
  -5   1  -7    4.93    0.19
  -5   1  -7    5.33    0.16
  -5   1  -7    5.38    0.17
   5  -1   7    5.24    0.17
   5  -1   7    5.38    0.16
  -6   1  -7    5.65    0.16
   5   0  -7    2.61    0.13
   5   0  -7    2.92    0.10
   5   0  -7    2.87    0.11
   5   0  -7    2.64    0.11
  -5   0   7    2.86    0.10
  -5   0   7    2.73    0.11
   4   0  -7   11.97    0.38
   4   0  -7   12.29    0.34
   4   0  -7   11.89    0.35
   4   0  -7   11.66    0.36
  -4   0   7   12.08    0.34
  -4   0   7   11.27    0.37
  -4   0   7   11.92    0.47
  -4   0   7   11.73    0.40
   3   0  -7    6.18    0.22
   3   0  -7    7.10    0.25
   3   0  -7    6.51    0.23
   3   0  -7    6.69    0.21
  -3   0   7    6.62    0.29
  -3   0   7    6.78    0.20
  -3   0   7    7.03    0.23
  -3   0   7    6.49    0.22
  -3   0   7    6.78    0.20
   2   0  -7   10.93    0.40
   2   0  -7   11.04    0.31
   2   0  -7   10.42    0.32
   2   0  -7   10.02    0.40
   2   0  -7   10.76    0.35
  -2   0   7   10.96    0.33
  -2   0   7   10.76    0.39
  -2   0   7   10.72    0.42
  -2   0   7   10.49    0.30
  -2   0   7   11.46    0.33
  -2   0   7   11.53    0.30
  -2   0   7   11.25    0.32
   1   0  -7   32.59    0.96
   1   0  -7   33.37    0.98
  -1   0   7   33.06    0.89
  -1   0   7   34.38    0.91
  -1   0   7   34.80    0.91
  -1   0   7   33.96    0.98
  -1   0   7   34.43    0.91
  -1   0   7   34.21    0.89
   0   0  -7   26.29    0.80
   0   0  -7   25.59    0.78
   0   0   7   27.15    0.79
   0   0   7   27.51    0.74
   0   0   7   27.74    0.75
   0   0   7   27.21    0.74
   0   0   7   27.51    0.71
  -1   0  -7   10.09    0.39
  -1   0  -7    9.99    0.36
  -1   0  -7   10.19    0.39
   1   0   7   10.68    0.31
   1   0   7   10.79    0.33
   1   0   7   10.27    0.29
   1   0   7   10.59    0.38
   1   0   7   10.69    0.32
   1   0   7   10.56    0.35
  -2   0  -7    6.92    0.28
  -2   0  -7    7.21    0.30
  -2   0  -7    7.27    0.30
  -2   0  -7    7.39    0.25
   2   0   7    6.92    0.25
   2   0   7    7.29    0.23
   2   0   7    7.09    0.23
  -3   0  -7    7.25    0.24
  -3   0  -7    6.90    0.21
  -3   0  -7    7.36    0.25
  -3   0  -7    7.35    0.24
   3   0   7    7.27    0.26
   3   0   7    7.34    0.25
   3   0   7    7.20    0.27
   3   0   7    7.45    0.23
   3   0   7    6.84    0.21
   3   0   7    6.77    0.21
  -4   0  -7   25.81    0.72
  -4   0  -7   26.96    0.74
  -4   0  -7   26.07    0.70
   4   0   7   26.12    0.76
   4   0   7   25.68    0.69
   4   0   7   26.15    0.70
   4   0   7   26.28    0.72
  -5   0  -7    0.66    0.06
  -5   0  -7    0.75    0.09
  -5   0  -7    0.61    0.05
   5   0   7    0.58    0.05
   5   0   7    0.58    0.05
   5   0   7    0.55    0.09
   5   0   7    0.54    0.06
  -6   0  -7    4.79    0.15
  -6   0  -7    4.74    0.17
  -6   0  -7    4.51    0.16
  -6   0  -7    4.97    0.15
   6   0   7    4.94    0.14
   6   0   7    4.90    0.15
   6   0   7    4.94    0.14
   5  -1  -7    5.73    0.17
   5  -1  -7    5.56    0.20
   5  -1  -7    5.66    0.18
   5  -1  -7    5.73    0.16
  -5   1   7    5.35    0.17
  -5   1   7    5.62    0.18
   4  -1  -7    0.28    0.03
   4  -1  -7    0.22    0.05
   4  -1  -7    0.23    0.06
   4  -1  -7    0.34    0.05
  -4   1   7    0.32    0.04
  -4   1   7    0.31    0.04
  -4   1   7    0.24    0.07
   3  -1  -7    0.50    0.06
   3  -1  -7    0.47    0.08
   3  -1  -7    0.46    0.07
   3  -1  -7    0.44    0.04
  -3   1   7    0.38    0.07
  -3   1   7    0.37    0.05
  -3   1   7    0.49    0.10
  -3   1   7    0.48    0.06
   2  -1  -7    7.27    0.24
   2  -1  -7    7.06    0.23
   2  -1  -7    7.38    0.26
   2  -1  -7    6.95    0.31
   2  -1  -7    7.01    0.21
   2  -1  -7    6.92    0.23
  -2   1   7    7.24    0.22
  -2   1   7    7.12    0.21
  -2   1   7    7.01    0.24
  -2   1   7    7.06    0.29
   1  -1  -7   50.84    1.41
   1  -1  -7   48.97    1.33
   1  -1  -7   50.71    1.39
  -1   1   7   49.91    1.38
  -1   1   7   49.89    1.32
  -1   1   7   49.62    1.31
  -1   1   7   49.53    1.29
  -1   1   7   50.13    1.38
  -1   1   7   50.63    1.31
  -1   1   7   49.86    1.36
  -1   1   7   47.29    1.29
   0  -1  -7   25.47    0.81
   0  -1  -7   27.42    0.79
   0   1   7   26.87    0.73
   0   1   7   25.82    0.76
   0   1   7   26.22    0.72
   0   1   7   27.02    0.72
   0   1   7   24.45    0.77
   0   1   7   26.72    0.70
  -1  -1  -7   38.46    1.09
  -1  -1  -7   39.49    1.12
   1   1   7   38.87    1.02
   1   1   7   37.11    1.00
   1   1   7   37.66    1.02
   1   1   7   38.58    1.05
   1   1   7   37.38    1.03
  -2  -1  -7   28.38    0.85
  -2  -1  -7   28.29    0.83
   2   1   7   26.41    0.80
   2   1   7   28.60    0.76
  -3  -1  -7    1.08    0.08
  -3  -1  -7    1.14    0.10
  -3  -1  -7    1.25    0.09
  -3  -1  -7    1.36    0.16
  -3  -1  -7    1.08    0.13
   3   1   7    1.27    0.08
   3   1   7    1.38    0.10
  -4  -1  -7   24.98    0.71
  -4  -1  -7   25.54    0.79
  -4  -1  -7   25.37    0.69
  -4  -1  -7   25.25    0.78
  -4  -1  -7   25.55    0.71
  -4  -1  -7   24.01    0.69
   4   1   7   25.36    0.66
   4   1   7   24.86    0.68
   4   1   7   24.50    0.67
   4   1   7   24.36    0.72
   4   1   7   24.73    0.68
   4   1   7   24.15    0.72
  -5  -1  -7    5.75    0.19
  -5  -1  -7    5.68    0.22
  -5  -1  -7    4.78    0.34
  -5  -1  -7    5.77    0.18
  -5  -1  -7    5.91    0.22
  -5  -1  -7    5.50    0.29
   5   1   7    5.46    0.19
   5   1   7    5.70    0.19
   5   1   7    5.63    0.17
   5   1   7    5.72    0.19
   5   1   7    5.74    0.18
  -6  -1  -7    4.15    0.13
  -6  -1  -7    3.98    0.16
   6   1   7    4.19    0.13
   6   1   7    4.17    0.12
   6   1   7    4.06    0.13
   6   1   7    4.02    0.14
   6   1   7    4.24    0.14
   5  -2  -7    1.15    0.06
   5  -2  -7    1.23    0.05
   4  -2  -7    5.54    0.19
   4  -2  -7    5.52    0.18
   4  -2  -7    5.40    0.21
   4  -2  -7    5.53    0.17
  -4   2   7    5.79    0.18
  -4   2   7    5.34    0.23
  -4   2   7    5.22    0.18
  -4   2   7    5.85    0.19
  -4   2   7    5.70    0.24
   3  -2  -7   15.21    0.47
   3  -2  -7   14.76    0.42
   3  -2  -7   13.97    0.43
   3  -2  -7   15.18    0.44
   3  -2  -7   14.98    0.40
  -3   2   7   15.02    0.46
  -3   2   7   14.15    0.51
  -3   2   7   14.84    0.42
  -3   2   7   14.29    0.51
  -3   2   7   14.02    0.47
  -3   2   7   15.06    0.48
  -3   2   7   14.73    0.42
   2  -2  -7    8.79    0.31
   2  -2  -7    8.50    0.25
   2  -2  -7    8.78    0.27
   2  -2  -7    8.79    0.28
   2  -2  -7    9.03    0.37
   2  -2  -7    8.37    0.28
   2  -2  -7    8.30    0.27
  -2   2   7    8.44    0.34
  -2   2   7    8.90    0.27
  -2   2   7    9.02    0.35
  -2   2   7    8.28    0.30
  -2   2   7    9.04    0.32
  -2   2   7    8.70    0.31
  -2   2   7    8.89    0.29
   1  -2  -7   15.58    0.46
   1  -2  -7   16.93    0.54
   1  -2  -7   16.99    0.57
  -1   2   7   15.92    0.50
  -1   2   7   16.01    0.51
  -1   2   7   16.34    0.44
  -1   2   7   16.09    0.47
  -1   2   7   16.09    0.48
  -1   2   7   15.29    0.53
  -1   2   7   15.68    0.45
  -1   2   7   16.90    0.46
  -1   2   7   15.76    0.52
  -1   2   7   14.74    0.51
   0  -2  -7   50.77    1.38
   0  -2  -7   48.40    1.35
   0   2   7   47.88    1.28
   0   2   7   46.57    1.30
   0   2   7   47.20    1.25
   0   2   7   48.04    1.27
   0   2   7   48.52    1.31
   0   2   7   47.07    1.27
   0   2   7   47.32    1.25
   0   2   7   46.91    1.32
  -1  -2  -7   10.03    0.38
  -1  -2  -7    9.58    0.40
   1   2   7    9.63    0.33
   1   2   7    9.77    0.34
   1   2   7   10.30    0.31
  -2  -2  -7   51.45    1.45
  -2  -2  -7   51.06    1.43
   2   2   7   51.15    1.35
   2   2   7   50.31    1.39
  -3  -2  -7   19.52    0.60
  -3  -2  -7   20.34    0.70
  -3  -2  -7   19.98    0.59
  -3  -2  -7   19.97    0.57
  -3  -2  -7   21.15    0.67
  -3  -2  -7   19.81    0.64
  -3  -2  -7   20.52    0.65
   3   2   7   20.36    0.61
   3   2   7   20.02    0.57
   3   2   7   21.14    0.56
  -4  -2  -7  239.05    6.04
  -4  -2  -7  233.92    6.02
  -4  -2  -7  227.78    6.18
  -4  -2  -7  242.30    6.22
  -4  -2  -7  232.85    6.12
  -4  -2  -7  242.00    6.05
  -4  -2  -7  236.47    6.14
   4   2   7  242.24    6.01
   4   2   7  228.88    6.00
   4   2   7  231.78    6.05
   4   2   7  224.31    6.00
   4   2   7  234.20    6.01
  -5  -2  -7   26.23    0.74
  -5  -2  -7   24.53    0.75
  -5  -2  -7   25.41    0.71
  -5  -2  -7   26.40    0.74
  -5  -2  -7   25.50    0.82
  -5  -2  -7   27.33    0.84
   5   2   7   26.77    0.71
   5   2   7   26.25    0.70
   5   2   7   26.39    0.69
   5   2   7   25.61    0.71
  -6  -2  -7    1.89    0.11
  -6  -2  -7    1.90    0.08
  -6  -2  -7    1.79    0.08
  -6  -2  -7    1.99    0.11
   6   2   7    1.95    0.09
   6   2   7    1.84    0.09
   6   2   7    1.80    0.07
   6   2   7    1.85    0.08
   7   2   7    1.01    0.05
   4  -3  -7    3.03    0.13
   4  -3  -7    3.18    0.12
   4  -3  -7    2.99    0.10
  -4   3   7    2.90    0.15
  -4   3   7    2.96    0.12
  -4   3   7    2.89    0.12
   3  -3  -7    0.11    0.04
   3  -3  -7    0.16    0.04
   3  -3  -7    0.21    0.06
   3  -3  -7    0.13    0.04
  -3   3   7    0.16    0.04
  -3   3   7    0.18    0.04
  -3   3   7    0.19    0.08
  -3   3   7    0.12    0.05
  -3   3   7    0.20    0.07
   2  -3  -7   17.40    0.58
   2  -3  -7   18.13    0.54
   2  -3  -7   18.03    0.49
   2  -3  -7   17.87    0.50
   2  -3  -7   17.35    0.49
   2  -3  -7   17.47    0.50
  -2   3   7   16.34    0.54
  -2   3   7   16.99    0.57
  -2   3   7   17.55    0.50
  -2   3   7   17.61    0.54
  -2   3   7   16.48    0.49
  -2   3   7   16.61    0.57
   1  -3  -7   21.92    0.62
   1  -3  -7   21.75    0.62
   1  -3  -7   22.52    0.70
   1  -3  -7   22.37    0.61
   1  -3  -7   23.13    0.72
   1  -3  -7   21.09    0.62
  -1   3   7   21.29    0.61
  -1   3   7   22.79    0.70
  -1   3   7   22.71    0.66
   0  -3  -7   28.07    0.83
   0  -3  -7   32.59    0.96
   0  -3  -7   30.73    0.92
   0   3   7   31.60    0.90
   0   3   7   30.96    0.84
   0   3   7   31.46    0.89
   0   3   7   29.47    0.89
  -1  -3  -7   14.09    0.49
  -1  -3  -7   13.83    0.51
   1   3   7   13.65    0.41
   1   3   7   13.35    0.45
   1   3   7   13.59    0.45
   1   3   7   13.62    0.46
  -2  -3  -7   44.38    1.24
  -2  -3  -7   41.38    1.18
  -2  -3  -7   44.20    1.27
   2   3   7   42.84    1.20
   2   3   7   42.75    1.16
   2   3   7   43.26    1.21
  -3  -3  -7   41.53    1.26
  -3  -3  -7   41.98    1.19
  -3  -3  -7   43.28    1.21
  -3  -3  -7   41.54    1.22
  -3  -3  -7   41.22    1.14
  -3  -3  -7   40.42    1.13
  -3  -3  -7   42.63    1.12
   3   3   7   40.15    1.09
   3   3   7   41.59    1.10
   3   3   7   41.44    1.12
   3   3   7   41.18    1.20
   3   3   7   43.35    1.17
   3   3   7   41.45    1.09
   3   3   7   42.00    1.10
   3   3   7   40.65    1.17
  -4  -3  -7   56.28    1.67
  -4  -3  -7   57.51    1.63
  -4  -3  -7   59.84    1.51
  -4  -3  -7   59.16    1.53
  -4  -3  -7   56.65    1.61
  -4  -3  -7   59.07    1.54
  -4  -3  -7   55.26    1.59
   4   3   7   55.64    1.62
   4   3   7   57.10    1.48
   4   3   7   55.45    1.49
   4   3   7   57.24    1.50
   4   3   7   55.92    1.54
   4   3   7   56.17    1.50
  -5  -3  -7    2.38    0.14
  -5  -3  -7    2.06    0.13
  -5  -3  -7    2.15    0.20
  -5  -3  -7    2.08    0.11
  -5  -3  -7    2.38    0.21
  -5  -3  -7    2.07    0.18
   5   3   7    2.06    0.10
   5   3   7    2.22    0.11
   5   3   7    2.15    0.10
   5   3   7    2.23    0.09
   5   3   7    2.29    0.10
   5   3   7    2.14    0.13
  -6  -3  -7    3.17    0.14
  -6  -3  -7    2.98    0.15
  -6  -3  -7    2.91    0.11
  -6  -3  -7    2.82    0.23
  -6  -3  -7    2.88    0.13
   6   3   7    2.90    0.10
   6   3   7    2.93    0.12
   6   3   7    2.96    0.11
   6   3   7    2.94    0.10
   7   3   7    0.38    0.03
   7   3   7    0.37    0.03
   3  -4  -7    1.67    0.08
   3  -4  -7    1.76    0.10
   3  -4  -7    1.74    0.09
  -3   4   7    1.58    0.08
  -3   4   7    1.57    0.10
  -3   4   7    1.64    0.13
   2  -4  -7    4.31    0.17
   2  -4  -7    4.42    0.15
   2  -4  -7    4.55    0.20
   2  -4  -7    4.43    0.17
  -2   4   7    4.41    0.20
  -2   4   7    4.72    0.24
   1  -4  -7    4.88    0.16
   1  -4  -7    4.50    0.17
   1  -4  -7    4.23    0.17
   1  -4  -7    4.79    0.18
   1  -4  -7    4.54    0.24
  -1   4   7    4.12    0.24
  -1   4   7    4.58    0.20
  -1   4   7    4.25    0.16
   0  -4  -7  235.36    5.89
   0  -4  -7  231.87    6.00
   0  -4  -7  220.32    5.86
   0  -4  -7  238.52    5.89
   0  -4  -7  237.32    5.97
   0   4   7  231.85    5.98
   0   4   7  230.77    5.88
   0   4   7  215.46    5.90
   0   4   7  230.91    5.95
   0   4   7  230.54    5.87
   0   4   7  221.20    5.92
   0   4   7  228.12    5.90
  -1  -4  -7   32.56    0.96
  -1  -4  -7   29.65    0.86
  -1  -4  -7   31.97    0.85
  -1  -4  -7   32.34    0.87
  -1  -4  -7   32.92    0.99
   1   4   7   30.81    0.90
   1   4   7   32.80    0.88
   1   4   7   32.61    0.85
   1   4   7   31.93    0.93
   1   4   7   31.84    0.87
   1   4   7   30.58    0.94
   1   4   7   32.22    0.86
  -2  -4  -7    0.85    0.09
  -2  -4  -7    1.15    0.18
  -2  -4  -7    0.95    0.07
  -2  -4  -7    0.86    0.15
  -2  -4  -7    0.88    0.06
   2   4   7    1.02    0.07
   2   4   7    0.85    0.08
   2   4   7    0.80    0.10
   2   4   7    0.96    0.09
   2   4   7    0.98    0.12
   2   4   7    1.03    0.13
   2   4   7    1.00    0.07
   2   4   7    0.97    0.08
  -3  -4  -7   27.30    0.72
  -3  -4  -7   27.01    0.87
  -3  -4  -7   27.83    0.85
  -3  -4  -7   26.83    0.89
  -3  -4  -7   27.05    0.77
  -3  -4  -7   26.12    0.76
   3   4   7   26.43    0.74
   3   4   7   27.43    0.72
   3   4   7   25.99    0.71
   3   4   7   26.42    0.72
   3   4   7   27.80    0.75
   3   4   7   26.15    0.80
   3   4   7   27.65    0.81
   3   4   7   26.47    0.77
   3   4   7   26.39    0.72
   3   4   7   26.09    0.84
   3   4   7   26.80    0.73
  -4  -4  -7    9.68    0.40
  -4  -4  -7    9.89    0.30
  -4  -4  -7    9.41    0.33
  -4  -4  -7    9.16    0.42
  -4  -4  -7    9.21    0.41
  -4  -4  -7    9.89    0.33
   4   4   7    9.94    0.30
   4   4   7    9.21    0.29
   4   4   7    8.87    0.32
   4   4   7    9.46    0.27
   4   4   7    9.53    0.28
   4   4   7    9.55    0.35
  -5  -4  -7   11.62    0.36
  -5  -4  -7   10.55    0.36
  -5  -4  -7    9.86    0.47
  -5  -4  -7   10.84    0.44
   5   4   7   10.37    0.41
   5   4   7   11.12    0.33
   5   4   7   11.34    0.31
   5   4   7   11.23    0.33
   5   4   7   11.31    0.32
   5   4   7   11.06    0.32
  -6  -4  -7    1.84    0.08
  -6  -4  -7    1.75    0.11
   6   4   7    1.76    0.08
   6   4   7    1.88    0.08
   6   4   7    1.77    0.09
   6   4   7    1.74    0.07
   6   4   7    1.79    0.07
   7   4   7    3.67    0.11
  -3   5   7    4.38    0.15
   2  -5  -7    1.95    0.11
   2  -5  -7    2.00    0.09
   2  -5  -7    1.83    0.09
  -2   5   7    1.82    0.08
  -2   5   7    1.86    0.13
  -2   5   7    1.93    0.11
   1  -5  -7   25.63    0.73
   1  -5  -7   25.75    0.70
   1  -5  -7   25.24    0.69
   1  -5  -7   25.81    0.70
  -1   5   7   24.56    0.70
  -1   5   7   25.88    0.73
  -1   5   7   25.05    0.69
  -1   5   7   25.82    0.78
   0  -5  -7   12.11    0.37
   0  -5  -7   12.54    0.37
   0  -5  -7   12.53    0.35
   0   5   7   11.38    0.43
   0   5   7   11.99    0.36
   0   5   7   12.82    0.35
   0   5   7   12.54    0.40
   0   5   7   12.58    0.45
   0   5   7   11.82    0.38
  -1  -5  -7    0.19    0.05
  -1  -5  -7    0.08    0.03
  -1  -5  -7    0.12    0.05
   1   5   7    0.07    0.05
   1   5   7    0.05    0.08
   1   5   7    0.12    0.05
   1   5   7    0.09    0.04
   1   5   7    0.05    0.06
   1   5   7    0.11    0.06
  -2  -5  -7   26.14    0.69
  -2  -5  -7   25.04    0.71
  -2  -5  -7   24.82    0.81
  -2  -5  -7   25.18    0.70
   2   5   7   25.76    0.79
   2   5   7   25.02    0.70
   2   5   7   25.53    0.69
   2   5   7   24.75    0.73
   2   5   7   25.87    0.78
   2   5   7   25.13    0.71
   2   5   7   25.49    0.69
  -3  -5  -7   20.93    0.58
  -3  -5  -7   20.29    0.69
  -3  -5  -7   21.30    0.62
  -3  -5  -7   21.58    0.72
  -3  -5  -7   20.81    0.63
   3   5   7   21.03    0.58
   3   5   7   22.04    0.59
   3   5   7   20.61    0.63
   3   5   7   21.51    0.58
   3   5   7   22.35    0.67
   3   5   7   22.20    0.69
   3   5   7   21.30    0.61
   3   5   7   21.49    0.60
  -4  -5  -7    1.17    0.07
  -4  -5  -7    1.03    0.15
  -4  -5  -7    1.01    0.11
  -4  -5  -7    1.12    0.10
  -4  -5  -7    1.37    0.18
  -4  -5  -7    0.94    0.15
   4   5   7    1.00    0.13
   4   5   7    1.02    0.12
   4   5   7    1.04    0.08
   4   5   7    1.06    0.07
   4   5   7    1.14    0.08
  -5  -5  -7    2.73    0.22
  -5  -5  -7    2.98    0.12
  -5  -5  -7    3.10    0.15
  -5  -5  -7    3.25    0.15
   5   5   7    2.90    0.12
   5   5   7    3.12    0.13
   5   5   7    3.07    0.11
   5   5   7    2.96    0.12
  -6  -5  -7    0.53    0.07
  -6  -5  -7    0.56    0.05
   6   5   7    0.63    0.04
   6   5   7    0.52    0.04
   6   5   7    0.56    0.06
   6   5   7    0.54    0.05
   1  -6  -7    2.29    0.09
   1  -6  -7    2.35    0.09
  -1   6   7    2.26    0.13
  -1   6   7    2.28    0.11
  -1   6   7    2.17    0.10
  -1   6   7    2.30    0.09
   0  -6  -7   18.36    0.50
   0  -6  -7   17.78    0.50
   0   6   7   17.41    0.51
   0   6   7   18.11    0.50
   0   6   7   17.45    0.56
   0   6   7   18.00    0.52
  -1  -6  -7    4.27    0.16
  -1  -6  -7    4.33    0.16
  -1  -6  -7    4.22    0.14
   1   6   7    4.19    0.21
   1   6   7    4.35    0.18
   1   6   7    4.24    0.17
   1   6   7    4.23    0.16
   1   6   7    4.09    0.22
   1   6   7    4.30    0.15
  -2  -6  -7    3.65    0.13
  -2  -6  -7    3.59    0.14
   2   6   7    3.80    0.14
   2   6   7    3.40    0.16
   2   6   7    3.69    0.20
   2   6   7    3.70    0.22
   2   6   7    3.56    0.13
   2   6   7    3.63    0.13
  -3  -6  -7    7.19    0.24
  -3  -6  -7    8.10    0.23
  -3  -6  -7    7.80    0.26
   3   6   7    7.92    0.24
   3   6   7    7.87    0.25
   3   6   7    7.78    0.26
   3   6   7    7.66    0.30
   3   6   7    7.49    0.33
   3   6   7    7.76    0.23
  -4  -6  -7    2.16    0.12
  -4  -6  -7    2.07    0.08
  -4  -6  -7    2.00    0.12
   4   6   7    2.13    0.10
   4   6   7    1.95    0.14
   4   6   7    2.06    0.09
   4   6   7    1.99    0.08
   4   6   7    1.81    0.16
   4   6   7    1.98    0.09
  -5  -6  -7    1.59    0.10
  -5  -6  -7    1.54    0.08
   5   6   7    1.54    0.07
   5   6   7    1.53    0.09
   5   6   7    1.50    0.07
   6   6   7    5.58    0.18
   6   6   7    5.99    0.16
   0  -7  -7    5.10    0.15
   0   7   7    4.91    0.14
   0   7   7    5.08    0.15
  -1  -7  -7    1.47    0.07
  -1  -7  -7    1.42    0.06
  -1  -7  -7    1.34    0.07
   1   7   7    1.60    0.08
   1   7   7    1.54    0.07
   1   7   7    1.37    0.10
   1   7   7    1.56    0.06
   1   7   7    1.41    0.06
  -2  -7  -7    3.89    0.12
  -2  -7  -7    3.93    0.14
   2   7   7    3.85    0.13
   2   7   7    3.81    0.13
   2   7   7    3.90    0.14
   2   7   7    4.07    0.13
   2   7   7    3.83    0.17
   2   7   7    3.76    0.20
  -3  -7  -7    0.97    0.05
  -3  -7  -7    0.92    0.06
   3   7   7    0.93    0.05
   3   7   7    0.94    0.09
   3   7   7    0.97    0.06
   3   7   7    0.91    0.07
   3   7   7    0.94    0.06
   3   7   7    0.93    0.11
  -4  -7  -7    0.60    0.05
  -4  -7  -7    0.61    0.04
   4   7   7    0.50    0.09
   4   7   7    0.58    0.07
   4   7   7    0.66    0.04
  -5  -7  -7    1.21    0.07
   5   7   7    1.26    0.05
   3   5  -8    0.39    0.08
   3   5  -8    0.31    0.04
  -3  -5   8    0.36    0.03
   2   5  -8    5.68    0.24
   2   5  -8    5.92    0.19
   2   5  -8    5.99    0.17
  -2  -5   8    5.95    0.18
   1   5  -8    0.73    0.06
   1   5  -8    0.76    0.10
   1   5  -8    0.79    0.05
   1   5  -8    0.79    0.09
   1   5  -8    0.83    0.06
  -1  -5   8    0.75    0.05
  -1  -5   8    0.82    0.05
   0   5  -8    1.55    0.07
   0   5  -8    1.54    0.07
   0   5  -8    1.62    0.12
   0   5  -8    1.52    0.08
   0   5  -8    1.51    0.10
   0   5  -8    1.55    0.07
   0  -5   8    1.66    0.09
   0  -5   8    1.71    0.07
  -1   5  -8    0.48    0.04
  -1   5  -8    0.52    0.04
  -1   5  -8    0.58    0.06
  -1   5  -8    0.48    0.04
   1  -5   8    0.51    0.04
   1  -5   8    0.50    0.04
   4   4  -8    0.68    0.11
   3   4  -8    1.29    0.08
   3   4  -8    1.35    0.14
  -3  -4   8    1.19    0.06
  -3  -4   8    1.18    0.05
   2   4  -8    3.15    0.19
   2   4  -8    3.19    0.14
   2   4  -8    3.74    0.15
  -2  -4   8    3.27    0.12
  -2  -4   8    3.42    0.12
   1   4  -8   13.32    0.37
   1   4  -8   12.69    0.43
   1   4  -8   12.94    0.45
   1   4  -8   13.33    0.39
   1   4  -8   13.11    0.39
  -1  -4   8   13.14    0.37
  -1  -4   8   12.96    0.37
   0   4  -8    0.27    0.05
   0   4  -8    0.27    0.05
   0   4  -8    0.28    0.04
   0   4  -8    0.23    0.12
   0   4  -8    0.43    0.06
   0   4  -8    0.30    0.09
   0   4  -8    0.25    0.04
   0   4  -8    0.22    0.08
   0  -4   8    0.30    0.05
   0  -4   8    0.29    0.04
  -1   4  -8    6.27    0.32
  -1   4  -8    6.58    0.23
  -1   4  -8    6.87    0.22
  -1   4  -8    6.71    0.23
  -1   4  -8    6.93    0.20
  -1   4  -8    6.68    0.26
  -1   4  -8    7.08    0.22
  -1   4  -8    6.64    0.26
   1  -4   8    6.92    0.21
  -2   4  -8    0.11    0.02
  -2   4  -8    0.07    0.05
  -2   4  -8    0.08    0.03
  -2   4  -8    0.06    0.03
  -2   4  -8    0.06    0.03
   2  -4   8    0.11    0.03
  -3   4  -8    4.01    0.13
   4   3  -8    3.19    0.20
   3   3  -8    7.83    0.25
   3   3  -8    7.91    0.33
  -3  -3   8    7.64    0.22
   2   3  -8    3.14    0.12
   2   3  -8    3.04    0.20
   2   3  -8    2.99    0.14
  -2  -3   8    3.05    0.11
  -2  -3   8    3.18    0.11
  -2  -3   8    3.19    0.14
   1   3  -8    4.51    0.16
   1   3  -8    4.68    0.23
   1   3  -8    4.61    0.15
   1   3  -8    4.65    0.17
   1   3  -8    4.89    0.23
   1   3  -8    4.59    0.18
  -1  -3   8    4.69    0.19
  -1  -3   8    4.47    0.16
  -1  -3   8    4.74    0.16
   0   3  -8   24.92    0.74
   0   3  -8   24.73    0.74
   0   3  -8   24.61    0.69
   0   3  -8   24.07    0.68
   0   3  -8   24.57    0.67
   0   3  -8   25.18    0.69
   0   3  -8   25.42    0.67
   0   3  -8   24.89    0.83
   0  -3   8   23.84    0.72
   0  -3   8   24.27    0.67
   0  -3   8   26.07    0.67
  -1   3  -8    9.70    0.34
  -1   3  -8    8.62    0.28
  -1   3  -8    9.56    0.29
  -1   3  -8    9.52    0.41
  -1   3  -8    9.14    0.30
  -1   3  -8    8.31    0.32
  -1   3  -8    8.93    0.27
  -1   3  -8    8.97    0.27
   1  -3   8    8.83    0.28
   1  -3   8    8.80    0.27
  -2   3  -8    2.68    0.12
  -2   3  -8    2.78    0.16
  -2   3  -8    2.69    0.12
  -2   3  -8    2.83    0.14
  -2   3  -8    2.62    0.21
  -2   3  -8    2.74    0.10
   2  -3   8    2.84    0.11
   2  -3   8    2.89    0.11
  -3   3  -8    8.54    0.25
  -3   3  -8    8.37    0.26
  -3   3  -8    8.51    0.27
  -3   3  -8    7.98    0.29
   3  -3   8    8.41    0.25
  -4   3  -8    7.25    0.21
   4  -3   8    7.09    0.20
   5   2  -8    2.24    0.08
   4   2  -8    4.53    0.14
   4   2  -8    4.60    0.24
  -4  -2   8    4.54    0.14
   3   2  -8    4.46    0.15
   3   2  -8    4.67    0.26
   3   2  -8    4.56    0.20
  -3  -2   8    4.51    0.14
  -3  -2   8    4.61    0.16
   2   2  -8   30.36    0.82
   2   2  -8   29.83    0.79
   2   2  -8   28.99    0.80
   2   2  -8   30.66    0.90
  -2  -2   8   29.56    0.79
  -2  -2   8   30.25    0.81
  -2  -2   8   29.68    0.84
  -2  -2   8   30.91    0.79
  -2  -2   8   29.77    0.82
   1   2  -8    2.91    0.17
   1   2  -8    2.65    0.18
   1   2  -8    2.62    0.13
   1   2  -8    2.72    0.10
   1   2  -8    2.76    0.11
  -1  -2   8    2.69    0.13
  -1  -2   8    2.71    0.13
  -1  -2   8    2.53    0.12
  -1  -2   8    2.63    0.10
  -1  -2   8    2.77    0.10
   0   2  -8    0.92    0.11
   0   2  -8    0.85    0.16
   0   2  -8    0.84    0.08
   0   2  -8    0.74    0.06
   0   2  -8    0.88    0.11
   0   2  -8    0.67    0.07
   0   2  -8    0.75    0.05
   0  -2   8    0.67    0.07
   0  -2   8    0.82    0.07
   0  -2   8    0.72    0.06
   0  -2   8    0.71    0.08
   0  -2   8    0.84    0.08
   0  -2   8    0.72    0.05
  -1   2  -8  254.30    6.52
  -1   2  -8  244.08    6.40
  -1   2  -8  246.31    6.40
  -1   2  -8  254.40    6.38
  -1   2  -8  251.84    6.44
  -1   2  -8  244.15    6.41
  -1   2  -8  259.83    6.41
   1  -2   8  252.07    6.38
   1  -2   8  245.92    6.40
   1  -2   8  239.94    6.40
   1  -2   8  251.07    6.38
  -2   2  -8   75.10    1.97
  -2   2  -8   74.75    1.99
  -2   2  -8   75.93    1.95
  -2   2  -8   74.63    2.01
  -2   2  -8   75.13    2.12
  -2   2  -8   75.23    2.10
  -2   2  -8   75.99    1.98
   2  -2   8   75.90    1.97
  -3   2  -8    3.79    0.15
  -3   2  -8    3.58    0.13
  -3   2  -8    3.86    0.15
  -3   2  -8    3.69    0.18
  -3   2  -8    3.96    0.24
  -3   2  -8    3.90    0.16
   3  -2   8    3.73    0.18
   3  -2   8    3.67    0.14
  -4   2  -8    2.05    0.12
  -4   2  -8    2.33    0.11
  -4   2  -8    2.42    0.10
  -4   2  -8    2.36    0.09
  -4   2  -8    2.25    0.08
   4  -2   8    2.25    0.10
  -5   2  -8    0.95    0.04
   5  -2   8    0.98    0.05
   5   1  -8    1.34    0.08
   5   1  -8    1.32    0.06
   5   1  -8    1.41    0.06
  -5  -1   8    1.36    0.06
   4   1  -8    3.82    0.17
   4   1  -8    3.80    0.13
  -4  -1   8    4.21    0.13
  -4  -1   8    4.03    0.13
   3   1  -8   34.53    0.93
   3   1  -8   35.69    0.91
   3   1  -8   36.13    1.04
  -3  -1   8   34.26    0.93
  -3  -1   8   33.92    0.90
  -3  -1   8   33.04    0.90
   2   1  -8   63.11    1.71
   2   1  -8   64.16    1.70
   2   1  -8   66.35    1.69
   2   1  -8   65.36    1.79
  -2  -1   8   66.67    1.68
  -2  -1   8   65.81    1.70
  -2  -1   8   63.29    1.68
  -2  -1   8   63.96    1.71
  -2  -1   8   65.97    1.71
   1   1  -8    7.05    0.23
   1   1  -8    6.84    0.24
   1   1  -8    7.18    0.29
   1   1  -8    7.34    0.21
  -1  -1   8    7.14    0.24
  -1  -1   8    7.33    0.23
  -1  -1   8    7.31    0.22
  -1  -1   8    7.47    0.25
  -1  -1   8    7.32    0.21
   0   1  -8   86.84    2.27
   0   1  -8   82.57    2.43
   0   1  -8   86.20    2.25
   0   1  -8   88.44    2.31
   0  -1   8   85.14    2.35
   0  -1   8   89.87    2.29
   0  -1   8   88.66    2.28
   0  -1   8   88.49    2.28
   0  -1   8   88.69    2.26
   0  -1   8   88.44    2.25
  -1   1  -8    6.29    0.21
  -1   1  -8    6.72    0.22
  -1   1  -8    6.80    0.26
  -1   1  -8    7.19    0.32
   1  -1   8    6.67    0.22
   1  -1   8    6.81    0.21
   1  -1   8    6.50    0.20
   1  -1   8    6.70    0.23
   1  -1   8    6.42    0.24
  -2   1  -8    1.62    0.07
  -2   1  -8    1.67    0.09
  -2   1  -8    1.67    0.17
  -2   1  -8    1.74    0.18
  -2   1  -8    1.58    0.10
  -2   1  -8    1.74    0.11
  -2   1  -8    1.66    0.13
   2  -1   8    1.72    0.10
  -3   1  -8    1.66    0.10
  -3   1  -8    1.60    0.18
  -3   1  -8    1.80    0.11
  -3   1  -8    1.65    0.17
  -3   1  -8    1.66    0.10
  -3   1  -8    1.61    0.13
   3  -1   8    1.70    0.10
   3  -1   8    1.78    0.10
   3  -1   8    1.66    0.07
   3  -1   8    1.62    0.12
  -4   1  -8    1.94    0.10
  -4   1  -8    1.99    0.08
  -4   1  -8    1.98    0.12
   4  -1   8    1.89    0.13
   4  -1   8    1.90    0.08
   4  -1   8    1.99    0.10
  -5   1  -8    0.35    0.04
  -5   1  -8    0.35    0.04
  -5   1  -8    0.39    0.04
  -5   1  -8    0.39    0.05
   5  -1   8    0.38    0.04
   5  -1   8    0.35    0.04
   5   0  -8    3.62    0.11
   5   0  -8    3.46    0.12
  -5   0   8    3.41    0.13
  -5   0   8    3.47    0.12
   4   0  -8    0.52    0.07
   4   0  -8    0.61    0.05
   4   0  -8    0.68    0.06
   4   0  -8    0.62    0.08
  -4   0   8    0.57    0.05
  -4   0   8    0.60    0.05
  -4   0   8    0.53    0.09
   3   0  -8   58.54    1.49
   3   0  -8   56.09    1.53
   3   0  -8   58.03    1.52
   3   0  -8   54.86    1.50
  -3   0   8   58.34    1.52
  -3   0   8   56.68    1.59
  -3   0   8   56.94    1.48
  -3   0   8   57.13    1.49
   2   0  -8  206.57    5.59
   2   0  -8  221.12    5.59
   2   0  -8  211.30    5.61
   2   0  -8  213.10    5.69
   2   0  -8  218.53    5.61
   2   0  -8  226.54    5.68
   2   0  -8  216.21    5.60
  -2   0   8  216.71    5.60
  -2   0   8  217.57    5.61
  -2   0   8  217.17    5.65
  -2   0   8  227.62    5.62
  -2   0   8  221.33    5.58
  -2   0   8  224.81    5.58
   1   0  -8   51.98    1.48
   1   0  -8   52.58    1.47
   1   0  -8   53.09    1.41
   1   0  -8   52.86    1.49
   1   0  -8   52.48    1.39
  -1   0   8   53.42    1.39
  -1   0   8   54.64    1.39
  -1   0   8   53.49    1.42
  -1   0   8   54.18    1.49
  -1   0   8   53.75    1.42
  -1   0   8   55.39    1.41
  -1   0   8   54.04    1.47
   0   0  -8   11.99    0.42
   0   0  -8   12.38    0.40
   0   0  -8   12.04    0.44
   0   0   8   12.30    0.42
   0   0   8   11.91    0.35
   0   0   8   12.57    0.37
   0   0   8   12.49    0.35
   0   0   8   12.41    0.42
   0   0   8   12.86    0.38
   0   0   8   12.79    0.37
  -1   0  -8   10.03    0.39
  -1   0  -8   10.37    0.33
  -1   0  -8    9.37    0.36
   1   0   8    9.37    0.28
   1   0   8    9.55    0.34
   1   0   8    9.55    0.31
   1   0   8    9.99    0.30
   1   0   8    9.53    0.35
   1   0   8    9.90    0.32
   1   0   8   10.11    0.28
  -2   0  -8    3.60    0.16
  -2   0  -8    4.10    0.22
  -2   0  -8    4.10    0.15
   2   0   8    3.79    0.18
   2   0   8    3.76    0.15
  -3   0  -8    0.32    0.05
  -3   0  -8    0.27    0.05
  -3   0  -8    0.20    0.06
   3   0   8    0.33    0.07
   3   0   8    0.26    0.05
   3   0   8    0.25    0.03
   3   0   8    0.38    0.05
   3   0   8    0.24    0.03
   3   0   8    0.29    0.07
  -4   0  -8    7.47    0.24
  -4   0  -8    6.85    0.24
  -4   0  -8    7.25    0.26
  -4   0  -8    6.86    0.22
   4   0   8    7.48    0.22
   4   0   8    7.23    0.21
   4   0   8    7.26    0.24
   4   0   8    7.52    0.27
  -5   0  -8    6.01    0.19
  -5   0  -8    6.26    0.20
  -5   0  -8    6.28    0.22
   5   0   8    5.59    0.23
   5   0   8    6.30    0.18
   5   0   8    6.50    0.20
   5   0   8    6.07    0.18
  -6   0  -8    0.21    0.03
  -6   0  -8    0.31    0.04
   6   0   8    0.26    0.02
   6   0   8    0.23    0.02
   6   0   8    0.30    0.03
   5  -1  -8    3.04    0.10
   5  -1  -8    3.20    0.10
   4  -1  -8    4.83    0.15
   4  -1  -8    5.00    0.18
   4  -1  -8    4.96    0.20
   4  -1  -8    5.05    0.17
  -4   1   8    4.85    0.16
  -4   1   8    4.79    0.16
  -4   1   8    4.67    0.21
   3  -1  -8   15.94    0.48
   3  -1  -8   15.13    0.43
   3  -1  -8   14.99    0.45
   3  -1  -8   14.40    0.44
   3  -1  -8   15.01    0.42
  -3   1   8   14.73    0.47
  -3   1   8   15.39    0.42
  -3   1   8   14.94    0.52
  -3   1   8   15.18    0.43
   2  -1  -8   18.85    0.51
   2  -1  -8   18.31    0.54
   2  -1  -8   19.32    0.56
   2  -1  -8   18.72    0.53
   2  -1  -8   18.74    0.55
   2  -1  -8   19.31    0.63
   2  -1  -8   19.12    0.53
  -2   1   8   18.71    0.51
  -2   1   8   18.86    0.52
  -2   1   8   19.04    0.60
  -2   1   8   18.94    0.54
   1  -1  -8    4.33    0.16
   1  -1  -8    4.20    0.18
   1  -1  -8    4.34    0.14
   1  -1  -8    4.56    0.25
   1  -1  -8    4.57    0.23
  -1   1   8    4.51    0.15
  -1   1   8    4.29    0.21
  -1   1   8    4.47    0.14
  -1   1   8    4.23    0.23
  -1   1   8    4.37    0.16
  -1   1   8    4.46    0.17
  -1   1   8    4.32    0.20
  -1   1   8    4.74    0.17
   0  -1  -8   42.66    1.17
   0  -1  -8   40.51    1.19
   0   1   8   40.64    1.08
   0   1   8   41.84    1.11
   0   1   8   40.53    1.15
   0   1   8   41.35    1.10
   0   1   8   41.10    1.15
   0   1   8   40.07    1.16
   0   1   8   40.17    1.10
   0   1   8   41.18    1.07
  -1  -1  -8    9.80    0.37
  -1  -1  -8    9.85    0.39
   1   1   8    9.41    0.33
   1   1   8    9.39    0.28
   1   1   8    9.77    0.30
   1   1   8    9.54    0.34
   1   1   8    9.73    0.29
  -2  -1  -8    6.99    0.30
  -2  -1  -8    7.96    0.35
   2   1   8    6.94    0.24
   2   1   8    7.37    0.27
  -3  -1  -8   30.07    0.90
  -3  -1  -8   29.86    0.82
  -3  -1  -8   30.21    0.83
  -3  -1  -8   30.69    0.82
  -3  -1  -8   30.26    0.92
   3   1   8   28.75    0.79
   3   1   8   30.66    0.85
   3   1   8   29.58    0.84
   3   1   8   30.40    0.79
   3   1   8   29.55    0.81
  -4  -1  -8    5.59    0.18
  -4  -1  -8    5.36    0.29
  -4  -1  -8    5.54    0.19
  -4  -1  -8    5.34    0.27
  -4  -1  -8    5.47    0.21
  -4  -1  -8    5.56    0.20
   4   1   8    5.31    0.19
   4   1   8    5.58    0.22
   4   1   8    5.43    0.18
   4   1   8    5.53    0.22
   4   1   8    5.49    0.17
   4   1   8    5.40    0.17
  -5  -1  -8   10.47    0.30
  -5  -1  -8   10.25    0.31
  -5  -1  -8   10.64    0.34
   5   1   8   10.28    0.31
   5   1   8   10.29    0.30
   5   1   8   10.52    0.29
   5   1   8   10.54    0.30
   5   1   8   10.30    0.31
  -6  -1  -8    5.34    0.16
  -6  -1  -8    5.41    0.18
  -6  -1  -8    5.39    0.17
  -6  -1  -8    5.66    0.19
   6   1   8    5.57    0.16
   6   1   8    5.38    0.16
   6   1   8    5.36    0.17
   6   1   8    5.38    0.17
   6   1   8    5.57    0.16
   4  -2  -8    7.56    0.26
   4  -2  -8    7.89    0.24
   4  -2  -8    7.67    0.21
   4  -2  -8    7.45    0.22
  -4   2   8    7.14    0.23
  -4   2   8    7.33    0.23
   3  -2  -8   12.55    0.37
   3  -2  -8   12.29    0.36
   3  -2  -8   11.55    0.36
   3  -2  -8   11.99    0.34
   3  -2  -8   12.34    0.40
  -3   2   8   12.41    0.36
  -3   2   8   12.42    0.40
  -3   2   8   12.18    0.41
  -3   2   8   12.08    0.35
   2  -2  -8    2.27    0.19
   2  -2  -8    2.02    0.11
   2  -2  -8    2.07    0.12
   2  -2  -8    2.00    0.11
   2  -2  -8    2.38    0.14
   2  -2  -8    2.02    0.10
   2  -2  -8    2.21    0.09
  -2   2   8    2.09    0.16
  -2   2   8    1.96    0.12
  -2   2   8    2.13    0.10
  -2   2   8    2.06    0.13
  -2   2   8    2.13    0.13
   1  -2  -8   15.99    0.46
   1  -2  -8   16.75    0.50
   1  -2  -8   17.35    0.52
   1  -2  -8   17.33    0.49
   1  -2  -8   18.02    0.58
   1  -2  -8   16.83    0.49
   1  -2  -8   17.83    0.60
   1  -2  -8   16.93    0.48
  -1   2   8   17.58    0.48
  -1   2   8   17.61    0.50
  -1   2   8   17.07    0.54
  -1   2   8   16.87    0.61
  -1   2   8   15.75    0.58
  -1   2   8   17.65    0.47
  -1   2   8   17.01    0.50
  -1   2   8   16.92    0.53
  -1   2   8   17.19    0.52
   0  -2  -8   20.09    0.66
   0  -2  -8   18.97    0.54
   0  -2  -8   19.35    0.62
   0   2   8   18.87    0.58
   0   2   8   18.47    0.59
   0   2   8   19.33    0.54
   0   2   8   18.65    0.52
   0   2   8   18.86    0.52
  -1  -2  -8   10.53    0.39
  -1  -2  -8   10.33    0.42
   1   2   8   10.02    0.31
   1   2   8    9.08    0.33
   1   2   8   10.10    0.35
  -2  -2  -8    7.61    0.36
  -2  -2  -8    7.82    0.33
   2   2   8    7.72    0.29
   2   2   8    7.73    0.26
  -3  -2  -8    2.93    0.15
  -3  -2  -8    3.00    0.20
  -3  -2  -8    3.24    0.23
  -3  -2  -8    3.22    0.13
   3   2   8    2.74    0.11
   3   2   8    2.79    0.11
   3   2   8    2.92    0.12
   3   2   8    2.81    0.13
   3   2   8    3.04    0.16
   3   2   8    2.50    0.14
  -4  -2  -8    5.88    0.24
  -4  -2  -8    7.20    0.22
  -4  -2  -8    6.43    0.31
  -4  -2  -8    6.08    0.22
  -4  -2  -8    7.10    0.33
   4   2   8    6.31    0.21
   4   2   8    5.81    0.24
   4   2   8    7.00    0.21
   4   2   8    6.38    0.20
   4   2   8    6.54    0.20
  -5  -2  -8   10.54    0.34
  -5  -2  -8   10.35    0.42
  -5  -2  -8   10.05    0.32
  -5  -2  -8   10.40    0.34
   5   2   8   10.35    0.31
   5   2   8   10.61    0.30
   5   2   8   10.18    0.31
   5   2   8   10.73    0.30
  -6  -2  -8    3.04    0.11
  -6  -2  -8    3.04    0.14
  -6  -2  -8    3.36    0.12
   6   2   8    3.21    0.11
   6   2   8    3.17    0.10
   6   2   8    3.26    0.11
   6   2   8    3.04    0.12
   4  -3  -8    3.04    0.10
   4  -3  -8    3.02    0.11
  -4   3   8    3.00    0.13
   3  -3  -8    1.57    0.09
   3  -3  -8    1.51    0.08
   3  -3  -8    1.63    0.09
   3  -3  -8    1.52    0.11
  -3   3   8    1.55    0.10
  -3   3   8    1.66    0.13
  -3   3   8    1.54    0.09
  -3   3   8    1.35    0.11
   2  -3  -8   16.45    0.49
   2  -3  -8   15.41    0.45
   2  -3  -8   15.61    0.53
   2  -3  -8   15.37    0.45
   2  -3  -8   16.01    0.46
   2  -3  -8   15.84    0.46
  -2   3   8   14.96    0.49
  -2   3   8   15.44    0.53
  -2   3   8   16.28    0.49
  -2   3   8   15.09    0.59
  -2   3   8   15.72    0.45
   1  -3  -8   28.67    0.90
   1  -3  -8   28.01    0.79
   1  -3  -8   28.52    0.80
   1  -3  -8   29.59    0.80
   1  -3  -8   28.77    0.78
   1  -3  -8   28.04    0.88
  -1   3   8   28.93    0.83
  -1   3   8   30.95    0.88
  -1   3   8   29.13    0.78
   0  -3  -8   18.73    0.54
   0  -3  -8   18.00    0.52
   0  -3  -8   18.87    0.54
   0  -3  -8   20.14    0.67
   0  -3  -8   19.88    0.64
   0   3   8   18.97    0.58
   0   3   8   18.81    0.59
   0   3   8   20.07    0.61
   0   3   8   18.10    0.52
   0   3   8   18.95    0.55
  -1  -3  -8   12.94    0.47
  -1  -3  -8   12.07    0.37
  -1  -3  -8   12.69    0.38
  -1  -3  -8   13.05    0.50
   1   3   8   12.85    0.43
   1   3   8   12.38    0.35
   1   3   8   12.30    0.42
   1   3   8   12.32    0.43
   1   3   8   12.79    0.39
  -2  -3  -8    9.35    0.30
  -2  -3  -8    9.77    0.42
  -2  -3  -8   10.50    0.40
  -2  -3  -8    9.86    0.31
  -2  -3  -8    8.91    0.29
   2   3   8    9.62    0.35
   2   3   8    9.67    0.35
   2   3   8    9.37    0.28
   2   3   8    9.94    0.32
  -3  -3  -8    5.22    0.30
  -3  -3  -8    5.30    0.27
  -3  -3  -8    4.73    0.21
  -3  -3  -8    5.18    0.26
  -3  -3  -8    5.38    0.19
  -3  -3  -8    4.65    0.17
   3   3   8    5.09    0.17
   3   3   8    5.41    0.17
   3   3   8    4.96    0.17
   3   3   8    5.52    0.23
   3   3   8    4.99    0.16
   3   3   8    5.17    0.20
   3   3   8    4.43    0.20
   3   3   8    5.48    0.23
  -4  -3  -8   96.35    2.54
  -4  -3  -8  101.09    2.52
  -4  -3  -8   99.30    2.65
  -4  -3  -8   93.47    2.55
  -4  -3  -8   93.88    2.63
   4   3   8   96.98    2.49
   4   3   8   96.08    2.55
   4   3   8   93.87    2.49
   4   3   8   97.06    2.50
   4   3   8   98.47    2.50
  -5  -3  -8   61.71    1.64
  -5  -3  -8   59.84    1.67
  -5  -3  -8   62.61    1.66
  -5  -3  -8   60.92    1.76
   5   3   8   64.77    1.62
   5   3   8   63.36    1.63
   5   3   8   62.82    1.63
   5   3   8   63.01    1.63
   5   3   8   61.71    1.66
   5   3   8   61.36    1.61
  -6  -3  -8    0.53    0.08
  -6  -3  -8    0.61    0.07
  -6  -3  -8    0.64    0.05
   6   3   8    0.66    0.05
   6   3   8    0.69    0.06
   6   3   8    0.66    0.05
   6   3   8    0.61    0.04
   7   3   8    2.02    0.07
   3  -4  -8    2.83    0.11
   3  -4  -8    3.06    0.16
   3  -4  -8    2.94    0.11
  -3   4   8    2.93    0.13
  -3   4   8    2.69    0.14
   2  -4  -8    9.14    0.29
   2  -4  -8    9.16    0.31
   2  -4  -8    9.42    0.29
  -2   4   8    9.02    0.35
  -2   4   8    9.13    0.26
  -2   4   8    9.28    0.31
   1  -4  -8    7.95    0.25
   1  -4  -8    7.82    0.25
   1  -4  -8    7.95    0.26
   1  -4  -8    7.93    0.34
  -1   4   8    7.23    0.23
  -1   4   8    7.78    0.32
  -1   4   8    7.71    0.29
   0  -4  -8   22.83    0.72
   0  -4  -8   24.11    0.76
   0  -4  -8   22.08    0.62
   0  -4  -8   24.38    0.64
   0  -4  -8   22.07    0.64
   0   4   8   22.91    0.62
   0   4   8   23.85    0.70
   0   4   8   23.05    0.63
   0   4   8   22.04    0.62
   0   4   8   23.41    0.72
   0   4   8   21.27    0.67
  -1  -4  -8    5.22    0.18
  -1  -4  -8    5.47    0.30
  -1  -4  -8    6.07    0.20
  -1  -4  -8    5.59    0.28
  -1  -4  -8    4.92    0.19
   1   4   8    5.71    0.18
   1   4   8    5.23    0.17
   1   4   8    6.06    0.25
   1   4   8    5.08    0.19
   1   4   8    5.87    0.26
   1   4   8    5.23    0.21
   1   4   8    4.74    0.22
  -2  -4  -8    5.18    0.18
  -2  -4  -8    5.94    0.29
  -2  -4  -8    5.14    0.30
  -2  -4  -8    5.34    0.19
   2   4   8    5.28    0.21
   2   4   8    5.31    0.25
   2   4   8    5.32    0.20
   2   4   8    5.89    0.18
   2   4   8    5.12    0.17
   2   4   8    5.52    0.18
   2   4   8    5.38    0.23
   2   4   8    5.17    0.19
   2   4   8    5.38    0.25
  -3  -4  -8    4.34    0.17
  -3  -4  -8    4.19    0.25
  -3  -4  -8    3.97    0.18
  -3  -4  -8    4.06    0.15
  -3  -4  -8    4.25    0.28
  -3  -4  -8    3.50    0.22
   3   4   8    4.24    0.25
   3   4   8    3.90    0.21
   3   4   8    4.08    0.14
   3   4   8    4.38    0.20
   3   4   8    4.21    0.22
   3   4   8    4.00    0.19
   3   4   8    4.45    0.15
   3   4   8    4.19    0.15
   3   4   8    4.08    0.15
  -4  -4  -8   23.03    0.70
  -4  -4  -8   25.05    0.69
  -4  -4  -8   24.11    0.77
  -4  -4  -8   23.75    0.67
  -4  -4  -8   23.17    0.96
  -4  -4  -8   23.50    0.64
  -4  -4  -8   23.07    0.79
   4   4   8   23.45    0.65
   4   4   8   22.63    0.72
   4   4   8   24.65    0.64
   4   4   8   24.01    0.63
   4   4   8   23.70    0.65
   4   4   8   24.06    0.69
   4   4   8   24.29    0.83
  -5  -4  -8    6.54    0.26
  -5  -4  -8    6.87    0.23
  -5  -4  -8    7.34    0.26
  -5  -4  -8    6.91    0.34
   5   4   8    6.94    0.21
   5   4   8    7.19    0.22
   5   4   8    6.97    0.23
   5   4   8    7.08    0.22
   5   4   8    7.08    0.21
   5   4   8    6.94    0.25
  -6  -4  -8    5.78    0.20
  -6  -4  -8    6.03    0.19
  -6  -4  -8    5.61    0.21
   6   4   8    6.00    0.17
   6   4   8    5.63    0.18
   6   4   8    5.92    0.19
   6   4   8    5.90    0.18
   6   4   8    5.96    0.17
   2  -5  -8    0.86    0.06
   2  -5  -8    0.70    0.07
   2  -5  -8    0.91    0.06
  -2   5   8    0.74    0.09
  -2   5   8    0.96    0.08
   1  -5  -8    2.20    0.13
   1  -5  -8    2.27    0.11
   1  -5  -8    2.27    0.10
  -1   5   8    2.34    0.13
  -1   5   8    2.08    0.10
  -1   5   8    2.25    0.16
   0  -5  -8   14.16    0.41
   0  -5  -8   13.88    0.41
   0   5   8   14.49    0.45
   0   5   8   14.02    0.41
   0   5   8   14.20    0.39
   0   5   8   14.01    0.42
   0   5   8   13.57    0.50
   0   5   8   14.43    0.49
  -1  -5  -8   60.12    1.58
  -1  -5  -8   61.97    1.60
  -1  -5  -8   61.23    1.60
  -1  -5  -8   60.29    1.71
   1   5   8   60.15    1.60
   1   5   8   60.24    1.69
   1   5   8   59.45    1.64
   1   5   8   61.56    1.61
   1   5   8   61.18    1.59
   1   5   8   61.67    1.69
  -2  -5  -8   14.05    0.53
  -2  -5  -8   14.23    0.40
  -2  -5  -8   13.73    0.50
  -2  -5  -8   14.15    0.41
   2   5   8   14.12    0.48
   2   5   8   13.91    0.43
   2   5   8   14.51    0.40
   2   5   8   14.29    0.45
   2   5   8   14.20    0.40
   2   5   8   13.82    0.50
   2   5   8   14.07    0.41
  -3  -5  -8    2.61    0.19
  -3  -5  -8    2.44    0.13
  -3  -5  -8    2.47    0.10
  -3  -5  -8    2.52    0.22
   3   5   8    2.23    0.17
   3   5   8    2.51    0.13
   3   5   8    2.38    0.16
   3   5   8    2.38    0.11
   3   5   8    2.60    0.12
   3   5   8    2.68    0.14
   3   5   8    2.50    0.11
  -4  -5  -8    2.10    0.22
  -4  -5  -8    2.32    0.14
  -4  -5  -8    2.63    0.14
  -4  -5  -8    2.46    0.10
  -4  -5  -8    2.39    0.12
   4   5   8    2.41    0.16
   4   5   8    2.45    0.13
   4   5   8    2.25    0.17
   4   5   8    2.33    0.10
   4   5   8    2.39    0.10
   4   5   8    2.29    0.11
  -5  -5  -8    0.89    0.09
  -5  -5  -8    0.63    0.09
  -5  -5  -8    0.62    0.06
  -5  -5  -8    0.64    0.12
   5   5   8    0.66    0.07
   5   5   8    0.73    0.06
   5   5   8    0.67    0.06
   5   5   8    0.75    0.06
  -6  -5  -8    0.14    0.03
  -6  -5  -8    0.07    0.04
   6   5   8    0.07    0.03
   6   5   8    0.10    0.03
   6   5   8    0.10    0.02
   6   5   8    0.06    0.03
   1  -6  -8    4.94    0.15
   1  -6  -8    5.06    0.16
  -1   6   8    5.19    0.26
  -1   6   8    4.85    0.15
  -1   6   8    5.06    0.17
   0  -6  -8   14.13    0.39
   0  -6  -8   13.46    0.39
   0   6   8   13.61    0.38
   0   6   8   14.16    0.41
   0   6   8   13.11    0.39
   0   6   8   12.97    0.44
  -1  -6  -8    1.70    0.08
  -1  -6  -8    1.62    0.09
  -1  -6  -8    1.81    0.10
   1   6   8    1.60    0.08
   1   6   8    1.79    0.10
   1   6   8    1.83    0.14
   1   6   8    1.59    0.11
   1   6   8    1.77    0.14
   1   6   8    1.81    0.08
   1   6   8    1.81    0.09
  -2  -6  -8    9.92    0.29
  -2  -6  -8    9.74    0.30
   2   6   8    9.51    0.32
   2   6   8   10.23    0.29
   2   6   8    9.99    0.30
   2   6   8   10.04    0.29
   2   6   8    9.51    0.31
   2   6   8    9.96    0.36
   2   6   8    9.67    0.38
  -3  -6  -8    0.48    0.06
  -3  -6  -8    0.48    0.05
   3   6   8    0.36    0.05
   3   6   8    0.45    0.04
   3   6   8    0.36    0.08
   3   6   8    0.40    0.06
   3   6   8    0.54    0.11
   3   6   8    0.47    0.05
  -4  -6  -8   11.86    0.36
  -4  -6  -8   11.71    0.35
  -4  -6  -8   11.48    0.33
   4   6   8   12.47    0.33
   4   6   8   11.76    0.39
   4   6   8   11.12    0.41
   4   6   8   11.60    0.33
  -5  -6  -8    0.46    0.05
  -5  -6  -8    0.63    0.07
   5   6   8    0.50    0.06
   5   6   8    0.48    0.04
   5   6   8    0.46    0.04
  -6  -6  -8    1.57    0.06
   6   6   8    1.42    0.05
   0   7   8    1.80    0.09
  -1  -7  -8    0.89    0.04
  -1  -7  -8    0.99    0.06
   1   7   8    0.92    0.06
   1   7   8    1.08    0.06
   1   7   8    0.96    0.05
  -2  -7  -8    1.40    0.06
  -2  -7  -8    1.44    0.07
   2   7   8    1.35    0.08
   2   7   8    1.42    0.06
   2   7   8    1.46    0.07
   2   7   8    1.57    0.06
   2   7   8    1.39    0.10
   2   7   8    1.43    0.12
  -3  -7  -8    6.19    0.19
  -3  -7  -8    6.36    0.18
  -3  -7  -8    5.96    0.19
   3   7   8    6.19    0.19
   3   7   8    6.18    0.18
   3   7   8    5.58    0.25
   3   7   8    6.15    0.23
  -4  -7  -8    0.61    0.05
  -4  -7  -8    0.54    0.04
   4   7   8    0.58    0.07
   4   7   8    0.54    0.04
   5   7   8    1.16    0.05
   3   5  -9    1.09    0.05
   2   5  -9    0.55    0.05
   2   5  -9    0.60    0.09
   1   5  -9    4.84    0.15
   1   5  -9    4.50    0.19
   1   5  -9    4.75    0.14
  -1  -5   9    4.78    0.15
   0   5  -9    1.75    0.07
   0  -5   9    1.73    0.07
  -1   5  -9    3.21    0.10
   1  -5   9    3.28    0.10
   4   4  -9    0.90    0.10
   3   4  -9    4.42    0.15
   3   4  -9    3.94    0.20
  -3  -4   9    4.06    0.13
   2   4  -9    1.60    0.15
   2   4  -9    1.56    0.09
  -2  -4   9    1.62    0.07
  -2  -4   9    1.60    0.07
   1   4  -9   10.67    0.30
   1   4  -9   10.67    0.38
   1   4  -9   10.94    0.32
   1   4  -9   10.53    0.36
  -1  -4   9   10.43    0.31
  -1  -4   9   11.11    0.31
   0   4  -9    0.34    0.05
   0   4  -9    0.43    0.05
   0   4  -9    0.46    0.05
   0   4  -9    0.42    0.04
   0   4  -9    0.40    0.08
   0   4  -9    0.44    0.09
   0  -4   9    0.38    0.04
   0  -4   9    0.37    0.04
  -1   4  -9    5.13    0.22
  -1   4  -9    5.94    0.19
  -1   4  -9    6.02    0.19
  -1   4  -9    6.03    0.17
  -1   4  -9    5.62    0.19
  -1   4  -9    5.73    0.18
   1  -4   9    5.79    0.18
  -2   4  -9    1.28    0.07
  -2   4  -9    1.23    0.06
  -2   4  -9    1.23    0.05
  -2   4  -9    1.22    0.07
   2  -4   9    1.24    0.06
   2  -4   9    1.23    0.06
   4   3  -9    9.29    0.34
   3   3  -9    4.41    0.24
   3   3  -9    4.63    0.16
  -3  -3   9    4.53    0.14
  -3  -3   9    4.52    0.14
   2   3  -9    4.92    0.25
   2   3  -9    5.02    0.18
   2   3  -9    4.69    0.17
   2   3  -9    4.93    0.16
  -2  -3   9    4.67    0.15
  -2  -3   9    4.88    0.16
   1   3  -9    3.95    0.21
   1   3  -9    3.99    0.14
   1   3  -9    4.07    0.21
   1   3  -9    4.15    0.14
   1   3  -9    4.02    0.16
   1   3  -9    4.26    0.16
  -1  -3   9    4.08    0.17
  -1  -3   9    4.32    0.14
  -1  -3   9    4.12    0.14
   0   3  -9    1.97    0.15
   0   3  -9    2.00    0.10
   0   3  -9    2.20    0.15
   0   3  -9    2.04    0.11
   0   3  -9    2.15    0.09
   0   3  -9    2.04    0.09
   0  -3   9    1.89    0.09
   0  -3   9    1.97    0.09
   0  -3   9    1.97    0.12
  -1   3  -9   14.89    0.42
  -1   3  -9   14.75    0.41
  -1   3  -9   14.59    0.41
  -1   3  -9   14.45    0.47
  -1   3  -9   14.01    0.55
  -1   3  -9   14.71    0.46
  -1   3  -9   14.80    0.43
   1  -3   9   14.61    0.41
   1  -3   9   14.76    0.42
  -2   3  -9    3.29    0.17
  -2   3  -9    3.86    0.14
  -2   3  -9    3.56    0.15
  -2   3  -9    3.59    0.23
  -2   3  -9    3.64    0.12
  -2   3  -9    3.65    0.14
   2  -3   9    3.60    0.13
   2  -3   9    3.61    0.13
  -3   3  -9    8.52    0.29
  -3   3  -9    8.96    0.28
  -3   3  -9    9.33    0.26
  -3   3  -9    9.05    0.27
   3  -3   9    9.18    0.26
   5   2  -9    1.74    0.06
   4   2  -9   11.11    0.31
   3   2  -9    6.83    0.31
   3   2  -9    7.07    0.21
   3   2  -9    6.93    0.23
  -3  -2   9    6.94    0.31
  -3  -2   9    7.25    0.20
  -3  -2   9    7.04    0.21
   2   2  -9   17.11    0.58
   2   2  -9   17.49    0.48
   2   2  -9   18.41    0.51
   2   2  -9   17.23    0.48
  -2  -2   9   17.69    0.48
  -2  -2   9   17.59    0.51
  -2  -2   9   17.52    0.48
   1   2  -9    2.71    0.18
   1   2  -9    2.71    0.18
   1   2  -9    2.55    0.13
   1   2  -9    2.65    0.10
  -1  -2   9    2.58    0.10
  -1  -2   9    2.72    0.13
  -1  -2   9    2.79    0.10
   0   2  -9   11.21    0.40
   0   2  -9   11.71    0.40
   0   2  -9   11.70    0.36
   0   2  -9   11.71    0.35
   0   2  -9   11.40    0.34
   0   2  -9   11.94    0.33
   0  -2   9   11.93    0.34
   0  -2   9   11.50    0.38
   0  -2   9   11.62    0.35
   0  -2   9   12.04    0.34
   0  -2   9   11.40    0.37
  -1   2  -9   26.22    0.87
  -1   2  -9   26.69    0.71
  -1   2  -9   25.54    0.72
  -1   2  -9   27.04    0.74
  -1   2  -9   27.07    0.78
  -1   2  -9   25.95    0.73
   1  -2   9   25.76    0.71
   1  -2   9   26.98    0.73
   1  -2   9   27.04    0.76
  -2   2  -9   16.68    0.48
  -2   2  -9   16.36    0.58
  -2   2  -9   16.51    0.47
  -2   2  -9   16.11    0.51
  -2   2  -9   15.72    0.44
  -2   2  -9   16.20    0.46
  -2   2  -9   15.97    0.44
   2  -2   9   15.80    0.46
  -3   2  -9    2.97    0.16
  -3   2  -9    3.13    0.14
  -3   2  -9    2.96    0.13
  -3   2  -9    2.86    0.20
  -3   2  -9    2.92    0.12
  -3   2  -9    3.03    0.11
   3  -2   9    2.99    0.12
  -4   2  -9   15.37    0.42
  -4   2  -9   14.70    0.43
   4  -2   9   14.80    0.41
   5   1  -9    9.08    0.25
   4   1  -9    3.37    0.12
  -4  -1   9    3.45    0.12
  -4  -1   9    3.34    0.11
   3   1  -9    0.68    0.07
   3   1  -9    0.72    0.13
   3   1  -9    0.55    0.05
  -3  -1   9    0.56    0.06
  -3  -1   9    0.59    0.04
  -3  -1   9    0.70    0.05
   2   1  -9    5.73    0.29
   2   1  -9    6.23    0.19
   2   1  -9    5.94    0.21
   2   1  -9    6.17    0.21
  -2  -1   9    6.01    0.26
  -2  -1   9    6.26    0.19
  -2  -1   9    6.23    0.19
  -2  -1   9    6.22    0.22
   1   1  -9    8.57    0.33
   1   1  -9    8.28    0.25
   1   1  -9    8.31    0.25
   1   1  -9    8.19    0.27
   1   1  -9    8.67    0.27
  -1  -1   9    8.26    0.25
  -1  -1   9    8.14    0.27
  -1  -1   9    8.47    0.28
  -1  -1   9    8.56    0.28
  -1  -1   9    8.28    0.24
   0   1  -9   15.39    0.44
   0   1  -9   15.28    0.45
   0   1  -9   15.52    0.46
   0   1  -9   15.92    0.50
   0   1  -9   15.25    0.45
   0   1  -9   16.00    0.43
   0  -1   9   16.48    0.44
   0  -1   9   15.81    0.48
   0  -1   9   16.28    0.44
   0  -1   9   15.46    0.46
   0  -1   9   15.77    0.47
  -1   1  -9   15.38    0.43
  -1   1  -9   14.94    0.45
  -1   1  -9   15.36    0.56
  -1   1  -9   15.65    0.49
  -1   1  -9   13.92    0.43
  -1   1  -9   15.51    0.44
  -1   1  -9   15.68    0.45
   1  -1   9   15.75    0.51
   1  -1   9   15.70    0.43
   1  -1   9   15.41    0.45
   1  -1   9   15.29    0.45
   1  -1   9   15.87    0.43
  -2   1  -9  101.18    2.72
  -2   1  -9   99.59    2.60
  -2   1  -9  100.17    2.58
  -2   1  -9  100.65    2.64
  -2   1  -9  103.43    2.61
  -2   1  -9   99.15    2.61
   2  -1   9   97.29    2.61
  -3   1  -9    0.28    0.05
  -3   1  -9    0.31    0.05
  -3   1  -9    0.70    0.14
  -3   1  -9    0.30    0.06
  -3   1  -9    0.48    0.08
   3  -1   9    0.25    0.05
  -4   1  -9   12.48    0.38
  -4   1  -9   12.64    0.36
  -4   1  -9   11.61    0.35
   4  -1   9   12.58    0.36
   4  -1   9   12.17    0.34
  -5   1  -9    0.15    0.03
  -5   1  -9    0.14    0.03
  -5   1  -9    0.19    0.04
  -5   1  -9    0.16    0.02
   5  -1   9    0.14    0.03
   5  -1   9    0.18    0.03
   5   0  -9    3.19    0.10
   5   0  -9    3.17    0.10
   4   0  -9    1.83    0.08
   4   0  -9    1.92    0.11
  -4   0   9    1.79    0.08
  -4   0   9    1.88    0.14
  -4   0   9    1.78    0.08
   3   0  -9   37.51    1.05
   3   0  -9   38.91    1.07
   3   0  -9   39.85    1.04
   3   0  -9   39.40    1.03
   3   0  -9   41.18    1.06
  -3   0   9   37.70    1.12
  -3   0   9   37.93    1.06
  -3   0   9   39.40    1.02
  -3   0   9   39.20    1.03
   2   0  -9   34.37    0.91
   2   0  -9   32.83    1.00
   2   0  -9   34.62    0.98
   2   0  -9   33.06    0.92
   2   0  -9   31.28    0.91
   2   0  -9   31.01    0.89
   2   0  -9   33.32    0.89
   2   0  -9   31.66    0.91
  -2   0   9   33.89    0.89
  -2   0   9   34.34    0.96
  -2   0   9   35.55    0.94
  -2   0   9   34.07    0.92
  -2   0   9   35.52    0.89
   1   0  -9    7.26    0.22
   1   0  -9    7.10    0.31
   1   0  -9    6.93    0.29
   1   0  -9    6.72    0.22
   1   0  -9    7.20    0.30
   1   0  -9    7.12    0.24
   1   0  -9    7.13    0.23
  -1   0   9    7.17    0.29
  -1   0   9    7.32    0.24
  -1   0   9    7.18    0.24
  -1   0   9    7.43    0.25
  -1   0   9    7.45    0.22
  -1   0   9    6.66    0.22
  -1   0   9    7.44    0.22
   0   0  -9   19.51    0.52
   0   0  -9   19.82    0.56
   0   0  -9   19.61    0.54
   0   0   9   19.76    0.61
   0   0   9   18.68    0.55
   0   0   9   19.05    0.53
   0   0   9   19.41    0.53
   0   0   9   19.87    0.56
   0   0   9   19.04    0.62
   0   0   9   19.16    0.56
  -1   0  -9    4.92    0.16
  -1   0  -9    5.26    0.21
  -1   0  -9    4.92    0.18
  -1   0  -9    4.81    0.17
  -1   0  -9    5.10    0.16
   1   0   9    4.85    0.16
   1   0   9    4.83    0.16
   1   0   9    4.94    0.23
   1   0   9    4.97    0.18
  -2   0  -9    0.92    0.08
  -2   0  -9    1.00    0.06
  -2   0  -9    1.03    0.07
   2   0   9    0.90    0.09
   2   0   9    1.00    0.08
   2   0   9    0.87    0.10
   2   0   9    0.95    0.08
   2   0   9    1.01    0.06
  -3   0  -9    2.16    0.13
  -3   0  -9    2.51    0.12
  -3   0  -9    2.18    0.11
   3   0   9    2.60    0.14
   3   0   9    2.24    0.09
   3   0   9    2.41    0.11
  -4   0  -9    3.27    0.15
  -4   0  -9    3.22    0.13
  -4   0  -9    3.35    0.14
   4   0   9    3.00    0.17
   4   0   9    3.25    0.11
   4   0   9    3.37    0.13
   4   0   9    3.29    0.11
  -5   0  -9    3.25    0.11
  -5   0  -9    3.28    0.14
  -5   0  -9    3.37    0.12
   5   0   9    3.30    0.12
   5   0   9    3.30    0.11
  -6   0  -9    0.18    0.02
   4  -1  -9    9.26    0.28
   4  -1  -9    8.68    0.29
   4  -1  -9    8.79    0.25
   4  -1  -9    9.12    0.26
  -4   1   9    8.47    0.26
   3  -1  -9    4.55    0.16
   3  -1  -9    4.37    0.17
   3  -1  -9    4.67    0.18
   3  -1  -9    4.48    0.15
   3  -1  -9    4.63    0.19
  -3   1   9    4.84    0.16
   2  -1  -9   80.13    2.14
   2  -1  -9   81.46    2.16
   2  -1  -9   81.77    2.22
   2  -1  -9   82.49    2.11
   2  -1  -9   80.16    2.14
   2  -1  -9   79.57    2.12
   2  -1  -9   82.84    2.13
  -2   1   9   82.34    2.11
  -2   1   9   83.49    2.16
  -2   1   9   81.91    2.12
  -2   1   9   81.61    2.21
   1  -1  -9    0.95    0.13
   1  -1  -9    0.75    0.07
   1  -1  -9    1.01    0.08
   1  -1  -9    1.04    0.16
   1  -1  -9    0.92    0.07
   1  -1  -9    0.96    0.06
   1  -1  -9    0.90    0.08
  -1   1   9    0.82    0.08
  -1   1   9    0.94    0.06
  -1   1   9    0.87    0.08
  -1   1   9    0.87    0.10
  -1   1   9    0.98    0.06
  -1   1   9    0.94    0.08
   0  -1  -9    2.48    0.18
   0  -1  -9    2.31    0.20
   0  -1  -9    2.56    0.11
   0  -1  -9    2.38    0.09
   0   1   9    2.32    0.15
   0   1   9    2.58    0.10
   0   1   9    2.23    0.16
   0   1   9    2.48    0.10
   0   1   9    2.40    0.12
   0   1   9    2.21    0.12
   0   1   9    2.21    0.11
   0   1   9    2.39    0.09
   0   1   9    2.35    0.15
  -1  -1  -9   16.91    0.45
  -1  -1  -9   16.52    0.48
  -1  -1  -9   16.61    0.48
  -1  -1  -9   17.56    0.59
  -1  -1  -9   16.99    0.56
   1   1   9   16.88    0.49
   1   1   9   16.99    0.53
   1   1   9   16.06    0.46
  -2  -1  -9    0.33    0.12
  -2  -1  -9    0.27    0.05
  -2  -1  -9    0.23    0.08
  -2  -1  -9    0.37    0.04
  -2  -1  -9    0.39    0.06
   2   1   9    0.33    0.04
   2   1   9    0.39    0.06
   2   1   9    0.34    0.05
   2   1   9    0.29    0.06
  -3  -1  -9   32.35    0.87
  -3  -1  -9   31.68    0.96
  -3  -1  -9   31.27    0.88
  -3  -1  -9   32.05    0.87
  -3  -1  -9   32.01    0.98
   3   1   9   31.69    0.84
   3   1   9   32.08    0.90
   3   1   9   30.93    0.84
   3   1   9   32.68    0.87
  -4  -1  -9    7.32    0.24
  -4  -1  -9    6.96    0.36
  -4  -1  -9    7.46    0.24
  -4  -1  -9    7.15    0.26
   4   1   9    7.36    0.24
   4   1   9    7.51    0.22
   4   1   9    7.38    0.27
   4   1   9    7.85    0.22
   4   1   9    7.57    0.23
  -5  -1  -9    6.59    0.20
  -5  -1  -9    7.08    0.24
  -5  -1  -9    6.97    0.22
   5   1   9    6.88    0.20
   5   1   9    6.89    0.21
   5   1   9    6.97    0.20
   5   1   9    6.84    0.21
   5   1   9    6.59    0.21
  -6  -1  -9    1.93    0.07
  -6  -1  -9    1.75    0.07
  -6  -1  -9    1.84    0.09
   6   1   9    1.84    0.08
   6   1   9    1.99    0.07
   6   1   9    1.86    0.06
   6   1   9    1.94    0.07
   4  -2  -9    2.65    0.09
   4  -2  -9    2.71    0.11
   4  -2  -9    2.69    0.09
  -4   2   9    2.52    0.10
  -4   2   9    2.58    0.10
   3  -2  -9    4.04    0.13
   3  -2  -9    4.26    0.18
   3  -2  -9    4.13    0.16
   3  -2  -9    4.40    0.17
   3  -2  -9    4.21    0.15
  -3   2   9    4.13    0.19
  -3   2   9    3.84    0.14
  -3   2   9    4.41    0.15
   2  -2  -9    4.09    0.23
   2  -2  -9    3.81    0.15
   2  -2  -9    3.88    0.16
   2  -2  -9    4.11    0.13
   2  -2  -9    3.77    0.16
   2  -2  -9    4.05    0.15
   2  -2  -9    4.12    0.18
  -2   2   9    3.70    0.18
  -2   2   9    3.33    0.17
  -2   2   9    3.70    0.21
  -2   2   9    3.85    0.15
  -2   2   9    3.76    0.19
   1  -2  -9    8.89    0.26
   1  -2  -9    9.10    0.28
   1  -2  -9    9.11    0.29
   1  -2  -9    9.18    0.31
   1  -2  -9    8.84    0.29
   1  -2  -9    8.89    0.37
   1  -2  -9    9.13    0.39
   1  -2  -9    8.76    0.29
  -1   2   9    9.20    0.27
  -1   2   9    8.37    0.29
  -1   2   9    9.04    0.33
  -1   2   9    8.42    0.31
  -1   2   9    8.87    0.33
  -1   2   9    9.16    0.32
  -1   2   9    9.24    0.27
   0  -2  -9    5.70    0.21
   0  -2  -9    6.06    0.32
   0  -2  -9    5.34    0.19
   0  -2  -9    5.90    0.29
   0  -2  -9    5.79    0.20
   0   2   9    5.92    0.20
   0   2   9    5.81    0.25
   0   2   9    5.76    0.21
   0   2   9    5.84    0.25
   0   2   9    5.62    0.19
   0   2   9    5.96    0.19
  -1  -2  -9   49.89    1.41
  -1  -2  -9   48.03    1.31
  -1  -2  -9   50.93    1.44
  -1  -2  -9   47.35    1.31
  -1  -2  -9   51.53    1.31
   1   2   9   49.09    1.32
   1   2   9   50.36    1.37
   1   2   9   48.55    1.29
  -2  -2  -9    2.54    0.12
  -2  -2  -9    2.80    0.11
  -2  -2  -9    2.75    0.20
  -2  -2  -9    2.54    0.23
   2   2   9    2.72    0.15
   2   2   9    2.55    0.16
   2   2   9    2.55    0.10
   2   2   9    2.59    0.13
  -3  -2  -9   10.89    0.44
  -3  -2  -9   10.44    0.32
  -3  -2  -9   10.23    0.41
  -3  -2  -9   10.09    0.30
  -3  -2  -9   10.43    0.32
   3   2   9    9.85    0.34
   3   2   9   10.10    0.36
   3   2   9   10.03    0.29
   3   2   9    9.93    0.29
  -4  -2  -9   13.93    0.40
  -4  -2  -9   13.07    0.41
  -4  -2  -9   13.26    0.50
  -4  -2  -9   13.82    0.53
  -4  -2  -9   13.50    0.40
   4   2   9   13.73    0.39
   4   2   9   13.24    0.38
   4   2   9   13.86    0.44
   4   2   9   13.60    0.38
  -5  -2  -9    5.72    0.20
  -5  -2  -9    5.43    0.29
  -5  -2  -9    5.75    0.18
  -5  -2  -9    5.51    0.21
   5   2   9    5.78    0.19
   5   2   9    5.63    0.17
   5   2   9    5.93    0.18
   5   2   9    5.97    0.19
  -6  -2  -9    0.59    0.04
  -6  -2  -9    0.65    0.05
  -6  -2  -9    0.58    0.07
   6   2   9    0.63    0.05
   6   2   9    0.67    0.05
   6   2   9    0.65    0.04
   6   2   9    0.66    0.04
   4  -3  -9    1.80    0.07
   3  -3  -9    0.45    0.07
   3  -3  -9    0.42    0.06
   3  -3  -9    0.40    0.05
   3  -3  -9    0.44    0.05
  -3   3   9    0.40    0.05
  -3   3   9    0.40    0.06
   2  -3  -9   10.25    0.32
   2  -3  -9   10.83    0.33
   2  -3  -9    9.97    0.39
   2  -3  -9   10.41    0.31
   2  -3  -9   10.44    0.31
   2  -3  -9   10.39    0.35
  -2   3   9   10.02    0.37
  -2   3   9   10.67    0.35
  -2   3   9   10.30    0.31
   1  -3  -9   43.75    1.19
   1  -3  -9   43.46    1.26
   1  -3  -9   44.03    1.16
   1  -3  -9   42.74    1.15
   1  -3  -9   42.93    1.14
   1  -3  -9   40.50    1.24
   1  -3  -9   42.25    1.16
  -1   3   9   43.65    1.23
  -1   3   9   44.38    1.19
  -1   3   9   43.05    1.14
   0  -3  -9   12.74    0.47
   0  -3  -9   12.46    0.38
   0  -3  -9   12.23    0.36
   0  -3  -9   13.35    0.51
   0  -3  -9   12.81    0.39
   0   3   9   12.85    0.42
   0   3   9   13.43    0.44
   0   3   9   12.54    0.39
   0   3   9   12.14    0.36
   0   3   9   12.68    0.43
  -1  -3  -9    8.85    0.29
  -1  -3  -9    9.27    0.29
  -1  -3  -9    9.52    0.39
  -1  -3  -9    8.82    0.28
  -1  -3  -9   10.60    0.44
  -1  -3  -9    9.64    0.30
   1   3   9    9.38    0.31
   1   3   9    9.62    0.35
   1   3   9    9.52    0.28
   1   3   9    9.68    0.35
   1   3   9    9.12    0.33
  -2  -3  -9   21.40    0.59
  -2  -3  -9   21.84    0.70
  -2  -3  -9   21.32    0.57
  -2  -3  -9   19.83    0.71
  -2  -3  -9   19.89    0.58
   2   3   9   20.74    0.64
   2   3   9   19.99    0.56
   2   3   9   20.75    0.56
   2   3   9   20.24    0.62
   2   3   9   21.50    0.61
   2   3   9   21.82    0.65
  -3  -3  -9    8.73    0.39
  -3  -3  -9    8.21    0.27
  -3  -3  -9    8.32    0.25
  -3  -3  -9    8.55    0.36
   3   3   9    7.68    0.29
   3   3   9    7.92    0.27
   3   3   9    8.27    0.24
   3   3   9    8.04    0.24
   3   3   9    8.01    0.31
   3   3   9    8.02    0.25
   3   3   9    8.18    0.31
   3   3   9    8.29    0.25
  -4  -3  -9   18.47    0.65
  -4  -3  -9   19.95    0.55
  -4  -3  -9   19.38    0.68
  -4  -3  -9   19.27    0.57
   4   3   9   19.05    0.53
   4   3   9   19.29    0.54
   4   3   9   19.23    0.52
   4   3   9   19.20    0.58
   4   3   9   19.78    0.54
  -5  -3  -9   17.23    0.51
  -5  -3  -9   17.80    0.50
  -5  -3  -9   16.74    0.61
  -5  -3  -9   16.56    0.49
  -5  -3  -9   17.10    0.48
   5   3   9   17.11    0.48
   5   3   9   16.69    0.51
   5   3   9   17.41    0.47
   5   3   9   16.74    0.48
   5   3   9   17.44    0.46
  -6  -3  -9    1.93    0.10
  -6  -3  -9    1.76    0.07
  -6  -3  -9    1.90    0.08
   6   3   9    1.87    0.07
   6   3   9    1.78    0.08
   6   3   9    1.90    0.08
   6   3   9    1.96    0.07
   3  -4  -9    3.88    0.13
   3  -4  -9    3.93    0.13
  -3   4   9    4.00    0.14
   2  -4  -9   11.83    0.34
   2  -4  -9   11.38    0.33
   2  -4  -9   10.98    0.36
  -2   4   9   10.71    0.38
  -2   4   9   11.61    0.36
  -2   4   9   11.45    0.32
   1  -4  -9    8.79    0.28
   1  -4  -9    8.68    0.31
   1  -4  -9    9.04    0.28
   1  -4  -9    8.75    0.36
   1  -4  -9    8.85    0.28
  -1   4   9    8.61    0.31
  -1   4   9    8.56    0.26
  -1   4   9    8.52    0.34
   0  -4  -9   18.14    0.51
   0  -4  -9   18.69    0.64
   0  -4  -9   18.89    0.54
   0  -4  -9   19.67    0.54
   0  -4  -9   18.55    0.62
   0   4   9   18.18    0.51
   0   4   9   19.12    0.58
   0   4   9   17.65    0.59
   0   4   9   19.56    0.53
   0   4   9   19.01    0.61
  -1  -4  -9   32.82    0.89
  -1  -4  -9   33.01    0.87
  -1  -4  -9   32.27    1.02
  -1  -4  -9   32.84    0.89
  -1  -4  -9   31.20    0.88
  -1  -4  -9   33.10    0.99
   1   4   9   32.77    0.96
   1   4   9   32.49    0.87
   1   4   9   33.36    0.96
   1   4   9   32.37    0.93
   1   4   9   32.92    0.88
   1   4   9   32.47    0.86
  -2  -4  -9    3.73    0.27
  -2  -4  -9    3.69    0.15
  -2  -4  -9    3.69    0.15
  -2  -4  -9    3.78    0.23
  -2  -4  -9    3.58    0.14
   2   4   9    3.80    0.14
   2   4   9    3.55    0.18
   2   4   9    3.63    0.20
   2   4   9    3.84    0.20
   2   4   9    3.63    0.13
   2   4   9    3.77    0.15
  -3  -4  -9   17.86    0.51
  -3  -4  -9   17.77    0.49
  -3  -4  -9   17.21    0.64
  -3  -4  -9   17.78    0.61
   3   4   9   17.41    0.56
   3   4   9   17.49    0.57
   3   4   9   17.52    0.48
   3   4   9   17.19    0.54
   3   4   9   16.93    0.48
  -4  -4  -9    4.96    0.19
  -4  -4  -9    5.22    0.21
  -4  -4  -9    5.17    0.17
  -4  -4  -9    5.27    0.28
  -4  -4  -9    4.60    0.30
   4   4   9    5.33    0.17
   4   4   9    5.51    0.16
   4   4   9    5.53    0.21
   4   4   9    5.06    0.23
   4   4   9    4.92    0.31
   4   4   9    5.01    0.18
   4   4   9    4.67    0.17
  -5  -4  -9   30.94    0.86
  -5  -4  -9   30.23    0.84
  -5  -4  -9   29.84    0.96
   5   4   9   32.91    0.83
   5   4   9   31.00    0.86
   5   4   9   31.25    0.83
   5   4   9   31.50    0.84
   5   4   9   31.19    0.84
   5   4   9   31.59    0.82
  -6  -4  -9    0.27    0.04
  -6  -4  -9    0.24    0.04
  -6  -4  -9    0.15    0.04
   6   4   9    0.22    0.03
   6   4   9    0.20    0.04
   6   4   9    0.32    0.04
   6   4   9    0.26    0.03
   2  -5  -9    4.93    0.15
   2  -5  -9    4.32    0.14
  -2   5   9    4.79    0.17
   1  -5  -9   11.48    0.33
   1  -5  -9   11.18    0.36
   1  -5  -9   11.26    0.33
  -1   5   9   11.55    0.36
  -1   5   9   10.96    0.39
   0  -5  -9    4.79    0.26
   0  -5  -9    5.39    0.19
   0  -5  -9    5.24    0.19
   0   5   9    5.39    0.24
   0   5   9    5.38    0.22
   0   5   9    5.09    0.18
  -1  -5  -9   23.09    0.63
  -1  -5  -9   24.15    0.65
  -1  -5  -9   23.33    0.64
  -1  -5  -9   22.95    0.75
  -1  -5  -9   23.25    0.64
   1   5   9   21.97    0.67
   1   5   9   23.23    0.62
   1   5   9   22.84    0.71
   1   5   9   22.52    0.64
   1   5   9   23.16    0.72
  -2  -5  -9   33.89    0.88
  -2  -5  -9   33.17    0.90
  -2  -5  -9   31.01    0.98
  -2  -5  -9   33.03    1.02
  -2  -5  -9   32.39    0.89
   2   5   9   33.07    0.93
   2   5   9   34.01    0.97
   2   5   9   33.45    0.88
   2   5   9   32.84    0.89
   2   5   9   32.91    0.98
   2   5   9   32.83    0.88
   2   5   9   34.10    0.90
  -3  -5  -9    3.56    0.26
  -3  -5  -9    3.49    0.13
  -3  -5  -9    3.69    0.15
   3   5   9    3.53    0.21
   3   5   9    3.48    0.13
   3   5   9    3.34    0.17
   3   5   9    3.58    0.19
  -4  -5  -9    1.05    0.09
  -4  -5  -9    1.06    0.08
  -4  -5  -9    0.77    0.14
  -4  -5  -9    1.09    0.06
   4   5   9    0.90    0.06
   4   5   9    0.92    0.12
   4   5   9    1.10    0.08
   4   5   9    1.04    0.07
   4   5   9    0.95    0.11
   4   5   9    0.99    0.09
  -5  -5  -9   10.21    0.31
  -5  -5  -9    9.45    0.32
   5   5   9   10.25    0.30
   5   5   9   10.75    0.30
   5   5   9   10.67    0.29
   5   5   9   10.18    0.29
   5   5   9   10.41    0.30
  -6  -5  -9    2.14    0.09
  -6  -5  -9    2.29    0.09
   6   5   9    2.28    0.08
   6   5   9    2.24    0.08
   6   5   9    2.25    0.09
   1  -6  -9    4.81    0.15
  -1   6   9    4.87    0.16
   0  -6  -9    7.16    0.21
   0  -6  -9    6.54    0.23
   0  -6  -9    6.87    0.21
   0   6   9    6.94    0.26
   0   6   9    6.83    0.20
   0   6   9    7.20    0.23
   0   6   9    6.91    0.21
  -1  -6  -9   20.69    0.55
  -1  -6  -9   20.55    0.57
  -1  -6  -9   20.36    0.56
   1   6   9   21.37    0.55
   1   6   9   20.51    0.62
   1   6   9   20.01    0.57
   1   6   9   21.59    0.59
   1   6   9   19.19    0.63
   1   6   9   20.83    0.56
  -2  -6  -9   19.56    0.55
  -2  -6  -9   19.84    0.53
  -2  -6  -9   19.46    0.55
   2   6   9   20.10    0.61
   2   6   9   19.22    0.57
   2   6   9   20.23    0.53
   2   6   9   20.23    0.55
   2   6   9   19.04    0.63
   2   6   9   20.03    0.55
  -3  -6  -9    6.61    0.21
  -3  -6  -9    6.55    0.20
   3   6   9    6.57    0.23
   3   6   9    6.44    0.20
   3   6   9    6.33    0.26
   3   6   9    6.13    0.28
  -4  -6  -9    3.23    0.13
  -4  -6  -9    3.21    0.11
   4   6   9    2.99    0.17
   4   6   9    3.26    0.16
   4   6   9    3.40    0.11
  -5  -6  -9    0.24    0.03
   5   6   9    0.22    0.03
   5   6   9    0.16    0.05
   5   6   9    0.14    0.04
   5   6   9    0.18    0.03
  -1  -7  -9    1.25    0.07
   1   7   9    1.18    0.05
   1   7   9    1.18    0.06
  -2  -7  -9    5.17    0.15
  -2  -7  -9    4.80    0.15
  -2  -7  -9    4.70    0.15
   2   7   9    4.82    0.16
   2   7   9    5.03    0.15
   2   7   9    5.06    0.15
  -3  -7  -9    4.22    0.14
  -3  -7  -9    4.28    0.13
   3   7   9    4.24    0.13
   3   7   9    4.15    0.21
  -4  -7  -9    0.06    0.02
  -4  -7  -9    0.02    0.02
   4   7   9    0.07    0.02
   1   5 -10   13.86    0.38
  -1  -5  10   13.92    0.37
   3   4 -10    8.25    0.30
   3   4 -10    8.69    0.25
   2   4 -10    0.14    0.07
   2   4 -10    0.10    0.03
  -2  -4  10    0.14    0.02
   1   4 -10   12.10    0.35
   1   4 -10   12.20    0.40
   1   4 -10   12.33    0.33
  -1  -4  10   12.14    0.34
   0   4 -10    0.58    0.06
   0   4 -10    0.56    0.05
   0   4 -10    0.45    0.07
   0   4 -10    0.58    0.04
   0   4 -10    0.53    0.08
   0  -4  10    0.59    0.04
  -1   4 -10    1.97    0.08
  -1   4 -10    1.88    0.08
  -1   4 -10    1.98    0.09
  -1   4 -10    2.04    0.07
  -1   4 -10    1.77    0.11
   1  -4  10    2.01    0.08
  -2   4 -10    5.86    0.17
  -2   4 -10    5.73    0.16
   3   3 -10    7.46    0.22
   3   3 -10    6.68    0.28
  -3  -3  10    7.53    0.21
  -3  -3  10    6.78    0.26
   2   3 -10    3.51    0.11
   2   3 -10    3.69    0.14
   2   3 -10    3.30    0.19
  -2  -3  10    3.60    0.12
  -2  -3  10    3.40    0.12
   1   3 -10    1.53    0.09
   1   3 -10    1.46    0.14
   1   3 -10    1.45    0.07
  -1  -3  10    1.58    0.07
  -1  -3  10    1.45    0.07
   0   3 -10    3.02    0.11
   0   3 -10    3.01    0.11
   0   3 -10    2.81    0.12
   0   3 -10    2.91    0.13
   0   3 -10    3.05    0.17
   0   3 -10    3.06    0.17
   0  -3  10    2.95    0.11
   0  -3  10    2.68    0.11
  -1   3 -10    5.05    0.16
  -1   3 -10    5.07    0.17
  -1   3 -10    5.14    0.18
  -1   3 -10    4.94    0.22
  -1   3 -10    5.05    0.16
  -1   3 -10    5.00    0.17
   1  -3  10    4.82    0.16
  -2   3 -10    0.60    0.08
  -2   3 -10    0.55    0.05
  -2   3 -10    0.56    0.06
  -2   3 -10    0.53    0.06
  -2   3 -10    0.50    0.04
   2  -3  10    0.54    0.05
   2  -3  10    0.45    0.05
  -3   3 -10    5.91    0.18
  -3   3 -10    5.75    0.18
   3  -3  10    6.12    0.18
   4   2 -10    3.56    0.11
  -4  -2  10    3.37    0.11
   3   2 -10   10.23    0.39
   3   2 -10   10.52    0.31
   3   2 -10   10.76    0.30
  -3  -2  10   10.70    0.29
  -3  -2  10   10.70    0.30
   2   2 -10    3.72    0.15
   2   2 -10    4.03    0.22
   2   2 -10    3.84    0.13
   2   2 -10    3.83    0.13
  -2  -2  10    3.80    0.13
  -2  -2  10    3.71    0.13
   1   2 -10  102.46    2.64
   1   2 -10   95.35    2.72
   1   2 -10  105.39    2.65
   1   2 -10  106.42    2.67
   1   2 -10  104.11    2.64
  -1  -2  10  104.46    2.64
  -1  -2  10  100.60    2.68
  -1  -2  10  101.68    2.64
   0   2 -10    3.96    0.14
   0   2 -10    4.32    0.21
   0   2 -10    3.91    0.16
   0   2 -10    3.97    0.16
   0  -2  10    3.76    0.17
   0  -2  10    4.61    0.16
   0  -2  10    4.13    0.15
   0  -2  10    4.13    0.14
  -1   2 -10   14.35    0.46
  -1   2 -10   14.29    0.41
  -1   2 -10   14.35    0.41
  -1   2 -10   13.60    0.40
  -1   2 -10   13.71    0.39
   1  -2  10   13.91    0.39
   1  -2  10   14.09    0.41
   1  -2  10   13.99    0.47
  -2   2 -10    1.91    0.19
  -2   2 -10    2.05    0.09
  -2   2 -10    1.92    0.14
  -2   2 -10    2.04    0.08
  -2   2 -10    2.09    0.10
   2  -2  10    2.20    0.10
  -3   2 -10    9.18    0.27
  -3   2 -10    9.02    0.28
  -3   2 -10    8.99    0.26
  -3   2 -10    9.11    0.31
  -3   2 -10    9.13    0.28
   3  -2  10    9.31    0.27
  -4   2 -10    1.41    0.06
  -4   2 -10    1.35    0.07
   4  -2  10    1.41    0.06
   4   1 -10    5.63    0.17
  -4  -1  10    5.63    0.17
   3   1 -10    2.61    0.19
   3   1 -10    2.57    0.10
  -3  -1  10    2.42    0.09
  -3  -1  10    2.52    0.09
   2   1 -10   13.52    0.40
   2   1 -10   14.24    0.41
   2   1 -10   13.19    0.48
   2   1 -10   13.69    0.38
  -2  -1  10   13.93    0.38
  -2  -1  10   13.65    0.38
  -2  -1  10   12.99    0.45
  -2  -1  10   13.08    0.41
   1   1 -10    5.48    0.26
   1   1 -10    5.64    0.21
   1   1 -10    6.02    0.20
   1   1 -10    5.96    0.18
   1   1 -10    5.67    0.18
  -1  -1  10    5.74    0.21
  -1  -1  10    5.65    0.18
  -1  -1  10    5.75    0.26
  -1  -1  10    5.83    0.18
   0   1 -10    3.93    0.16
   0   1 -10    4.42    0.17
   0   1 -10    4.19    0.21
   0   1 -10    4.19    0.16
   0   1 -10    4.31    0.14
   0   1 -10    4.41    0.15
   0  -1  10    4.09    0.18
   0  -1  10    4.10    0.14
   0  -1  10    4.21    0.22
   0  -1  10    3.95    0.17
   0  -1  10    4.39    0.15
  -1   1 -10   20.27    0.57
  -1   1 -10   20.84    0.63
  -1   1 -10   21.35    0.60
  -1   1 -10   21.44    0.59
   1  -1  10   20.20    0.59
   1  -1  10   21.06    0.57
   1  -1  10   21.49    0.65
  -2   1 -10   74.29    1.97
  -2   1 -10   72.83    2.00
  -2   1 -10   75.04    1.95
  -2   1 -10   76.34    1.97
  -2   1 -10   77.60    2.10
   2  -1  10   75.53    1.97
  -3   1 -10    2.09    0.11
  -3   1 -10    2.09    0.10
  -3   1 -10    2.09    0.10
   3  -1  10    2.30    0.11
  -4   1 -10    0.16    0.03
  -4   1 -10    0.13    0.04
  -4   1 -10    0.22    0.04
   4  -1  10    0.20    0.04
  -5   1 -10    1.15    0.05
  -5   1 -10    1.28    0.06
   5  -1  10    1.21    0.05
   4   0 -10    7.31    0.21
   4   0 -10    7.28    0.22
  -4   0  10    7.62    0.22
   3   0 -10   14.49    0.39
   3   0 -10   13.89    0.39
   3   0 -10   13.58    0.40
  -3   0  10   13.57    0.39
  -3   0  10   14.34    0.39
   2   0 -10   12.47    0.38
   2   0 -10   12.81    0.39
   2   0 -10   13.08    0.36
   2   0 -10   13.04    0.38
   2   0 -10   12.51    0.47
  -2   0  10   13.01    0.36
  -2   0  10   13.34    0.37
  -2   0  10   12.65    0.40
  -2   0  10   13.00    0.37
  -2   0  10   12.78    0.43
   1   0 -10    0.16    0.05
   1   0 -10    0.07    0.04
   1   0 -10    0.13    0.03
   1   0 -10    0.10    0.09
   1   0 -10    0.09    0.03
  -1   0  10    0.12    0.04
  -1   0  10    0.07    0.03
  -1   0  10    0.05    0.05
  -1   0  10    0.16    0.03
  -1   0  10    0.07    0.04
  -1   0  10    0.14    0.03
   0   0 -10    8.65    0.25
   0   0 -10    8.36    0.27
   0   0 -10    8.42    0.26
   0   0  10    8.80    0.26
   0   0  10    7.91    0.25
   0   0  10    8.41    0.28
   0   0  10    8.82    0.33
   0   0  10    8.53    0.29
   0   0  10    8.65    0.25
   0   0  10    8.22    0.28
  -1   0 -10    5.51    0.18
  -1   0 -10    6.05    0.20
  -1   0 -10    5.47    0.17
  -1   0 -10    5.92    0.24
  -1   0 -10    5.71    0.20
   1   0  10    5.72    0.25
   1   0  10    5.46    0.21
   1   0  10    5.49    0.18
  -2   0 -10   13.95    0.40
  -2   0 -10   12.47    0.39
  -2   0 -10   13.14    0.37
  -2   0 -10   12.57    0.38
   2   0  10   13.19    0.39
   2   0  10   13.45    0.44
  -3   0 -10   14.29    0.42
  -3   0 -10   13.96    0.43
  -3   0 -10   13.84    0.42
   3   0  10   14.34    0.41
   3   0  10   14.36    0.44
  -4   0 -10   11.82    0.35
  -4   0 -10   12.12    0.35
  -4   0 -10   12.03    0.37
   4   0  10   11.64    0.33
   4   0  10   12.25    0.35
  -5   0 -10    8.51    0.24
  -5   0 -10    8.07    0.25
   5   0  10    7.97    0.24
   5   0  10    8.00    0.23
   5   0  10    8.10    0.23
   4  -1 -10    0.15    0.03
   4  -1 -10    0.15    0.02
   3  -1 -10    3.56    0.12
   3  -1 -10    3.40    0.15
   3  -1 -10    3.43    0.13
   3  -1 -10    3.29    0.14
  -3   1  10    3.52    0.17
  -3   1  10    3.62    0.13
   2  -1 -10   51.69    1.40
   2  -1 -10   53.75    1.39
   2  -1 -10   52.57    1.48
   2  -1 -10   52.11    1.37
   2  -1 -10   54.85    1.40
   2  -1 -10   53.34    1.38
  -2   1  10   52.44    1.47
  -2   1  10   52.79    1.38
  -2   1  10   52.72    1.38
  -2   1  10   50.03    1.42
   1  -1 -10   25.81    0.71
   1  -1 -10   24.68    0.68
   1  -1 -10   25.75    0.71
   1  -1 -10   24.71    0.69
   1  -1 -10   25.33    0.80
   1  -1 -10   24.90    0.78
   1  -1 -10   26.11    0.68
   1  -1 -10   25.07    0.71
  -1   1  10   26.49    0.69
  -1   1  10   25.54    0.73
  -1   1  10   26.31    0.69
  -1   1  10   26.63    0.76
  -1   1  10   25.38    0.69
  -1   1  10   23.50    0.71
   0  -1 -10   33.70    0.99
   0  -1 -10   33.49    0.87
   0  -1 -10   32.46    0.90
   0  -1 -10   33.76    1.02
   0  -1 -10   32.04    0.90
   0  -1 -10   32.87    0.88
   0   1  10   32.32    0.92
   0   1  10   33.05    0.88
   0   1  10   33.94    0.91
   0   1  10   33.06    0.88
   0   1  10   33.51    0.88
   0   1  10   33.78    0.96
  -1  -1 -10    1.31    0.18
  -1  -1 -10    1.30    0.07
  -1  -1 -10    1.38    0.09
  -1  -1 -10    1.35    0.09
  -1  -1 -10    1.44    0.07
  -1  -1 -10    1.23    0.14
  -1  -1 -10    1.38    0.08
   1   1  10    1.38    0.09
   1   1  10    1.43    0.08
   1   1  10    1.43    0.08
   1   1  10    1.34    0.12
   1   1  10    1.17    0.10
  -2  -1 -10    0.76    0.13
  -2  -1 -10    0.72    0.07
  -2  -1 -10    0.56    0.05
  -2  -1 -10    0.78    0.13
  -2  -1 -10    0.75    0.08
   2   1  10    0.66    0.09
   2   1  10    0.60    0.07
   2   1  10    0.60    0.08
   2   1  10    0.66    0.06
   2   1  10    0.63    0.07
  -3  -1 -10   15.32    0.45
  -3  -1 -10   14.58    0.42
  -3  -1 -10   15.35    0.44
   3   1  10   15.25    0.44
   3   1  10   15.15    0.42
   3   1  10   15.84    0.48
  -4  -1 -10    2.58    0.12
  -4  -1 -10    2.61    0.13
  -4  -1 -10    2.44    0.12
   4   1  10    2.57    0.11
   4   1  10    2.70    0.10
   4   1  10    2.77    0.14
   4   1  10    2.60    0.10
  -5  -1 -10    9.54    0.31
  -5  -1 -10    9.91    0.29
   5   1  10    9.88    0.27
   5   1  10    9.90    0.28
   5   1  10    9.58    0.27
   5   1  10    9.96    0.28
  -6  -1 -10    5.79    0.17
   6   1  10    5.93    0.16
   4  -2 -10    3.81    0.12
   4  -2 -10    3.88    0.13
  -4   2  10    3.91    0.12
   3  -2 -10    0.38    0.04
   3  -2 -10    0.35    0.05
   3  -2 -10    0.33    0.05
   3  -2 -10    0.34    0.04
   3  -2 -10    0.35    0.06
  -3   2  10    0.34    0.05
   2  -2 -10    0.50    0.04
   2  -2 -10    0.58    0.08
   2  -2 -10    0.46    0.06
   2  -2 -10    0.53    0.11
   2  -2 -10    0.51    0.07
   2  -2 -10    0.50    0.06
  -2   2  10    0.47    0.06
  -2   2  10    0.51    0.09
  -2   2  10    0.45    0.05
   1  -2 -10   23.14    0.63
   1  -2 -10   24.35    0.75
   1  -2 -10   23.97    0.66
   1  -2 -10   23.51    0.66
   1  -2 -10   24.62    0.77
   1  -2 -10   23.92    0.65
   1  -2 -10   23.55    0.67
  -1   2  10   22.87    0.64
  -1   2  10   22.88    0.69
  -1   2  10   23.55    0.64
  -1   2  10   23.15    0.71
  -1   2  10   23.53    0.64
   0  -2 -10    6.74    0.23
   0  -2 -10    6.41    0.21
   0  -2 -10    6.46    0.19
   0  -2 -10    6.43    0.33
   0  -2 -10    6.77    0.31
   0  -2 -10    6.51    0.23
   0   2  10    6.49    0.25
   0   2  10    6.72    0.21
   0   2  10    6.22    0.21
   0   2  10    6.63    0.24
   0   2  10    6.68    0.27
  -1  -2 -10   42.64    1.15
  -1  -2 -10   43.76    1.15
  -1  -2 -10   44.95    1.26
  -1  -2 -10   42.60    1.14
  -1  -2 -10   46.02    1.30
  -1  -2 -10   42.67    1.15
   1   2  10   41.39    1.16
   1   2  10   41.81    1.13
   1   2  10   43.26    1.22
   1   2  10   42.10    1.18
  -2  -2 -10    4.19    0.15
  -2  -2 -10    4.14    0.16
  -2  -2 -10    4.23    0.27
  -2  -2 -10    4.08    0.24
  -2  -2 -10    4.35    0.17
   2   2  10    3.85    0.16
   2   2  10    4.82    0.22
   2   2  10    4.15    0.17
   2   2  10    4.03    0.19
  -3  -2 -10   12.69    0.35
  -3  -2 -10   12.85    0.50
  -3  -2 -10   12.62    0.37
  -3  -2 -10   12.60    0.37
  -3  -2 -10   12.17    0.47
   3   2  10   11.39    0.40
   3   2  10   11.71    0.34
   3   2  10   12.39    0.35
   3   2  10   12.31    0.42
  -4  -2 -10   19.47    0.56
  -4  -2 -10   19.02    0.66
  -4  -2 -10   19.86    0.69
  -4  -2 -10   19.42    0.57
  -4  -2 -10   20.37    0.56
   4   2  10   20.09    0.54
   4   2  10   19.91    0.55
   4   2  10   19.69    0.54
   4   2  10   20.34    0.59
  -5  -2 -10    6.54    0.34
  -5  -2 -10    7.10    0.23
  -5  -2 -10    7.47    0.23
  -5  -2 -10    7.47    0.25
   5   2  10    7.37    0.23
   5   2  10    7.15    0.21
   5   2  10    7.45    0.22
   5   2  10    7.31    0.21
  -6  -2 -10   15.40    0.44
  -6  -2 -10   16.48    0.43
   6   2  10   15.31    0.43
   6   2  10   16.25    0.42
   6   2  10   15.96    0.43
   6   2  10   16.06    0.42
   3  -3 -10    2.81    0.15
   3  -3 -10    2.80    0.11
   3  -3 -10    2.74    0.11
  -3   3  10    2.80    0.10
   2  -3 -10    6.43    0.21
   2  -3 -10    6.36    0.24
   2  -3 -10    6.44    0.28
   2  -3 -10    6.14    0.20
   2  -3 -10    6.25    0.21
   2  -3 -10    6.36    0.22
  -2   3  10    6.04    0.23
  -2   3  10    6.41    0.20
   1  -3 -10    1.48    0.09
   1  -3 -10    1.27    0.17
   1  -3 -10    1.43    0.10
   1  -3 -10    1.34    0.15
   1  -3 -10    1.39    0.09
   1  -3 -10    1.41    0.11
  -1   3  10    1.56    0.12
   0  -3 -10   11.00    0.44
   0  -3 -10   12.24    0.36
   0  -3 -10   12.41    0.49
   0  -3 -10   11.49    0.34
   0  -3 -10   11.42    0.36
   0   3  10   11.85    0.41
   0   3  10   11.69    0.34
   0   3  10   11.62    0.39
  -1  -3 -10   57.16    1.59
  -1  -3 -10   56.43    1.57
  -1  -3 -10   54.59    1.45
  -1  -3 -10   51.78    1.44
  -1  -3 -10   53.29    1.45
  -1  -3 -10   53.94    1.45
   1   3  10   53.73    1.49
   1   3  10   56.77    1.52
   1   3  10   56.53    1.43
  -2  -3 -10   18.83    0.53
  -2  -3 -10   18.01    0.52
  -2  -3 -10   19.28    0.64
  -2  -3 -10   19.50    0.54
  -2  -3 -10   18.61    0.67
   2   3  10   17.63    0.57
   2   3  10   19.00    0.60
   2   3  10   19.67    0.52
  -3  -3 -10   19.72    0.52
  -3  -3 -10   17.65    0.63
  -3  -3 -10   18.53    0.67
  -3  -3 -10   18.71    0.54
   3   3  10   19.66    0.51
   3   3  10   18.64    0.51
   3   3  10   18.26    0.52
   3   3  10   18.19    0.59
   3   3  10   18.43    0.57
  -4  -3 -10    8.20    0.28
  -4  -3 -10    8.71    0.40
  -4  -3 -10    7.90    0.37
  -4  -3 -10    8.56    0.27
  -4  -3 -10    8.38    0.27
   4   3  10    8.59    0.25
   4   3  10    8.33    0.25
   4   3  10    8.38    0.30
   4   3  10    8.48    0.26
  -5  -3 -10   17.53    0.49
  -5  -3 -10   16.99    0.61
  -5  -3 -10   17.48    0.51
  -5  -3 -10   17.50    0.49
   5   3  10   18.12    0.52
   5   3  10   17.75    0.47
   5   3  10   17.86    0.49
   5   3  10   17.35    0.48
   5   3  10   17.09    0.47
  -6  -3 -10    1.90    0.08
  -6  -3 -10    1.83    0.09
   6   3  10    1.86    0.08
   6   3  10    1.95    0.07
   6   3  10    1.87    0.07
   6   3  10    1.84    0.07
   2  -4 -10   16.63    0.49
   2  -4 -10   17.89    0.48
   2  -4 -10   16.77    0.47
  -2   4  10   17.26    0.46
  -2   4  10   15.90    0.54
  -2   4  10   17.50    0.49
   1  -4 -10   13.42    0.42
   1  -4 -10   13.09    0.47
   1  -4 -10   13.69    0.40
   1  -4 -10   13.65    0.39
  -1   4  10   13.57    0.37
  -1   4  10   13.07    0.42
  -1   4  10   13.15    0.45
   0  -4 -10    2.90    0.13
   0  -4 -10    2.63    0.11
   0  -4 -10    2.70    0.21
   0  -4 -10    2.81    0.13
   0  -4 -10    2.30    0.24
   0   4  10    2.57    0.17
   0   4  10    2.77    0.11
   0   4  10    2.78    0.16
   0   4  10    2.83    0.17
  -1  -4 -10    1.98    0.18
  -1  -4 -10    1.86    0.10
  -1  -4 -10    1.84    0.10
  -1  -4 -10    1.94    0.11
  -1  -4 -10    1.86    0.09
  -1  -4 -10    1.93    0.21
   1   4  10    1.68    0.10
   1   4  10    1.84    0.13
   1   4  10    1.92    0.14
   1   4  10    1.90    0.09
   1   4  10    2.07    0.15
  -2  -4 -10   13.54    0.50
  -2  -4 -10   12.89    0.53
  -2  -4 -10   13.25    0.38
  -2  -4 -10   12.87    0.39
  -2  -4 -10   13.11    0.40
   2   4  10   13.60    0.43
   2   4  10   13.28    0.37
   2   4  10   13.38    0.37
   2   4  10   12.58    0.45
   2   4  10   13.09    0.44
  -3  -4 -10    1.93    0.11
  -3  -4 -10    2.00    0.09
  -3  -4 -10    2.07    0.21
  -3  -4 -10    1.95    0.18
   3   4  10    2.05    0.15
   3   4  10    1.94    0.13
   3   4  10    1.89    0.14
   3   4  10    2.15    0.09
   3   4  10    2.15    0.09
  -4  -4 -10    0.26    0.05
  -4  -4 -10    0.30    0.04
  -4  -4 -10    0.23    0.11
   4   4  10    0.30    0.04
   4   4  10    0.24    0.03
   4   4  10    0.24    0.04
   4   4  10    0.39    0.07
   4   4  10    0.33    0.05
  -5  -4 -10   27.88    0.75
  -5  -4 -10   27.78    0.76
  -5  -4 -10   27.39    0.75
   5   4  10   27.81    0.73
   5   4  10   27.56    0.74
   5   4  10   27.39    0.77
   5   4  10   27.94    0.73
   5   4  10   27.39    0.74
  -6  -4 -10    0.11    0.03
  -6  -4 -10    0.15    0.03
   6   4  10    0.14    0.03
   6   4  10    0.12    0.02
   6   4  10    0.14    0.02
   6   4  10    0.11    0.03
   2  -5 -10    4.39    0.13
  -2   5  10    4.16    0.14
   1  -5 -10    0.89    0.06
   1  -5 -10    0.82    0.07
   1  -5 -10    0.84    0.06
  -1   5  10    0.97    0.08
  -1   5  10    0.81    0.09
   0  -5 -10    4.29    0.16
   0  -5 -10    4.30    0.16
   0   5  10    4.09    0.15
   0   5  10    4.44    0.18
   0   5  10    4.08    0.20
  -1  -5 -10   26.72    0.74
  -1  -5 -10   26.09    0.84
  -1  -5 -10   27.80    0.75
  -1  -5 -10   27.57    0.73
   1   5  10   27.42    0.81
   1   5  10   28.81    0.75
   1   5  10   26.75    0.81
   1   5  10   27.70    0.74
   1   5  10   27.08    0.78
  -2  -5 -10    1.77    0.20
  -2  -5 -10    1.72    0.10
  -2  -5 -10    1.74    0.10
  -2  -5 -10    1.95    0.09
   2   5  10    1.69    0.14
   2   5  10    1.67    0.14
   2   5  10    1.83    0.10
   2   5  10    1.73    0.08
   2   5  10    1.86    0.12
  -3  -5 -10   10.17    0.32
  -3  -5 -10   10.05    0.43
  -3  -5 -10   10.67    0.30
   3   5  10   10.66    0.39
   3   5  10   10.31    0.37
   3   5  10   10.05    0.29
   3   5  10   10.63    0.30
   3   5  10   10.89    0.35
  -4  -5 -10    0.13    0.04
  -4  -5 -10    0.10    0.09
  -4  -5 -10    0.12    0.03
   4   5  10    0.09    0.03
   4   5  10    0.11    0.06
   4   5  10    0.10    0.03
   4   5  10    0.16    0.06
   4   5  10    0.05    0.04
  -5  -5 -10    9.38    0.28
   5   5  10    9.65    0.26
   5   5  10    9.24    0.27
   5   5  10    9.83    0.28
   5   5  10    9.20    0.28
   5   5  10    9.82    0.29
   5   5  10    9.88    0.27
  -6  -5 -10    3.00    0.10
   6   5  10    3.03    0.09
   6   5  10    3.10    0.10
   0  -6 -10    1.52    0.07
   0  -6 -10    1.56    0.07
   0   6  10    1.60    0.09
   0   6  10    1.45    0.07
  -1  -6 -10   21.41    0.57
  -1  -6 -10   20.69    0.57
  -1  -6 -10   21.11    0.56
   1   6  10   20.94    0.56
   1   6  10   21.86    0.59
   1   6  10   19.41    0.63
   1   6  10   21.00    0.62
   1   6  10   21.23    0.57
  -2  -6 -10    1.28    0.06
  -2  -6 -10    1.21    0.07
  -2  -6 -10    1.27    0.07
   2   6  10    1.25    0.06
   2   6  10    1.16    0.11
   2   6  10    1.34    0.09
   2   6  10    1.13    0.12
   2   6  10    1.18    0.07
  -3  -6 -10    7.34    0.23
  -3  -6 -10    7.59    0.22
   3   6  10    7.13    0.27
   3   6  10    7.07    0.24
   3   6  10    7.10    0.29
   3   6  10    7.48    0.21
  -4  -6 -10    0.41    0.05
  -4  -6 -10    0.38    0.04
   4   6  10    0.43    0.08
   4   6  10    0.43    0.04
   4   6  10    0.40    0.07
  -5  -6 -10    1.74    0.08
   5   6  10    1.74    0.07
   5   6  10    1.83    0.07
  -2  -7 -10    4.15    0.12
   2   7  10    4.03    0.12
  -3  -7 -10    0.55    0.04
  -3  -7 -10    0.59    0.04
   3   7  10    0.66    0.04
  -4  -7 -10    0.34    0.03
   4   7  10    0.29    0.03
   2   4 -11    1.01    0.06
   1   4 -11    1.57    0.07
   1   4 -11    1.51    0.06
   0   4 -11   14.58    0.40
   0   4 -11   14.58    0.39
   0  -4  11   14.51    0.39
  -1   4 -11    0.79    0.04
   3   3 -11    4.39    0.20
   3   3 -11    4.67    0.15
   2   3 -11    2.88    0.11
   2   3 -11    2.52    0.16
  -2  -3  11    2.64    0.10
  -2  -3  11    2.69    0.15
   1   3 -11    6.76    0.20
   1   3 -11    6.48    0.26
   1   3 -11    7.09    0.21
   1   3 -11    7.11    0.22
  -1  -3  11    7.01    0.21
  -1  -3  11    6.58    0.27
   0   3 -11    0.37    0.05
   0   3 -11    0.37    0.04
   0   3 -11    0.34    0.07
   0   3 -11    0.39    0.05
   0   3 -11    0.37    0.04
   0  -3  11    0.27    0.04
   0  -3  11    0.31    0.06
  -1   3 -11    4.78    0.15
  -1   3 -11    4.72    0.16
  -1   3 -11    4.66    0.20
   1  -3  11    4.60    0.15
  -2   3 -11    1.22    0.06
  -2   3 -11    1.28    0.06
  -2   3 -11    1.29    0.06
  -2   3 -11    1.32    0.07
   2  -3  11    1.40    0.06
   4   2 -11    8.99    0.24
   3   2 -11   15.43    0.41
   3   2 -11   15.18    0.50
  -3  -2  11   15.63    0.42
   2   2 -11    3.43    0.19
   2   2 -11    3.11    0.10
   2   2 -11    2.94    0.11
   2   2 -11    3.10    0.13
  -2  -2  11    2.75    0.10
  -2  -2  11    2.93    0.11
  -2  -2  11    2.97    0.16
   1   2 -11    6.99    0.21
   1   2 -11    6.80    0.28
   1   2 -11    6.97    0.20
   1   2 -11    7.11    0.23
  -1  -2  11    7.24    0.29
  -1  -2  11    6.84    0.21
  -1  -2  11    6.83    0.21
  -1  -2  11    6.70    0.22
   0   2 -11    8.15    0.30
   0   2 -11    8.08    0.24
   0   2 -11    7.94    0.25
   0   2 -11    7.90    0.23
   0   2 -11    8.01    0.26
   0  -2  11    8.16    0.24
   0  -2  11    7.60    0.24
   0  -2  11    8.08    0.32
   0  -2  11    7.80    0.25
  -1   2 -11   10.95    0.33
  -1   2 -11   11.14    0.33
  -1   2 -11   11.38    0.31
  -1   2 -11   11.18    0.31
  -1   2 -11   10.91    0.37
   1  -2  11   10.89    0.38
   1  -2  11   10.79    0.33
  -2   2 -11    1.57    0.12
  -2   2 -11    1.68    0.08
  -2   2 -11    1.50    0.07
  -2   2 -11    1.59    0.09
  -2   2 -11    1.59    0.07
   2  -2  11    1.63    0.08
  -3   2 -11    6.50    0.19
  -3   2 -11    6.63    0.21
  -3   2 -11    6.80    0.20
   3  -2  11    7.00    0.20
   4  -2  11    3.71    0.11
   4   1 -11    0.30    0.03
   3   1 -11    4.34    0.14
  -3  -1  11    4.38    0.14
   2   1 -11    0.59    0.11
   2   1 -11    0.43    0.06
   2   1 -11    0.39    0.06
   2   1 -11    0.36    0.04
  -2  -1  11    0.41    0.04
  -2  -1  11    0.39    0.05
  -2  -1  11    0.43    0.08
   1   1 -11   95.23    2.49
   1   1 -11   95.83    2.49
   1   1 -11   97.37    2.52
   1   1 -11   92.62    2.63
   1   1 -11   99.90    2.51
  -1  -1  11   94.20    2.53
  -1  -1  11  100.04    2.59
  -1  -1  11   97.37    2.49
  -1  -1  11   97.34    2.49
   0   1 -11   28.33    0.75
   0   1 -11   28.84    0.74
   0   1 -11   28.28    0.78
   0   1 -11   28.31    0.77
   0   1 -11   27.47    0.76
   0  -1  11   28.32    0.84
   0  -1  11   28.22    0.75
   0  -1  11   26.22    0.79
   0  -1  11   27.71    0.77
   0  -1  11   28.08    0.75
  -1   1 -11   10.21    0.32
  -1   1 -11   10.73    0.32
  -1   1 -11   10.30    0.30
  -1   1 -11   10.29    0.36
   1  -1  11   10.37    0.32
   1  -1  11    9.90    0.30
   1  -1  11   10.43    0.37
  -2   1 -11   20.40    0.61
  -2   1 -11   20.93    0.58
  -2   1 -11   20.98    0.58
  -2   1 -11   20.21    0.56
   2  -1  11   21.23    0.58
  -3   1 -11    0.49    0.06
  -3   1 -11    0.40    0.06
   3  -1  11    0.43    0.05
  -4   1 -11    1.51    0.07
  -4   1 -11    1.45    0.07
  -4   1 -11    1.45    0.08
   4  -1  11    1.61    0.07
   4   0 -11   20.45    0.53
  -4   0  11   19.76    0.53
   3   0 -11    4.37    0.14
   3   0 -11    4.49    0.15
  -3   0  11    4.52    0.14
  -3   0  11    4.25    0.14
  -3   0  11    4.49    0.15
   2   0 -11   25.93    0.69
   2   0 -11   26.10    0.71
   2   0 -11   25.48    0.71
  -2   0  11   25.05    0.69
  -2   0  11   25.97    0.76
  -2   0  11   25.92    0.69
  -2   0  11   26.59    0.69
   1   0 -11   19.64    0.55
   1   0 -11   19.89    0.56
   1   0 -11   19.36    0.53
   1   0 -11   19.69    0.52
  -1   0  11   18.93    0.53
  -1   0  11   19.22    0.53
  -1   0  11   18.13    0.56
  -1   0  11   19.41    0.61
  -1   0  11   19.91    0.53
   0   0 -11   17.69    0.48
   0   0 -11   17.78    0.49
   0   0 -11   17.72    0.51
   0   0  11   17.74    0.49
   0   0  11   18.26    0.57
   0   0  11   17.52    0.49
   0   0  11   16.94    0.53
  -1   0 -11    5.72    0.19
  -1   0 -11    5.95    0.21
  -1   0 -11    5.98    0.20
   1   0  11    6.21    0.26
   1   0  11    5.76    0.21
   1   0  11    5.90    0.19
  -2   0 -11   63.92    1.70
  -2   0 -11   64.77    1.69
  -2   0 -11   65.31    1.71
  -2   0 -11   66.40    1.71
   2   0  11   65.43    1.76
   2   0  11   63.48    1.71
  -3   0 -11   32.00    0.88
  -3   0 -11   32.83    0.87
   3   0  11   31.98    0.87
  -4   0 -11    0.20    0.04
  -4   0 -11    0.24    0.04
  -4   0 -11    0.28    0.05
   4   0  11    0.22    0.04
  -5   0 -11    0.67    0.04
  -5   0 -11    0.71    0.05
  -5   0 -11    0.66    0.06
   5   0  11    0.68    0.04
   4  -1 -11   15.56    0.42
  -4   1  11   16.25    0.42
   3  -1 -11    7.50    0.21
   3  -1 -11    7.15    0.23
   3  -1 -11    7.43    0.22
  -3   1  11    7.81    0.22
  -3   1  11    7.26    0.22
   2  -1 -11    1.38    0.09
   2  -1 -11    1.44    0.08
   2  -1 -11    1.46    0.14
   2  -1 -11    1.42    0.07
  -2   1  11    1.41    0.08
  -2   1  11    1.42    0.07
  -2   1  11    1.29    0.08
   1  -1 -11    1.57    0.18
   1  -1 -11    1.54    0.09
   1  -1 -11    1.59    0.08
   1  -1 -11    1.57    0.10
   1  -1 -11    1.54    0.07
  -1   1  11    1.68    0.13
  -1   1  11    1.53    0.09
  -1   1  11    1.56    0.08
  -1   1  11    1.52    0.10
  -1   1  11    1.54    0.09
   0  -1 -11   16.17    0.58
   0  -1 -11   17.93    0.62
   0  -1 -11   17.51    0.52
   0  -1 -11   18.37    0.51
   0  -1 -11   18.15    0.48
   0  -1 -11   17.87    0.49
   0   1  11   17.76    0.49
   0   1  11   17.81    0.49
   0   1  11   18.26    0.57
   0   1  11   18.05    0.49
  -1  -1 -11    0.30    0.04
  -1  -1 -11    0.33    0.05
  -1  -1 -11    0.26    0.05
  -1  -1 -11    0.23    0.10
  -1  -1 -11    0.27    0.04
  -1  -1 -11    0.23    0.11
   1   1  11    0.25    0.04
   1   1  11    0.25    0.07
  -2  -1 -11    6.53    0.22
  -2  -1 -11    7.00    0.24
  -2  -1 -11    7.02    0.22
   2   1  11    6.93    0.24
   2   1  11    6.97    0.26
   2   1  11    7.06    0.21
   2   1  11    7.12    0.28
  -3  -1 -11   11.43    0.32
  -3  -1 -11   11.28    0.34
  -3  -1 -11   11.18    0.34
   3   1  11   11.14    0.36
   3   1  11   11.03    0.34
   3   1  11   11.17    0.31
  -4  -1 -11   11.31    0.35
  -4  -1 -11   11.93    0.35
  -4  -1 -11   11.75    0.35
   4   1  11   11.80    0.34
   4   1  11   11.41    0.32
  -5  -1 -11    3.58    0.15
  -5  -1 -11    3.65    0.13
  -5  -1 -11    3.66    0.14
   5   1  11    3.45    0.12
   5   1  11    3.73    0.11
   5   1  11    3.74    0.11
   5   1  11    3.64    0.12
   3  -2 -11    2.80    0.11
   3  -2 -11    2.77    0.09
   3  -2 -11    2.79    0.11
  -3   2  11    2.95    0.10
  -3   2  11    2.59    0.11
   2  -2 -11   31.78    0.84
   2  -2 -11   31.14    0.85
   2  -2 -11   30.54    0.82
   2  -2 -11   30.92    0.92
   2  -2 -11   31.59    0.85
  -2   2  11   30.69    0.87
  -2   2  11   31.95    0.83
  -2   2  11   30.25    0.93
  -2   2  11   31.47    0.83
   1  -2 -11   70.02    1.80
   1  -2 -11   72.00    1.94
   1  -2 -11   69.04    1.83
   1  -2 -11   68.39    1.83
   1  -2 -11   69.69    1.84
  -1   2  11   68.05    1.81
  -1   2  11   70.97    1.81
  -1   2  11   69.43    1.88
   0  -2 -11    0.62    0.06
   0  -2 -11    0.60    0.08
   0  -2 -11    0.61    0.07
   0  -2 -11    0.62    0.05
   0  -2 -11    0.55    0.10
   0  -2 -11    0.77    0.15
   0   2  11    0.60    0.11
   0   2  11    0.57    0.06
   0   2  11    0.63    0.09
   0   2  11    0.58    0.06
  -1  -2 -11   16.20    0.59
  -1  -2 -11   16.11    0.56
  -1  -2 -11   15.32    0.47
  -1  -2 -11   15.86    0.45
  -1  -2 -11   16.06    0.45
  -1  -2 -11   16.46    0.47
  -1  -2 -11   17.18    0.47
   1   2  11   16.44    0.50
   1   2  11   16.51    0.53
   1   2  11   15.23    0.45
  -2  -2 -11    5.19    0.31
  -2  -2 -11    5.23    0.27
  -2  -2 -11    5.10    0.18
  -2  -2 -11    5.46    0.20
   2   2  11    5.21    0.19
   2   2  11    5.31    0.24
   2   2  11    5.44    0.22
   2   2  11    5.37    0.17
  -3  -2 -11    4.18    0.14
  -3  -2 -11    4.38    0.17
  -3  -2 -11    4.41    0.16
  -3  -2 -11    4.54    0.28
  -3  -2 -11    3.99    0.24
   3   2  11    4.08    0.19
   3   2  11    3.84    0.19
   3   2  11    3.92    0.15
   3   2  11    4.07    0.14
  -4  -2 -11    6.08    0.21
  -4  -2 -11    5.95    0.32
  -4  -2 -11    6.13    0.21
   4   2  11    6.05    0.23
   4   2  11    6.04    0.20
   4   2  11    6.18    0.19
   4   2  11    6.12    0.18
  -5  -2 -11    0.30    0.04
  -5  -2 -11    0.36    0.05
  -5  -2 -11    0.28    0.05
   5   2  11    0.35    0.04
   5   2  11    0.31    0.04
   5   2  11    0.30    0.03
   5   2  11    0.31    0.04
  -6  -2 -11   13.17    0.36
   6   2  11   13.41    0.37
   6   2  11   13.26    0.36
   3  -3 -11    2.00    0.08
   3  -3 -11    2.02    0.08
  -3   3  11    1.99    0.07
   2  -3 -11    0.91    0.07
   2  -3 -11    0.97    0.07
   2  -3 -11    0.79    0.06
   2  -3 -11    0.78    0.08
  -2   3  11    0.89    0.06
  -2   3  11    0.90    0.08
   1  -3 -11    4.96    0.18
   1  -3 -11    4.50    0.26
   1  -3 -11    4.92    0.18
   1  -3 -11    5.02    0.19
   1  -3 -11    4.54    0.19
  -1   3  11    4.74    0.16
  -1   3  11    4.79    0.20
   0  -3 -11    6.84    0.24
   0  -3 -11    7.46    0.25
   0  -3 -11    6.98    0.22
   0  -3 -11    7.28    0.35
   0  -3 -11    6.80    0.32
   0   3  11    7.25    0.22
   0   3  11    7.43    0.29
   0   3  11    7.52    0.27
  -1  -3 -11   24.66    0.68
  -1  -3 -11   23.35    0.67
  -1  -3 -11   24.67    0.81
  -1  -3 -11   24.29    0.66
  -1  -3 -11   23.65    0.67
  -1  -3 -11   24.12    0.78
   1   3  11   24.34    0.71
   1   3  11   24.54    0.74
   1   3  11   24.18    0.65
  -2  -3 -11   42.10    1.10
  -2  -3 -11   40.73    1.25
  -2  -3 -11   39.14    1.21
  -2  -3 -11   40.46    1.09
  -2  -3 -11   41.81    1.11
   2   3  11   41.08    1.14
   2   3  11   42.09    1.08
   2   3  11   41.51    1.17
  -3  -3 -11    2.47    0.11
  -3  -3 -11    2.25    0.19
  -3  -3 -11    2.40    0.12
  -3  -3 -11    2.78    0.24
  -3  -3 -11    2.78    0.13
   3   3  11    2.85    0.11
   3   3  11    2.38    0.14
   3   3  11    2.73    0.16
  -4  -3 -11    5.51    0.31
  -4  -3 -11    5.46    0.19
  -4  -3 -11    5.40    0.19
   4   3  11    5.51    0.18
   4   3  11    5.36    0.21
   4   3  11    5.02    0.16
   4   3  11    5.19    0.17
  -5  -3 -11    0.87    0.07
  -5  -3 -11    1.10    0.07
  -5  -3 -11    0.91    0.06
   5   3  11    1.21    0.09
   5   3  11    0.98    0.05
   5   3  11    1.02    0.06
   5   3  11    1.07    0.05
   5   3  11    1.01    0.07
  -6  -3 -11    6.94    0.20
   6   3  11    6.84    0.19
   6   3  11    6.99    0.20
   6   3  11    7.09    0.19
   2  -4 -11    4.40    0.14
   2  -4 -11    4.67    0.15
  -2   4  11    4.50    0.14
  -2   4  11    4.74    0.16
   1  -4 -11    2.37    0.11
   1  -4 -11    2.30    0.10
   1  -4 -11    2.12    0.12
  -1   4  11    2.23    0.09
  -1   4  11    2.19    0.12
   0  -4 -11    2.74    0.20
   0  -4 -11    3.06    0.13
   0  -4 -11    2.96    0.13
   0  -4 -11    2.79    0.11
   0  -4 -11    2.77    0.14
   0   4  11    2.98    0.17
   0   4  11    3.11    0.11
   0   4  11    2.90    0.15
  -1  -4 -11    6.21    0.33
  -1  -4 -11    6.32    0.22
  -1  -4 -11    6.54    0.22
  -1  -4 -11    6.46    0.20
   1   4  11    6.35    0.20
   1   4  11    6.43    0.25
   1   4  11    6.65    0.28
  -2  -4 -11   29.08    0.80
  -2  -4 -11   27.43    0.92
  -2  -4 -11   27.89    0.79
  -2  -4 -11   30.06    0.78
   2   4  11   28.66    0.86
   2   4  11   30.20    0.83
   2   4  11   29.57    0.77
  -3  -4 -11   18.77    0.53
  -3  -4 -11   18.53    0.67
  -3  -4 -11   19.17    0.55
   3   4  11   19.01    0.60
   3   4  11   19.57    0.52
   3   4  11   19.48    0.52
   3   4  11   19.23    0.57
  -4  -4 -11    0.61    0.12
  -4  -4 -11    0.69    0.06
  -4  -4 -11    0.74    0.05
  -4  -4 -11    0.66    0.07
   4   4  11    0.77    0.05
   4   4  11    0.97    0.10
   4   4  11    0.79    0.09
   4   4  11    0.77    0.05
  -5  -4 -11   22.03    0.61
  -5  -4 -11   22.51    0.61
   5   4  11   22.73    0.59
   5   4  11   22.58    0.63
   5   4  11   22.06    0.60
   5   4  11   22.14    0.60
   5   4  11   22.36    0.59
  -6  -4 -11    8.23    0.23
   6   4  11    8.05    0.22
   6   4  11    8.24    0.23
   6   4  11    7.83    0.22
   1  -5 -11    8.95    0.26
   1  -5 -11    8.95    0.26
  -1   5  11    9.27    0.28
   0  -5 -11    0.11    0.04
   0  -5 -11    0.08    0.03
   0  -5 -11    0.10    0.05
   0   5  11    0.03    0.04
   0   5  11    0.15    0.05
  -1  -5 -11    2.71    0.12
  -1  -5 -11    2.61    0.11
  -1  -5 -11    2.50    0.23
  -1  -5 -11    2.72    0.10
   1   5  11    2.70    0.15
   1   5  11    2.62    0.11
   1   5  11    2.57    0.10
   1   5  11    2.70    0.16
   1   5  11    2.51    0.14
  -2  -5 -11    9.87    0.30
  -2  -5 -11    9.55    0.40
  -2  -5 -11    9.82    0.30
  -2  -5 -11    9.76    0.28
   2   5  11    9.43    0.27
   2   5  11    9.95    0.34
   2   5  11    9.83    0.28
   2   5  11    9.50    0.35
   2   5  11   10.12    0.33
  -3  -5 -11   12.35    0.49
  -3  -5 -11   13.81    0.38
  -3  -5 -11   13.47    0.39
   3   5  11   13.23    0.36
   3   5  11   14.34    0.42
   3   5  11   12.92    0.37
   3   5  11   13.14    0.45
   3   5  11   13.18    0.43
  -4  -5 -11    4.63    0.15
  -4  -5 -11    4.47    0.16
   4   5  11    4.67    0.18
   4   5  11    4.05    0.20
   4   5  11    4.59    0.14
   4   5  11    4.54    0.14
  -5  -5 -11   16.53    0.46
  -5  -5 -11   17.85    0.46
   5   5  11   16.56    0.45
   5   5  11   16.86    0.47
   5   5  11   16.82    0.45
   5   5  11   16.94    0.46
   0  -6 -11    1.56    0.07
   0   6  11    1.64    0.08
  -1  -6 -11    3.40    0.12
  -1  -6 -11    3.12    0.10
   1   6  11    3.26    0.13
   1   6  11    3.48    0.21
  -2  -6 -11    8.94    0.27
  -2  -6 -11    9.35    0.27
  -2  -6 -11    9.42    0.26
   2   6  11    9.26    0.33
   2   6  11    9.31    0.31
   2   6  11    9.06    0.26
   2   6  11    9.62    0.29
  -3  -6 -11    6.74    0.20
  -3  -6 -11    6.79    0.19
   3   6  11    6.44    0.19
   3   6  11    6.57    0.24
   3   6  11    6.18    0.26
   3   6  11    6.50    0.22
  -4  -6 -11    0.25    0.03
  -4  -6 -11    0.21    0.03
   4   6  11    0.27    0.05
   4   6  11    0.32    0.03
  -5  -6 -11    4.73    0.14
   5   6  11    4.45    0.13
   2   3 -12    0.50    0.04
   1   3 -12    3.00    0.10
   1   3 -12    2.97    0.11
  -1  -3  12    2.99    0.10
  -1  -3  12    2.90    0.14
   0   3 -12    4.25    0.14
   0   3 -12    4.36    0.13
   0   3 -12    4.12    0.14
   0  -3  12    4.06    0.17
  -1   3 -12   10.43    0.30
  -1   3 -12   10.81    0.28
   1  -3  12    9.97    0.29
  -2   3 -12    4.93    0.14
   3   2 -12   16.85    0.44
   2   2 -12    1.09    0.11
   2   2 -12    1.07    0.07
   2   2 -12    1.01    0.05
   2   2 -12    1.11    0.05
  -2  -2  12    1.08    0.09
  -2  -2  12    0.98    0.05
   1   2 -12    2.46    0.09
   1   2 -12    2.55    0.11
  -1  -2  12    2.43    0.11
  -1  -2  12    2.44    0.15
  -1  -2  12    2.30    0.10
  -1  -2  12    2.57    0.10
   0   2 -12    2.27    0.10
   0   2 -12    2.40    0.09
   0   2 -12    2.42    0.09
   0   2 -12    2.31    0.10
   0  -2  12    2.25    0.09
   0  -2  12    2.23    0.10
   0  -2  12    2.24    0.14
  -1   2 -12    2.08    0.08
  -1   2 -12    2.10    0.09
  -1   2 -12    2.08    0.08
  -1   2 -12    1.86    0.13
  -1   2 -12    1.93    0.09
   1  -2  12    1.91    0.09
   1  -2  12    1.73    0.12
  -2   2 -12   13.39    0.38
  -2   2 -12   13.73    0.36
  -2   2 -12   13.56    0.36
  -2   2 -12   12.41    0.40
  -2   2 -12   13.44    0.37
   2  -2  12   13.49    0.37
  -3   2 -12   12.69    0.34
  -3   2 -12   12.19    0.33
  -3   2 -12   12.40    0.35
   3  -2  12   12.71    0.34
   3   1 -12    1.19    0.05
  -3  -1  12    1.11    0.06
   2   1 -12    0.34    0.05
   2   1 -12    0.19    0.03
  -2  -1  12    0.25    0.03
  -2  -1  12    0.22    0.06
  -2  -1  12    0.26    0.04
   1   1 -12    0.70    0.07
   1   1 -12    0.72    0.05
   1   1 -12    0.76    0.05
   1   1 -12    0.77    0.07
  -1  -1  12    0.87    0.10
  -1  -1  12    0.73    0.05
  -1  -1  12    0.68    0.05
   0   1 -12   57.28    1.47
   0   1 -12   56.15    1.49
   0  -1  12   55.17    1.49
   0  -1  12   56.81    1.47
   0  -1  12   57.85    1.55
   0  -1  12   54.74    1.47
  -1   1 -12    0.41    0.06
  -1   1 -12    0.44    0.05
  -1   1 -12    0.36    0.05
   1  -1  12    0.38    0.08
   1  -1  12    0.35    0.05
  -2   1 -12    4.99    0.18
  -2   1 -12    4.84    0.16
  -2   1 -12    4.93    0.16
   2  -1  12    4.95    0.17
  -3   1 -12   17.52    0.48
  -3   1 -12   17.55    0.50
  -3   1 -12   18.25    0.49
   3  -1  12   18.35    0.49
  -4   1 -12    1.64    0.07
  -4   1 -12    1.54    0.07
   4  -1  12    1.59    0.06
   3   0 -12    0.73    0.04
  -3   0  12    0.78    0.05
   2   0 -12    1.37    0.08
   2   0 -12    1.21    0.07
   2   0 -12    1.19    0.06
  -2   0  12    1.19    0.06
  -2   0  12    1.22    0.10
  -2   0  12    1.28    0.07
   1   0 -12    3.28    0.14
   1   0 -12    3.16    0.11
   1   0 -12    3.18    0.12
   1   0 -12    3.20    0.14
  -1   0  12    3.14    0.11
  -1   0  12    3.24    0.17
  -1   0  12    3.26    0.12
   0   0 -12   35.84    0.94
   0   0 -12   34.73    0.90
   0   0 -12   34.33    0.91
   0   0 -12   33.54    0.92
   0   0  12   34.55    0.99
   0   0  12   34.81    0.91
   0   0  12   31.87    0.90
  -1   0 -12    3.65    0.14
  -1   0 -12    3.48    0.15
  -1   0 -12    3.54    0.13
  -1   0 -12    3.36    0.14
   1   0  12    3.63    0.19
   1   0  12    3.71    0.15
  -2   0 -12   17.18    0.48
  -2   0 -12   17.70    0.50
   2   0  12   18.22    0.50
   2   0  12   16.95    0.54
  -3   0 -12   15.89    0.47
  -3   0 -12   16.74    0.46
   3   0  12   16.81    0.47
  -4   0 -12    0.20    0.03
  -4   0 -12    0.16    0.03
   4   0  12    0.21    0.03
   3  -1 -12    0.80    0.04
  -3   1  12    0.68    0.05
  -3   1  12    0.77    0.05
   2  -1 -12    5.57    0.17
   2  -1 -12    5.61    0.19
   2  -1 -12    5.62    0.19
  -2   1  12    5.99    0.18
  -2   1  12    5.26    0.18
  -2   1  12    5.81    0.18
   1  -1 -12   14.52    0.42
   1  -1 -12   13.84    0.49
   1  -1 -12   14.23    0.39
   1  -1 -12   14.94    0.42
   1  -1 -12   14.02    0.39
  -1   1  12   14.09    0.40
  -1   1  12   14.35    0.47
  -1   1  12   14.28    0.40
  -1   1  12   13.41    0.40
   0  -1 -12   17.18    0.49
   0  -1 -12   17.25    0.50
   0  -1 -12   16.25    0.46
   0  -1 -12   16.61    0.47
   0   1  12   16.96    0.47
   0   1  12   17.32    0.47
   0   1  12   17.47    0.55
  -1  -1 -12    3.74    0.15
  -1  -1 -12    3.83    0.15
  -1  -1 -12    3.93    0.14
   1   1  12    3.87    0.20
   1   1  12    3.80    0.13
  -2  -1 -12    0.49    0.05
  -2  -1 -12    0.59    0.07
   2   1  12    0.48    0.08
   2   1  12    0.50    0.06
   2   1  12    0.51    0.09
   2   1  12    0.47    0.05
  -3  -1 -12   77.78    2.01
  -3  -1 -12   76.81    1.99
  -3  -1 -12   78.30    2.02
   3   1  12   77.02    2.03
   3   1  12   77.29    2.01
   3   1  12   75.53    1.99
  -4  -1 -12    0.59    0.06
  -4  -1 -12    0.62    0.06
   4   1  12    0.62    0.05
   4   1  12    0.67    0.04
  -5  -1 -12    0.12    0.03
  -5  -1 -12    0.15    0.03
   5   1  12    0.18    0.02
   5   1  12    0.15    0.03
  -3   2  12    4.82    0.14
   2  -2 -12    4.84    0.14
   2  -2 -12    4.60    0.16
   2  -2 -12    5.09    0.17
  -2   2  12    4.69    0.16
  -2   2  12    4.92    0.15
   1  -2 -12    6.40    0.19
   1  -2 -12    6.41    0.23
   1  -2 -12    6.86    0.30
   1  -2 -12    6.90    0.22
  -1   2  12    7.03    0.21
  -1   2  12    7.08    0.27
  -1   2  12    6.21    0.21
   0  -2 -12    9.29    0.39
   0  -2 -12    9.38    0.29
   0  -2 -12    9.25    0.26
   0  -2 -12    9.06    0.28
   0  -2 -12    9.27    0.30
   0   2  12    9.52    0.35
   0   2  12    9.54    0.28
  -1  -2 -12   11.51    0.35
  -1  -2 -12   11.94    0.35
  -1  -2 -12   11.15    0.46
  -1  -2 -12   11.65    0.34
  -1  -2 -12   11.58    0.35
  -1  -2 -12   10.89    0.43
   1   2  12   12.20    0.42
   1   2  12   11.49    0.33
   1   2  12   11.90    0.38
  -2  -2 -12   12.17    0.37
  -2  -2 -12   11.05    0.44
  -2  -2 -12   12.31    0.35
  -2  -2 -12   11.88    0.48
   2   2  12   11.84    0.34
   2   2  12   12.45    0.39
   2   2  12   11.98    0.36
   2   2  12   12.15    0.42
  -3  -2 -12    3.98    0.16
  -3  -2 -12    3.59    0.25
  -3  -2 -12    3.84    0.13
  -3  -2 -12    3.69    0.14
   3   2  12    3.97    0.15
   3   2  12    3.72    0.18
   3   2  12    3.81    0.17
   3   2  12    3.83    0.13
   3   2  12    4.01    0.14
  -4  -2 -12   14.22    0.41
  -4  -2 -12   13.93    0.41
   4   2  12   14.70    0.44
   4   2  12   14.78    0.39
   4   2  12   14.90    0.40
   4   2  12   13.88    0.40
  -5  -2 -12    0.28    0.04
  -5  -2 -12    0.30    0.04
   5   2  12    0.29    0.04
   5   2  12    0.21    0.02
   5   2  12    0.17    0.02
   2  -3 -12    0.94    0.06
   2  -3 -12    0.90    0.05
  -2   3  12    0.89    0.05
   1  -3 -12   37.32    0.97
   1  -3 -12   37.01    0.97
   1  -3 -12   33.73    1.06
  -1   3  12   37.32    0.95
  -1   3  12   35.19    0.99
   0  -3 -12    9.81    0.31
   0  -3 -12    9.74    0.28
   0  -3 -12    9.98    0.31
   0  -3 -12    9.26    0.39
   0   3  12    9.77    0.33
   0   3  12    9.97    0.29
   0   3  12    9.93    0.35
  -1  -3 -12   14.44    0.43
  -1  -3 -12   15.58    0.44
  -1  -3 -12   14.17    0.55
  -1  -3 -12   14.71    0.42
   1   3  12   15.14    0.41
   1   3  12   14.75    0.46
   1   3  12   14.92    0.49
  -2  -3 -12    8.54    0.40
  -2  -3 -12    8.81    0.27
  -2  -3 -12    8.88    0.27
  -2  -3 -12    8.44    0.28
   2   3  12    9.00    0.34
   2   3  12    9.12    0.26
   2   3  12    8.62    0.31
  -3  -3 -12    1.36    0.07
  -3  -3 -12    1.27    0.08
  -3  -3 -12    1.24    0.08
  -3  -3 -12    1.26    0.19
   3   3  12    1.19    0.11
   3   3  12    1.43    0.07
   3   3  12    1.38    0.11
  -4  -3 -12    0.26    0.04
  -4  -3 -12    0.25    0.11
  -4  -3 -12    0.20    0.04
  -4  -3 -12    0.17    0.04
   4   3  12    0.19    0.05
   4   3  12    0.22    0.03
   4   3  12    0.21    0.04
   4   3  12    0.16    0.03
  -5  -3 -12    1.40    0.07
  -5  -3 -12    1.44    0.07
   5   3  12    1.36    0.06
   5   3  12    1.35    0.06
   5   3  12    1.32    0.09
   5   3  12    1.34    0.07
   5   3  12    1.35    0.06
   2  -4 -12    1.66    0.07
   1  -4 -12    3.53    0.13
   1  -4 -12    3.62    0.13
  -1   4  12    3.47    0.11
  -1   4  12    3.44    0.14
   0  -4 -12    0.33    0.05
   0  -4 -12    0.32    0.04
   0  -4 -12    0.41    0.06
   0   4  12    0.37    0.08
   0   4  12    0.33    0.04
   0   4  12    0.36    0.06
  -1  -4 -12    1.80    0.10
  -1  -4 -12    1.89    0.09
  -1  -4 -12    1.72    0.19
  -1  -4 -12    1.92    0.10
   1   4  12    1.92    0.08
   1   4  12    1.95    0.12
   1   4  12    1.87    0.14
  -2  -4 -12   14.09    0.40
  -2  -4 -12   13.13    0.39
  -2  -4 -12   12.87    0.51
  -2  -4 -12   13.32    0.38
   2   4  12   13.44    0.43
   2   4  12   13.58    0.45
   2   4  12   13.51    0.37
  -3  -4 -12   11.78    0.35
  -3  -4 -12   11.77    0.33
  -3  -4 -12   11.25    0.33
  -3  -4 -12   10.91    0.45
   3   4  12   11.95    0.32
   3   4  12   11.13    0.37
   3   4  12   11.45    0.40
  -4  -4 -12    2.33    0.10
  -4  -4 -12    2.29    0.09
  -4  -4 -12    2.39    0.11
   4   4  12    2.49    0.09
   4   4  12    2.37    0.12
   4   4  12    2.46    0.09
  -5  -4 -12    2.32    0.09
  -5  -4 -12    2.42    0.09
   5   4  12    2.42    0.09
   5   4  12    2.44    0.08
   5   4  12    2.32    0.11
   5   4  12    2.51    0.08
   1  -5 -12   10.55    0.29
  -1   5  12   10.41    0.30
   0  -5 -12    1.20    0.07
   0  -5 -12    1.15    0.07
   0   5  12    1.24    0.08
   0   5  12    1.14    0.06
  -1  -5 -12    3.79    0.13
  -1  -5 -12    3.71    0.12
  -1  -5 -12    3.47    0.13
   1   5  12    3.76    0.16
   1   5  12    3.48    0.11
   1   5  12    3.42    0.18
  -2  -5 -12    1.45    0.07
  -2  -5 -12    1.31    0.08
  -2  -5 -12    1.39    0.08
   2   5  12    1.53    0.10
   2   5  12    1.23    0.11
   2   5  12    1.38    0.06
  -3  -5 -12    7.86    0.23
  -3  -5 -12    8.01    0.24
   3   5  12    7.59    0.22
   3   5  12    7.72    0.22
   3   5  12    7.19    0.29
   3   5  12    7.98    0.26
  -4  -5 -12    0.15    0.02
  -4  -5 -12    0.12    0.03
  -4  -5 -12    0.16    0.03
   4   5  12    0.13    0.02
   4   5  12    0.12    0.02
   4   5  12    0.07    0.06
   4   5  12    0.17    0.04
  -5  -5 -12    1.51    0.06
  -5  -5 -12    1.45    0.07
   5   5  12    1.58    0.06
   5   5  12    1.52    0.06
   5   5  12    1.57    0.06
   5   5  12    1.54    0.08
   1   6  12    1.17    0.07
  -2  -6 -12    4.53    0.14
  -2  -6 -12    4.43    0.14
   2   6  12    4.57    0.16
  -3  -6 -12    4.88    0.16
  -3  -6 -12    5.16    0.15
   3   6  12    4.91    0.14
   3   6  12    5.07    0.17
  -4  -6 -12    3.26    0.11
  -4  -6 -12    3.45    0.10
   4   6  12    3.28    0.12
   4   6  12    3.34    0.11
   4   6  12    3.41    0.11
   1   3 -13    0.12    0.02
   0   3 -13    2.86    0.09
  -1   3 -13    3.51    0.10
   2   2 -13    1.80    0.08
   1   2 -13    0.99    0.05
   1   2 -13    0.94    0.06
  -1  -2  13    0.98    0.09
  -1  -2  13    0.92    0.05
  -1  -2  13    0.90    0.05
   0   2 -13    0.56    0.05
   0   2 -13    0.56    0.04
   0   2 -13    0.45    0.04
   0  -2  13    0.49    0.04
   0  -2  13    0.47    0.04
  -1   2 -13    4.61    0.16
  -1   2 -13    4.88    0.14
  -1   2 -13    4.59    0.15
  -1   2 -13    4.88    0.14
   1  -2  13    4.94    0.15
  -2   2 -13   20.32    0.53
  -2   2 -13   20.01    0.54
   2  -2  13   20.12    0.54
   3   1 -13    1.66    0.06
   2   1 -13    0.36    0.04
   2   1 -13    0.38    0.03
  -2  -1  13    0.39    0.04
   1   1 -13    0.98    0.05
   1   1 -13    1.09    0.06
   1   1 -13    1.05    0.07
  -1  -1  13    0.94    0.09
  -1  -1  13    1.01    0.07
  -1  -1  13    0.96    0.06
   0   1 -13    3.98    0.15
   0   1 -13    3.98    0.13
   0  -1  13    4.08    0.15
   0  -1  13    3.91    0.19
   0  -1  13    3.91    0.13
  -1   1 -13    1.67    0.07
  -1   1 -13    1.74    0.09
  -1   1 -13    1.77    0.09
   1  -1  13    1.61    0.11
   1  -1  13    1.66    0.09
  -2   1 -13    7.75    0.23
  -2   1 -13    7.45    0.21
   2  -1  13    7.29    0.23
  -3   1 -13    6.34    0.18
  -3   1 -13    6.22    0.19
  -3   1 -13    6.27    0.19
   3  -1  13    6.42    0.19
   3   0 -13    1.67    0.06
   2   0 -13    0.87    0.05
   2   0 -13    0.85    0.06
   2   0 -13    0.90    0.06
  -2   0  13    0.85    0.05
   1   0 -13    1.24    0.08
   1   0 -13    1.10    0.06
   1   0 -13    1.19    0.06
   1   0 -13    1.30    0.08
  -1   0  13    1.19    0.07
  -1   0  13    1.15    0.10
  -1   0  13    1.02    0.08
   0   0 -13   71.79    1.83
   0   0 -13   70.79    1.82
   0   0 -13   71.44    1.85
   0   0 -13   71.45    1.86
   0   0  13   68.24    1.83
   0   0  13   70.66    1.90
  -1   0 -13   11.20    0.33
  -1   0 -13   11.20    0.32
  -1   0 -13   11.30    0.33
  -1   0 -13   11.38    0.34
   1   0  13   10.84    0.34
   1   0  13   11.54    0.39
  -2   0 -13    1.92    0.08
  -2   0 -13    1.96    0.09
  -2   0 -13    1.80    0.09
   2   0  13    1.93    0.12
   2   0  13    1.95    0.10
  -3   0 -13   14.46    0.41
  -3   0 -13   14.43    0.40
   3   0  13   14.38    0.40
  -4   0 -13    1.07    0.05
  -4   0 -13    1.00    0.05
   4   0  13    0.96    0.05
   2  -1 -13    2.40    0.10
   2  -1 -13    2.42    0.08
  -2   1  13    2.50    0.09
  -2   1  13    2.51    0.10
   1  -1 -13    1.86    0.10
   1  -1 -13    1.97    0.09
   1  -1 -13    1.94    0.07
   1  -1 -13    1.98    0.10
  -1   1  13    1.81    0.08
  -1   1  13    1.89    0.08
  -1   1  13    1.82    0.12
   0  -1 -13   18.35    0.51
   0  -1 -13   17.67    0.48
   0  -1 -13   17.92    0.49
   0   1  13   17.60    0.49
   0   1  13   18.17    0.56
  -1  -1 -13    2.09    0.09
  -1  -1 -13    2.00    0.10
  -1  -1 -13    2.12    0.10
   1   1  13    1.85    0.08
   1   1  13    1.94    0.14
   1   1  13    2.20    0.11
  -2  -1 -13    6.49    0.20
  -2  -1 -13    6.47    0.22
  -2  -1 -13    6.69    0.22
   2   1  13    6.43    0.21
   2   1  13    6.17    0.19
   2   1  13    6.33    0.26
  -3  -1 -13    2.07    0.10
  -3  -1 -13    1.92    0.08
  -3  -1 -13    1.82    0.09
   3   1  13    1.97    0.11
   3   1  13    1.95    0.09
   3   1  13    1.94    0.08
  -4  -1 -13    6.16    0.19
  -4  -1 -13    6.19    0.19
   4   1  13    5.88    0.18
   4   1  13    6.03    0.18
   2  -2 -13    0.42    0.05
   2  -2 -13    0.44    0.04
  -2   2  13    0.46    0.04
   1  -2 -13    1.67    0.09
   1  -2 -13    1.76    0.06
   1  -2 -13    1.85    0.09
  -1   2  13    1.77    0.08
  -1   2  13    1.61    0.11
   0  -2 -13    6.26    0.19
   0  -2 -13    5.69    0.28
   0  -2 -13    5.98    0.18
   0  -2 -13    6.17    0.21
   0  -2 -13    6.14    0.21
   0   2  13    6.41    0.19
   0   2  13    6.17    0.25
  -1  -2 -13   16.45    0.45
  -1  -2 -13   15.50    0.56
  -1  -2 -13   16.38    0.46
   1   2  13   15.57    0.48
   1   2  13   16.82    0.53
   1   2  13   16.52    0.44
  -2  -2 -13    0.47    0.05
  -2  -2 -13    0.54    0.12
  -2  -2 -13    0.73    0.06
   2   2  13    0.74    0.10
   2   2  13    0.63    0.05
   2   2  13    0.48    0.07
   2   2  13    0.49    0.06
  -3  -2 -13    5.23    0.18
  -3  -2 -13    5.20    0.17
  -3  -2 -13    5.30    0.16
   3   2  13    4.81    0.21
   3   2  13    5.29    0.20
   3   2  13    5.22    0.16
   3   2  13    5.17    0.17
  -4  -2 -13    1.32    0.07
  -4  -2 -13    1.40    0.07
   4   2  13    1.39    0.07
   4   2  13    1.42    0.06
   4   2  13    1.30    0.09
  -5  -2 -13    0.82    0.05
   5   2  13    0.85    0.04
   2  -3 -13    0.55    0.04
  -2   3  13    0.55    0.04
   1  -3 -13    0.33    0.04
   1  -3 -13    0.32    0.04
  -1   3  13    0.24    0.03
   0  -3 -13   12.14    0.36
   0  -3 -13   12.68    0.36
   0  -3 -13   12.29    0.34
   0   3  13   11.84    0.38
   0   3  13   12.41    0.34
   0   3  13   12.75    0.41
  -1  -3 -13    1.68    0.09
  -1  -3 -13    1.64    0.08
  -1  -3 -13    1.55    0.09
  -1  -3 -13    1.55    0.18
   1   3  13    1.60    0.13
   1   3  13    1.71    0.11
   1   3  13    1.62    0.08
  -2  -3 -13   10.55    0.30
  -2  -3 -13   10.42    0.31
  -2  -3 -13   10.00    0.31
  -2  -3 -13    9.90    0.42
   2   3  13   10.55    0.29
   2   3  13   10.05    0.36
   2   3  13   10.63    0.34
  -3  -3 -13    3.00    0.11
  -3  -3 -13    2.98    0.13
   3   3  13    3.13    0.11
   3   3  13    2.90    0.14
   3   3  13    2.89    0.16
  -4  -3 -13    0.64    0.05
  -4  -3 -13    0.57    0.05
   4   3  13    0.73    0.05
   4   3  13    0.63    0.07
  -5  -3 -13    0.35    0.04
  -5  -3 -13    0.41    0.04
   5   3  13    0.39    0.03
   5   3  13    0.46    0.03
   1  -4 -13    0.57    0.04
   1  -4 -13    0.61    0.05
  -1   4  13    0.56    0.04
  -1   4  13    0.61    0.05
   0  -4 -13    5.65    0.18
   0  -4 -13    5.84    0.18
   0   4  13    5.14    0.22
   0   4  13    5.85    0.17
   0   4  13    5.76    0.20
  -1  -4 -13    0.09    0.03
  -1  -4 -13    0.19    0.04
  -1  -4 -13    0.13    0.03
   1   4  13    0.09    0.05
   1   4  13    0.13    0.05
   1   4  13    0.11    0.03
  -2  -4 -13    0.59    0.05
  -2  -4 -13    0.53    0.06
  -2  -4 -13    0.60    0.06
   2   4  13    0.64    0.05
   2   4  13    0.55    0.09
   2   4  13    0.70    0.08
  -3  -4 -13   10.41    0.30
  -3  -4 -13   10.16    0.29
   3   4  13   10.18    0.32
   3   4  13    9.35    0.34
   3   4  13   10.31    0.28
  -4  -4 -13    2.81    0.10
  -4  -4 -13    2.82    0.10
  -4  -4 -13    2.83    0.11
   4   4  13    2.94    0.10
   4   4  13    2.94    0.13
  -5  -4 -13    0.56    0.06
  -5  -4 -13    0.66    0.04
   5   4  13    0.63    0.04
   5   4  13    0.64    0.03
   5   4  13    0.70    0.05
   0  -5 -13    0.02    0.02
   0   5  13    0.04    0.03
  -1  -5 -13    1.26    0.06
  -1  -5 -13    1.26    0.05
   1   5  13    1.21    0.05
   1   5  13    1.31    0.08
  -2  -5 -13    1.29    0.07
  -2  -5 -13    1.41    0.06
   2   5  13    1.18    0.10
   2   5  13    1.46    0.09
   2   5  13    1.28    0.06
  -3  -5 -13   11.29    0.32
  -3  -5 -13   11.13    0.31
   3   5  13   10.09    0.37
   3   5  13   11.18    0.30
   3   5  13   11.51    0.33
  -4  -5 -13    2.93    0.09
  -4  -5 -13    2.74    0.10
  -4  -5 -13    2.87    0.10
   4   5  13    2.98    0.11
   4   5  13    3.01    0.09
   2   6  13    1.71    0.09
  -3  -6 -13    2.67    0.08
   1   2 -14    2.30    0.08
   0   2 -14    0.65    0.04
   0   2 -14    0.62    0.04
   0   2 -14    0.53    0.03
   0  -2  14    0.59    0.05
  -1   2 -14    3.39    0.10
   1   1 -14    2.64    0.09
   1   1 -14    2.70    0.10
  -1  -1  14    2.56    0.10
   0   1 -14    6.07    0.17
   0   1 -14    5.93    0.17
   0   1 -14    6.06    0.19
   0  -1  14    5.98    0.18
   0  -1  14    5.49    0.22
  -1   1 -14    3.19    0.10
  -1   1 -14    3.11    0.10
  -1   1 -14    3.09    0.11
  -1   1 -14    2.93    0.11
   1  -1  14    3.08    0.11
  -2   1 -14    1.99    0.07
  -2   1 -14    2.14    0.08
  -2   1 -14    2.09    0.07
   2  -1  14    2.16    0.08
   2   0 -14    5.50    0.15
   1   0 -14    0.95    0.06
   1   0 -14    0.85    0.04
   1   0 -14    0.94    0.06
   1   0 -14    0.89    0.04
  -1   0  14    0.80    0.05
  -1   0  14    0.79    0.08
   0   0 -14    2.93    0.11
   0   0 -14    2.80    0.10
   0   0 -14    2.81    0.12
   0   0  14    2.85    0.12
   0   0  14    2.58    0.14
  -1   0 -14    4.89    0.16
  -1   0 -14    4.66    0.15
  -1   0 -14    4.35    0.15
   1   0  14    4.81    0.16
   1   0  14    4.48    0.19
  -2   0 -14    5.20    0.17
  -2   0 -14    5.36    0.16
  -2   0 -14    5.23    0.17
   2   0  14    4.68    0.20
   2   0  14    5.30    0.17
  -3   0 -14    6.79    0.21
   3   0  14    7.07    0.20
   2  -1 -14    0.97    0.04
   1  -1 -14    4.61    0.14
   1  -1 -14    4.71    0.16
   1  -1 -14    4.91    0.16
  -1   1  14    4.62    0.14
  -1   1  14    4.44    0.18
   0  -1 -14   17.39    0.47
   0  -1 -14   17.13    0.46
   0  -1 -14   17.15    0.48
   0   1  14   16.86    0.46
   0   1  14   16.51    0.52
  -1  -1 -14   92.74    2.32
  -1  -1 -14   88.49    2.33
  -1  -1 -14   91.85    2.34
   1   1  14   88.23    2.31
   1   1  14   89.93    2.34
   1   1  14   89.65    2.39
  -2  -1 -14    2.43    0.09
  -2  -1 -14    2.46    0.10
  -2  -1 -14    2.36    0.10
   2   1  14    2.63    0.11
   2   1  14    2.37    0.08
   2   1  14    2.41    0.14
  -3  -1 -14    1.70    0.07
  -3  -1 -14    1.80    0.08
   3   1  14    1.68    0.08
  -4  -1 -14    4.13    0.13
  -4  -1 -14    4.00    0.13
   4   1  14    4.09    0.12
   1  -2 -14    3.05    0.11
   1  -2 -14    3.21    0.12
  -1   2  14    3.22    0.10
   0  -2 -14   14.35    0.40
   0  -2 -14   14.26    0.39
   0   2  14   13.62    0.44
   0   2  14   14.40    0.38
  -1  -2 -14   10.63    0.31
  -1  -2 -14   10.99    0.30
   1   2  14   10.03    0.36
   1   2  14   10.86    0.30
   1   2  14   10.87    0.32
  -2  -2 -14    0.81    0.05
  -2  -2 -14    0.86    0.06
   2   2  14    0.67    0.09
   2   2  14    0.84    0.05
   2   2  14    0.89    0.07
   2   2  14    0.93    0.06
  -3  -2 -14    2.24    0.10
  -3  -2 -14    2.37    0.08
   3   2  14    2.25    0.09
   3   2  14    2.33    0.11
   3   2  14    2.33    0.08
  -4  -2 -14    5.23    0.16
  -4  -2 -14    5.38    0.17
   4   2  14    5.57    0.15
   1  -3 -14    0.65    0.05
   1  -3 -14    0.69    0.05
  -1   3  14    0.73    0.04
   0  -3 -14    0.88    0.05
   0  -3 -14    0.80    0.06
   0  -3 -14    0.97    0.06
   0   3  14    0.84    0.08
   0   3  14    0.88    0.05
  -1  -3 -14    2.76    0.11
  -1  -3 -14    2.67    0.10
   1   3  14    2.47    0.14
   1   3  14    2.67    0.09
   1   3  14    2.63    0.12
  -2  -3 -14    0.68    0.05
  -2  -3 -14    0.73    0.05
   2   3  14    0.64    0.09
   2   3  14    0.63    0.05
   2   3  14    0.79    0.07
  -3  -3 -14    2.82    0.09
  -3  -3 -14    2.77    0.11
   3   3  14    2.66    0.12
   3   3  14    2.38    0.13
   3   3  14    2.68    0.09
  -4  -3 -14    0.46    0.04
  -4  -3 -14    0.53    0.04
   4   3  14    0.48    0.04
   4   3  14    0.53    0.05
   4   3  14    0.51    0.03
   0  -4 -14    0.88    0.05
   0  -4 -14    0.89    0.05
   0   4  14    0.93    0.06
   0   4  14    0.89    0.04
  -1  -4 -14    2.11    0.09
  -1  -4 -14    2.14    0.09
  -1  -4 -14    2.18    0.08
   1   4  14    2.18    0.16
   1   4  14    2.14    0.08
   1   4  14    2.18    0.10
  -2  -4 -14    1.28    0.06
  -2  -4 -14    1.24    0.08
   2   4  14    1.21    0.06
   2   4  14    1.26    0.08
   2   4  14    1.04    0.09
  -3  -4 -14    2.08    0.09
  -3  -4 -14    2.10    0.08
   3   4  14    2.09    0.07
   3   4  14    2.07    0.10
  -4  -4 -14    1.19    0.05
  -4  -4 -14    1.14    0.06
   4   4  14    1.20    0.07
   4   4  14    1.07    0.05
   1   5  14    2.25    0.09
  -2  -5 -14    3.75    0.12
   2   5  14    3.88    0.14
  -3  -5 -14    7.11    0.20
   3   5  14    7.20    0.22
   0   1 -15    0.58    0.05
   0   1 -15    0.61    0.03
   0  -1  15    0.55    0.04
  -1   1 -15    0.43    0.03
  -1   1 -15    0.43    0.03
   1  -1  15    0.44    0.03
   1   0 -15    2.60    0.09
  -1   0  15    2.85    0.10
   0   0 -15    3.04    0.10
   0   0 -15    2.97    0.11
   0   0  15    2.99    0.11
  -1   0 -15    4.68    0.15
  -1   0 -15    4.75    0.14
   1   0  15    4.67    0.15
  -2   0 -15    1.09    0.04
  -2   0 -15    0.97    0.05
   2   0  15    1.00    0.05
   1  -1 -15    3.48    0.14
   1  -1 -15    3.60    0.12
  -1   1  15    3.85    0.12
   0  -1 -15    0.00    0.03
   0  -1 -15    0.08    0.02
   0  -1 -15    0.04    0.02
   0   1  15    0.05    0.03
  -1  -1 -15    6.04    0.19
  -1  -1 -15    6.17    0.18
   1   1  15    6.09    0.23
   1   1  15    6.06    0.19
  -2  -1 -15    0.53    0.04
  -2  -1 -15    0.54    0.04
  -2  -1 -15    0.53    0.04
   2   1  15    0.49    0.04
  -3  -1 -15    0.30    0.03
  -3  -1 -15    0.36    0.03
   3   1  15    0.35    0.03
   0  -2 -15    3.68    0.11
   0  -2 -15    3.59    0.12
   0  -2 -15    3.90    0.13
   0   2  15    3.60    0.11
   0   2  15    3.74    0.13
  -1  -2 -15   39.82    1.03
  -1  -2 -15   39.38    1.03
  -1  -2 -15   40.29    1.05
   1   2  15   40.28    1.02
   1   2  15   37.34    1.08
   1   2  15   39.98    1.04
  -2  -2 -15   31.17    0.85
  -2  -2 -15   32.27    0.84
  -2  -2 -15   32.85    0.86
   2   2  15   32.27    0.85
   2   2  15   32.59    0.84
  -3  -2 -15    0.56    0.04
  -3  -2 -15    0.65    0.03
   3   2  15    0.59    0.03
   0  -3 -15   15.36    0.43
   0  -3 -15   15.91    0.43
   0   3  15   15.62    0.41
  -1  -3 -15    7.84    0.23
  -1  -3 -15    8.07    0.23
   1   3  15    8.28    0.22
  -2  -3 -15    3.07    0.10
   2   3  15    3.07    0.10
   2   3  15    2.95    0.12
  -3  -3 -15    0.81    0.05
  -3  -3 -15    0.84    0.04
   3   3  15    0.89    0.06
   3   3  15    0.83    0.04
  -1  -4 -15    0.15    0.03
   1   4  15    0.13    0.02
  -2  -4 -15    2.19    0.07
   2   4  15    2.21    0.09
   2   4  15    2.17    0.07
  -3  -4 -15    1.65    0.06
   3   4  15    1.75    0.07
   3   4  15    1.71    0.08
  -1  -1 -16    4.02    0.12
   1   1  16    4.07    0.13
  -1  -2 -16    9.82    0.26
  -2  -2 -16    6.81    0.19
   0   0   0    0.00    0.00
;
_shelx_hkl_checksum              85415
_shelx_shelxl_version_number     2014/7
_olex2_submission_special_instructions 'No special instructions were received'
loop_
_space_group_symop_operation_xyz
'x, y, z'
loop_
_atom_site_label
_atom_site_type_symbol
_atom_site_fract_x
_atom_site_fract_y
_atom_site_fract_z
_atom_site_U_iso_or_equiv
_atom_site_adp_type
_atom_site_occupancy
_atom_site_site_symmetry_order
_atom_site_calc_flag
_atom_site_refinement_flags_posn
O1 O 0.4423(3) 0.4544(3) 0.52287(13) 0.0477(4) Uani 1 1 d .
H1 H 0.555(7) 0.382(6) 0.557(3) 0.072 Uiso 1 1 d R
O2 O 0.8050(3) 1.1652(2) -0.35754(11) 0.0355(3) Uani 1 1 d .
O3 O 1.1166(3) 1.0665(2) -0.26818(11) 0.0371(4) Uani 1 1 d .
C1 C 0.5147(4) 0.5871(4) 0.43632(16) 0.0372(5) Uani 1 1 d .
H1A H 0.5496 0.7013 0.4607 0.045 Uiso 1 1 calc R
C2 C 0.3135(4) 0.6975(3) 0.37091(16) 0.0353(5) Uani 1 1 d .
H2A H 0.1790 0.7898 0.4111 0.042 Uiso 1 1 calc R
H2B H 0.2669 0.5856 0.3523 0.042 Uiso 1 1 calc R
C3 C 0.3778(4) 0.8380(3) 0.27298(15) 0.0318(4) Uani 1 1 d .
H3 H 0.4285 0.9448 0.2954 0.038 Uiso 1 1 calc R
C4 C 0.1703(4) 0.9715(3) 0.21209(16) 0.0336(5) Uani 1 1 d .
H4A H 0.1149 0.8724 0.1872 0.040 Uiso 1 1 calc R
H4B H 0.0419 1.0570 0.2573 0.040 Uiso 1 1 calc R
C5 C 0.2362(3) 1.1245(3) 0.12133(16) 0.0316(4) Uani 1 1 d .
H5A H 0.2751 1.2335 0.1468 0.038 Uiso 1 1 calc R
H5B H 0.1012 1.2031 0.0811 0.038 Uiso 1 1 calc R
C6 C 0.4436(3) 1.0029(3) 0.05157(15) 0.0286(4) Uani 1 1 d .
H6 H 0.3971 0.9036 0.0210 0.034 Uiso 1 1 calc R
C7 C 0.5179(3) 1.1590(3) -0.03500(15) 0.0288(4) Uani 1 1 d .
H7 H 0.5723 1.2490 -0.0018 0.035 Uiso 1 1 calc R
C8 C 0.7242(3) 1.0473(3) -0.10955(15) 0.0288(4) Uani 1 1 d .
C9 C 0.7442(3) 1.2525(3) -0.18373(16) 0.0304(4) Uani 1 1 d .
H9 H 0.8047 1.3275 -0.1443 0.037 Uiso 1 1 calc R
C10 C 0.8997(4) 1.2334(3) -0.28521(16) 0.0323(4) Uani 1 1 d .
C11 C 0.9931(5) 1.0066(4) -0.40733(18) 0.0435(5) Uani 1 1 d .
H11A H 1.0049 1.0541 -0.4825 0.052 Uiso 1 1 calc R
H11B H 0.9707 0.8643 -0.3920 0.052 Uiso 1 1 calc R
C12 C 0.5898(3) 0.7029(3) 0.20591(16) 0.0298(4) Uani 1 1 d .
C13 C 0.7913(4) 0.5960(3) 0.27466(16) 0.0332(5) Uani 1 1 d .
H13A H 0.9282 0.5034 0.2357 0.040 Uiso 1 1 calc R
H13B H 0.8347 0.7114 0.2918 0.040 Uiso 1 1 calc R
C14 C 0.7316(4) 0.4571(4) 0.37437(16) 0.0373(5) Uani 1 1 d .
H14A H 0.7060 0.3314 0.3579 0.045 Uiso 1 1 calc R
H14B H 0.8645 0.4001 0.4163 0.045 Uiso 1 1 calc R
C15 C 0.5382(4) 0.5261(3) 0.16848(16) 0.0321(4) Uani 1 1 d .
H15A H 0.6829 0.4272 0.1386 0.048 Uiso 1 1 calc GR
H15B H 0.4280 0.5943 0.1165 0.048 Uiso 1 1 calc GR
H15C H 0.4707 0.4442 0.2265 0.048 Uiso 1 1 calc GR
C16 C 0.6530(3) 0.8640(3) 0.11375(15) 0.0289(4) Uani 1 1 d .
H16 H 0.6938 0.9678 0.1437 0.035 Uiso 1 1 calc R
C17 C 1.2082(5) 0.9917(4) -0.36376(18) 0.0445(5) Uani 1 1 d .
H17A H 1.3186 0.8402 -0.3535 0.053 Uiso 1 1 calc R
H17B H 1.2877 1.0859 -0.4092 0.053 Uiso 1 1 calc R
C18 C 0.9308(4) 1.4484(4) -0.33427(17) 0.0363(5) Uani 1 1 d .
H18A H 1.0035 1.4931 -0.2880 0.054 Uiso 1 1 calc GR
H18B H 0.7787 1.5595 -0.3473 0.054 Uiso 1 1 calc GR
H18C H 1.0303 1.4311 -0.3992 0.054 Uiso 1 1 calc GR
C19 C 0.4871(4) 1.4008(3) -0.19795(16) 0.0321(4) Uani 1 1 d .
H19A H 0.4660 1.5547 -0.1988 0.038 Uiso 1 1 calc R
H19B H 0.4427 1.3887 -0.2631 0.038 Uiso 1 1 calc R
C20 C 0.3380(4) 1.3195(3) -0.10570(16) 0.0326(4) Uani 1 1 d .
H20A H 0.2305 1.4412 -0.0713 0.039 Uiso 1 1 calc R
H20B H 0.2465 1.2462 -0.1275 0.039 Uiso 1 1 calc R
C21 C 0.9311(3) 0.9168(3) -0.04698(15) 0.0300(4) Uani 1 1 d .
H21A H 0.9791 1.0177 -0.0195 0.036 Uiso 1 1 calc R
H21B H 1.0641 0.8363 -0.0921 0.036 Uiso 1 1 calc R
C22 C 0.8673(3) 0.7551(3) 0.04234(15) 0.0303(4) Uani 1 1 d .
H22A H 1.0017 0.6787 0.0830 0.036 Uiso 1 1 calc R
H22B H 0.8368 0.6449 0.0140 0.036 Uiso 1 1 calc R
C23 C 0.6689(4) 0.8970(3) -0.16503(16) 0.0309(4) Uani 1 1 d .
H23A H 0.8085 0.8213 -0.2072 0.046 Uiso 1 1 calc GR
H23B H 0.5446 0.9838 -0.2089 0.046 Uiso 1 1 calc GR
H23C H 0.6185 0.7902 -0.1143 0.046 Uiso 1 1 calc GR
loop_
_atom_site_aniso_label
_atom_site_aniso_U_11
_atom_site_aniso_U_22
_atom_site_aniso_U_33
_atom_site_aniso_U_23
_atom_site_aniso_U_13
_atom_site_aniso_U_12
O1 0.0358(8) 0.0667(11) 0.0325(8) 0.0078(7) -0.0033(6) -0.0174(8)
O2 0.0392(8) 0.0377(7) 0.0297(7) -0.0064(6) -0.0032(6) -0.0133(6)
O3 0.0329(8) 0.0386(8) 0.0313(7) -0.0025(6) -0.0013(6) -0.0054(6)
C1 0.0376(12) 0.0455(12) 0.0290(11) -0.0026(9) -0.0027(9) -0.0172(10)
C2 0.0307(11) 0.0409(12) 0.0312(10) -0.0068(9) 0.0013(8) -0.0106(9)
C3 0.0312(11) 0.0337(10) 0.0311(10) -0.0079(8) -0.0015(8) -0.0111(9)
C4 0.0284(10) 0.0361(11) 0.0342(11) -0.0075(8) 0.0006(8) -0.0095(9)
C5 0.0282(10) 0.0307(10) 0.0335(10) -0.0063(8) -0.0024(8) -0.0074(8)
C6 0.0267(10) 0.0307(10) 0.0279(9) -0.0048(8) -0.0018(8) -0.0096(8)
C7 0.0286(11) 0.0279(10) 0.0300(10) -0.0061(8) -0.0034(8) -0.0092(8)
C8 0.0272(10) 0.0310(10) 0.0270(9) -0.0049(8) -0.0001(8) -0.0099(8)
C9 0.0308(10) 0.0298(10) 0.0301(9) -0.0041(8) -0.0052(8) -0.0094(8)
C10 0.0320(10) 0.0334(10) 0.0295(9) -0.0032(7) -0.0043(8) -0.0096(8)
C11 0.0598(15) 0.0332(11) 0.0323(11) -0.0058(9) 0.0006(10) -0.0123(10)
C12 0.0271(10) 0.0309(10) 0.0295(10) -0.0037(8) -0.0021(8) -0.0089(8)
C13 0.0295(10) 0.0377(11) 0.0303(10) -0.0025(8) -0.0020(8) -0.0116(9)
C14 0.0317(11) 0.0445(12) 0.0305(10) 0.0031(9) -0.0048(9) -0.0118(10)
C15 0.0313(10) 0.0318(10) 0.0315(10) -0.0035(8) 0.0001(8) -0.0115(8)
C16 0.0271(10) 0.0294(10) 0.0293(10) -0.0053(8) -0.0026(8) -0.0088(8)
C17 0.0468(12) 0.0377(11) 0.0352(11) -0.0049(9) 0.0058(9) -0.0041(10)
C18 0.0355(11) 0.0369(10) 0.0353(10) -0.0039(8) -0.0006(9) -0.0138(9)
C19 0.0321(10) 0.0304(9) 0.0311(10) -0.0038(8) -0.0033(8) -0.0086(8)
C20 0.0298(10) 0.0318(10) 0.0329(10) -0.0038(8) -0.0034(8) -0.0077(9)
C21 0.0276(10) 0.0309(10) 0.0290(9) -0.0031(8) -0.0015(8) -0.0090(8)
C22 0.0261(10) 0.0316(10) 0.0293(10) -0.0033(8) -0.0031(8) -0.0065(8)
C23 0.0333(10) 0.0301(10) 0.0280(9) -0.0044(7) -0.0018(8) -0.0105(8)
loop_
_atom_type_symbol
_atom_type_description
_atom_type_scat_dispersion_real
_atom_type_scat_dispersion_imag
_atom_type_scat_source
C C 0.0181 0.0091 'International Tables Vol C Tables 4.2.6.8 and 6.1.1.4'
H H 0.0000 0.0000 'International Tables Vol C Tables 4.2.6.8 and 6.1.1.4'
O O 0.0492 0.0322 'International Tables Vol C Tables 4.2.6.8 and 6.1.1.4'
loop_
_geom_angle_atom_site_label_1
_geom_angle_atom_site_label_2
_geom_angle_atom_site_label_3
_geom_angle
C1 O1 H1 109(3)
C11 O2 C10 108.01(16)
C10 O3 C17 106.06(16)
O1 C1 H1A 108.6
O1 C1 C2 107.68(17)
O1 C1 C14 112.29(18)
C2 C1 H1A 108.6
C2 C1 C14 110.84(17)
C14 C1 H1A 108.6
C1 C2 H2A 109.3
C1 C2 H2B 109.3
C1 C2 C3 111.72(17)
H2A C2 H2B 107.9
C3 C2 H2A 109.3
C3 C2 H2B 109.3
C2 C3 H3 106.4
C2 C3 C12 112.10(16)
C4 C3 C2 112.66(17)
C4 C3 H3 106.4
C4 C3 C12 112.42(16)
C12 C3 H3 106.4
C3 C4 H4A 109.5
C3 C4 H4B 109.5
H4A C4 H4B 108.0
C5 C4 C3 110.93(17)
C5 C4 H4A 109.5
C5 C4 H4B 109.5
C4 C5 H5A 109.2
C4 C5 H5B 109.2
C4 C5 C6 111.96(16)
H5A C5 H5B 107.9
C6 C5 H5A 109.2
C6 C5 H5B 109.2
C5 C6 H6 108.5
C5 C6 C16 110.66(15)
C7 C6 C5 111.48(15)
C7 C6 H6 108.5
C7 C6 C16 109.05(15)
C16 C6 H6 108.5
C6 C7 H7 106.2
C6 C7 C8 114.36(15)
C6 C7 C20 118.99(17)
C8 C7 H7 106.2
C20 C7 H7 106.2
C20 C7 C8 103.88(16)
C7 C8 C9 98.86(15)
C21 C8 C7 107.51(15)
C21 C8 C9 115.72(16)
C21 C8 C23 110.18(16)
C23 C8 C7 112.48(16)
C23 C8 C9 111.59(16)
C8 C9 H9 106.0
C8 C9 C19 104.15(16)
C10 C9 C8 120.93(16)
C10 C9 H9 106.0
C10 C9 C19 112.86(16)
C19 C9 H9 106.0
O2 C10 C9 111.56(16)
O2 C10 C18 108.24(16)
O3 C10 O2 104.90(15)
O3 C10 C9 109.32(15)
O3 C10 C18 111.23(17)
C18 C10 C9 111.42(17)
O2 C11 H11A 110.8
O2 C11 H11B 110.8
O2 C11 C17 104.76(17)
H11A C11 H11B 108.9
C17 C11 H11A 110.8
C17 C11 H11B 110.8
C13 C12 C3 106.30(16)
C13 C12 C16 110.04(16)
C15 C12 C3 111.95(17)
C15 C12 C13 109.70(16)
C15 C12 C16 111.00(16)
C16 C12 C3 107.73(15)
C12 C13 H13A 108.9
C12 C13 H13B 108.9
H13A C13 H13B 107.7
C14 C13 C12 113.43(17)
C14 C13 H13A 108.9
C14 C13 H13B 108.9
C1 C14 C13 111.81(17)
C1 C14 H14A 109.3
C1 C14 H14B 109.3
C13 C14 H14A 109.3
C13 C14 H14B 109.3
H14A C14 H14B 107.9
C12 C15 H15A 109.5
C12 C15 H15B 109.5
C12 C15 H15C 109.5
H15A C15 H15B 109.5
H15A C15 H15C 109.5
H15B C15 H15C 109.5
C6 C16 C12 112.38(15)
C6 C16 H16 106.5
C12 C16 H16 106.5
C22 C16 C6 110.68(15)
C22 C16 C12 113.88(15)
C22 C16 H16 106.5
O3 C17 C11 102.90(19)
O3 C17 H17A 111.2
O3 C17 H17B 111.2
C11 C17 H17A 111.2
C11 C17 H17B 111.2
H17A C17 H17B 109.1
C10 C18 H18A 109.5
C10 C18 H18B 109.5
C10 C18 H18C 109.5
H18A C18 H18B 109.5
H18A C18 H18C 109.5
H18B C18 H18C 109.5
C9 C19 H19A 110.5
C9 C19 H19B 110.5
H19A C19 H19B 108.7
C20 C19 C9 106.02(16)
C20 C19 H19A 110.5
C20 C19 H19B 110.5
C7 C20 C19 103.63(17)
C7 C20 H20A 111.0
C7 C20 H20B 111.0
C19 C20 H20A 111.0
C19 C20 H20B 111.0
H20A C20 H20B 109.0
C8 C21 H21A 109.5
C8 C21 H21B 109.5
C8 C21 C22 110.92(16)
H21A C21 H21B 108.0
C22 C21 H21A 109.5
C22 C21 H21B 109.5
C16 C22 H22A 108.9
C16 C22 H22B 108.9
C21 C22 C16 113.34(15)
C21 C22 H22A 108.9
C21 C22 H22B 108.9
H22A C22 H22B 107.7
C8 C23 H23A 109.5
C8 C23 H23B 109.5
C8 C23 H23C 109.5
H23A C23 H23B 109.5
H23A C23 H23C 109.5
H23B C23 H23C 109.5
loop_
_geom_bond_atom_site_label_1
_geom_bond_atom_site_label_2
_geom_bond_distance
O1 H1 0.84(4)
O1 C1 1.421(3)
O2 C10 1.446(2)
O2 C11 1.436(3)
O3 C10 1.416(2)
O3 C17 1.427(3)
C1 H1A 1.0000
C1 C2 1.516(3)
C1 C14 1.526(3)
C2 H2A 0.9900
C2 H2B 0.9900
C2 C3 1.531(3)
C3 H3 1.0000
C3 C4 1.526(3)
C3 C12 1.558(3)
C4 H4A 0.9900
C4 H4B 0.9900
C4 C5 1.520(3)
C5 H5A 0.9900
C5 H5B 0.9900
C5 C6 1.530(3)
C6 H6 1.0000
C6 C7 1.521(3)
C6 C16 1.550(2)
C7 H7 1.0000
C7 C8 1.543(3)
C7 C20 1.532(3)
C8 C9 1.549(3)
C8 C21 1.533(3)
C8 C23 1.537(3)
C9 H9 1.0000
C9 C10 1.529(3)
C9 C19 1.559(3)
C10 C18 1.520(3)
C11 H11A 0.9900
C11 H11B 0.9900
C11 C17 1.514(4)
C12 C13 1.545(3)
C12 C15 1.537(3)
C12 C16 1.558(3)
C13 H13A 0.9900
C13 H13B 0.9900
C13 C14 1.532(3)
C14 H14A 0.9900
C14 H14B 0.9900
C15 H15A 0.9800
C15 H15B 0.9800
C15 H15C 0.9800
C16 H16 1.0000
C16 C22 1.540(3)
C17 H17A 0.9900
C17 H17B 0.9900
C18 H18A 0.9800
C18 H18B 0.9800
C18 H18C 0.9800
C19 H19A 0.9900
C19 H19B 0.9900
C19 C20 1.544(3)
C20 H20A 0.9900
C20 H20B 0.9900
C21 H21A 0.9900
C21 H21B 0.9900
C21 C22 1.540(3)
C22 H22A 0.9900
C22 H22B 0.9900
C23 H23A 0.9800
C23 H23B 0.9800
C23 H23C 0.9800
loop_
_geom_torsion_atom_site_label_1
_geom_torsion_atom_site_label_2
_geom_torsion_atom_site_label_3
_geom_torsion_atom_site_label_4
_geom_torsion
O1 C1 C2 C3 -177.71(17)
O1 C1 C14 C13 173.25(18)
O2 C11 C17 O3 23.2(2)
C1 C2 C3 C4 -173.28(17)
C1 C2 C3 C12 58.7(2)
C2 C1 C14 C13 52.8(2)
C2 C3 C4 C5 174.47(16)
C2 C3 C12 C13 -57.3(2)
C2 C3 C12 C15 62.4(2)
C2 C3 C12 C16 -175.26(15)
C3 C4 C5 C6 55.9(2)
C3 C12 C13 C14 56.3(2)
C3 C12 C16 C6 -55.5(2)
C3 C12 C16 C22 177.59(15)
C4 C3 C12 C13 174.55(17)
C4 C3 C12 C15 -65.7(2)
C4 C3 C12 C16 56.6(2)
C4 C5 C6 C7 -176.25(15)
C4 C5 C6 C16 -54.7(2)
C5 C6 C7 C8 -179.11(16)
C5 C6 C7 C20 -55.6(2)
C5 C6 C16 C12 55.7(2)
C5 C6 C16 C22 -175.79(16)
C6 C7 C8 C9 179.56(14)
C6 C7 C8 C21 -59.8(2)
C6 C7 C8 C23 61.7(2)
C6 C7 C20 C19 -164.93(16)
C6 C16 C22 C21 53.6(2)
C7 C6 C16 C12 178.63(15)
C7 C6 C16 C22 -52.8(2)
C7 C8 C9 C10 -169.43(17)
C7 C8 C9 C19 -41.25(17)
C7 C8 C21 C22 55.9(2)
C8 C7 C20 C19 -36.42(19)
C8 C9 C10 O2 70.6(2)
C8 C9 C10 O3 -45.0(2)
C8 C9 C10 C18 -168.29(17)
C8 C9 C19 C20 20.13(19)
C8 C21 C22 C16 -56.0(2)
C9 C8 C21 C22 165.29(16)
C9 C19 C20 C7 9.7(2)
C10 O2 C11 C17 -2.5(2)
C10 O3 C17 C11 -36.1(2)
C10 C9 C19 C20 153.10(17)
C11 O2 C10 O3 -19.5(2)
C11 O2 C10 C9 -137.73(17)
C11 O2 C10 C18 99.33(19)
C12 C3 C4 C5 -57.7(2)
C12 C13 C14 C1 -55.9(2)
C12 C16 C22 C21 -178.69(15)
C13 C12 C16 C6 -171.03(15)
C13 C12 C16 C22 62.1(2)
C14 C1 C2 C3 -54.5(2)
C15 C12 C13 C14 -64.9(2)
C15 C12 C16 C6 67.3(2)
C15 C12 C16 C22 -59.5(2)
C16 C6 C7 C8 58.41(19)
C16 C6 C7 C20 -178.10(16)
C16 C12 C13 C14 172.67(17)
C17 O3 C10 O2 35.1(2)
C17 O3 C10 C9 154.90(18)
C17 O3 C10 C18 -81.7(2)
C19 C9 C10 O2 -53.6(2)
C19 C9 C10 O3 -169.14(16)
C19 C9 C10 C18 67.5(2)
C20 C7 C8 C9 48.27(18)
C20 C7 C8 C21 168.92(16)
C20 C7 C8 C23 -69.6(2)
C21 C8 C9 C10 76.2(2)
C21 C8 C9 C19 -155.65(16)
C23 C8 C9 C10 -50.9(2)
C23 C8 C9 C19 77.29(19)
C23 C8 C21 C22 -67.0(2)
