#------------------------------------------------------------------------------
#$Date: 2019-11-25 13:40:15 +0200 (Mon, 25 Nov 2019) $
#$Revision: 240994 $
#$URL: file:///home/coder/svn-repositories/cod/cif/4/13/05/4130594.cif $
#------------------------------------------------------------------------------
#
# This file is available in the Crystallography Open Database (COD),
# http://www.crystallography.net/
#
# All data on this site have been placed in the public domain by the
# contributors.
#
data_4130594
loop_
_publ_author_name
'Postulka, Lars'
'Winter, Stephen M.'
'Mihailov, Adam G.'
'Mailman, Aaron'
'Assoud, Abdeljalil'
'Robertson, Craig M.'
'Wolf, Bernd'
'Lang, Michael'
'Oakley, Richard T.'
_publ_section_title
;
 Spin Frustration in an Organic Radical Ion Salt Based on a Kagome-Coupled
 Chain Structure.
;
_journal_issue                   34
_journal_name_full               'Journal of the American Chemical Society'
_journal_page_first              10738
_journal_page_last               10741
_journal_paper_doi               10.1021/jacs.6b05079
_journal_volume                  138
_journal_year                    2016
_chemical_formula_moiety         'C6 Cl2 N2 S4, Ga Br4'
_chemical_formula_sum            'C6 Br4 Cl2 Ga N2 S4'
_chemical_formula_weight         688.58
_chemical_name_common            '[QT][GaBr4]'
_space_group_crystal_system      trigonal
_space_group_IT_number           143
_space_group_name_Hall           'P 3'
_space_group_name_H-M_alt        'P 3'
_audit_creation_method           SHELXL-2014
_cell_angle_alpha                90
_cell_angle_beta                 90
_cell_angle_gamma                120
_cell_formula_units_Z            3
_cell_length_a                   13.6489(4)
_cell_length_b                   13.6489(4)
_cell_length_c                   7.9023(3)
_cell_measurement_reflns_used    1064
_cell_measurement_temperature    296(2)
_cell_measurement_theta_max      30
_cell_measurement_theta_min      1.5
_cell_volume                     1274.91(7)
_computing_cell_refinement       'SMART, 'Bruker APEX II'
_computing_data_collection       'Bruker SMART APEX II'
_computing_data_reduction        'SAINT, 'Bruker APEX II'
_computing_molecular_graphics    Mercury
_computing_structure_refinement  'SHELXL-2014 (Sheldrick, 2014)'
_computing_structure_solution    'SHELXL-2014 (Sheldrick, 2014)'
_diffrn_ambient_temperature      296(2)
_diffrn_measured_fraction_theta_full 1.000
_diffrn_measured_fraction_theta_max 1.000
_diffrn_measurement_device_type  'BRUKER SMART APEX II'
_diffrn_measurement_method       'Omega scan'
_diffrn_radiation_monochromator  graphite
_diffrn_radiation_source         'fine-focus sealed tube'
_diffrn_radiation_type           MoK\a
_diffrn_radiation_wavelength     0.71073
_diffrn_reflns_av_R_equivalents  0.0398
_diffrn_reflns_av_unetI/netI     0.0491
_diffrn_reflns_Laue_measured_fraction_full 1.000
_diffrn_reflns_Laue_measured_fraction_max 1.000
_diffrn_reflns_limit_h_max       18
_diffrn_reflns_limit_h_min       -18
_diffrn_reflns_limit_k_max       17
_diffrn_reflns_limit_k_min       -18
_diffrn_reflns_limit_l_max       10
_diffrn_reflns_limit_l_min       -10
_diffrn_reflns_number            16656
_diffrn_reflns_point_group_measured_fraction_full 0.994
_diffrn_reflns_point_group_measured_fraction_max 0.982
_diffrn_reflns_theta_full        25.242
_diffrn_reflns_theta_max         27.997
_diffrn_reflns_theta_min         1.723
_diffrn_standards_decay_%        0
_diffrn_standards_interval_time  1
_diffrn_standards_number         3
_exptl_absorpt_coefficient_mu    11.811
_exptl_absorpt_correction_T_max  0.7460
_exptl_absorpt_correction_T_min  0.5999
_exptl_absorpt_correction_type   multi-scan
_exptl_absorpt_process_details   SADABS
_exptl_crystal_colour            Black
_exptl_crystal_density_diffrn    2.691
_exptl_crystal_description       rectangle
_exptl_crystal_F_000             957
_exptl_crystal_size_max          0.080
_exptl_crystal_size_mid          0.040
_exptl_crystal_size_min          0.020
_refine_diff_density_max         1.025
_refine_diff_density_min         -0.528
_refine_diff_density_rms         0.126
_refine_ls_abs_structure_details
;
 Flack x determined using 1230 quotients [(I+)-(I-)]/[(I+)+(I-)]
 (Parsons, Flack and Wagner, Acta Cryst. B69 (2013) 249-259).
;
_refine_ls_abs_structure_Flack   0.078(7)
_refine_ls_extinction_method     none
_refine_ls_goodness_of_fit_ref   1.105
_refine_ls_hydrogen_treatment    undef
_refine_ls_matrix_type           full
_refine_ls_number_parameters     173
_refine_ls_number_reflns         4045
_refine_ls_number_restraints     1
_refine_ls_restrained_S_all      1.105
_refine_ls_R_factor_all          0.0695
_refine_ls_R_factor_gt           0.0436
_refine_ls_shift/su_max          0.000
_refine_ls_shift/su_mean         0.000
_refine_ls_structure_factor_coef Fsqd
_refine_ls_weighting_details
'w=1/[\s^2^(Fo^2^)+(0.0123P)^2^+4.4021P] where P=(Fo^2^+2Fc^2^)/3'
_refine_ls_weighting_scheme      calc
_refine_ls_wR_factor_gt          0.0790
_refine_ls_wR_factor_ref         0.0866
_reflns_Friedel_coverage         0.964
_reflns_Friedel_fraction_full    0.989
_reflns_Friedel_fraction_max     0.964
_reflns_number_gt                3060
_reflns_number_total             4045
_reflns_threshold_expression     'I > 2\s(I)'
_cod_data_source_file            ja6b05079_si_003.cif
_cod_data_source_block           '[Kagome][GaBr4]100k'
_cod_original_cell_volume        1274.91(9)
_cod_database_code               4130594
_shelx_space_group_comment
;
The symmetry employed for this shelxl refinement is uniquely defined
by the following loop, which should always be used as a source of
symmetry information in preference to the above space-group names.
They are only intended as comments.
;
_shelx_estimated_absorpt_t_min   0.452
_shelx_estimated_absorpt_t_max   0.798
_shelx_res_file
;

    c6n2cl2s4gabr4b_0m.res created by SHELXL-2014/7


TITL C6N2Cl2S4GaBr4b_0m in P3
CELL 0.71073  13.64890  13.64890   7.90230  90.0000  90.0000 120.0000
ZERR    3.00   0.00040   0.00040   0.00030   0.0000   0.0000   0.0000
LATT -1
SYMM -Y,+X-Y,+Z
SYMM +Y-X,-X,+Z
SFAC Br C Cl Ga N S
UNIT 12 18 6 3 6 12
TEMP 23.000
SIZE 0.020 0.040 0.080
ACTA
L.S. 10
BOND $H
FMAP 2
PLAN 5
OMIT -3 56
WGHT    0.012270    4.402100
FVAR       0.29828   0.29820
BR6   1    0.583549    0.147310    1.200661    11.00000    0.05108    0.03877 =
         0.06312   -0.00571   -0.00683    0.02190
BR2   1    0.333333    0.666667    0.370418    10.33333    0.05132    0.05132 =
         0.04645    0.00000    0.00000    0.02566
BR3   1    0.000000    0.000000   -0.582668    10.33333    0.05392    0.05392 =
         0.04876    0.00000    0.00000    0.02696
BR5   1    0.666667    0.333333    1.583759    10.33333    0.06434    0.06434 =
         0.04510    0.00000    0.00000    0.03217
BR4   1    0.078425    0.185909   -0.198119    11.00000    0.05940    0.04211 =
         0.07036   -0.01329   -0.01370    0.02232
BR1   1    0.172729    0.506757   -0.024797    11.00000    0.05849    0.05616 =
         0.06850   -0.00771   -0.00834    0.00801
GA3   4    0.666667    0.333333    1.292901    10.33333    0.03595    0.03595 =
         0.04199    0.00000    0.00000    0.01798
GA2   4    0.000000    0.000000   -0.289162    10.33333    0.03524    0.03524 =
         0.04920    0.00000    0.00000    0.01762
GA1   4    0.333333    0.666667    0.074650    10.33333    0.03820    0.03820 =
         0.04282    0.00000    0.00000    0.01910
CL2   3    0.432112    0.166616    0.858681    11.00000    0.06905    0.07932 =
         0.05268    0.01998    0.00225    0.04452
CL1   3    0.238909    0.228263    0.172734    11.00000    0.05672    0.08703 =
         0.04597    0.00697   -0.00349    0.04355
S2    6    0.407384    0.383252    0.793168    11.00000    0.05840    0.05725 =
         0.04860   -0.00153   -0.00666    0.02414
S3    6    0.267711    0.014299    0.233485    11.00000    0.05851    0.04701 =
         0.07202   -0.01406    0.00177    0.01891
S1    6    0.355699    0.467804    0.632578    11.00000    0.06924    0.05810 =
         0.05743    0.00118   -0.00114    0.03817
S4    6    0.322627   -0.068546    0.396084    11.00000    0.08540    0.04463 =
         0.09595   -0.00268    0.00533    0.03309
N1    5    0.317075    0.388180    0.475819    11.00000    0.04254    0.05499 =
         0.04129    0.00785    0.00146    0.03417
N2    5    0.359041    0.006572    0.552644    11.00000    0.04991    0.08610 =
         0.05433    0.02365    0.00902    0.03585
C1    2    0.323910    0.294303    0.489769    11.00000    0.03266    0.04264 =
         0.03696    0.00694    0.00228    0.01624
C4    2    0.350410    0.103238    0.537086    11.00000    0.03595    0.03913 =
         0.05701    0.01598    0.01331    0.02114
C6    2    0.369797    0.274521    0.645151    11.00000    0.03567    0.05231 =
         0.04162    0.00340    0.00766    0.02310
C5    2    0.377808    0.181420    0.666261    11.00000    0.03738    0.05667 =
         0.03821    0.00529    0.00343    0.02754
C2    2    0.291115    0.209858    0.359692    11.00000    0.02486    0.05221 =
         0.02925    0.00759    0.00156    0.01735
C3    2    0.302919    0.117886    0.381255    11.00000    0.02832    0.04027 =
         0.04567    0.00345    0.00405    0.01756
HKLF 4

REM  C6N2Cl2S4GaBr4b_0m in P3
REM R1 =  0.0436 for    3060 Fo > 4sig(Fo)  and  0.0695 for all    4045 data
REM    173 parameters refined using      1 restraints

END

WGHT      0.0227      4.3998

REM Highest difference peak  1.025,  deepest hole -0.528,  1-sigma level  0.126
Q1    1   0.2156  0.4809  0.0156  11.00000  0.05    1.03
Q2    1   0.4225  0.3218  0.8383  11.00000  0.05    0.70
Q3    1   0.2005  0.1264  0.0801  11.00000  0.05    0.68
Q4    1   0.1523  0.6000 -0.0276  11.00000  0.05    0.67
Q5    1   0.1561  0.5399  0.0396  11.00000  0.05    0.65
;
_shelx_res_checksum              55018
_shelx_hkl_file
;
  -1   1   0 0.12479 0.85676   7
   0  -1   0 0.10591 0.69825   7
   1   0   0 -0.5631 0.57221   7
   0  -1   0 -0.8220 0.77367   7
   1  -1   0 0.91511 0.85755   7
   0   1   0 0.13550 0.81498   7
  -1   0   0 -0.0219 0.77596   7
   0   1   0 0.01362 0.18765   7
   1  -2   0 1332.19 62.1875   7
   1   1   0 1339.95 62.1537   7
   1  -2   0 1336.14 61.8930   3
  -2   1   0 1330.99 62.1790   7
  -1   2   0 1384.45 61.9174   3
  -1   2   0 1369.91 62.2504   7
   2  -1   0 1381.93 62.2230   7
  -1  -1   0 1357.22 62.1654   7
   0  -2   0 20.1132 2.99100   7
  -2   2   0 23.1983 3.34198   7
   0  -2   0 21.9807 3.31235   7
   2   0   0 29.9467 3.42111   7
   2  -2   0 32.4537 3.50656   7
  -2   0   0 34.7584 3.39269   7
   0   2   0 30.9734 3.35788   7
   0   2   0 24.9475 3.06603   7
   1   2   0 47.3904 4.91171   7
  -3   1   0 48.9830 4.93575   7
  -2   3   0 37.2868 4.13347   3
  -1  -2   0 41.7789 4.54135   7
  -2   3   0 40.2916 4.52046   7
   2   1   0 193.743 10.4338   7
  -3   2   0 185.402 10.6236   7
   1  -3   0 188.734 9.82994   3
   1  -3   0 192.558 10.5456   7
  -1   3   0 177.774 10.5541   7
  -2  -1   0 189.657 10.4124   7
  -1   3   0 167.749 10.2647   7
  -1   3   0 185.472 9.88525   3
  -3   3   0 1944.46 89.6636   7
   0  -3   0 1968.45 89.5353   7
   0   3   0 1891.31 89.4270   7
   0   3   0 1955.63 89.5426   7
  -3   0   0 1943.47 89.4939   7
  -4   1   0 1334.47 61.2794   7
   1   3   0 1328.71 61.2487   7
  -4   1   0 1343.03 59.8737   1
   1   3   0 1309.34 59.6742   1
  -1  -3   0 1269.46 61.1368   7
  -3   4   0 1257.22 60.8767   3
  -3   4   0 1294.78 59.8070   1
  -3   4   0 1315.22 61.4611   7
  -4   2   0 414.075 20.7828   7
   2   2   0 408.936 20.6021   7
  -4   2   0 407.246 19.2067   1
   2  -4   0 396.990 19.9583   3
   2   2   0 412.783 19.0023   1
   2  -4   0 410.654 20.7156   7
  -2   4   0 383.713 19.0540   1
  -2   4   0 386.861 20.7282   7
  -2  -2   0 374.402 20.3927   7
  -2   4   0 382.890 19.9133   3
   1  -4   0 585.927 28.1997   3
  -4   3   0 559.270 27.4078   6
  -4   3   0 580.489 27.6424   1
  -4   3   0 592.890 29.3292   7
   1  -4   0 562.833 28.9989   7
   3   1   0 563.208 28.8685   7
   3   1   0 583.864 27.4554   1
  -1   4   0 613.934 29.1383   7
  -1   4   0 609.995 27.4748   1
  -1   4   0 631.381 29.2698   7
  -3  -1   0 616.784 29.0710   7
  -4   4   0 2386.84 113.359   7
   4   0   0 2423.80 111.592   1
   0  -4   0 2339.83 113.094   7
  -4   4   0 2371.86 112.298   6
  -4   4   0 2409.93 111.697   1
   0   4   0 2525.78 113.296   7
  -4   0   0 2584.69 111.770   1
   0   4   0 2440.97 111.571   1
  -4   0   0 2556.71 113.316   7
   0   4   0 2500.32 113.301   7
  -5   1   0 3038.85 135.473   1
  -5   1   0 2990.38 137.178   7
   1   4   0 3070.75 137.219   7
   1   4   0 2950.10 135.260   1
   5  -1   0 2922.37 135.290   1
  -4   5   0 2957.97 137.393   7
  -1  -4   0 3015.88 137.158   7
  -4   5   0 2943.53 135.397   1
  -4   5   0 2907.73 136.824   3
   2   3   0 153.417 10.4486   7
  -5   2   0 171.400 10.6918   7
  -5   2   0 173.895 8.58471   1
   2   3   0 172.959 8.17406   1
   5  -2   0 144.065 8.30381   1
  -2  -3   0 131.227 10.0036   7
  -3   5   0 137.531 8.31513   1
  -3   5   0 132.540 9.85521   3
  -3   5   0 135.872 10.6410   7
  -2  -3   0 144.654 8.36607   1
   3   2   0 208.720 12.7604   7
   2  -5   0 202.509 11.5847   3
   3   2   0 202.604 10.4222   1
  -5   3   0 195.047 12.8169   7
   2  -5   0 170.335 12.3308   7
  -5   3   0 205.241 10.7972   1
   5  -3   0 213.783 10.6265   1
  -3  -2   0 215.314 12.4709   7
  -3  -2   0 209.885 10.5282   1
  -2   5   0 202.896 12.6410   7
  -2   5   0 194.361 11.5734   3
  -2   5   0 203.557 10.5066   1
   1  -5   0 1182.34 55.5336   3
   1  -5   0 1210.13 56.6367   7
  -5   4   0 1159.97 54.7586   6
  -5   4   0 1157.59 54.8374   1
   4   1   0 1213.99 54.6966   1
  -5   4   0 1197.82 56.9255   7
  -1   5   0 1206.33 56.7202   7
  -1   5   0 1181.83 56.6567   7
  -4  -1   0 1228.04 54.8661   1
  -4  -1   0 1201.29 56.5791   7
  -1   5   0 1152.18 54.6456   1
   5  -4   0 1192.30 54.8066   1
  -5   5   0 199.118 13.5014   7
   0  -5   0 196.826 12.9584   7
  -5   5   0 209.094 11.9691   6
   0  -5   0 232.082 12.3743   3
  -5   5   0 199.409 10.9168   1
   0  -5   0 202.367 10.8161   1
   5   0   0 212.753 10.8150   1
   0   5   0 199.363 10.7201   1
  -5   0   0 201.273 13.0585   7
  -5   0   0 207.792 11.0494   1
   5  -5   0 204.864 11.1459   1
   0   5   0 197.752 13.2055   7
   0   5   0 202.861 13.3587   7
   1   5   0 59.5291 6.99439   7
  -6   1   0 43.2469 6.12854   7
  -6   1   0 58.6956 4.69321   1
   5  -6   0 65.9033 4.91529   1
   1   5   0 53.5948 4.19905   1
   5  -6   0 71.1548 5.51647   2
  -5   6   0 44.1403 6.50958   3
  -5   6   0 51.3408 4.60751   1
  -1  -5   0 41.4802 4.68177   2
  -1  -5   0 28.9361 5.16784   7
  -5   6   0 45.9985 6.36514   6
   6  -1   0 41.7648 4.15212   1
   6  -1   0 44.0366 5.31660   2
  -5   6   0 49.4079 7.48209   7
  -1  -5   0 40.4631 4.20582   1
  -6   2   0 449.768 25.3577   7
   4  -6   0 444.296 23.2481   1
   2   4   0 452.535 23.0461   1
  -6   2   0 458.945 23.2976   1
   4  -6   0 461.497 23.7406   2
   2   4   0 438.779 25.2797   7
  -4   6   0 534.065 25.0824   3
  -2  -4   0 488.328 24.2265   2
   6  -2   0 520.214 23.3040   1
  -4   6   0 536.412 26.1687   7
  -2  -4   0 509.388 23.2947   1
  -4   6   0 501.524 23.2805   1
  -2  -4   0 504.276 25.4297   7
   3  -6   0 3174.41 138.251   2
   3  -6   0 2979.49 138.778   3
   3  -6   0 2950.80 139.638   7
  -6   3   0 3163.39 140.073   7
   3   3   0 3046.88 137.597   1
  -6   3   0 3057.43 137.833   1
   3  -6   0 3045.15 137.785   1
  -3   6   0 3009.07 139.895   7
  -3  -3   0 2974.85 139.640   7
   6  -3   0 2946.89 137.674   1
  -3   6   0 2946.24 137.662   1
  -3   6   0 3053.48 138.870   3
  -3  -3   0 2994.85 137.778   1
  -6   4   0 228.740 14.5886   7
   2  -6   0 225.528 12.1531   2
   4   2   0 226.881 11.6068   1
   2  -6   0 224.242 13.9997   7
  -6   4   0 215.029 11.9271   1
   2  -6   0 213.756 12.8140   3
   2  -6   0 219.489 11.7553   1
   6  -4   0 205.977 11.9963   2
  -4  -2   0 236.253 14.1534   7
  -2   6   0 230.394 14.3728   7
  -2   6   0 222.338 11.6568   1
  -4  -2   0 227.779 11.6466   1
  -2   6   0 223.759 12.9592   3
   6  -4   0 225.836 11.7825   1
   5   1   0 527.444 24.3657   1
   1  -6   0 540.733 25.4932   3
  -6   5   0 519.224 24.5523   1
  -6   5   0 521.396 27.3195   7
   1  -6   0 513.858 26.6884   7
  -6   5   0 510.382 24.5431   6
   1  -6   0 521.369 24.4760   1
   1  -6   0 496.709 24.7574   2
  -1   6   0 518.428 26.9602   7
  -5  -1   0 506.256 24.5483   1
   6  -5   0 487.215 24.4808   1
  -1   6   0 498.821 26.8357   7
   6  -5   0 485.283 24.8399   2
  -1   6   0 507.310 24.2678   1
  -5  -1   0 493.189 26.6189   7
   6   0   0 1178.47 56.7853   2
   0  -6   0 1170.46 58.7026   7
  -6   6   0 1127.69 56.4380   1
   0  -6   0 1184.30 56.5197   1
   6   0   0 1217.94 56.4083   1
  -6   6   0 1172.47 57.2712   6
  -6   6   0 1191.24 59.2564   7
   0  -6   0 1253.75 56.9950   2
   0  -6   0 1279.17 57.8982   3
  -6   0   0 1218.45 56.8514   2
   0   6   0 1245.86 58.9621   7
   6  -6   0 1267.90 56.6286   1
  -6   0   0 1249.83 56.6340   1
   0   6   0 1290.13 59.1798   7
   6  -6   0 1255.47 57.0821   2
   0   6   0 1227.09 56.3059   1
   6  -7   0 560.607 27.4906   2
   1   6   0 559.768 26.5726   1
  -7   1   0 563.278 27.2610   2
   6  -7   0 567.884 26.9953   1
  -7   1   0 564.966 29.7109   7
  -7   1   0 545.367 26.9568   1
   1   6   0 577.637 30.2050   7
   7  -1   0 549.863 27.2481   2
   7  -1   0 539.388 26.7127   1
  -1  -6   0 550.331 26.8518   1
  -1  -6   0 547.329 29.3268   7
  -6   7   0 539.843 29.2543   3
  -1  -6   0 578.878 27.4352   2
  -6   7   0 536.530 26.8239   1
  -6   7   0 556.285 30.0873   7
  -6   7   0 571.624 28.7718   6
  -7   2   0 3068.80 145.282   7
  -7   2   0 3259.94 143.393   2
   5  -7   0 3091.67 143.430   2
   5  -7   0 3083.13 142.884   1
  -7   2   0 3120.42 142.925   1
   2   5   0 3074.15 142.658   1
   7  -2   0 3134.01 143.210   2
  -5   7   0 3148.61 145.609   7
   7  -2   0 3212.49 142.791   1
  -5   7   0 3110.82 142.796   1
  -5   7   0 3189.21 144.686   3
  -2  -5   0 3112.49 143.216   2
  -2  -5   0 3105.30 142.866   1
  -2  -5   0 3164.95 145.243   7
   3   4   0 284.742 14.9351   1
  -7   3   0 277.809 15.4095   1
   4  -7   0 280.151 17.7374   7
   4  -7   0 293.067 15.8042   2
  -7   3   0 296.334 18.1332   7
   4  -7   0 282.573 15.3067   1
   7  -3   0 304.963 15.5832   2
  -4   7   0 310.651 15.2564   1
   7  -3   0 295.353 15.2567   1
  -3  -4   0 307.914 15.6710   2
  -4   7   0 307.273 18.4817   7
  -3  -4   0 337.391 17.9080   7
  -4   7   0 301.206 17.0125   3
  -3  -4   0 309.247 15.2740   1
   3  -7   0 211.720 12.0851   2
   3  -7   0 233.550 14.3521   7
   4   3   0 207.251 11.3053   1
  -7   4   0 216.679 14.6872   7
   3  -7   0 211.952 12.9468   3
   3  -7   0 221.131 11.7677   1
  -7   4   0 228.203 11.9083   1
  -4  -3   0 217.320 11.8176   2
  -4  -3   0 203.166 11.4615   1
  -3   7   0 196.857 11.3883   1
  -3   7   0 209.712 12.9612   3
  -3   7   0 201.157 14.4786   7
  -4  -3   0 200.175 14.0870   7
   7  -4   0 213.622 11.6649   1
   7  -4   0 221.586 12.1008   2
   2  -7   0 1355.25 61.7342   1
   5   2   0 1313.74 61.9618   2
  -7   5   0 1329.01 64.4200   7
  -7   5   0 1305.44 61.7037   1
   2  -7   0 1312.41 62.6046   3
   2  -7   0 1326.20 62.1120   2
   5   2   0 1319.27 61.4641   1
   2  -7   0 1333.07 64.0832   7
  -2   7   0 1358.67 61.5316   1
  -2   7   0 1343.57 64.2188   7
  -5  -2   0 1314.65 64.0202   7
   7  -5   0 1334.86 62.1217   2
  -5  -2   0 1371.67 62.0957   2
   7  -5   0 1346.84 61.6885   1
   6   1   0 1594.71 74.6396   1
   1  -7   0 1589.07 75.2266   2
   6   1   0 1601.00 75.1401   2
  -7   6   0 1609.40 74.9151   6
  -7   6   0 1617.33 77.7434   7
   1  -7   0 1607.35 77.3262   7
   1  -7   0 1580.94 75.8064   3
  -7   6   0 1627.25 74.8553   1
   1  -7   0 1617.32 74.8522   1
  -6  -1   0 1635.75 74.8937   1
   7  -6   0 1692.32 74.9277   1
  -6  -1   0 1626.60 77.4258   7
  -1   7   0 1598.59 74.5999   1
   7  -6   0 1679.58 75.4450   2
  -1   7   0 1663.38 77.5842   7
  -6  -1   0 1649.80 75.2262   2
  -1   7   0 1620.44 77.3343   7
   0  -7   0 28.9692 5.73255   3
  -7   7   0 31.2799 5.40523   6
  -7   7   0 27.2298 4.36227   1
   0  -7   0 26.2310 4.26287   1
  -7   7   0 39.5592 7.73461   7
   0  -7   0 16.5394 5.13254   7
   7   0   0 22.5344 4.37776   2
   7   0   0 32.4745 4.06463   1
  -7   7   0 29.2450 5.20634   2
   0  -7   0 28.7207 4.65747   2
   7  -7   0 43.0378 5.18755   2
   0   7   0 35.4752 7.12314   7
   0   7   0 29.2564 4.43516   2
  -7   0   0 21.7478 4.26254   2
   0   7   0 35.9272 4.03340   1
   0   7   0 31.6679 6.31774   7
   7  -7   0 44.1780 4.83704   1
  -7   0   0 33.2682 4.45820   1
  -7   0   0 31.1205 6.20748   7
  -8   1   0 651.668 35.5956   7
  -8   1   0 638.046 32.8320   2
   7  -8   0 639.725 33.0706   2
   1   7   0 658.668 32.0877   1
   7  -8   0 646.286 32.5108   1
   1   7   0 664.280 32.7266   2
  -8   1   0 644.552 32.4778   1
   8  -1   0 678.923 32.2915   1
  -1  -7   0 693.210 32.9446   2
  -7   8   0 705.879 36.3101   7
  -7   8   0 707.869 34.3345   6
  -7   8   0 710.548 32.4786   1
   8  -1   0 661.944 32.7459   2
  -1  -7   0 694.551 32.4554   1
  -7   8   0 709.071 35.3384   3
  -7   8   0 683.809 33.0757   2
  -8   2   0 70.5984 9.45484   7
   2   6   0 45.3031 5.21858   2
   2   6   0 49.2970 4.59645   1
  -8   2   0 49.0296 5.15368   1
   6  -8   0 57.5520 5.85531   2
   6  -8   0 38.4798 4.98720   1
  -8   2   0 47.0266 5.40182   2
  -2  -6   0 46.1091 4.96008   1
  -6   8   0 35.2348 4.83329   1
   8  -2   0 50.5135 5.02975   1
  -6   8   0 37.7685 7.31987   7
  -6   8   0 41.8187 7.61335   6
  -2  -6   0 42.7070 5.35969   2
  -6   8   0 45.5284 5.81916   2
   8  -2   0 40.9952 5.23633   2
  -6   8   0 42.3230 7.26752   3
   3   5   0 599.728 28.8017   2
   5  -8   0 587.829 29.1009   2
  -8   3   0 591.531 28.8784   2
   5  -8   0 583.641 28.5412   1
  -8   3   0 588.090 28.4830   1
   3   5   0 594.654 28.1155   1
  -8   3   0 610.948 31.6082   7
  -5   8   0 588.501 31.8768   7
  -3  -5   0 583.668 28.4250   1
   8  -3   0 574.095 28.8316   2
  -3  -5   0 600.234 28.9260   2
  -3  -5   0 586.036 31.0388   7
  -5   8   0 556.529 28.2614   1
   8  -3   0 582.902 28.3201   1
  -5   8   0 587.331 30.3997   3
  -8   4   0 3296.91 146.803   1
   4   4   0 3229.80 146.458   1
  -8   4   0 3328.26 147.258   2
  -8   4   0 3312.99 149.708   7
   4  -8   0 3211.25 149.401   7
   4   4   0 3312.74 147.107   2
   4  -8   0 3310.27 146.778   1
   4  -8   0 3257.31 147.341   2
   8  -4   0 3111.46 146.646   1
  -4   8   0 3145.09 148.010   3
  -4  -4   0 3140.43 149.250   7
  -4  -4   0 3163.38 146.747   1
  -4   8   0 3112.87 146.530   1
  -4   8   0 3107.14 149.537   7
   8  -4   0 3201.20 147.221   2
  -4  -4   0 3203.27 147.125   2
   3  -8   0 146.267 9.71553   1
   5   3   0 158.287 10.1180   2
   3  -8   0 153.903 11.1111   3
  -8   5   0 155.191 10.2485   2
  -8   5   0 151.693 9.99200   1
   3  -8   0 144.535 13.8033   7
  -8   5   0 161.235 13.5698   7
   5   3   0 159.856 9.34977   1
   3  -8   0 141.494 10.1935   2
  -3   8   0 156.622 13.4188   7
  -5  -3   0 153.354 12.4844   7
   8  -5   0 177.569 10.2491   2
  -3   8   0 160.735 9.48940   1
  -5  -3   0 163.276 9.59346   1
   8  -5   0 151.618 9.62617   1
  -3   8   0 164.820 11.3916   3
  -5  -3   0 163.149 10.0640   2
   6   2   0 197.778 11.7309   2
   6   2   0 197.185 11.3117   1
  -8   6   0 197.678 12.0758   2
  -8   6   0 205.485 15.6972   7
   2  -8   0 207.094 12.8499   3
   2  -8   0 206.227 12.1669   2
  -8   6   0 200.725 11.8403   1
   2  -8   0 194.378 11.5672   1
  -6  -2   0 219.272 12.2344   2
  -2   8   0 186.825 11.3776   1
  -6  -2   0 191.462 11.3846   1
  -6  -2   0 190.584 14.4560   7
  -2   8   0 201.287 12.1017   2
   8  -6   0 210.409 11.8532   1
   8  -6   0 215.290 12.3537   2
  -2   8   0 198.068 15.0534   7
   7   1   0 491.008 24.1871   2
  -8   7   0 490.460 23.9968   1
  -8   7   0 476.210 24.5462   2
   1  -8   0 485.063 24.4110   2
  -8   7   0 493.246 24.0667   6
   7   1   0 510.532 23.7601   1
   1  -8   0 496.312 23.9544   1
   1  -8   0 503.616 25.2004   3
  -8   7   0 475.728 27.5375   7
   8  -7   0 459.216 23.9510   1
  -1   8   0 466.909 24.2138   2
   8  -7   0 462.405 24.4598   2
  -1   8   0 464.058 27.0469   7
  -1   8   0 462.699 23.5611   1
  -7  -1   0 487.037 24.3437   2
  -7  -1   0 475.064 23.9469   1
   8   0   0 491.395 24.1096   2
  -8   8   0 488.377 24.7413   6
  -8   8   0 482.472 24.4534   2
   0  -8   0 482.924 24.2989   2
  -8   8   0 504.569 23.7946   1
   0  -8   0 502.887 23.6845   1
   0  -8   0 527.108 25.5555   3
   8   0   0 502.216 23.4760   1
  -8   8   0 482.928 27.8031   7
  -8   0   0 454.672 24.1403   2
  -8   0   0 428.399 23.6587   1
   0   8   0 416.236 26.6462   7
   8  -8   0 420.159 23.6194   1
   0   8   0 450.670 24.0579   2
   0   8   0 466.692 23.3208   1
   8  -8   0 452.903 24.3587   2
  -9   1   0 80.1356 7.50244   2
   1   8   0 82.5491 7.40949   2
   1   8   0 78.2200 6.55347   1
   8  -9   0 79.2553 7.83134   2
   8  -9   0 88.0094 7.56407   1
  -9   1   0 89.9686 7.57189   1
   9  -1   0 79.8404 6.92614   1
  -8   9   0 71.4525 8.88140   6
  -8   9   0 74.6593 10.9067   7
  -1  -8   0 74.4252 6.87024   1
  -1  -8   0 94.1956 9.26699   3
  -8   9   0 82.9774 10.2059   3
  -8   9   0 64.9857 7.45847   2
  -8   9   0 71.7466 6.97894   1
   9  -1   0 70.4582 7.05831   2
  -1  -8   0 88.0073 7.78065   2
   7  -9   0 86.8089 7.41787   1
  -9   2   0 72.0499 7.38721   2
  -9   2   0 88.5489 7.53714   1
   2   7   0 83.2209 7.21370   1
   7  -9   0 97.7720 8.17162   2
   2   7   0 80.8145 7.40334   2
  -7   9   0 93.6742 7.28645   1
  -7   9   0 86.9919 10.0057   6
  -2  -7   0 76.6581 7.41726   2
  -2  -7   0 82.1548 6.93437   1
  -7   9   0 95.5824 10.8794   7
   9  -2   0 84.8018 7.70496   2
   9  -2   0 92.7682 7.68288   1
  -7   9   0 91.1620 8.02827   2
  -7   9   0 95.7509 10.2016   3
  -9   3   0 378.338 20.8545   2
   3   6   0 381.381 19.9434   1
   3   6   0 377.102 20.4596   2
  -9   3   0 403.857 27.3875   7
   6  -9   0 375.145 20.8375   2
   6  -9   0 394.781 20.4623   1
  -9   3   0 392.753 20.4911   1
  -3  -6   0 417.250 20.8643   2
  -6   9   0 392.527 20.9237   2
  -3  -6   0 405.722 20.2590   1
  -6   9   0 430.844 24.3813   6
  -6   9   0 409.872 22.9089   3
   9  -3   0 404.394 20.2044   1
   9  -3   0 398.067 20.7365   2
  -6   9   0 410.755 24.6264   7
  -6   9   0 395.579 20.2226   1
  -9   4   0 48.7204 8.50026   7
  -9   4   0 30.7935 5.29196   2
  -9   4   0 40.2830 5.19297   1
   4   5   0 41.6077 5.26375   2
   4   5   0 38.5339 4.54651   1
   5  -9   0 29.2178 4.77359   1
   5  -9   0 38.3833 5.55696   2
  -5   9   0 33.2247 5.35845   2
   9  -4   0 38.2771 5.13741   2
  -5   9   0 30.2191 4.66746   1
  -5   9   0 20.5046 7.60630   7
  -4  -5   0 33.3647 5.08968   2
  -5   9   0 26.4218 6.12874   3
  -4  -5   0 21.4588 4.38332   1
   9  -4   0 29.5312 4.78473   1
   4  -9   0 193.473 11.4661   1
  -9   5   0 161.188 15.1275   7
  -9   5   0 184.203 11.8410   1
  -9   5   0 183.052 12.1463   2
   5   4   0 204.600 11.9256   2
   4  -9   0 190.158 11.9412   2
   5   4   0 184.102 11.0953   1
  -5  -4   0 213.063 12.2582   2
   9  -5   0 189.525 11.5919   1
  -4   9   0 202.168 11.4452   1
  -4   9   0 182.865 15.3197   7
  -5  -4   0 187.312 11.4512   1
   9  -5   0 192.317 11.9342   2
  -4   9   0 193.896 12.1158   2
  -4   9   0 195.382 13.3260   3
   3  -9   0 310.050 18.7028   3
   3  -9   0 335.479 17.5658   1
  -9   6   0 317.219 18.2957   2
  -9   6   0 289.646 17.6296   1
   6   3   0 311.305 17.0655   1
   3  -9   0 307.324 17.8831   2
   6   3   0 321.139 17.8888   2
  -9   6   0 311.057 21.2621   7
  -3   9   0 364.547 18.2350   2
   9  -6   0 333.565 17.5377   1
  -6  -3   0 374.214 18.1351   2
  -6  -3   0 368.266 17.5578   1
  -3   9   0 363.321 17.3570   1
  -3   9   0 349.172 21.4313   7
   9  -6   0 333.417 18.2636   2
   2  -9   0 21.1201 5.47308   3
  -9   7   0 19.0736 7.83445   7
   7   2   0 21.0047 4.41520   1
   7   2   0 21.6585 4.72146   2
  -9   7   0 23.2887 4.83480   1
   2  -9   0 31.9345 5.05105   1
  -9   7   0 19.6085 5.21111   2
   2  -9   0 23.8184 5.16624   2
  -2   9   0 35.4679 7.85123   7
  -2   9   0 38.8034 4.90303   1
  -2   9   0 42.7570 5.75131   2
   9  -7   0 26.9321 5.33835   2
   9  -7   0 45.4548 5.36664   1
  -7  -2   0 45.4770 5.04117   1
  -7  -2   0 31.4124 5.23914   2
   1  -9   0 81.1375 8.42818   3
   8   1   0 81.7425 6.94309   1
  -9   8   0 86.0897 12.2150   7
   8   1   0 74.8149 7.20979   2
   1  -9   0 85.7321 7.76069   2
   1  -9   0 93.5835 7.48261   1
  -9   8   0 83.7255 7.39920   1
  -9   8   0 95.5648 8.36155   2
  -1   9   0 82.2691 10.6111   7
  -1   9   0 84.8864 6.83536   1
  -1   9   0 76.8060 7.71126   2
   9  -8   0 71.2753 7.78433   2
  -8  -1   0 92.9499 7.83519   2
   9  -8   0 88.8707 7.70636   1
   9   0   0 379.645 20.7280   1
   0  -9   0 388.363 20.9245   1
   9   0   0 389.952 21.3535   2
  -9   9   0 379.224 24.6529   3
  -9   9   0 403.155 21.0352   1
  -9   9   0 393.080 21.6950   2
   0  -9   0 401.940 21.5617   2
   0   9   0 415.378 21.5911   2
  -9   0   0 416.734 21.3548   1
   9  -9   0 387.035 21.0107   1
   0   9   0 428.604 20.5452   1
   9  -9   0 418.256 21.8927   2
  -9   0   0 406.003 21.6455   2
   1   9   0 183.015 12.7888   2
   9 -10   0 187.898 13.6279   2
 -10   1   0 208.494 12.9009   2
 -10   1   0 203.535 13.2854   1
   1   9   0 185.430 12.0030   1
   9 -10   0 187.209 12.7715   1
  -9  10   0 186.910 13.6023   2
  10  -1   0 194.163 12.4436   1
  -9  10   0 189.059 16.5732   3
  -9  10   0 203.726 12.7559   1
  -1  -9   0 180.421 12.4983   1
  -1  -9   0 186.489 12.8669   2
  10  -1   0 199.082 12.8126   2
 -10   2   0 124.303 10.4716   1
   8 -10   0 125.968 10.3597   1
 -10   2   0 125.754 10.3967   2
   8 -10   0 118.542 10.0271   2
   2   8   0 118.909 9.24470   1
   2   8   0 119.862 9.74474   2
  10  -2   0 129.045 9.74547   1
  -2  -8   0 118.037 9.65341   1
  -2  -8   0 123.944 10.3017   2
  -8  10   0 125.406 12.0887   6
  -8  10   0 121.568 12.4481   3
  -8  10   0 121.408 9.95296   1
  -8  10   0 120.579 10.1010   2
  10  -2   0 124.956 9.80402   2
   3   7   0 212.523 12.5238   1
   3   7   0 203.846 13.0526   2
   7 -10   0 201.923 13.3928   2
 -10   3   0 193.869 13.3287   2
 -10   3   0 236.136 13.6426   1
   7 -10   0 215.060 13.4009   1
  -3  -7   0 212.816 12.8818   1
  10  -3   0 212.666 13.0148   1
  -7  10   0 226.865 13.1142   1
  -3  -7   0 205.891 13.6308   2
  10  -3   0 201.964 13.5187   2
  -7  10   0 220.076 16.0322   3
  -7  10   0 222.748 13.7788   2
  -7  10   0 237.783 17.6066   6
   6 -10   0 14.6331 5.33519   2
   6 -10   0 22.3507 5.10608   1
 -10   4   0 17.1789 4.92412   1
   4   6   0 15.6856 4.24208   1
   4   6   0 13.3039 4.61838   2
 -10   4   0 18.4138 5.14072   2
  -6  10   0 19.3698 6.36832   3
  -6  10   0 12.7768 7.49796   7
  -6  10   0 20.6663 4.77931   1
  -6  10   0 22.2428 8.79032   6
  10  -4   0 17.4337 4.72189   1
  10  -4   0 9.95851 4.83278   2
  -6  10   0 26.9238 5.71961   2
  -4  -6   0 15.8827 4.19789   1
  -4  -6   0 9.89646 4.57846   2
   5 -10   0 226.184 13.2127   1
   5   5   0 217.367 12.3610   1
   5 -10   0 217.915 13.4048   2
   5   5   0 227.417 13.0654   2
 -10   5   0 235.785 13.4985   1
 -10   5   0 229.346 13.8630   2
  -5  10   0 199.638 14.7805   3
  10  -5   0 203.699 13.3315   2
  -5  -5   0 198.717 12.6252   1
  -5  10   0 211.519 12.7317   1
  -5  10   0 188.797 17.1105   7
  10  -5   0 208.150 12.9656   1
  -5  -5   0 215.743 13.4134   2
  -5  10   0 206.371 13.5664   2
   6   4   0 170.811 11.2128   2
 -10   6   0 167.983 11.3378   2
   6   4   0 159.739 10.3308   1
   4 -10   0 160.104 11.4625   2
   4 -10   0 170.019 10.9985   1
 -10   6   0 152.168 11.2781   1
  -4  10   0 144.909 15.1917   7
  10  -6   0 166.947 11.5679   2
  10  -6   0 157.618 10.7330   1
  -4  10   0 166.953 10.6246   1
  -4  10   0 158.338 11.5474   2
  -6  -4   0 143.879 11.2952   2
  -6  -4   0 141.946 10.5675   1
   3 -10   0 230.356 13.0584   1
   7   3   0 227.578 12.3585   1
   3 -10   0 206.870 13.3791   2
 -10   7   0 213.834 13.1356   1
   7   3   0 217.339 13.1916   2
 -10   7   0 208.520 13.5352   2
  -3  10   0 204.485 13.3486   2
  -7  -3   0 205.048 13.1309   2
  -7  -3   0 208.068 12.6835   1
  10  -7   0 188.697 13.1675   2
  10  -7   0 185.669 12.5284   1
  -3  10   0 176.343 12.2445   1
   8   2   0 533.686 26.7589   2
 -10   8   0 511.283 26.9579   2
   2 -10   0 515.327 26.3891   1
 -10   8   0 554.642 26.3502   1
   2 -10   0 525.465 26.7982   2
   8   2   0 554.956 25.9786   1
  10  -8   0 468.783 26.7265   2
  -2  10   0 508.181 26.7977   2
  -8  -2   0 526.422 26.2718   1
  -8  -2   0 502.138 26.8503   2
  10  -8   0 515.967 26.2736   1
  -2  10   0 500.258 25.7640   1
   1 -10   0 111.362 8.91919   1
   1 -10   0 111.210 9.42964   2
   9   1   0 95.6708 8.80249   2
 -10   9   0 100.225 9.49849   2
   9   1   0 105.764 8.38168   1
 -10   9   0 99.7031 8.39479   1
  -1  10   0 93.8026 9.09058   2
  10  -9   0 110.324 9.04524   1
  -1  10   0 104.770 8.88619   1
  -9  -1   0 104.638 9.06446   1
  -9  -1   0 105.341 9.45785   2
  10  -9   0 105.992 9.59926   2
 -10  10   0 27.0949 5.88949   1
 -10  10   0 41.3673 7.42251   2
  10   0   0 28.9414 5.53000   1
   0 -10   0 32.6520 5.92590   1
   0 -10   0 34.1067 6.33072   2
 -10  10   0 39.0225 9.37346   3
  10   0   0 33.5615 6.24960   2
  10 -10   0 21.4844 6.30266   2
 -10   0   0 34.1699 6.00848   1
   0  10   0 30.4978 6.53543   2
 -10   0   0 26.2691 6.20777   2
   0  10   0 38.4377 5.59513   1
  10 -10   0 31.7208 6.24273   1
 -11   1   0 352.792 20.3228   2
   1  10   0 337.532 25.7874   2
  10 -11   0 361.910 19.7109   1
  10 -11   0 345.683 20.5440   2
   1  10   0 354.365 18.6809   1
 -11   1   0 333.384 19.5592   1
  11  -1   0 325.956 18.7202   1
 -10  11   0 357.281 19.1962   1
  -1 -10   0 325.261 19.8881   2
  11  -1   0 321.181 19.5898   2
  -1 -10   0 328.698 19.2290   1
   2   9   0 48.3076 6.98056   2
   2   9   0 48.6235 5.99932   1
   9 -11   0 44.5919 7.47584   2
 -11   2   0 52.0802 7.25698   2
   9 -11   0 42.6574 6.91462   1
 -11   2   0 44.0878 6.86632   1
  11  -2   0 52.2726 7.04745   2
  -2  -9   0 49.6903 7.21072   2
  -2  -9   0 34.9101 6.15675   1
  -9  11   0 51.7611 6.80770   1
  11  -2   0 58.2780 6.86252   1
   3   8   0 144.475 10.2806   1
 -11   3   0 126.710 10.8137   2
 -11   3   0 148.398 11.6890   1
   8 -11   0 132.294 11.2448   1
   8 -11   0 136.344 11.4301   2
   3   8   0 129.659 10.9700   2
  -3  -8   0 158.957 11.9574   2
  -3  -8   0 142.107 10.8060   1
  -8  11   0 138.949 13.8786   6
  -8  11   0 115.118 15.5973   2
  11  -3   0 120.467 11.0074   2
  11  -3   0 147.236 10.6986   1
  -8  11   0 162.547 11.1882   1
 -11   4   0 304.183 17.8426   2
   4   7   0 301.277 16.3377   1
   7 -11   0 285.884 17.0839   1
   4   7   0 274.302 16.8810   2
   7 -11   0 303.570 17.9331   2
 -11   4   0 277.461 17.1231   1
  -4  -7   0 308.453 16.9103   1
  -7  11   0 311.334 21.8965   6
  11  -4   0 294.025 17.2543   2
  -7  11   0 310.065 16.8183   1
  -7  11   0 270.719 18.1077   2
  -4  -7   0 320.288 17.7329   2
  11  -4   0 305.810 16.7754   1
   5   6   0 33.8792 5.98633   2
   6 -11   0 22.1362 5.54871   1
   5   6   0 30.9068 5.03569   1
   6 -11   0 25.6024 6.19687   2
 -11   5   0 18.3552 5.64138   2
 -11   5   0 28.5854 5.86977   1
  -5  -6   0 22.2976 5.83629   2
  -6  11   0 14.5907 9.38531   6
  -5  -6   0 34.5050 5.19165   1
  11  -5   0 21.8769 5.77934   2
  11  -5   0 27.2347 5.51114   1
  -6  11   0 24.2256 6.11727   2
  -6  11   0 26.3679 5.33483   1
 -11   6   0 466.763 24.6501   2
   6   5   0 498.106 23.4021   1
   5 -11   0 440.210 24.5474   2
 -11   6   0 475.120 24.1859   1
   5 -11   0 503.163 24.1486   1
   6   5   0 459.304 24.1332   2
  -5  11   0 437.634 24.5938   2
  -5  11   0 422.625 23.4744   1
  -6  -5   0 472.601 24.5513   2
  11  -6   0 427.510 24.5377   2
  -6  -5   0 458.682 23.8478   1
  11  -6   0 474.380 24.0322   1
 -11   7   0 206.655 14.0589   2
   7   4   0 203.858 13.5551   2
   4 -11   0 210.867 13.8916   2
   7   4   0 195.299 12.5111   1
   4 -11   0 198.295 13.0510   1
 -11   7   0 209.564 13.7813   1
  11  -7   0 218.875 14.0376   2
  -7  -4   0 204.746 13.0286   1
  -4  11   0 191.259 14.0916   2
  -7  -4   0 188.795 13.4151   2
  -4  11   0 209.116 12.8278   1
  11  -7   0 191.018 13.1900   1
   8   3   0 147.593 11.2567   2
   8   3   0 138.989 10.1504   1
 -11   8   0 146.742 11.4882   2
   3 -11   0 126.424 10.9174   2
 -11   8   0 134.135 11.1371   1
   3 -11   0 129.862 11.1589   1
  -8  -3   0 146.618 10.7291   1
  -3  11   0 131.717 10.2926   1
  11  -8   0 137.264 11.4355   2
  -3  11   0 129.558 12.5591   2
  -8  -3   0 135.718 11.3749   2
  11  -8   0 126.095 10.6073   1
 -11   9   0 42.3875 7.01704   1
   2 -11   0 38.3213 6.94500   2
   9   2   0 56.7171 7.50684   2
   2 -11   0 54.7946 7.11356   1
   9   2   0 52.9019 6.48093   1
 -11   9   0 40.2752 7.46516   2
  -9  -2   0 51.3782 7.35299   2
  -9  -2   0 63.9559 7.17243   1
  11  -9   0 44.8542 7.39541   2
  11  -9   0 54.4700 7.15549   1
  -2  11   0 63.7395 6.62495   1
   1 -11   0 1022.14 49.4693   2
  10   1   0 953.276 48.8875   2
  10   1   0 978.203 48.1068   1
 -11  10   0 977.749 48.1823   1
   1 -11   0 1037.78 48.7916   1
  11 -10   0 1029.82 49.5963   2
  -1  11   0 1031.38 48.0225   1
 -10  -1   0 1036.26 49.3354   2
  11 -10   0 1028.52 48.7232   1
 -10  -1   0 988.292 48.5145   1
  11   0   0 20.0667 6.13117   2
  11   0   0 19.8003 5.94643   1
   0 -11   0 20.5620 6.14554   1
 -11  11   0 21.0167 6.12671   1
   0 -11   0 24.4640 6.56169   2
   0  11   0 26.2081 5.65876   1
 -11   0   0 22.9686 6.88068   2
  11 -11   0 21.4686 6.82802   2
  11 -11   0 20.1118 6.71898   1
 -11   0   0 22.2712 5.93064   1
   1  11   0 27.8494 5.90466   1
  11 -12   0 18.1048 7.13479   2
 -12   1   0 18.0741 7.31633   2
  11 -12   0 24.7936 6.67888   1
  -1 -11   0 20.0461 6.52103   1
  -1 -11   0 23.6237 6.89765   2
  12  -1   0 30.4145 7.22661   2
  12  -1   0 20.2423 6.28471   1
 -11  12   0 8.70396 6.12531   1
  10 -12   0 34.5004 7.59574   2
 -12   2   0 41.0522 7.35897   2
  10 -12   0 36.0245 7.12250   1
 -12   2   0 45.5262 7.48065   1
   2  10   0 42.4803 6.22061   1
  -2 -10   0 25.3531 6.71059   2
 -10  12   0 19.1090 6.36070   1
  12  -2   0 27.0638 6.95957   2
  -2 -10   0 14.1996 5.77579   1
  12  -2   0 30.2461 6.33180   1
   9 -12   0 157.674 13.1138   2
   3   9   0 151.475 12.5890   2
   9 -12   0 154.054 13.0901   1
 -12   3   0 158.065 13.2256   1
   3   9   0 172.412 11.9575   1
 -12   3   0 155.169 13.3775   2
  12  -3   0 173.065 12.5906   1
  -9  12   0 178.500 12.5153   1
  -3  -9   0 193.085 13.1482   2
  -3  -9   0 172.617 12.6506   1
  12  -3   0 163.513 12.6996   2
   8 -12   0 121.815 10.6782   2
   4   8   0 99.6028 9.46417   2
 -12   4   0 112.381 10.4196   2
 -12   4   0 129.798 10.3676   1
   4   8   0 118.417 9.77723   1
   8 -12   0 115.983 9.91252   1
  12  -4   0 108.319 10.2290   2
  12  -4   0 98.3005 9.11353   1
  -8  12   0 116.166 9.27866   1
  -8  12   0 128.577 14.3119   6
  -4  -8   0 101.320 9.19484   1
  -4  -8   0 129.137 10.8241   2
   7 -12   0 14.1401 5.81627   1
   5   7   0 14.5286 5.47005   2
 -12   5   0 9.69107 5.77112   1
   7 -12   0 13.7743 6.16997   2
 -12   5   0 11.3321 6.07200   2
   5   7   0 8.42442 4.81653   1
  12  -5   0 1.61316 5.79424   2
  -7  12   0 8.45619 9.69326   6
  -5  -7   0 13.0064 5.28815   1
  12  -5   0 16.2357 5.55852   1
  -7  12   0 13.6736 5.49546   1
  -5  -7   0 13.9884 5.87584   2
   6   6   0 251.484 16.0201   1
   6 -12   0 258.389 16.9580   1
   6   6   0 239.552 16.4440   2
 -12   6   0 235.732 17.1786   2
   6 -12   0 249.077 17.4293   2
 -12   6   0 250.012 16.8847   1
  12  -6   0 313.340 16.9049   1
  -6  12   0 342.730 24.3526   6
  -6  12   0 303.913 16.3032   1
  -6  -6   0 316.752 17.3889   2
  -6  -6   0 289.282 16.5494   1
  12  -6   0 316.947 17.9180   2
   5 -12   0 52.9316 8.10229   2
   7   5   0 56.7189 7.49207   2
   5 -12   0 72.1182 7.94825   1
 -12   7   0 48.8930 7.92379   2
 -12   7   0 66.8544 7.86005   1
   7   5   0 72.8982 6.98886   1
  -5  12   0 79.0885 7.42992   1
  -7  -5   0 88.6083 7.87127   1
  12  -7   0 77.9044 8.77877   2
  12  -7   0 72.0968 7.98637   1
  -7  -5   0 69.0077 8.10538   2
   4 -12   0 40.6484 6.91248   1
   8   4   0 42.2044 6.10728   1
   8   4   0 43.4282 7.09801   2
   4 -12   0 31.7506 7.09910   2
 -12   8   0 30.6247 6.73459   1
 -12   8   0 33.5827 7.32977   2
  12  -8   0 45.9865 7.01869   1
  -4  12   0 53.1417 6.69964   1
  -8  -4   0 69.0569 8.13302   2
  -8  -4   0 50.3447 6.61914   1
  12  -8   0 54.0031 7.81889   2
   9   3   0 231.450 15.0142   1
   9   3   0 254.855 16.3709   2
   3 -12   0 247.767 16.0340   1
 -12   9   0 232.114 15.7804   1
   3 -12   0 260.161 16.8445   2
  -9  -3   0 248.202 15.8040   1
  -3  12   0 247.685 15.1722   1
  12  -9   0 241.032 15.9441   1
  -9  -3   0 267.161 16.6217   2
  12  -9   0 254.515 17.1769   2
  10   2   0 14.2034 6.32828   2
 -12  10   0 12.2391 6.15732   1
  10   2   0 13.8483 5.51104   1
   2 -12   0 12.4839 6.35583   2
   2 -12   0 13.1343 6.25228   1
  -2  12   0 16.6267 5.64175   1
  12 -10   0 15.8699 6.44218   1
 -10  -2   0 27.5024 6.10551   1
  12 -10   0 24.6519 7.17865   2
 -10  -2   0 23.6057 7.07923   2
   1 -12   0 28.4616 7.47113   2
  11   1   0 37.7754 7.43331   2
 -12  11   0 38.2019 7.12570   1
  11   1   0 27.9302 6.50406   1
   1 -12   0 31.6579 7.23570   1
  12 -11   0 33.8413 7.21845   1
  -1  12   0 43.3766 6.50926   1
  12 -11   0 28.7202 7.86445   2
 -11  -1   0 21.7074 7.62068   2
 -11  -1   0 43.0563 7.05766   1
   0 -12   0 439.260 25.8502   2
  12   0   0 456.354 24.7168   1
  12   0   0 449.044 25.4931   2
   0 -12   0 441.653 25.0941   1
 -12  12   0 461.333 24.5894   1
  12 -12   0 425.744 26.1240   2
   0  12   0 445.149 24.0184   1
  12 -12   0 472.943 25.3880   1
 -12   0   0 477.996 26.5219   2
 -12   0   0 455.553 25.0252   1
   1  12   0 51.5785 7.50038   1
 -13   1   0 57.7703 9.98289   2
  12 -13   0 53.4766 9.40358   2
 -13   1   0 54.3602 8.27230   1
  12 -13   0 62.0066 9.14515   1
  -1 -12   0 72.8195 9.66004   2
  -1 -12   0 60.7536 8.65444   1
 -12  13   0 58.0915 7.97747   1
  13  -1   0 55.1032 9.11396   2
  13  -1   0 65.5280 8.62892   1
  11 -13   0 95.2102 10.1002   1
   2  11   0 74.5072 8.22860   1
 -13   2   0 65.6014 10.1737   2
  11 -13   0 83.4690 10.8527   2
  -2 -11   0 93.1075 9.67507   1
  13  -2   0 91.1860 10.3409   2
  13  -2   0 107.791 9.63805   1
 -11  13   0 97.5172 9.11962   1
  -2 -11   0 115.760 11.1567   2
  10 -13   0 19.5425 7.67716   2
  10 -13   0 6.81585 6.51852   1
 -13   3   0 6.69021 7.08984   2
 -13   3   0 10.1538 6.86722   1
   3  10   0 12.8829 5.49993   1
  -3 -10   0 15.1303 6.94191   2
  -3 -10   0 26.2415 6.52454   1
  13  -3   0 15.9378 6.66435   1
 -10  13   0 22.9362 6.71801   1
  13  -3   0 10.3255 6.63326   2
   9 -13   0 35.6431 7.47405   1
   4   9   0 35.6960 6.47214   1
   9 -13   0 20.4990 7.72726   2
 -13   4   0 37.1698 7.48780   1
 -13   4   0 26.8599 7.94221   2
  -9  13   0 34.3383 6.58242   1
  -4  -9   0 44.3210 8.08958   2
  13  -4   0 26.5248 7.56440   2
  13  -4   0 42.7732 7.23415   1
  -4  -9   0 39.9800 7.03206   1
   8 -13   0 454.197 26.3106   2
   5   8   0 450.599 26.8429   2
   8 -13   0 469.010 25.5550   1
 -13   5   0 435.239 25.9575   2
 -13   5   0 483.781 25.6310   1
   5   8   0 479.014 24.5071   1
  13  -5   0 452.182 25.8910   2
  -5  -8   0 467.276 26.0117   2
  13  -5   0 478.527 25.1998   1
  -8  13   0 509.607 31.3361   6
  -8  13   0 484.725 24.6288   1
  -5  -8   0 466.481 25.1490   1
 -13   6   0 12.8722 7.05657   2
   6   7   0 18.2138 5.97119   2
   7 -13   0 10.2359 6.75544   2
 -13   6   0 25.5898 6.82022   1
   6   7   0 15.7243 5.56738   1
   7 -13   0 7.66700 6.08209   1
  13  -6   0 18.5575 6.17079   1
  -7  13   0 14.7659 11.0113   6
  -6  -7   0 17.6649 6.78332   2
  -7  13   0 15.2983 5.80977   1
  -6  -7   0 16.6560 5.78130   1
  13  -6   0 20.8197 7.12419   2
 -13   7   0 34.5723 7.09886   1
   6 -13   0 28.6857 7.54781   2
   7   6   0 51.7369 7.90406   2
 -13   7   0 42.0519 8.06454   2
   7   6   0 42.0336 6.58509   1
   6 -13   0 30.6392 7.22762   1
  -6  13   0 33.1198 6.35076   1
  -7  -6   0 38.3555 7.52921   2
  13  -7   0 41.7039 7.27185   1
  -6  13   0 43.1260 12.7878   6
  -7  -6   0 29.2963 6.39973   1
  13  -7   0 37.1666 7.50453   2
   8   5   0 251.392 15.2646   1
   5 -13   0 261.336 17.4427   2
   8   5   0 232.771 16.3999   2
   5 -13   0 273.193 16.4287   1
 -13   8   0 268.153 16.5935   1
  -5  13   0 237.121 15.3912   1
  -8  -5   0 267.617 17.3492   2
  -5  13   0 263.821 25.4737   6
  13  -8   0 218.355 17.0740   2
  13  -8   0 226.006 16.2442   1
  -8  -5   0 233.232 16.2215   1
   9   4   0 19.4431 5.94378   1
   9   4   0 19.8215 6.74573   2
   4 -13   0 20.4535 7.35770   2
 -13   9   0 15.0095 6.61732   1
   4 -13   0 6.86216 6.27845   1
  13  -9   0 32.5433 6.83379   1
  -9  -4   0 27.7418 6.40166   1
  -4  13   0 29.9058 6.17764   1
  13  -9   0 31.4345 7.34883   2
  -9  -4   0 22.5956 7.42092   2
  10   3   0 99.1942 8.79237   1
   3 -13   0 94.2633 9.63299   1
 -13  10   0 80.3821 8.98370   1
   3 -13   0 73.6948 9.76644   2
  10   3   0 74.6546 9.57500   2
  13 -10   0 98.2182 9.75447   1
  -3  13   0 84.8294 8.37977   1
 -10  -3   0 81.2105 9.09770   1
  13 -10   0 82.6290 10.6335   2
 -10  -3   0 85.2650 10.0068   2
  11   2   0 213.815 15.4182   2
   2 -13   0 214.578 15.5857   1
   2 -13   0 203.151 15.3713   2
 -13  11   0 215.714 15.2145   1
  11   2   0 201.311 14.4969   1
 -11  -2   0 206.024 15.9356   2
  13 -11   0 184.369 16.2553   2
  13 -11   0 186.819 15.4443   1
  -2  13   0 214.789 14.1893   1
 -11  -2   0 202.918 15.4972   1
 -13  12   0 16.1883 6.76617   1
   1 -13   0 12.7210 7.23065   1
  12   1   0 10.8183 7.15862   2
  12   1   0 21.0700 6.63061   1
   1 -13   0 23.5160 7.93874   2
  -1  13   0 19.5983 6.14805   1
 -12  -1   0 11.1319 6.71758   1
 -12  -1   0 19.3693 8.16232   2
  13 -12   0 23.0096 8.41260   2
  13 -12   0 34.6644 7.99143   1
 -13  13   0 10.6941 6.63847   1
   0 -13   0 -2.6003 6.79789   1
   0 -13   0 10.8998 8.14961   2
  13   0   0 0.80327 6.64273   1
  13   0   0 1.12230 7.22313   2
   0  13   0 4.31703 5.98047   1
 -13   0   0 3.47275 7.68153   2
  13 -13   0 11.4126 7.54762   1
 -13   0   0 5.39391 6.39016   1
  13 -13   0 7.55346 8.04362   2
  13 -14   0 36.2951 9.50792   2
  13 -14   0 40.3349 9.01836   1
 -14   1   0 58.6875 10.8905   2
   1  13   0 49.1584 7.90059   1
 -14   1   0 45.6078 8.52807   1
  14  -1   0 39.7683 9.06081   2
  -1 -13   0 32.9522 9.34616   2
 -13  14   0 40.7463 7.71523   1
  -1 -13   0 24.5515 8.08919   1
  14  -1   0 41.9703 8.65452   1
 -14   2   0 11.6610 6.80343   1
   2  12   0 17.4273 6.18600   1
  12 -14   0 10.8233 8.35350   2
  12 -14   0 20.8570 8.02328   1
 -14   2   0 18.5701 9.01979   2
  14  -2   0 19.1842 8.14954   2
  -2 -12   0 28.3614 7.43706   1
 -12  14   0 9.86742 6.63193   1
  14  -2   0 13.5940 7.22945   1
  -2 -12   0 5.73923 7.82238   2
  11 -14   0 272.248 18.9605   2
  11 -14   0 270.769 17.8837   1
   3  11   0 280.596 16.3952   1
 -14   3   0 213.808 18.3713   2
  -3 -11   0 255.206 17.2461   1
 -11  14   0 235.304 16.4168   1
  14  -3   0 228.949 18.0841   2
  14  -3   0 244.539 17.4043   1
  -3 -11   0 258.448 18.1306   2
 -14   4   0 112.694 11.5616   2
 -14   4   0 87.7172 9.96319   1
   4  10   0 98.1284 8.77614   1
  10 -14   0 87.5572 10.9294   2
  10 -14   0 88.8800 10.2524   1
  14  -4   0 79.5380 10.2115   2
  -4 -10   0 72.8373 10.2720   2
  -4 -10   0 78.1025 9.38730   1
  14  -4   0 89.7304 9.77969   1
 -10  14   0 64.7297 8.33402   1
 -14   5   0 36.7188 8.08011   1
   9 -14   0 19.1433 8.38233   2
   5   9   0 42.6420 7.00138   1
 -14   5   0 24.9077 8.62531   2
   9 -14   0 34.0481 8.08013   1
  -5  -9   0 27.1510 8.41169   2
  14  -5   0 33.4637 8.48448   2
  -9  14   0 38.7817 6.96066   1
  14  -5   0 38.5106 7.52722   1
  -5  -9   0 44.6268 7.38659   1
   6   8   0 27.6427 6.50996   1
   8 -14   0 27.6444 8.34306   2
   8 -14   0 43.0440 8.03918   1
 -14   6   0 48.6827 8.30076   1
  -6  -8   0 43.2504 8.78050   2
  -6  -8   0 42.2978 7.30609   1
  14  -6   0 60.7636 8.16138   1
  -8  14   0 46.1082 12.9365   6
  14  -6   0 44.2373 8.61681   2
  -8  14   0 32.2780 6.85994   1
   7 -14   0 503.506 27.1773   1
   7 -14   0 489.905 28.3393   2
   7   7   0 501.891 26.1450   1
 -14   7   0 484.378 27.0706   1
  -7  -7   0 516.912 27.9521   2
  -7  14   0 504.336 33.8261   6
  14  -7   0 499.627 26.9378   1
  -7  14   0 501.649 25.9480   1
  -7  -7   0 485.034 26.6963   1
  14  -7   0 480.479 28.1450   2
   6 -14   0 36.5540 8.07826   2
   8   6   0 25.0673 6.37274   1
   6 -14   0 37.6724 7.80172   1
 -14   8   0 31.1178 7.39381   1
   8   6   0 12.0542 7.02360   2
  14  -8   0 22.8736 8.05456   2
  -6  14   0 24.2273 6.44233   1
  -6  14   0 45.4491 13.9563   6
  -8  -6   0 26.3008 7.94184   2
  -8  -6   0 5.10972 6.12072   1
  14  -8   0 23.8540 7.59273   1
 -14   9   0 28.9835 7.50708   1
   5 -14   0 25.9271 7.48779   1
   5 -14   0 18.2453 7.94862   2
   9   5   0 17.6834 6.14998   1
   9   5   0 23.5145 7.40752   2
  -9  -5   0 22.3123 7.91351   2
  -5  14   0 22.0572 6.39353   1
  -9  -5   0 26.0996 7.17393   1
  14  -9   0 29.6691 8.17448   2
  14  -9   0 24.7980 7.33555   1
 -14  10   0 28.2948 7.40445   1
   4 -14   0 26.7228 8.18616   2
  10   4   0 32.8239 8.30085   2
   4 -14   0 30.4111 7.67820   1
  10   4   0 32.6315 6.62657   1
  14 -10   0 16.4118 7.63377   1
  -4  14   0 37.4566 6.60394   1
 -10  -4   0 32.6796 7.39820   1
  14 -10   0 33.8337 8.64790   2
 -10  -4   0 42.3543 8.85136   2
   3 -14   0 21.2546 8.62728   2
  11   3   0 46.9887 9.25112   2
   3 -14   0 38.8651 7.93188   1
  11   3   0 44.7508 7.42145   1
 -14  11   0 25.3126 7.50211   1
  14 -11   0 25.2503 7.89174   1
  -3  14   0 43.1581 7.17571   1
 -11  -3   0 36.0504 7.49986   1
 -11  -3   0 38.7634 9.11256   2
  14 -11   0 29.8586 9.07034   2
  12   2   0 49.3692 9.36961   2
   2 -14   0 49.6353 8.87420   1
   2 -14   0 53.5398 9.95309   2
 -14  12   0 50.9107 8.19556   1
  12   2   0 39.2908 7.54450   1
  14 -12   0 30.4671 9.51404   2
  14 -12   0 43.7329 8.56986   1
 -12  -2   0 39.5828 8.17644   1
  -2  14   0 45.2298 7.32776   1
 -12  -2   0 66.3984 10.2035   2
  13   1   0 39.5306 9.54020   2
   1 -14   0 36.6266 9.38657   2
 -14  13   0 26.1362 7.35526   1
   1 -14   0 41.0267 8.61445   1
  13   1   0 43.0719 8.03789   1
  14 -13   0 27.0797 9.30127   2
 -13  -1   0 40.0819 9.79834   2
 -13  -1   0 28.8088 8.17032   1
  -1  14   0 34.5258 6.94545   1
  14 -13   0 28.3297 8.66083   1
 -14  14   0 -8.0863 6.63246   1
   0 -14   0 -0.3352 8.21954   2
  14   0   0 8.16494 8.42489   2
   0 -14   0 -5.9931 7.35164   1
  14   0   0 2.21313 7.58976   1
 -14   0   0 8.90183 9.26925   2
   0  14   0 -2.2789 6.34574   1
 -14   0   0 5.61532 7.57808   1
  14 -14   0 9.38440 8.85492   2
  14 -14   0 0.31596 7.78080   1
   1  14   0 -3.8141 6.48277   1
  14 -15   0 15.9481 8.83419   1
 -15   1   0 2.24867 7.64090   1
  14 -15   0 11.1834 9.34246   2
 -14  15   0 10.4098 7.07127   1
  -1 -14   0 2.42399 8.07964   1
  -1 -14   0 11.7901 9.49192   2
  15  -1   0 6.71303 8.51864   2
  15  -1   0 12.2252 8.34589   1
   2  13   0 -3.6235 6.40290   1
 -15   2   0 -2.8223 6.74220   1
  13 -15   0 3.68374 8.09688   1
  13 -15   0 -13.866 8.27747   2
  15  -2   0 9.40046 7.85977   1
  -2 -13   0 -5.1670 7.94694   2
  15  -2   0 -3.3122 8.10691   2
  -2 -13   0 -4.2908 7.38077   1
 -13  15   0 -4.7395 6.49108   1
 -15   3   0 36.5305 8.04147   1
  12 -15   0 37.4686 9.02428   1
  12 -15   0 75.8010 11.3884   2
   3  12   0 49.8473 7.65292   1
  -3 -12   0 50.9848 8.78095   1
  15  -3   0 51.7743 9.25084   1
  15  -3   0 65.3800 10.2189   2
 -12  15   0 43.7405 7.64185   1
  -3 -12   0 60.7581 10.4113   2
   4  11   0 13.1258 6.42667   1
  11 -15   0 13.6941 8.04637   1
  11 -15   0 27.1813 9.30321   2
  -4 -11   0 15.4684 6.87235   1
  -4 -11   0 21.2347 8.65979   2
  15  -4   0 12.0098 7.86483   2
 -11  15   0 2.92864 6.62895   1
  15  -4   0 8.09353 7.96428   1
  10 -15   0 4.64893 8.08859   2
 -15   5   0 -8.3164 7.28938   1
   5  10   0 -11.954 5.67633   1
  10 -15   0 -4.7403 7.83528   1
  15  -5   0 1.53665 7.66201   1
 -10  15   0 4.71009 6.37012   1
  -5 -10   0 -2.6155 6.36193   1
  15  -5   0 11.2830 7.59960   2
  -5 -10   0 8.81501 8.51994   2
 -15   6   0 235.233 17.5855   1
   9 -15   0 264.672 18.6760   2
   9 -15   0 209.380 17.8130   1
   6   9   0 218.578 15.8133   1
  -9  15   0 255.028 15.9148   1
  15  -6   0 235.252 16.7881   1
  15  -6   0 243.441 18.6644   2
  -6  -9   0 253.572 19.1609   2
  -6  -9   0 229.851 16.6356   1
   8 -15   0 2.00212 7.97526   2
 -15   7   0 21.3062 7.65216   1
   8 -15   0 -7.5411 6.97970   1
   7   8   0 10.3386 6.17424   1
  -8  15   0 3.78568 6.07387   1
  -7  -8   0 5.90867 6.46502   1
  15  -7   0 23.5902 8.41323   2
  -7  -8   0 12.2788 8.07511   2
  15  -7   0 7.30142 6.81564   1
 -15   8   0 7.46798 7.31966   1
   7 -15   0 5.95292 7.61822   1
   8   7   0 4.96415 6.20434   1
   7 -15   0 5.95607 7.99422   2
  -7  15   0 14.0067 6.42699   1
  -8  -7   0 12.6794 8.41562   2
  15  -8   0 20.9072 8.12511   2
  -8  -7   0 13.2137 6.53985   1
  15  -8   0 4.82350 7.08901   1
   6 -15   0 40.6725 8.79408   1
   9   6   0 42.6656 7.73886   1
 -15   9   0 46.2394 8.37152   1
   6 -15   0 44.3763 9.55432   2
  -9  -6   0 58.3536 10.0819   2
  -6  15   0 37.0277 7.05987   1
  15  -9   0 32.5894 8.54224   1
  -9  -6   0 40.2253 7.82033   1
  15  -9   0 53.0600 9.66988   2
 -15  10   0 70.9048 8.92427   1
   5 -15   0 57.8925 10.3113   2
  10   5   0 59.5401 8.14443   1
   5 -15   0 68.5355 9.61035   1
 -10  -5   0 71.2664 9.19952   1
 -10  -5   0 85.2333 11.1748   2
  15 -10   0 58.5705 10.5620   2
  -5  15   0 54.8533 7.73592   1
  15 -10   0 76.9470 10.1445   1
 -15  11   0 14.8388 7.77116   1
   4 -15   0 32.4066 8.58566   1
  11   4   0 26.5750 7.29569   1
   4 -15   0 38.7668 9.62496   2
  15 -11   0 30.2545 8.76417   1
  -4  15   0 34.5128 6.93376   1
  15 -11   0 19.6107 8.95300   2
 -11  -4   0 27.3670 7.65081   1
 -11  -4   0 32.9797 9.48907   2
 -15  12   0 24.6090 7.80049   1
  12   3   0 18.5202 10.1223   2
   3 -15   0 12.7173 8.75025   2
   3 -15   0 14.4724 7.88618   1
  12   3   0 11.2401 7.00119   1
 -12  -3   0 12.9923 9.03769   2
  -3  15   0 14.7117 6.57556   1
  15 -12   0 21.7343 8.44549   1
  15 -12   0 11.6491 9.01393   2
 -12  -3   0 22.8015 7.50920   1
   2 -15   0 12.1078 9.07189   2
   2 -15   0 30.2765 8.48464   1
 -15  13   0 -0.7328 6.91854   1
  13   2   0 11.1615 9.31061   2
  13   2   0 17.0125 7.46960   1
  15 -13   0 7.87229 9.07140   2
 -13  -2   0 7.93835 7.24031   1
  -2  15   0 14.8611 6.87047   1
  15 -13   0 14.6349 8.33752   1
 -13  -2   0 23.9397 9.53985   2
   1 -15   0 61.8079 10.3516   1
  14   1   0 45.0031 10.6670   2
  14   1   0 54.3566 9.18398   1
   1 -15   0 52.7680 10.6853   2
 -15  14   0 49.1632 8.37806   1
 -14  -1   0 46.0388 8.78330   1
  -1  15   0 52.8688 8.03308   1
  15 -14   0 37.8267 9.62048   1
 -14  -1   0 39.8566 11.1692   2
  15 -14   0 52.2356 10.9019   2
  15   0   0 8.35118 8.62422   1
   0 -15   0 16.4720 9.98757   2
 -15  15   0 25.3680 7.49075   1
   0 -15   0 24.8555 8.99838   1
  15   0   0 22.6025 10.7833   2
   0  15   0 29.6682 7.46680   1
 -15   0   0 21.5521 8.22611   1
  15 -15   0 33.5591 10.8004   2
  15 -15   0 39.8679 9.98313   1
 -16   1   0 9.61619 8.03026   1
   1  15   0 19.1383 7.30785   1
  15 -16   0 20.7558 10.6690   2
  15 -16   0 28.2206 9.69209   1
  16  -1   0 10.8936 9.36663   1
  -1 -15   0 3.31423 8.65473   1
  -1 -15   0 3.80722 10.1388   2
 -16   2   0 20.6233 8.59288   1
   2  14   0 23.2261 7.35142   1
  14 -16   0 10.9663 9.29737   1
  14 -16   0 20.0913 10.2113   2
  -2 -14   0 12.1870 8.73305   1
  16  -2   0 19.4544 9.28017   2
  16  -2   0 26.5591 9.79350   1
  -2 -14   0 8.73665 9.83307   2
 -16   3   0 1.65714 7.21475   1
   3  13   0 11.5497 6.97590   1
  13 -16   0 -4.2387 8.71328   1
  13 -16   0 -3.4167 9.00391   2
 -13  16   0 0.02615 6.52834   1
  16  -3   0 -0.0189 8.44219   1
  -3 -13   0 -7.0061 8.58612   2
  -3 -13   0 7.79881 7.98592   1
  16  -3   0 12.0191 8.95222   2
  12 -16   0 3.57009 9.21493   2
  12 -16   0 -7.6781 8.05306   1
   4  12   0 7.20776 6.53410   1
 -16   4   0 -6.9595 6.82044   1
  -4 -12   0 -0.0116 7.53113   1
  16  -4   0 -1.3453 8.40442   2
  16  -4   0 -1.9303 8.38256   1
 -12  16   0 1.65160 6.59373   1
  -4 -12   0 -2.7639 8.74619   2
   5  11   0 17.1654 6.90297   1
  11 -16   0 20.9599 9.57625   2
  11 -16   0 15.9820 8.65733   1
  -5 -11   0 14.2035 7.45526   1
 -11  16   0 26.4044 7.19302   1
  16  -5   0 19.3598 9.45766   1
  16  -5   0 24.8224 9.54254   2
  -5 -11   0 36.4040 9.88805   2
 -16   6   0 0.51343 7.50409   1
  10 -16   0 7.05511 8.02177   1
   6  10   0 7.39475 6.49546   1
  10 -16   0 -1.9625 8.66271   2
  -6 -10   0 16.1784 9.19843   2
  16  -6   0 12.3152 8.83434   1
 -10  16   0 8.33182 6.59952   1
  16  -6   0 5.34399 8.71389   2
  -6 -10   0 0.69269 7.15625   1
 -16   7   0 3.96357 7.91451   1
   7   9   0 2.14099 6.57172   1
   9 -16   0 12.7258 8.44967   1
   9 -16   0 17.9624 8.77130   2
  -7  -9   0 12.0482 7.31627   1
  16  -7   0 18.1040 7.78149   1
  -7  -9   0 15.4839 9.23246   2
  16  -7   0 20.1251 9.36864   2
  -9  16   0 23.5936 7.02773   1
   8 -16   0 64.5044 10.0654   1
 -16   8   0 72.7888 9.89619   1
   8   8   0 75.2546 8.65162   1
   8 -16   0 69.6227 11.3126   2
  -8  -8   0 96.5287 12.1071   2
  16  -8   0 67.0413 9.85309   1
  -8  16   0 78.5543 8.49794   1
  -8  -8   0 78.4988 9.79913   1
  16  -8   0 66.2790 11.2437   2
 -16   9   0 5.25743 7.54944   1
   9   7   0 8.52847 6.74130   1
   7 -16   0 15.7247 8.95680   2
   7 -16   0 12.8349 8.01402   1
  -9  -7   0 9.97844 9.32692   2
  -7  16   0 -6.6156 5.98840   1
  16  -9   0 -3.8131 8.28268   2
  -9  -7   0 0.04913 6.56117   1
  16  -9   0 -8.6663 7.23436   1
  10   6   0 10.0089 6.97823   1
   6 -16   0 16.4246 8.27280   1
 -16  10   0 -0.5054 7.42849   1
   6 -16   0 -11.795 7.93453   2
  16 -10   0 6.48523 8.16784   1
  -6  16   0 -0.9570 5.96063   1
 -10  -6   0 10.5142 9.28724   2
  16 -10   0 7.37726 9.25183   2
 -10  -6   0 2.06495 6.81735   1
   5 -16   0 37.4676 9.30676   1
  11   5   0 15.4559 7.33120   1
   5 -16   0 10.8889 9.64778   2
 -16  11   0 6.98425 7.62413   1
  -5  16   0 20.8203 6.57403   1
 -11  -5   0 25.3257 7.68902   1
 -11  -5   0 23.6882 9.59606   2
  16 -11   0 9.69703 8.73909   2
  16 -11   0 23.8753 8.87086   1
  12   4   0 -3.6896 6.71700   1
   4 -16   0 13.7874 9.52442   2
 -16  12   0 -0.6578 7.32506   1
   4 -16   0 -9.6322 7.17963   1
  16 -12   0 13.2692 8.51918   1
 -12  -4   0 0.25763 6.89961   1
  -4  16   0 1.10777 6.09347   1
 -12  -4   0 13.3417 9.83482   2
  16 -12   0 1.83678 9.02094   2
  13   3   0 0.38343 7.57405   1
 -16  13   0 -1.1255 7.32365   1
   3 -16   0 14.3130 8.55007   1
   3 -16   0 5.28419 9.13267   2
  16 -13   0 -3.7603 8.22555   1
  16 -13   0 -10.351 9.33949   2
 -13  -3   0 9.31471 7.90881   1
  -3  16   0 16.5507 6.72470   1
 -13  -3   0 23.0697 10.5769   2
 -16  14   0 -2.8038 7.08242   1
  14   2   0 15.9262 8.15709   1
   2 -16   0 13.0289 8.76259   1
   2 -16   0 34.0778 11.0022   2
  -2  16   0 17.5831 6.87138   1
  16 -14   0 20.7361 10.8249   2
 -14  -2   0 18.8021 8.25585   1
 -14  -2   0 10.5752 10.3750   2
  16 -14   0 0.71218 8.74669   1
  15   1   0 5.80188 8.58240   1
 -16  15   0 11.5966 7.29607   1
   1 -16   0 14.2305 10.3850   2
   1 -16   0 10.5983 9.03642   1
  16 -15   0 9.78399 10.5980   2
  16 -15   0 2.09205 8.95777   1
 -15  -1   0 15.1786 8.24932   1
  16   0   0 4.91647 9.19322   1
   0 -16   0 4.20813 9.25158   1
   0 -16   0 1.03487 9.80005   2
  16 -16   0 19.7887 9.59735   1
 -16   0   0 15.3980 8.40374   1
  16 -16   0 -3.4758 10.5478   2
 -17   1   0 50.7904 9.88505   1
  16 -17   0 30.4507 10.6645   1
  16 -17   0 35.6002 12.1674   2
  17  -1   0 48.2597 11.3528   1
  -1 -16   0 55.0352 11.1486   1
  -1 -16   0 83.5909 13.6374   2
 -17   2   0 0.83298 8.02455   1
  15 -17   0 -8.7294 9.65006   2
  15 -17   0 -11.355 9.19275   1
   2  15   0 9.48961 7.17506   1
  -2 -15   0 -0.5129 8.93588   1
  -2 -15   0 -2.4430 10.5331   2
  17  -2   0 14.4100 10.2123   1
 -17   3   0 8.89576 8.65071   1
   3  14   0 16.8134 7.47083   1
  14 -17   0 -3.1403 9.34966   1
  14 -17   0 1.76522 10.1103   2
  17  -3   0 10.3113 9.98285   1
  -3 -14   0 20.2081 10.2899   2
  -3 -14   0 8.65087 8.88124   1
  17  -3   0 18.4643 10.0426   2
 -17   4   0 27.7979 8.49902   1
  13 -17   0 4.98312 9.06771   1
  13 -17   0 19.8768 10.5487   2
   4  13   0 22.0509 7.75459   1
  17  -4   0 13.8747 10.0513   2
  -4 -13   0 26.6774 10.7446   2
  -4 -13   0 26.1860 9.13895   1
  17  -4   0 40.0633 10.4202   1
  12 -17   0 9.54199 9.81931   2
   5  12   0 13.3494 7.28271   1
 -17   5   0 13.1491 7.67368   1
  12 -17   0 12.5972 9.35363   1
  -5 -12   0 15.7185 8.39130   1
  17  -5   0 20.6840 10.0221   2
  17  -5   0 23.6269 9.71166   1
  -5 -12   0 2.41267 10.2100   2
  11 -17   0 13.3768 8.68148   1
  11 -17   0 4.54570 9.85737   2
   6  11   0 1.71898 7.11146   1
  17  -6   0 13.0636 10.1873   1
  -6 -11   0 11.2914 9.96895   2
  -6 -11   0 5.47265 7.43147   1
  17  -6   0 18.1739 9.83441   2
 -17   7   0 -6.5683 7.52563   1
  10 -17   0 2.17067 9.57029   2
  10 -17   0 -9.7984 8.17118   1
   7  10   0 4.68658 7.06199   1
  -7 -10   0 -18.678 9.20050   2
  -7 -10   0 1.94610 7.29749   1
  17  -7   0 -1.2941 9.70995   1
  17  -7   0 5.33535 8.98414   2
 -17   8   0 18.0622 8.41807   1
   9 -17   0 23.6192 9.11813   1
   9 -17   0 22.0655 9.91588   2
   8   9   0 35.1408 7.67352   1
  -8  -9   0 19.4561 8.24240   1
  17  -8   0 32.4053 8.89909   1
  17  -8   0 30.2307 10.3489   2
  -8  -9   0 20.5127 9.81803   2
   9   8   0 0.91991 6.61625   1
   8 -17   0 -1.7050 9.16009   2
   8 -17   0 5.60796 8.36120   1
 -17   9   0 10.2671 8.15842   1
  17  -9   0 19.4760 9.73896   2
  -9  -8   0 12.7112 7.63415   1
  -9  -8   0 9.78870 9.71973   2
  17  -9   0 7.57867 8.07147   1
  -8  17   0 9.51083 6.37913   1
 -17  10   0 8.08151 7.95428   1
  10   7   0 5.03693 7.30943   1
   7 -17   0 13.0389 8.84044   1
   7 -17   0 3.90666 9.50732   2
  17 -10   0 -5.5964 9.22517   2
 -10  -7   0 -3.2035 9.34558   2
 -10  -7   0 0.53424 7.21724   1
  17 -10   0 13.6499 8.68077   1
  11   6   0 8.92917 7.46262   1
   6 -17   0 -1.8761 8.45294   1
 -17  11   0 8.20807 8.09015   1
   6 -17   0 12.6402 9.96053   2
 -11  -6   0 9.39427 9.90191   2
  17 -11   0 -4.8943 9.73481   2
  17 -11   0 -1.9156 8.49186   1
 -11  -6   0 -1.4668 7.15140   1
  12   5   0 3.38622 7.66608   1
   5 -17   0 7.31545 10.1144   2
 -17  12   0 9.26915 8.05253   1
   5 -17   0 0.73928 8.77905   1
 -12  -5   0 6.91116 7.67428   1
 -12  -5   0 9.60738 10.4971   2
  17 -12   0 27.5084 10.5157   2
  17 -12   0 -3.8402 8.90537   1
  13   4   0 63.0654 9.91323   1
   4 -17   0 61.5886 11.0816   1
   4 -17   0 66.8149 12.8087   2
 -17  13   0 57.4377 9.50259   1
 -13  -4   0 53.9792 9.48255   1
 -13  -4   0 77.9159 13.4470   2
  17 -13   0 81.5607 11.8526   1
  17 -13   0 79.9383 12.9948   2
 -17  14   0 8.86221 7.98572   1
   3 -17   0 7.74920 10.3026   2
   3 -17   0 11.3941 8.92723   1
  14   3   0 18.3639 8.93980   1
 -14  -3   0 10.2845 7.76250   1
 -14  -3   0 13.4156 13.0184   2
  17 -14   0 16.5401 9.94638   1
  17 -14   0 12.6392 10.6481   2
   2 -17   0 -7.5938 8.71373   1
  15   2   0 12.6363 9.19142   1
   2 -17   0 -1.3793 10.4293   2
  17 -15   0 3.31095 9.29919   1
  17 -15   0 -2.5348 10.5546   2
 -15  -2   0 -4.0846 7.70846   1
   1 -17   0 19.4728 11.4563   2
   1 -17   0 13.0972 9.44785   1
  16   1   0 15.1736 9.74378   1
  17 -16   0 -2.4296 9.41300   1
 -16  -1   0 16.8263 8.27435   1
  17 -16   0 3.87598 11.2927   2
  14 -18   0 4.85461 10.7325   2
   4  14   0 4.79609 7.46567   1
  14 -18   0 -14.458 9.25655   1
 -18   4   0 -0.0699 8.42247   1
  -4 -14   0 11.1617 9.17846   1
  18  -4   0 -7.3101 9.80820   1
  -4 -14   0 -0.4777 10.4316   2
  18  -4   0 -15.747 9.83491   2
  13 -18   0 -6.1302 10.6332   2
  13 -18   0 -6.0047 9.02154   1
 -18   5   0 -5.8469 7.85348   1
   5  13   0 2.45819 7.36510   1
  -5 -13   0 10.5931 8.92425   1
  18  -5   0 -2.5528 9.98773   2
  18  -5   0 0.02403 10.0190   1
  -5 -13   0 -18.823 9.88506   2
  12 -18   0 17.4827 10.9637   2
  12 -18   0 41.9863 10.5030   1
   6  12   0 35.5808 8.39621   1
 -18   6   0 40.3806 8.98080   1
  18  -6   0 33.2612 11.1516   2
  -6 -12   0 46.6934 12.1038   2
  -6 -12   0 22.6639 9.13206   1
  18  -6   0 34.3392 11.7511   1
  11 -18   0 27.9817 10.3059   1
 -18   7   0 22.7213 8.10484   1
   7  11   0 35.8860 8.46595   1
  11 -18   0 27.8907 11.0889   2
  -7 -11   0 49.6008 9.17256   1
  18  -7   0 37.4183 11.6790   1
  18  -7   0 35.7481 11.4503   2
  -7 -11   0 22.9195 11.5275   2
   8  10   0 12.5933 7.48633   1
  10 -18   0 40.8266 11.5391   2
  10 -18   0 16.2941 9.69589   1
  18  -8   0 3.19370 10.9684   1
  -8 -10   0 20.1672 8.57435   1
  18  -8   0 31.8396 11.4705   2
  -8 -10   0 40.4396 12.0608   2
   9   9   0 10.3729 7.61495   1
   9 -18   0 -2.4007 9.06516   1
   9 -18   0 3.64493 10.0045   2
 -18   9   0 -5.4686 7.68574   1
  18  -9   0 12.4508 10.4791   2
  -9  -9   0 13.0383 10.9419   2
  -9  -9   0 7.81856 8.03778   1
  18  -9   0 10.5000 9.04703   1
   8 -18   0 20.6557 10.7829   2
   8 -18   0 15.4103 9.58628   1
 -18  10   0 12.0297 8.23724   1
  10   8   0 14.1360 7.59858   1
 -10  -8   0 7.10297 7.88082   1
  18 -10   0 16.9351 9.19246   1
  18 -10   0 13.8784 10.5957   2
 -10  -8   0 10.4299 10.4811   2
  11   7   0 7.76728 8.08387   1
 -18  11   0 6.84002 8.43747   1
   7 -18   0 -1.1961 8.68811   1
   7 -18   0 12.1326 10.8329   2
 -11  -7   0 -5.3128 10.4968   2
  18 -11   0 36.5319 11.4787   2
 -11  -7   0 24.1427 8.57739   1
  18 -11   0 19.6877 9.22435   1
 -18  12   0 64.0839 9.61173   1
  12   6   0 77.6415 10.3035   1
   6 -18   0 72.7236 13.1037   2
   6 -18   0 49.1279 11.0080   1
 -12  -6   0 44.4806 9.67047   1
 -12  -6   0 55.2181 12.8467   2
  18 -12   0 52.7543 11.1721   1
  18 -12   0 47.8780 12.2812   2
  13   5   0 5.27459 8.35664   1
   5 -18   0 -1.3351 10.6061   2
   5 -18   0 13.3938 9.91318   1
 -18  13   0 -3.1556 7.65543   1
  18 -13   0 6.67589 10.6579   2
 -13  -5   0 0.17655 7.86432   1
  18 -13   0 -0.6010 9.35016   1
 -13  -5   0 12.8193 11.2448   2
  14   4   0 8.71580 8.80793   1
 -18  14   0 6.10721 7.77032   1
   4 -18   0 15.6574 11.4521   2
   4 -18   0 -1.5965 9.57309   1
 -14  -4   0 -1.2456 7.85745   1
  18 -14   0 10.0439 11.2519   2
  18 -14   0 6.71755 9.82243   1
   7  12   0 2.94228 7.57678   1
  12 -19   0 11.3646 9.77906   1
  12 -19   0 3.53215 10.8074   2
  19  -7   0 15.5073 11.9215   1
  -7 -12   0 0.17934 11.2699   2
  19  -7   0 9.64141 10.8886   2
  11 -19   0 24.9325 11.4602   2
  11 -19   0 37.8813 10.6797   1
 -19   8   0 35.3754 8.70429   1
   8  11   0 37.0482 8.61455   1
  -8 -11   0 26.9762 9.08389   1
  19  -8   0 34.5904 12.3055   1
  -8 -11   0 23.8587 12.1974   2
  19  -8   0 42.8223 12.5105   2
 -19   9   0 8.34252 7.32007   1
  10 -19   0 -4.7487 9.57985   1
   9  10   0 7.62066 7.95748   1
  10 -19   0 11.0610 11.3586   2
  -9 -10   0 3.78929 11.5428   2
  19  -9   0 19.9880 12.1960   1
  -9 -10   0 3.40818 8.17602   1
  19  -9   0 -0.4279 10.7784   2
  10   9   0 27.5029 8.44032   1
   9 -19   0 0.97962 11.0927   2
   9 -19   0 14.4615 10.2773   1
 -10  -9   0 17.1200 8.86847   1
  19 -10   0 26.6232 11.6494   2
 -10  -9   0 8.88160 11.6920   2
  19 -10   0 0.54856 9.26642   1
   8 -19   0 53.3674 10.9868   1
   8 -19   0 8.55052 11.4986   2
  11   8   0 29.3335 8.50911   1
  19 -11   0 14.8246 11.7458   2
 -11  -8   0 31.0668 11.7564   2
 -11  -8   0 29.5673 9.11378   1
  19 -11   0 32.2639 10.1785   1
 -19  12   0 -8.7016 7.69566   1
   7 -19   0 8.32074 11.3281   2
  12   7   0 9.56859 8.12394   1
  19 -12   0 16.9577 9.62514   1
 -12  -7   0 -16.288 10.9196   2
   0   0  -1 18.8471 2.34087   3
   0   1  -1 62.6788 3.65567   3
  -1   0  -1 60.2383 3.61109   7
   1  -1  -1 58.6992 4.77253   3
  -1   1   1 51.6024 4.53949   3
   0  -1   1 44.5161 3.96015   5
  -1   1   1 49.7755 3.61341   5
   0  -1   1 50.4846 3.77512   7
   1   0   1 45.2560 3.57353   7
   0  -1   1 51.2404 3.41049   3
   0  -1  -1 1871.74 84.8930   6
  -1   1  -1 1871.59 84.6014   7
   0   1   1 1845.80 85.0525   3
  -1   0   1 1890.14 84.9341   3
   1  -1   1 1826.80 84.6321   7
  -1   0   1 1861.24 84.4172   7
  -1   0   1 1828.37 84.6152   5
  -1   2  -1 184.844 9.98739   7
  -1  -1  -1 178.065 10.0904   6
   1   1   1 188.071 10.1069   6
  -2   1   1 183.232 9.43531   7
   1  -2   1 191.116 9.56145   5
   1   1   1 173.485 9.39776   7
  -2  -1  -1 641.981 33.2264   9
  -2  -1  -1 653.002 33.8020   7
  -1   3  -1 646.964 34.1297   7
  -3   2   1 756.590 33.8854   7
   2   1   1 753.972 33.9662   7
   1  -3   1 785.036 34.3910   7
   2   1   1 773.219 34.2137   6
   2  -2  -1 501.641 23.9438   3
  -2   0  -1 504.486 22.8716   6
  -2   0  -1 516.974 23.1544   7
   0   2  -1 519.630 23.3176   7
  -2   2   1 451.999 22.7281   7
  -2   2   1 442.554 23.6835   3
   2   0   1 469.369 23.0678   7
  -2   2   1 449.102 22.3567   5
   0  -2   1 474.573 23.3345   7
  -2   1  -1 211.847 10.7797   7
   1  -2  -1 213.851 10.8126   6
   1  -2  -1 199.928 11.1138   3
  -1   2   1 200.293 10.0767   7
  -1   2   1 189.411 9.95203   7
  -1   2   1 196.666 10.9383   6
  -1  -1   1 193.507 10.5706   7
   2  -1   1 199.435 10.6764   7
  -1   2   1 187.555 11.0140   3
  -2   2  -1 142.736 9.63567   7
   0  -2  -1 134.953 9.62902   6
   0  -2  -1 146.488 9.91234   3
   0   2   1 176.974 8.88589   7
  -2   0   1 191.293 9.26983   7
   0   2   1 190.092 10.2036   6
   0   2   1 182.334 9.00773   7
  -2   3  -1 1976.12 87.1992   7
   1   2   1 1829.00 86.5458   7
   2  -3   1 1906.60 87.1834   7
  -3   1   1 1863.06 86.6616   7
   1   2   1 1876.24 87.2756   6
   2  -3   1 1878.50 86.1939   5
  -2   4  -1 1491.80 67.3236   7
  -2  -2  -1 1490.50 66.8171   7
   2  -4   1 1370.54 65.6751   1
   2   2   1 1426.18 66.7863   7
   2   2   1 1438.95 65.3527   1
   2   2   1 1413.51 67.3722   6
   2  -4   1 1419.59 67.2392   7
  -4   2   1 1435.65 66.8655   7
  -3  -2  -1 644.488 32.6273   7
  -2   5  -1 629.565 33.1920   7
  -2   5  -1 660.462 31.2329   1
   3   2   1 700.933 33.5348   6
   2  -5   1 686.963 31.3369   1
  -5   3   1 670.433 30.8939   1
  -5   3   1 675.997 32.8601   7
   3   2   1 644.659 30.8162   1
   2  -5   1 693.884 33.4321   7
  -3  -1  -1 1715.92 79.1014   7
   4  -3  -1 1667.97 78.2669   6
  -1   4  -1 1674.60 79.3631   7
   1  -4   1 1752.93 79.4541   7
   1  -4   1 1708.43 77.8255   1
  -4   3   1 1734.99 79.0550   7
   3   1   1 1653.54 77.4989   1
  -4   3   1 1696.55 77.3893   1
   1  -4   1 1713.93 79.4709   7
   3   1   1 1727.09 78.9739   6
   3  -3  -1 378.036 19.2479   6
   0   3  -1 372.493 19.7920   7
  -3   0  -1 363.966 19.5583   7
  -3   0  -1 389.220 19.2828   6
  -3   0  -1 383.059 18.9632   9
  -3   3   1 405.358 19.6370   7
   0  -3   1 421.646 20.0513   7
  -3   3   1 378.857 20.3530   3
   3   0   1 390.816 18.9531   6
   0  -3   1 395.018 18.4638   1
   3   0   1 376.817 18.1672   1
   0  -3   1 410.486 20.1038   7
   2  -3  -1 251.832 14.3392   3
   2  -3  -1 259.008 13.8318   6
  -3   1  -1 253.252 13.8881   7
  -3   1  -1 244.023 12.5423   6
  -1  -2   1 255.595 13.8321   7
  -2   3   1 262.691 13.9388   6
  -2   3   1 263.160 14.3766   3
  -2   3   1 265.073 13.5213   7
   1  -3  -1 2227.91 106.092   6
   1  -3  -1 2260.83 105.975   3
  -3   2  -1 2284.23 105.971   7
  -1   3   1 2290.55 105.980   3
  -1   3   1 2341.39 105.419   7
  -1   3   1 2311.66 105.425   7
  -1   3   1 2314.83 106.154   6
  -2  -1   1 2408.59 105.808   7
   0  -3  -1 9999.99 439.364   3
  -3   3  -1 9638.52 439.326   7
  -3   0   1 9804.78 437.786   1
   0   3   1 9671.85 438.726   7
   0   3   1 9898.31 438.793   7
  -3   0   1 9605.73 438.931   7
   3  -3   1 9500.20 437.879   1
   3  -3   1 9595.01 439.298   7
   0   3   1 9428.06 439.550   6
  -3   4  -1 1814.11 85.7591   7
   1   3   1 1849.12 83.6420   1
  -4   1   1 1841.69 83.8443   1
   3  -4   1 1835.34 85.7761   7
   3  -4   1 1835.14 84.2225   5
   1   3   1 1836.91 86.2374   6
   3  -4   1 1852.86 84.1030   1
   1   3   1 1877.97 85.1952   7
  -4   1   1 1840.48 85.3094   7
  -3   5  -1 1190.53 52.8380   3
  -3   5  -1 1174.96 52.5535   1
  -2  -3  -1 1172.69 53.9847   7
  -3   5  -1 1185.76 54.6254   7
   2   3   1 1082.60 53.7962   7
   3  -5   1 1109.15 52.5124   1
  -5   2   1 1145.33 52.2369   1
  -5   2   1 1108.84 53.9628   7
   2   3   1 1107.87 52.0337   1
   2   3   1 1106.13 55.0122   6
  -3   6  -1 51.3344 4.77516   1
  -3  -3  -1 58.7282 5.15152   2
   6  -3  -1 62.1725 4.99839   2
  -3   6  -1 44.2657 6.25292   7
  -3  -3  -1 52.2153 6.23153   7
   3  -6   1 56.1288 4.83743   1
  -6   3   1 71.5925 6.83297   7
  -6   3   1 63.4303 4.97187   1
   3   3   1 61.5546 4.51764   1
  -4  -3  -1 526.872 25.9552   7
   7  -4  -1 510.590 23.8948   2
   7  -4  -1 489.219 23.3747   6
   7  -4  -1 504.391 23.4489   1
  -4  -3  -1 487.611 23.4019   1
  -3   7  -1 503.418 23.6715   1
  -3   7  -1 508.220 24.0691   2
  -4  -3  -1 491.872 23.8325   2
   3  -7   1 480.074 24.1170   2
  -7   4   1 460.040 25.9638   7
   4   3   1 453.409 25.5379   7
  -7   4   1 469.569 23.2395   1
   3  -7   1 463.928 23.6290   1
   4   3   1 456.721 23.0094   1
   3  -7   1 456.235 26.1574   7
   6  -4  -1 521.828 24.4349   6
  -4  -2  -1 517.977 24.5097   2
   6  -4  -1 517.656 24.4523   2
  -2   6  -1 528.296 26.7770   7
  -4  -2  -1 521.669 24.1458   1
  -2   6  -1 527.933 24.2763   1
  -4  -2  -1 524.184 26.2914   7
   2  -6   1 482.760 26.5257   7
   4   2   1 484.848 23.7782   1
   2  -6   1 486.462 24.2528   1
   4   2   1 485.982 26.6670   6
  -6   4   1 482.323 23.8196   1
  -6   4   1 474.889 26.3571   7
  -4  -1  -1 329.676 18.5976   7
  -1   5  -1 316.680 18.9099   7
  -1   5  -1 323.924 16.7626   1
   5  -4  -1 298.627 17.3183   6
   4   1   1 355.434 16.5539   1
   4   1   1 365.944 18.5321   6
   1  -5   1 361.793 16.9764   1
  -5   4   1 343.730 16.4058   1
   1  -5   1 385.705 19.4373   7
  -5   4   1 370.601 18.9920   7
   4  -4  -1 233.317 12.7199   6
   0   4  -1 240.594 11.5502   1
  -4   0  -1 244.212 12.4648   9
  -4   0  -1 235.313 13.2884   7
   0   4  -1 234.323 13.6322   7
   4   0   1 209.713 11.2688   1
  -4   4   1 229.002 13.5192   7
  -4   4   1 214.066 14.1071   3
   0  -4   1 234.637 13.6378   7
   0  -4   1 219.513 13.6997   7
   4   0   1 216.924 12.2771   6
   0  -4   1 216.941 11.6209   1
  -4   1  -1 1548.10 71.8388   9
  -4   1  -1 1543.79 72.6882   7
   3  -4  -1 1522.03 72.9790   3
   3  -4  -1 1535.55 72.5578   6
   4  -1   1 1545.31 72.7022   7
  -3   4   1 1555.20 72.5117   7
  -1  -3   1 1579.93 71.2266   1
  -3   4   1 1548.70 72.4752   6
  -1  -3   1 1639.83 72.9405   7
  -3   4   1 1561.27 73.0545   3
  -1  -3   1 1624.98 72.8076   7
   4  -1   1 1503.25 71.0555   1
  -4   2  -1 2993.72 141.930   7
   2  -4  -1 3019.37 141.910   3
  -2   4   1 3098.69 141.948   3
   4  -2   1 3153.96 142.062   7
   4  -2   1 3068.60 140.343   1
  -2   4   1 3066.72 142.065   6
  -2  -2   1 3151.50 140.425   1
  -2   4   1 3111.85 141.566   7
  -2  -2   1 3160.39 141.895   7
   1  -4  -1 1609.61 73.8181   3
  -4   3  -1 1635.53 74.1262   7
  -1   4   1 1518.40 74.3213   6
   4  -3   1 1659.94 74.2288   7
  -3  -1   1 1558.39 73.6359   7
  -3  -1   1 1615.30 72.2319   1
  -1   4   1 1578.46 73.4485   7
   4  -3   1 1534.73 72.2226   1
  -1   4   1 1539.09 73.3649   7
  -1   4   1 1576.96 73.8033   3
  -4   4  -1 341.628 21.1355   7
   0  -4  -1 345.547 20.9192   3
  -4   4  -1 332.304 19.2854   1
   4  -4   1 414.498 21.4934   7
  -4   0   1 438.202 19.1368   1
   4  -4   1 427.627 19.3435   1
   0   4   1 419.216 20.7183   7
   0   4   1 419.613 22.5577   6
   0   4   1 419.432 18.6564   1
  -4   0   1 426.885 20.9191   7
   0   4   1 413.507 20.6682   7
  -4   5  -1 474.190 21.4687   1
  -4   5  -1 473.021 23.8505   7
   1   4   1 430.149 24.7349   6
   1   4   1 434.564 22.9439   7
   4  -5   1 446.288 21.3718   1
   1   4   1 433.783 20.7454   1
  -5   1   1 411.398 22.9605   7
  -5   1   1 445.134 21.0692   1
   4  -5   1 436.818 21.2146   5
   6  -2  -1 136.880 8.52058   2
  -4   6  -1 154.189 9.51697   3
   6  -2  -1 154.032 8.26865   1
  -4   6  -1 163.579 11.6633   7
  -2  -4  -1 145.085 14.4396   7
  -4   6  -1 149.113 8.52777   1
  -2  -4  -1 137.976 8.40972   2
  -6   2   1 140.786 10.5924   7
   4  -6   1 128.682 8.44759   1
   2   4   1 116.878 9.82552   7
   2   4   1 125.500 7.57784   1
  -6   2   1 135.194 8.12494   1
   7  -3  -1 820.486 37.8655   1
  -3  -4  -1 759.543 37.7934   1
   7  -3  -1 808.842 38.2841   2
  -3  -4  -1 811.652 40.1477   7
  -4   7  -1 792.000 40.8728   7
  -3  -4  -1 817.383 38.3357   2
  -4   7  -1 792.199 38.0797   1
  -4   7  -1 767.435 38.4970   2
  -4   7  -1 775.890 38.5116   3
  -7   3   1 836.906 37.7943   1
   4  -7   1 852.094 38.6574   2
   3   4   1 824.717 37.5150   1
  -7   3   1 847.643 40.5656   7
   4  -7   1 804.280 38.0428   1
  -4   8  -1 227.952 11.8946   1
  -4   8  -1 212.804 12.0951   3
  -4  -4  -1 242.504 11.5519   1
  -4   8  -1 226.303 12.5011   2
  -4  -4  -1 232.941 12.0126   2
  -4   8  -1 203.411 15.1871   7
   8  -4  -1 209.885 11.8689   2
   8  -4  -1 249.721 11.7055   1
   4  -8   1 177.345 14.5043   7
   4   4   1 173.374 14.1015   7
  -8   4   1 171.280 14.4478   7
   4   4   1 184.041 10.8167   1
  -8   4   1 169.519 11.2083   1
   4  -8   1 182.481 12.2315   2
   4  -8   1 170.674 11.6761   1
  -5  -4  -1 111.144 8.77084   2
   9  -5  -1 122.517 9.43242   2
  -4   9  -1 113.924 9.07402   1
   9  -5  -1 116.629 8.70978   1
  -4   9  -1 127.725 9.79171   2
  -9   5   1 124.172 8.74214   1
  -9   5   1 114.791 9.16444   2
   4  -9   1 116.452 9.08054   1
   5   4   1 134.530 8.25515   1
  -9   5   1 127.448 12.0676   7
   4  -9   1 113.382 9.28300   2
   5   4   1 120.567 8.91583   2
  -3   8  -1 116.492 8.54970   1
   8  -5  -1 127.172 8.86518   2
   8  -5  -1 109.070 7.87623   6
  -3   8  -1 116.329 9.07284   2
   8  -5  -1 121.262 8.38817   1
  -3   8  -1 119.160 11.9632   7
  -5  -3  -1 110.494 8.11624   1
  -5  -3  -1 117.099 8.77079   2
  -8   5   1 124.457 8.16114   1
   3  -8   1 123.830 8.57738   1
  -8   5   1 147.894 12.3134   7
   5   3   1 128.247 7.74306   1
   3  -8   1 136.434 9.13284   2
   3  -8   1 128.526 11.7669   7
   5   3   1 141.191 15.3064   7
  -2   7  -1 700.202 33.7935   1
   7  -5  -1 708.580 34.0299   6
  -5  -2  -1 686.524 33.7369   1
   7  -5  -1 737.847 34.2215   2
  -2   7  -1 659.542 36.3932   7
  -5  -2  -1 696.253 36.1130   7
   7  -5  -1 715.526 33.6927   1
  -5  -2  -1 697.907 34.1218   2
  -2   7  -1 717.436 34.3769   2
  -7   5   1 726.505 33.4023   1
   5   2   1 709.000 33.3614   1
   2  -7   1 744.809 34.3655   2
   5   2   1 692.323 36.2728   6
   2  -7   1 726.847 36.6880   7
  -7   5   1 731.206 36.5303   7
   5   2   1 736.263 36.2792   7
   2  -7   1 723.676 33.8674   1
  -5  -1  -1 654.311 30.4318   2
   6  -5  -1 688.724 30.5265   2
  -1   6  -1 676.026 30.1495   1
  -1   6  -1 652.612 32.5311   7
   6  -5  -1 668.242 30.9327   6
  -1   6  -1 685.453 30.8071   2
  -5  -1  -1 659.672 32.3633   7
  -5  -1  -1 681.885 30.2087   1
  -6   5   1 589.572 29.6354   1
   1  -6   1 620.916 30.7247   2
   1  -6   1 618.366 32.6006   7
  -6   5   1 620.251 32.4300   7
   5   1   1 555.465 31.8775   7
   1  -6   1 613.445 30.1954   1
   5   1   1 591.473 31.5837   6
   5   1   1 589.089 29.7407   1
  -5   0  -1 94.2619 6.66227   1
   5  -5  -1 93.4268 8.05872   6
  -5   0  -1 99.6840 6.73560   2
   0   5  -1 98.5473 6.44297   1
  -5   0  -1 89.0474 8.51000   7
   0   5  -1 89.4194 8.76806   7
   5  -5  -1 88.1588 6.65879   2
   5   0   1 93.4294 6.10664   1
   5   0   1 108.484 7.51212   6
   0  -5   1 91.9477 9.02579   7
  -5   5   1 93.4132 9.19202   7
   5   0   1 109.851 8.73357   7
   0  -5   1 101.786 6.60071   1
  -5   5   1 103.016 5.90404   1
  -5   5   1 90.3500 9.22017   3
  -5   1  -1 69.0492 5.86218   1
   1   4  -1 80.4829 5.38101   1
  -5   1  -1 72.7355 7.02432   7
  -5   1  -1 78.0010 6.86895   9
   5  -1   1 75.0946 5.23094   6
   5  -1   1 73.6000 7.76449   7
  -4   5   1 73.5414 7.77746   3
  -4   5   1 71.9324 4.71352   1
  -4   5   1 79.1464 7.92906   6
  -4   5   1 80.3735 7.70936   7
   5  -1   1 66.5709 5.25037   1
  -1  -4   1 82.9229 7.99789   7
  -1  -4   1 78.5547 5.57505   1
  -5   2  -1 201.636 12.3895   7
   3  -5  -1 203.495 12.4508   3
   2   3  -1 202.756 9.76246   1
  -5   2  -1 194.714 11.0535   9
  -5   2  -1 207.166 10.2745   1
  -3   5   1 180.323 12.3854   6
  -3   5   1 175.774 12.2333   3
  -2  -3   1 178.376 9.80750   1
  -3   5   1 172.176 12.0137   7
   5  -2   1 165.084 9.61634   1
  -2  -3   1 167.460 11.7813   7
   5  -2   1 167.707 11.8746   7
  -5   3  -1 617.323 32.3828   7
  -5   3  -1 604.272 32.9093   9
   3   2  -1 631.961 30.1756   1
  -5   3  -1 625.316 30.4431   1
   2  -5  -1 619.369 31.9563   3
  -3  -2   1 662.279 30.2675   1
  -3  -2   1 688.627 32.2303   7
   5  -3   1 655.455 32.5289   7
  -2   5   1 636.262 31.9028   7
  -2   5   1 655.566 31.9173   7
  -2   5   1 677.866 32.1976   3
   5  -3   1 664.170 30.2601   1
  -2   5   1 640.476 32.7848   6
   4   1  -1 1290.63 55.5067   1
   1  -5  -1 1253.64 57.2906   3
  -5   4  -1 1257.23 57.9090   7
  -5   4  -1 1252.36 55.7596   1
   5  -4   1 1122.05 55.4577   1
  -1   5   1 1176.67 55.0097   1
  -4  -1   1 1220.44 55.5147   1
  -1   5   1 1167.14 58.4052   6
  -1   5   1 1166.35 57.0487   7
  -4  -1   1 1182.73 57.2661   7
  -1   5   1 1179.54 57.0746   7
  -5   5  -1 107.151 7.27754   1
   0  -5  -1 127.582 9.67127   3
   0  -5  -1 105.070 6.98451   2
   5   0  -1 111.411 6.70769   1
  -5   5  -1 122.347 10.1452   7
   5   0  -1 114.972 6.96274   2
   0   5   1 93.8288 8.77803   7
  -5   0   1 95.9386 8.82984   7
   0   5   1 98.7240 10.7202   6
   5  -5   1 93.3337 7.03142   1
   0   5   1 102.638 6.11444   1
   0   5   1 95.8850 8.94271   7
  -5   0   1 101.667 6.63230   1
  -5   6  -1 1151.33 55.0395   7
  -5   6  -1 1168.13 53.7449   2
  -5   6  -1 1154.80 52.3936   1
   6  -1  -1 1212.91 52.6004   2
  -1  -5  -1 1126.27 52.4221   2
   6  -1  -1 1164.64 52.0870   1
   5  -6   1 1083.78 52.8074   2
   1   5   1 1104.14 54.0933   7
   5  -6   1 1054.73 51.9045   5
   5  -6   1 1103.23 52.2443   1
  -6   1   1 1088.38 52.0120   1
   1   5   1 1095.58 51.6787   1
  -6   1   1 1152.49 54.4846   7
  -5   7  -1 37.1010 4.95336   2
  -2  -5  -1 39.1484 4.01389   1
   7  -2  -1 40.9620 4.23136   1
  -2  -5  -1 43.2081 4.53868   2
  -5   7  -1 38.4322 4.63876   1
  -5   7  -1 40.6295 7.31931   7
   7  -2  -1 41.8362 4.59458   2
  -5   7  -1 44.7674 5.73052   3
  -7   2   1 33.0226 5.98866   7
   5  -7   1 41.5302 4.64574   1
   5  -7   1 34.2646 4.86854   2
   2   5   1 36.7263 3.73704   1
  -7   2   1 40.7045 4.22541   1
   8  -3  -1 1038.38 48.4949   2
  -5   8  -1 1021.71 49.0228   3
   8  -3  -1 1006.45 47.8860   1
  -3  -5  -1 1002.97 48.3525   2
  -5   8  -1 1001.71 48.1225   1
  -3  -5  -1 1024.08 47.8853   1
  -5   8  -1 968.044 51.1972   7
  -5   8  -1 1010.10 48.6966   2
   3   5   1 1029.58 47.4622   1
   3   5   1 1101.76 47.7626   8
  -8   3   1 1049.38 51.0028   7
  -8   3   1 1028.66 47.8378   1
   5  -8   1 1025.22 48.7619   2
   5  -8   1 1033.88 48.1936   1
   9  -4  -1 216.057 12.9726   2
  -4  -5  -1 197.434 12.6425   2
  -5   9  -1 221.804 13.4310   2
  -4  -5  -1 207.500 12.0794   1
   9  -4  -1 210.018 12.3409   1
  -5   9  -1 209.546 13.2417   3
  -5   9  -1 229.971 12.7248   1
   5  -9   1 201.036 12.9842   2
   4   5   1 218.249 11.6499   1
   4   5   1 198.677 12.4038   2
  -9   4   1 214.885 12.9153   2
   5  -9   1 208.680 12.5244   1
  -9   4   1 223.261 12.3196   1
  -9   4   1 203.965 15.9899   7
  10  -5  -1 79.0216 7.29840   1
  -5  -5  -1 76.9996 6.89857   1
  10  -5  -1 87.1263 7.90404   2
  -5  10  -1 75.0886 8.07420   2
  -5  -5  -1 88.6221 8.15012   2
  -5  10  -1 88.9061 7.71394   1
 -10   5   1 90.5603 7.25115   1
   5   5   1 89.9695 7.48688   1
   5   5   1 95.5328 8.15087   2
 -10   5   1 83.6185 11.1035   7
   5 -10   1 89.3697 7.59521   1
 -10   5   1 93.2951 7.95296   2
   5 -10   1 79.9176 8.08685   2
  -6  -5  -1 116.530 9.65204   1
  11  -6  -1 122.112 10.2035   1
  11  -6  -1 132.161 10.9207   2
  -5  11  -1 123.367 10.3237   1
  -5  11  -1 127.644 10.8386   2
  -6  -5  -1 125.647 10.3444   2
   5 -11   1 116.511 10.2089   2
   6   5   1 121.863 14.6253   6
 -11   6   1 131.140 9.97200   1
   5 -11   1 125.072 10.6862   1
   6   5   1 106.997 9.70594   2
   6   5   1 117.084 9.08858   1
  10  -6  -1 170.261 10.9430   2
  -4  10  -1 144.604 10.9913   2
  10  -6  -1 154.649 9.87806   1
  -6  -4  -1 155.272 9.51949   1
  -4  10  -1 168.178 10.3972   1
  -6  -4  -1 161.121 10.3446   2
   6   4   1 124.200 13.7776   6
   4 -10   1 117.650 10.1579   2
   6   4   1 109.674 8.90784   1
 -10   6   1 108.058 9.49729   2
   6   4   1 115.186 9.79398   2
   4 -10   1 118.368 10.4278   1
 -10   6   1 114.585 13.8486   7
 -10   6   1 112.831 9.63189   1
  -3   9  -1 105.233 8.79066   2
  -6  -3  -1 102.206 7.76075   1
  -6  -3  -1 90.0556 7.74073   2
   9  -6  -1 95.8356 7.67841   1
   9  -6  -1 92.9740 7.75421   2
  -3   9  -1 106.538 8.11784   1
  -9   6   1 74.7266 6.49426   1
   6   3   1 75.9055 7.13690   2
  -9   6   1 80.7646 8.61634   2
  -9   6   1 80.6533 10.8814   7
   6   3   1 76.9416 10.5511   6
   3  -9   1 83.5137 7.79994   2
   3  -9   1 84.5762 7.21850   1
   6   3   1 78.3262 6.38387   1
  -2   8  -1 242.803 13.8299   1
   8  -6  -1 235.916 13.7314   1
   8  -6  -1 237.880 14.2297   2
  -2   8  -1 246.433 14.3955   2
  -6  -2  -1 254.343 14.3897   2
  -2   8  -1 228.293 17.0511   7
  -6  -2  -1 239.923 13.7902   1
   6   2   1 254.227 16.8616   6
   2  -8   1 290.384 19.5178   7
   2  -8   1 274.610 14.3788   2
   6   2   1 262.947 13.3677   1
  -8   6   1 254.426 13.4363   1
  -8   6   1 272.913 17.5895   7
   2  -8   1 259.951 13.9907   1
   6   2   1 262.287 14.0890   2
   7  -6  -1 1250.19 59.4293   2
  -1   7  -1 1220.35 59.4598   2
  -6  -1  -1 1272.52 59.4545   2
  -1   7  -1 1240.13 58.9880   1
   7  -6  -1 1259.11 58.9885   1
  -6  -1  -1 1235.26 61.4389   7
  -1   7  -1 1248.58 61.8171   7
  -7   6   1 1243.50 58.5484   1
   1  -7   1 1291.41 61.9684   7
   6   1   1 1315.26 60.7517   6
   6   1   1 1305.56 58.7575   1
  -7   6   1 1265.57 61.7651   7
   6   1   1 1314.15 61.6746   7
   1  -7   1 1289.27 59.1625   1
   1  -7   1 1313.16 59.6919   2
   1  -7   1 1302.67 59.1192   3
  -6   0  -1 127.150 10.7160   7
  -6   0  -1 122.974 8.58739   2
   0   6  -1 131.941 11.1387   7
  -6   0  -1 141.854 8.63147   1
   6  -6  -1 119.887 8.62181   2
   0   6  -1 123.702 8.76752   2
   0   6  -1 130.948 8.29060   1
   0  -6   1 135.789 8.60672   1
   6   0   1 137.508 10.9419   7
   0  -6   1 141.436 11.4409   7
  -6   6   1 136.984 12.2466   3
   6   0   1 143.270 9.35386   6
   0  -6   1 144.622 8.93759   2
  -6   6   1 135.610 7.81023   1
  -6   6   1 137.419 11.4946   7
   6   0   1 144.250 8.07242   1
   1   5  -1 161.571 9.37210   1
  -6   1  -1 162.186 9.71504   1
   1   5  -1 154.968 9.72720   2
  -6   1  -1 148.051 11.6167   7
  -6   1  -1 147.499 10.8638   9
  -6   1  -1 152.593 9.77283   2
   5  -6  -1 163.353 9.73099   2
   6  -1   1 170.956 9.27800   1
  -1  -5   1 181.504 12.2520   7
   6  -1   1 166.727 12.0517   7
  -5   6   1 180.208 12.4048   7
  -5   6   1 177.748 12.8378   3
  -5   6   1 172.092 11.6406   6
  -1  -5   1 172.658 9.52256   1
   6  -1   1 168.387 9.22793   6
  -5   6   1 165.901 8.81368   1
  -6   2  -1 823.592 40.0857   9
   2   4  -1 845.170 39.4347   2
   4  -6  -1 831.853 39.3419   2
   2   4  -1 840.059 38.9039   1
  -6   2  -1 872.961 41.5881   7
  -6   2  -1 850.184 39.2220   1
  -6   2  -1 832.058 39.4115   2
  -2  -4   1 838.272 39.0507   1
  -2  -4   1 813.035 41.1814   7
  -4   6   1 818.221 41.0821   6
  -4   6   1 867.830 41.3852   7
  -4   6   1 826.421 38.4121   1
  -4   6   1 834.131 41.4125   3
   6  -2   1 800.402 38.8411   1
  -6   3  -1 202.765 11.4313   1
  -6   3  -1 209.794 11.8934   2
   3  -6  -1 225.657 13.6850   3
  -6   3  -1 206.210 12.5098   9
   3   3  -1 207.394 10.9765   1
   3  -6  -1 201.641 11.2208   2
   3   3  -1 216.540 11.3841   2
  -6   3  -1 211.892 13.9440   7
  -3   6   1 212.785 13.6286   3
  -3   6   1 193.805 10.3570   1
  -3   6   1 210.220 13.7063   7
  -3  -3   1 213.950 11.0580   1
  -3  -3   1 201.682 13.2983   7
  -3   6   1 204.835 14.0238   6
   6  -3   1 205.332 11.1076   1
   2  -6  -1 300.731 17.1525   3
  -6   4  -1 294.365 15.3951   1
   4   2  -1 276.989 14.8749   1
  -6   4  -1 298.661 18.0354   7
   4   2  -1 295.832 15.3101   2
  -6   4  -1 296.487 16.6988   9
   2  -6  -1 289.830 15.2834   2
  -6   4  -1 284.899 16.3910   2
  -4  -2   1 311.930 15.0328   1
   6  -4   1 303.998 15.0667   1
  -2   6   1 300.287 18.6723   6
  -2   6   1 305.778 17.4089   7
  -2   6   1 313.228 17.3882   7
  -2   6   1 307.050 14.4123   1
  -2   6   1 293.220 17.3335   3
  -4  -2   1 303.074 17.2702   7
   1  -6  -1 824.447 39.2588   2
   5   1  -1 858.986 38.9141   1
  -6   5  -1 848.336 39.2638   1
  -6   5  -1 849.083 39.5927   2
   1  -6  -1 862.980 40.9980   3
   5   1  -1 864.138 39.3301   2
  -6   5  -1 837.798 41.8628   7
  -5  -1   1 828.489 38.9619   1
  -1   6   1 804.408 40.9748   7
  -1   6   1 799.213 42.6403   6
  -5  -1   1 811.053 41.1935   7
   6  -5   1 807.414 39.0076   1
  -1   6   1 840.846 38.4837   1
  -1   6   1 827.194 41.1131   7
  -6   6  -1 51.5056 5.32058   2
  -6   6  -1 44.6396 4.95720   1
   0  -6  -1 44.9214 6.61801   3
   6   0  -1 50.0726 4.88753   2
   6   0  -1 48.0261 4.47609   1
   0  -6  -1 44.8212 4.80688   2
  -6   6  -1 38.7540 6.93415   7
   0   6   1 44.1666 6.49061   7
   6  -6   1 55.0204 4.90912   1
   0   6   1 49.1847 4.02491   1
   6  -6   1 52.8274 5.45124   2
   0   6   1 45.1469 6.65754   7
  -6   0   1 46.6789 4.37862   1
  -6   0   1 52.4555 6.92496   7
   0   6   1 55.7670 9.27335   6
   7  -1  -1 301.275 15.7596   1
   7  -1  -1 309.794 16.1679   2
  -1  -6  -1 310.761 16.3308   2
  -6   7  -1 320.014 16.3251   1
  -1  -6  -1 293.063 15.6139   1
  -6   7  -1 280.471 19.2477   7
  -6   7  -1 293.037 16.8271   2
   1   6   1 313.233 15.2403   1
  -7   1   1 354.998 19.2879   7
   1   6   1 273.073 17.7435   7
  -7   1   1 321.491 15.8038   1
   6  -7   1 313.201 15.3440   5
   6  -7   1 310.708 16.0556   1
   6  -7   1 322.538 16.6416   2
  -2  -6  -1 451.529 24.0064   2
   8  -2  -1 482.207 23.7011   1
  -2  -6  -1 453.608 23.5911   1
   8  -2  -1 485.237 24.2234   2
  -6   8  -1 450.667 23.9748   1
  -6   8  -1 474.459 27.7182   7
  -6   8  -1 468.018 25.3771   3
  -6   8  -1 457.970 24.5061   2
   6  -8   1 517.844 24.7365   2
  -8   2   1 523.916 27.3688   7
  -8   2   1 509.822 24.2838   2
   2   6   1 509.906 23.2159   1
   6  -8   1 508.205 24.2460   1
  -3  -6  -1 343.651 17.8156   2
  -3  -6  -1 308.553 16.9633   1
  -6   9  -1 342.284 17.6582   1
  -6   9  -1 322.953 18.1087   2
   9  -3  -1 315.847 17.6190   2
   9  -3  -1 334.374 17.2116   1
  -6   9  -1 314.965 18.7293   3
   6  -9   1 328.706 17.5461   1
  -9   3   1 324.364 17.1846   1
   6  -9   1 332.625 18.1444   2
  -9   3   1 317.675 17.5379   2
  -9   3   1 324.529 20.8397   7
   3   6   1 325.755 16.5076   1
   3   6   1 317.379 17.3331   2
  10  -4  -1 65.7292 6.48743   1
  -4  -6  -1 59.2398 6.78840   2
  -4  -6  -1 51.6640 5.93247   1
  -6  10  -1 61.4944 6.74585   1
  10  -4  -1 66.5778 7.14701   2
  -6  10  -1 52.4868 7.13061   2
   4   6   1 70.3209 5.76763   1
 -10   4   1 65.4299 6.48359   1
   6 -10   1 62.9788 6.84004   1
   4   6   1 67.5031 6.67042   2
   6 -10   1 71.9438 7.38933   2
 -10   4   1 57.6527 6.69832   2
 -10   4   1 61.9516 10.6188   7
  -6  11  -1 75.8538 8.46515   2
  11  -5  -1 78.2039 8.10154   2
  -5  -6  -1 76.2271 7.25125   1
  -5  -6  -1 80.4463 7.94860   2
  11  -5  -1 83.4543 7.45380   1
  -6  11  -1 66.2526 7.41689   1
   6 -11   1 64.4773 7.33008   1
 -11   5   1 59.6829 6.99009   1
 -11   5   1 66.6605 8.70775   2
   6 -11   1 53.9310 7.70326   2
   5   6   1 72.4662 6.39532   1
   5   6   1 67.8885 12.4399   6
  -6  -6  -1 67.1325 8.05984   2
  -6  -6  -1 56.7048 6.95183   1
  12  -6  -1 58.6267 8.18257   2
  -6  12  -1 56.1901 8.50061   2
  -6  12  -1 68.1092 7.70539   1
  12  -6  -1 65.5959 7.57747   1
 -12   6   1 57.3689 7.08915   1
   6   6   1 54.2617 11.9522   6
   6 -12   1 52.0468 8.18409   2
   6 -12   1 49.9268 7.30025   1
   6   6   1 61.9829 6.29439   1
  13  -7  -1 16.8496 7.06238   2
  -6  13  -1 9.38729 6.17471   1
  13  -7  -1 11.6684 6.34358   1
  -7  -6  -1 20.3795 6.96551   2
  -6  13  -1 16.7003 7.45688   2
  -7  -6  -1 21.4594 5.77581   1
   6 -13   1 10.1624 6.04802   1
 -13   7   1 19.7526 6.12933   1
   7   6   1 18.1833 10.9138   6
   7   6   1 14.0710 5.28225   1
   6 -13   1 12.7614 6.97308   2
  -5  12  -1 7.41559 6.20993   2
  12  -7  -1 4.08987 5.83304   2
  12  -7  -1 10.7744 5.64263   1
  -7  -5  -1 -1.2542 4.62975   1
  -5  12  -1 4.69168 5.46035   1
  -7  -5  -1 0.84703 5.87474   2
 -12   7   1 9.47163 5.20081   1
   7   5   1 16.6703 9.27119   6
   7   5   1 7.12557 4.51355   1
   5 -12   1 17.6202 6.36516   2
   5 -12   1 10.1169 5.65817   1
  -7  -4  -1 182.683 13.5581   2
  -7  -4  -1 200.365 12.8143   1
  -4  11  -1 183.521 12.8929   1
  -4  11  -1 208.945 14.1781   2
  11  -7  -1 184.107 13.6553   2
  11  -7  -1 206.975 12.9586   1
   7   4   1 200.624 12.0864   1
   7   4   1 201.086 18.2652   6
   7   4   1 201.861 13.2494   2
   4 -11   1 212.678 14.0754   2
 -11   7   1 201.325 12.8101   1
   4 -11   1 208.059 13.6317   1
  -3  10  -1 159.862 11.2253   1
  -7  -3  -1 146.964 10.9918   1
  10  -7  -1 179.907 12.1063   2
  -7  -3  -1 175.017 12.0158   2
  -3  10  -1 154.178 11.9059   2
  10  -7  -1 165.578 11.2192   1
   7   3   1 158.870 10.3483   1
   7   3   1 168.479 15.3069   6
   3 -10   1 171.045 11.6172   1
   7   3   1 172.376 11.3524   2
 -10   7   1 176.765 15.8053   7
   3 -10   1 149.226 11.4777   2
 -10   7   1 159.057 10.6674   1
  -2   9  -1 56.2892 6.67412   2
   9  -7  -1 56.3680 5.84337   1
  -2   9  -1 48.6892 5.61488   1
  -7  -2  -1 62.5997 6.71372   2
   9  -7  -1 64.5688 6.60945   2
  -7  -2  -1 52.2509 5.76324   1
   7   2   1 42.9122 7.79493   6
   2  -9   1 56.8794 6.33773   2
  -9   7   1 48.4528 6.61970   2
  -9   7   1 53.7017 5.46569   1
   7   2   1 42.0872 5.64777   2
   2  -9   1 50.5278 5.65958   1
   7   2   1 44.6482 5.09736   1
  -9   7   1 42.9347 8.73268   7
   8  -7  -1 758.263 35.0454   1
  -7  -1  -1 742.446 35.5713   2
   8  -7  -1 750.557 35.6600   2
  -1   8  -1 783.421 38.9854   7
  -7  -1  -1 756.298 35.1517   1
  -1   8  -1 764.023 35.7342   2
  -1   8  -1 758.575 34.9576   1
  -8   7   1 675.717 34.4184   1
   1  -8   1 732.930 35.7407   2
   7   1   1 708.061 36.6512   6
   1  -8   1 720.874 35.1671   1
   7   1   1 683.173 35.2494   2
   7   1   1 708.291 34.6430   1
  -8   7   1 719.698 38.4125   7
  -7   0  -1 573.161 29.2851   1
  -7   0  -1 594.697 29.7159   2
   0   7  -1 596.343 29.0690   1
   7  -7  -1 617.508 29.2337   1
   0   7  -1 599.599 29.7218   2
   7  -7  -1 610.734 29.7370   2
   0  -7   1 604.632 29.7722   2
  -7   7   1 583.002 28.5970   1
   7   0   1 571.846 29.4854   2
   7   0   1 597.106 28.9022   1
   0  -7   1 629.188 32.4258   7
  -7   7   1 597.535 32.7086   3
   0  -7   1 641.229 29.8059   3
  -7   7   1 612.845 32.3420   7
   0  -7   1 638.897 29.4283   1
   7   0   1 622.198 30.1127   6
   6  -7  -1 1319.34 58.3072   1
   1   6  -1 1242.17 58.7125   2
   1   6  -1 1317.47 58.3130   1
  -7   1  -1 1307.35 58.9104   2
   6  -7  -1 1282.35 58.8278   2
  -7   1  -1 1299.66 58.5076   1
  -7   1  -1 1282.18 61.0297   7
   7  -1   1 1243.62 58.0883   1
   7  -1   1 1216.39 58.2343   6
  -6   7   1 1209.68 57.7219   1
  -6   7   1 1266.70 59.9941   6
   7  -1   1 1168.47 58.5536   2
  -6   7   1 1224.50 61.2498   3
  -1  -6   1 1217.23 60.9861   7
  -6   7   1 1262.85 61.1413   7
  -1  -6   1 1250.02 58.3899   1
  -1  -6   1 1262.90 58.8405   2
  -7   2  -1 124.946 10.6530   7
   5  -7  -1 102.610 7.64640   2
   2   5  -1 128.635 7.38450   1
  -7   2  -1 127.371 8.23729   2
   2   5  -1 118.892 7.78740   2
  -7   2  -1 112.346 7.82104   1
  -7   2  -1 123.758 9.33392   9
  -5   7   1 99.7932 10.0031   3
   7  -2   1 101.513 7.00718   1
   7  -2   1 95.1820 7.49082   2
  -5   7   1 85.6555 9.29561   6
  -2  -5   1 91.1131 9.73267   7
  -5   7   1 91.3117 6.51287   1
  -2  -5   1 86.3087 7.14661   1
  -5   7   1 93.7579 10.0247   7
  -2  -5   1 101.268 7.80317   2
   4  -7  -1 1514.13 69.6370   2
   4  -7  -1 1496.54 71.4219   3
  -7   3  -1 1504.13 71.8720   7
   3   4  -1 1497.47 69.0538   1
   3   4  -1 1528.90 69.6078   2
  -7   3  -1 1548.81 70.4986   9
  -7   3  -1 1503.36 69.4333   1
  -7   3  -1 1530.32 69.7230   2
  -3  -4   1 1550.88 69.7066   2
   7  -3   1 1477.12 69.5877   2
  -3  -4   1 1504.42 69.2428   1
  -3  -4   1 1532.34 71.7859   7
  -4   7   1 1496.21 71.6613   7
  -4   7   1 1451.45 68.5727   1
   7  -3   1 1457.49 69.0558   1
  -4   7   1 1462.75 71.7949   6
  -4   7   1 1472.14 71.4672   3
  -7   4  -1 604.203 33.4601   7
  -7   4  -1 611.000 31.2424   2
   3  -7  -1 615.639 32.7502   3
   3  -7  -1 627.869 31.0468   2
   4   3  -1 642.055 30.5997   1
   4   3  -1 622.033 31.0319   2
  -7   4  -1 598.832 31.8651   9
  -7   4  -1 612.114 30.9524   1
  -4  -3   1 695.578 31.2599   2
  -3   7   1 674.586 33.0848   3
   7  -4   1 660.780 30.7090   1
   7  -4   1 625.222 31.0727   2
  -4  -3   1 677.003 30.7588   1
  -3   7   1 665.164 34.2169   6
  -3   7   1 669.078 30.0784   1
  -3   7   1 694.991 33.4710   7
  -4  -3   1 673.065 33.2668   7
  -7   5  -1 212.158 12.0974   1
  -7   5  -1 220.786 12.3329   2
  -7   5  -1 215.984 13.6318   9
  -7   5  -1 208.822 14.9925   7
   5   2  -1 251.790 11.6906   1
   2  -7  -1 236.331 14.1409   3
   2  -7  -1 230.403 12.1350   2
   5   2  -1 240.816 12.1242   2
  -2   7   1 199.020 10.9099   1
  -5  -2   1 194.296 14.2116   7
  -2   7   1 204.638 16.8043   6
   7  -5   1 184.413 12.1128   2
  -2   7   1 196.558 14.2841   7
  -2   7   1 202.204 14.4434   7
   7  -5   1 190.167 11.5646   1
  -5  -2   1 213.270 11.6997   1
  -5  -2   1 213.766 12.0252   2
  -7   6  -1 717.205 33.8681   1
   1  -7  -1 682.717 33.3023   1
   6   1  -1 731.083 33.4524   1
   1  -7  -1 675.655 33.8411   2
  -7   6  -1 735.348 34.3493   2
   1  -7  -1 709.348 35.6348   3
   6   1  -1 731.904 33.8841   2
  -7   6  -1 715.554 36.9915   7
  -1   7   1 690.382 36.0830   7
   7  -6   1 685.434 33.5674   1
  -1   7   1 712.526 32.9490   1
  -1   7   1 708.507 38.2776   6
  -1   7   1 700.165 36.0455   7
  -6  -1   1 719.856 33.9425   2
  -6  -1   1 682.563 36.1197   7
   7  -6   1 705.978 34.1550   2
  -6  -1   1 702.127 33.5217   1
  -7   7  -1 337.551 17.3546   1
   7   0  -1 329.329 17.2258   2
  -7   7  -1 340.862 17.9315   2
   7   0  -1 352.057 16.9166   1
   0  -7  -1 338.911 17.3961   2
   0  -7  -1 361.991 19.7716   3
   0  -7  -1 318.842 16.6563   1
  -7   7  -1 335.602 20.7897   7
   7  -7   1 306.980 17.5697   2
   7  -7   1 328.351 17.1388   1
  -7   0   1 317.580 17.2497   2
   7  -7   1 326.922 16.3537   5
   0   7   1 314.717 19.6961   7
  -7   0   1 325.999 16.8677   1
   0   7   1 324.711 19.5077   7
  -7   0   1 315.411 19.9326   7
   0   7   1 317.552 16.3086   1
  -7   8  -1 59.1525 6.63795   2
   8  -1  -1 52.2299 5.07691   1
  -1  -7  -1 46.6131 4.87492   1
  -7   8  -1 46.9796 5.75085   1
  -7   8  -1 28.9966 7.18558   7
   8  -1  -1 53.4076 5.60830   2
  -1  -7  -1 50.6314 7.76114   3
  -1  -7  -1 39.6644 5.36799   2
  -8   1   1 48.3578 5.09993   1
   7  -8   1 50.3408 6.19386   2
  -8   1   1 39.0318 7.16112   7
   1   7   1 55.0490 4.63199   1
  -8   1   1 34.9021 5.06366   2
   7  -8   1 53.4144 5.60882   1
  -7   9  -1 170.926 11.2666   1
  -7   9  -1 168.524 12.7631   3
   9  -2  -1 176.551 10.9013   2
   9  -2  -1 169.393 10.4466   1
  -2  -7  -1 184.669 11.2921   2
  -2  -7  -1 150.354 10.1874   1
  -7   9  -1 169.134 12.0021   2
   7  -9   1 146.214 10.9640   1
  -9   2   1 153.354 14.5365   7
  -9   2   1 162.336 10.1309   1
   2   7   1 159.040 10.7179   2
   2   7   1 148.980 9.61504   1
  -9   2   1 161.133 10.9323   2
   7  -9   1 143.642 11.3788   2
  -7  10  -1 213.530 13.4950   1
  10  -3  -1 228.884 13.6867   2
  -3  -7  -1 204.543 12.4847   1
  -7  10  -1 193.904 13.9178   2
  10  -3  -1 222.300 12.8150   1
  -3  -7  -1 229.961 13.5050   2
   7 -10   1 212.614 13.4724   1
 -10   3   1 199.601 13.1721   2
   3   7   1 185.652 14.5748   2
   3   7   1 205.300 11.9172   1
   7 -10   1 198.239 13.5830   2
  -4  -7  -1 462.503 25.4569   2
  -7  11  -1 497.274 26.3127   2
  11  -4  -1 484.874 24.8113   1
  -4  -7  -1 468.791 24.6315   1
  11  -4  -1 496.305 25.5177   2
  -7  11  -1 513.775 25.2724   1
   4   7   1 470.342 23.9308   1
 -11   4   1 459.471 25.2882   2
   7 -11   1 490.294 25.1904   1
   4   7   1 468.727 31.3698   6
 -11   4   1 486.304 24.6461   1
   7 -11   1 492.486 25.8048   2
  -5  -7  -1 18.1072 6.23213   2
  -7  12  -1 27.9661 6.39430   1
  12  -5  -1 16.5963 5.88509   2
  -7  12  -1 23.5370 7.32985   2
  12  -5  -1 32.6652 6.03625   1
  -5  -7  -1 26.7863 5.69555   1
   5   7   1 30.2221 5.24600   1
   7 -12   1 20.2448 6.64801   2
   5   7   1 31.4820 11.8193   6
 -12   5   1 23.1702 5.90546   1
   7 -12   1 32.0572 6.45618   1
  -6  -7  -1 328.281 20.7813   2
  -7  13  -1 361.270 22.0628   2
  -7  13  -1 328.112 20.2515   1
  13  -6  -1 305.895 20.0476   1
  -6  -7  -1 351.918 20.1135   1
  13  -6  -1 326.160 21.0448   2
   7 -13   1 369.388 20.6197   1
   6   7   1 383.394 28.1173   6
 -13   6   1 369.504 19.6993   1
   6   7   1 366.096 18.8438   1
   7 -13   1 352.140 21.0133   2
  -7  14  -1 2.83364 6.81288   1
  14  -7  -1 22.5423 7.85966   2
  -7  -7  -1 23.6487 6.76135   1
  14  -7  -1 6.72512 6.71208   1
  -7  -7  -1 22.0037 8.13404   2
   7 -14   1 16.6948 7.87827   2
   7   7   1 7.41483 11.2509   6
   7 -14   1 10.7472 7.16320   1
   7   7   1 24.3708 5.79078   1
  -8  -7  -1 52.2667 10.0870   2
  -7  15  -1 42.0611 8.21891   1
  15  -8  -1 40.7961 8.67826   1
  -8  -7  -1 48.8075 8.23189   1
  15  -8  -1 27.0278 8.94019   2
   8   7   1 45.8209 6.92912   1
   7 -15   1 30.3898 8.51288   1
   7 -15   1 45.4000 9.88441   2
  -8  -6  -1 100.130 10.9528   2
  14  -8  -1 119.301 11.5953   2
  -6  14  -1 85.4898 9.43864   1
  14  -8  -1 114.897 10.5151   1
  -8  -6  -1 105.668 10.1765   1
 -14   8   1 81.1506 8.85730   1
   8   6   1 83.6748 8.44282   1
   6 -14   1 78.8207 9.78871   1
   6 -14   1 95.4477 11.2381   2
  -5  13  -1 6.34208 6.17547   1
  13  -8  -1 2.03497 5.98118   1
  13  -8  -1 16.8251 6.95141   2
  -8  -5  -1 12.1567 7.09261   2
  -8  -5  -1 10.6129 5.71632   1
  -5  13  -1 19.6689 7.42899   2
   5 -13   1 5.69277 6.26142   1
   5 -13   1 16.6540 7.28287   2
   8   5   1 39.6898 14.8364   6
   8   5   1 11.4067 5.23874   1
 -13   8   1 13.2447 5.79777   1
  -4  12  -1 68.7334 8.38135   2
  -4  12  -1 56.1363 7.14928   1
  12  -8  -1 63.8707 8.40819   2
  -8  -4  -1 52.5842 7.25774   1
  -8  -4  -1 70.1806 8.36122   2
  12  -8  -1 58.2081 7.58610   1
   8   4   1 61.8113 6.55407   1
   4 -12   1 63.0503 7.82446   1
 -12   8   1 53.3403 6.86525   1
   8   4   1 44.6480 10.4633   6
   4 -12   1 55.6670 8.26130   2
  -8  -3  -1 28.5212 6.49488   2
  -3  11  -1 38.1261 6.85560   2
  11  -8  -1 30.2704 6.66225   2
  11  -8  -1 33.4331 6.11294   1
  -8  -3  -1 47.3152 6.30567   1
  -3  11  -1 42.8742 6.39498   1
   8   3   1 27.6772 5.94894   2
   3 -11   1 22.7493 6.37517   2
 -11   8   1 28.4773 5.30945   1
   8   3   1 39.7785 5.54351   1
   8   3   1 36.4856 8.89045   6
   3 -11   1 30.7707 6.01597   1
  -2  10  -1 86.8366 8.12770   1
  10  -8  -1 103.749 8.75605   1
  -2  10  -1 96.5806 9.28935   2
  -8  -2  -1 104.443 9.30034   2
  -8  -2  -1 90.4791 8.47378   1
  10  -8  -1 87.8472 8.97259   2
   8   2   1 130.348 11.8691   6
   2 -10   1 134.911 9.91131   1
 -10   8   1 126.942 12.9720   7
   8   2   1 133.767 8.84618   1
   8   2   1 119.400 9.68027   2
   2 -10   1 127.652 10.0724   2
 -10   8   1 122.517 8.99769   1
  -8  -1  -1 121.979 9.54921   1
   9  -8  -1 129.602 9.38506   1
  -1   9  -1 118.332 9.19953   1
  -1   9  -1 123.103 10.0363   2
  -8  -1  -1 120.328 9.89771   2
   9  -8  -1 116.162 9.78996   2
  -9   8   1 112.773 8.58063   1
   8   1   1 119.000 11.1612   6
   1  -9   1 117.130 9.55544   1
  -9   8   1 124.574 13.2894   3
   1  -9   1 108.329 9.80851   2
   8   1   1 118.809 8.72092   1
   8   1   1 112.290 9.15949   2
  -9   8   1 118.583 12.1521   7
  -8   0  -1 160.300 10.8911   2
   8  -8  -1 166.415 11.1526   2
  -8   0  -1 165.243 10.6857   1
   0   8  -1 178.670 11.4083   2
   8  -8  -1 178.908 10.8873   1
   0   8  -1 150.147 10.3778   1
  -8   8   1 154.723 9.85068   1
   0  -8   1 176.560 10.9680   1
   8   0   1 140.710 10.2729   2
   0  -8   1 158.604 10.7480   2
  -8   8   1 164.099 14.8984   7
   0  -8   1 182.902 12.0564   3
   8   0   1 162.819 10.1795   1
   8   0   1 160.970 11.3021   6
  -8   8   1 155.977 14.7371   3
  -8   1  -1 304.996 16.0439   2
   7  -8  -1 292.786 15.9660   2
   1   7  -1 304.740 15.1707   1
   1   7  -1 292.277 15.6186   2
  -8   1  -1 301.304 15.6337   1
   7  -8  -1 298.649 15.4109   1
  -7   8   1 273.599 14.6083   1
   8  -1   1 276.778 15.0698   6
   8  -1   1 269.645 14.9529   1
  -7   8   1 270.802 18.9050   7
  -1  -7   1 274.027 15.4099   1
   8  -1   1 271.881 15.4313   2
  -7   8   1 275.952 19.1360   3
  -1  -7   1 278.341 15.6925   2
  -7   8   1 288.864 17.6125   6
  -8   2  -1 112.294 8.73137   2
   6  -8  -1 113.153 7.93952   1
   2   6  -1 119.094 7.67705   1
  -8   2  -1 112.784 9.58622   9
   2   6  -1 133.614 8.15958   2
  -8   2  -1 108.434 8.12082   1
   6  -8  -1 110.199 8.43414   2
  -6   8   1 106.899 10.1651   6
  -2  -6   1 99.7164 7.62274   1
   8  -2   1 87.3879 7.99673   2
  -6   8   1 106.708 11.4636   3
  -2  -6   1 80.2471 9.28351   7
  -6   8   1 86.1228 9.99396   7
  -6   8   1 84.4045 6.88254   1
   8  -2   1 97.8415 7.66220   1
  -2  -6   1 96.6299 8.00694   2
   5  -8  -1 705.785 33.8440   2
  -8   3  -1 669.286 36.3430   7
   3   5  -1 675.026 33.6379   2
  -8   3  -1 678.520 33.8156   2
   3   5  -1 669.142 33.0222   1
  -8   3  -1 677.358 34.7600   9
  -8   3  -1 668.623 33.4689   1
   5  -8  -1 688.791 33.1086   1
   8  -3   1 658.362 33.0851   1
   8  -3   1 709.093 33.8067   2
  -3  -5   1 700.625 33.7536   2
  -5   8   1 731.803 36.1056   3
  -3  -5   1 708.859 36.2763   7
  -5   8   1 706.622 32.5740   1
  -5   8   1 757.464 36.7220   7
  -3  -5   1 706.778 33.3529   1
  -5   8   1 750.872 36.5993   6
  -8   4  -1 1043.74 49.5657   9
   4   4  -1 1020.88 47.9216   1
  -8   4  -1 1020.66 48.6819   2
   4  -8  -1 1004.09 48.5527   2
   4   4  -1 1034.50 48.4757   2
  -8   4  -1 995.139 51.1792   7
   4  -8  -1 1015.59 47.9539   1
  -8   4  -1 1021.86 48.3645   1
   4  -8  -1 1004.57 50.2498   3
  -4  -4   1 1061.82 48.5734   2
  -4  -4   1 1041.25 50.9460   7
   8  -4   1 1010.69 47.9961   1
  -4   8   1 1022.08 47.3780   1
  -4   8   1 1063.61 51.8372   6
  -4  -4   1 1048.30 48.1348   1
  -4   8   1 1014.10 50.4868   3
   8  -4   1 1027.76 48.6736   2
  -4   8   1 1052.03 51.0944   7
  -8   5  -1 193.875 11.8466   2
   3  -8  -1 190.448 10.6682   1
  -8   5  -1 159.422 14.4792   7
   5   3  -1 205.707 10.7842   1
   5   3  -1 186.235 11.1016   2
   3  -8  -1 183.487 13.3040   3
   3  -8  -1 177.585 11.2078   2
  -8   5  -1 179.361 11.3805   1
  -8   5  -1 185.813 12.7113   9
   8  -5   1 170.598 11.2436   2
  -5  -3   1 192.907 11.3632   2
  -3   8   1 170.971 13.4858   3
  -3   8   1 185.379 9.97480   1
  -3   8   1 188.228 14.1387   7
   8  -5   1 185.257 11.0201   1
  -5  -3   1 179.167 13.6798   7
  -5  -3   1 191.654 10.7960   1
  -3   8   1 195.955 16.4227   6
   2  -8  -1 37.3310 4.92590   2
  -8   6  -1 30.6252 5.04595   2
   2  -8  -1 40.6749 6.44046   3
  -8   6  -1 27.5958 6.91713   7
  -8   6  -1 22.7662 6.03228   9
   6   2  -1 28.6226 4.60689   2
  -8   6  -1 27.8607 4.87108   1
   6   2  -1 39.1033 4.44287   1
   2  -8  -1 32.3270 4.03106   1
  -6  -2   1 17.3491 6.06906   7
  -6  -2   1 20.5831 3.95210   1
   8  -6   1 20.4094 4.75969   2
  -6  -2   1 23.3388 4.37403   2
  -2   8   1 24.8129 3.45167   1
   8  -6   1 25.8059 4.34929   1
  -2   8   1 12.6954 8.15404   6
  -2   8   1 15.5856 7.19971   7
  -2   8   1 18.2383 6.46726   7
  -8   7  -1 129.504 14.9458   7
   7   1  -1 117.937 8.48160   1
   1  -8  -1 108.533 8.96772   2
  -8   7  -1 118.195 9.29551   6
   1  -8  -1 108.222 8.42710   1
  -8   7  -1 102.829 9.55424   2
   1  -8  -1 112.241 11.0588   3
  -8   7  -1 125.718 9.60898   1
   7   1  -1 117.680 9.06459   2
   8  -7   1 131.688 9.09142   1
   8  -7   1 148.143 9.88861   2
  -1   8   1 129.149 12.3894   7
  -7  -1   1 148.611 12.5587   7
  -7  -1   1 164.652 9.77425   2
  -1   8   1 147.803 8.13070   1
  -7  -1   1 160.568 9.08071   1
  -1   8   1 145.855 15.3250   6
  -8   8  -1 54.7540 6.68766   2
   0  -8  -1 60.8696 6.26531   2
   8   0  -1 50.0934 5.58045   1
   0  -8  -1 64.0466 8.43040   3
   8   0  -1 60.1953 6.26520   2
  -8   8  -1 54.4260 6.35456   1
   0  -8  -1 53.3331 5.37070   1
   8  -8   1 52.7994 6.07110   1
  -8   0   1 58.8503 6.29446   2
   0   8   1 64.0696 11.6856   6
   0   8   1 44.8090 7.59202   7
  -8   0   1 58.1802 8.45359   7
   0   8   1 68.6018 5.33019   1
  -8   0   1 66.4678 6.02751   1
   8  -8   1 50.7890 6.43573   2
   9  -1  -1 40.4615 5.62105   2
  -8   9  -1 28.6604 5.97016   2
   9  -1  -1 40.1576 4.98730   1
  -1  -8  -1 23.6173 4.44746   1
  -8   9  -1 26.6259 5.48529   1
  -1  -8  -1 31.4756 5.38143   2
   1   8   1 24.2576 4.13479   1
  -9   1   1 16.7065 4.41988   1
  -9   1   1 14.4279 4.94871   2
   8  -9   1 12.8251 4.69095   1
   8  -9   1 22.9064 5.43437   2
  10  -2  -1 671.191 32.8188   1
  -8  10  -1 679.955 34.1755   2
  -2  -8  -1 637.538 32.6710   1
  -8  10  -1 693.988 33.2921   1
  10  -2  -1 655.236 33.3961   2
  -2  -8  -1 633.795 33.4868   2
   2   8   1 689.107 32.1394   1
   8 -10   1 673.579 33.9701   2
   8 -10   1 711.415 33.3289   1
 -10   2   1 680.101 32.8745   1
 -10   2   1 669.619 33.3857   2
  11  -3  -1 304.859 18.1678   2
  -8  11  -1 294.357 18.2319   1
  -3  -8  -1 317.642 18.5318   2
  11  -3  -1 319.019 17.7440   1
  -3  -8  -1 301.279 17.3323   1
  -8  11  -1 310.861 19.3050   2
   8 -11   1 343.251 18.2851   1
   3   8   1 291.736 26.0064   6
 -11   3   1 324.711 18.0969   2
 -11   3   1 307.940 17.3285   1
   8 -11   1 307.604 18.6734   2
   3   8   1 324.178 16.7373   1
  -4  -8  -1 38.8100 6.22349   1
  -8  12  -1 46.8900 7.17301   1
  12  -4  -1 45.2583 6.79820   1
  12  -4  -1 61.1844 8.01763   2
  -8  12  -1 49.3614 8.47239   2
  -4  -8  -1 50.6363 7.55532   2
 -12   4   1 39.0906 5.87515   1
   8 -12   1 38.8698 7.01803   1
   4   8   1 43.5636 13.1801   6
   4   8   1 41.3437 5.54352   1
   8 -12   1 46.2212 7.67262   2
  -8  13  -1 54.2398 9.05489   2
  13  -5  -1 22.9771 7.33298   2
  -5  -8  -1 21.1895 6.22840   1
  13  -5  -1 28.7863 6.61679   1
  -5  -8  -1 34.3631 7.54023   2
  -8  13  -1 26.4049 6.89813   1
   5   8   1 32.6146 12.1134   6
   5   8   1 24.8819 5.65681   1
   8 -13   1 17.9007 7.34894   2
   8 -13   1 20.6785 7.07638   1
  -6  -8  -1 143.247 12.6946   2
  14  -6  -1 132.785 12.7159   2
  -6  -8  -1 116.946 10.7455   1
  14  -6  -1 125.425 11.1904   1
  -8  14  -1 129.107 11.3854   1
 -14   6   1 131.142 11.2216   1
   6   8   1 151.878 11.2075   1
   8 -14   1 127.397 11.5563   1
   8 -14   1 124.362 12.5030   2
   6   8   1 139.034 18.4723   6
  -8  15  -1 34.0024 8.17668   1
  -7  -8  -1 35.8748 7.50445   1
  15  -7  -1 50.4507 9.67519   2
  15  -7  -1 40.0223 8.37280   1
  -7  -8  -1 43.8115 9.45512   2
 -15   7   1 31.9214 6.41199   1
   8 -15   1 27.0163 8.33484   1
   8 -15   1 33.3490 9.20760   2
   7   8   1 36.6724 6.71272   1
  16  -8  -1 18.7298 9.42017   2
  -8  -8  -1 19.2110 7.41712   1
  16  -8  -1 36.5508 9.04750   1
  -8  16  -1 25.5471 7.89485   1
  -8  -8  -1 17.6312 9.51931   2
   8 -16   1 18.9039 8.93351   2
   8 -16   1 19.4539 8.66812   1
   8   8   1 33.3288 6.92283   1
 -16   8   1 20.3617 6.36723   1
  -8  17  -1 18.0035 7.97974   1
  17  -9  -1 19.0931 8.99761   1
  17  -9  -1 31.4693 10.3034   2
  -9  -8  -1 17.0118 8.02804   1
  -9  -8  -1 29.6301 10.5691   2
   9   8   1 15.4331 7.01048   1
   8 -17   1 13.8937 8.87288   1
 -17   9   1 13.3474 6.28526   1
   8 -17   1 38.5364 10.8789   2
  16  -9  -1 9.63633 9.10332   2
  16  -9  -1 1.27581 7.95487   1
  -9  -7  -1 -0.3902 7.20104   1
  -9  -7  -1 12.3481 9.58476   2
  -7  16  -1 11.6331 7.55230   1
   9   7   1 8.16519 6.10776   1
   7 -16   1 9.95587 8.19530   1
   7 -16   1 9.37241 9.25720   2
 -16   9   1 11.3943 5.84916   1
  15  -9  -1 122.001 11.8933   1
  -9  -6  -1 95.6222 10.9580   1
  -9  -6  -1 143.992 13.6057   2
  -6  15  -1 102.719 10.5975   1
  15  -9  -1 107.481 12.3621   2
 -15   9   1 111.734 9.77089   1
   9   6   1 128.828 10.1003   1
   6 -15   1 119.612 12.7570   2
   6 -15   1 100.694 10.9932   1
  14  -9  -1 25.2553 8.08028   2
  -9  -5  -1 22.9543 6.98098   1
  -9  -5  -1 29.6263 8.49554   2
  -5  14  -1 13.5572 6.95255   1
  14  -9  -1 33.3452 7.77260   1
   9   5   1 19.9428 6.02465   1
   5 -14   1 11.5581 7.14672   1
   5 -14   1 0.37730 7.21834   2
 -14   9   1 13.2970 6.18057   1
  -9  -4  -1 46.4953 8.63018   2
  -4  13  -1 60.2283 7.71339   1
  13  -9  -1 43.8603 8.54316   2
  -4  13  -1 55.5730 9.61810   2
  13  -9  -1 59.9590 8.17049   1
  -9  -4  -1 55.8672 7.55893   1
   9   4   1 71.4176 7.23273   1
 -13   9   1 73.6523 7.47301   1
   4 -13   1 68.4105 9.32618   2
   4 -13   1 57.7210 8.35899   1
  -9  -3  -1 68.4327 8.47077   2
  12  -9  -1 66.1528 8.75426   2
  -3  12  -1 65.7507 8.82681   2
  -3  12  -1 49.5015 7.38492   1
  -9  -3  -1 50.0726 6.92875   1
  12  -9  -1 55.7868 7.47993   1
   9   3   1 60.9186 8.26156   2
 -12   9   1 58.4092 6.88106   1
   9   3   1 49.0568 6.48574   1
   3 -12   1 52.1570 7.48121   1
   3 -12   1 48.0234 8.17058   2
  -9  -2  -1 255.743 16.1745   1
  11  -9  -1 279.865 17.0329   2
  -2  11  -1 259.591 15.6153   1
  -9  -2  -1 303.296 17.1874   2
  -2  11  -1 252.977 16.8809   2
  11  -9  -1 273.470 16.1933   1
   2 -11   1 260.159 16.5627   2
 -11   9   1 240.869 14.8554   1
   9   2   1 245.189 15.0158   1
   9   2   1 256.127 16.1386   2
   2 -11   1 269.605 16.2131   1
  10  -9  -1 165.041 11.2641   1
  -9  -1  -1 149.770 11.2651   1
  -1  10  -1 155.115 10.9320   1
  -9  -1  -1 163.659 11.4648   2
  10  -9  -1 150.760 11.3409   2
  -1  10  -1 152.053 11.5970   2
   9   1   1 139.827 10.5626   2
 -10   9   1 125.198 15.4789   7
 -10   9   1 115.442 14.5202   3
   1 -10   1 147.422 11.3906   1
   1 -10   1 131.436 11.1210   2
 -10   9   1 139.023 10.1765   1
   9   1   1 149.996 10.3402   1
  -9   0  -1 234.665 13.9882   2
  -9   0  -1 227.810 13.7348   1
   9  -9  -1 224.021 13.4785   1
   0   9  -1 239.051 13.2678   1
   9  -9  -1 198.245 13.7954   2
   0  -9   1 221.846 13.7709   1
   0  -9   1 223.844 13.6140   2
   9   0   1 212.569 12.8468   1
   9   0   1 217.320 13.5697   2
  -9   9   1 205.501 17.7747   7
  -9   9   1 208.596 18.0641   3
  -9   9   1 195.148 12.3438   1
  -9   1  -1 74.7869 7.04589   1
  -9   1  -1 59.3030 6.89925   2
   8  -9  -1 72.0905 7.19104   2
   8  -9  -1 73.8433 6.72001   1
   1   8  -1 71.8900 6.94231   2
   1   8  -1 82.0090 6.55766   1
   9  -1   1 57.8362 6.01981   1
  -8   9   1 49.9257 5.34969   1
  -1  -8   1 78.9385 7.02514   1
  -8   9   1 67.5421 8.69897   6
  -8   9   1 49.8595 9.43058   3
   9  -1   1 58.3961 6.61077   2
  -1  -8   1 66.8599 6.81724   2
  -8   9   1 42.1793 9.35309   7
   7  -9  -1 15.9946 4.33569   1
   2   7  -1 14.7118 4.64986   2
  -9   2  -1 13.4856 4.70734   2
   7  -9  -1 14.2033 4.70970   2
   2   7  -1 12.3363 4.11827   1
  -9   2  -1 17.4684 4.70587   1
  -7   9   1 25.4734 3.84858   1
   9  -2   1 19.2795 4.34283   1
   9  -2   1 15.8708 4.71410   2
  -7   9   1 26.6990 7.54638   3
  -2  -7   1 31.5582 5.06847   2
  -7   9   1 23.1994 7.16364   6
  -2  -7   1 26.1348 4.73199   1
  -7   9   1 21.9040 8.05116   7
  -9   3  -1 61.0971 6.49431   2
   3   6  -1 57.9675 5.66888   1
   6  -9  -1 45.1456 5.47742   1
   3   6  -1 48.8418 5.98873   2
   6  -9  -1 49.5017 6.17266   2
  -9   3  -1 49.7882 5.96123   1
  -3  -6   1 70.4314 6.75957   2
  -6   9   1 49.2701 8.22901   3
   9  -3   1 55.9430 5.60180   1
  -6   9   1 59.4328 9.25884   6
  -3  -6   1 65.0366 6.05783   1
  -6   9   1 50.7536 8.41278   7
  -6   9   1 61.2018 5.01430   1
   9  -3   1 60.7855 6.25471   2
   5  -9  -1 29.0379 4.80944   1
   5  -9  -1 29.3553 5.17876   2
   4   5  -1 44.0891 4.89931   1
   4   5  -1 38.4197 5.50037   2
  -9   4  -1 37.5484 5.65454   2
  -9   4  -1 36.8099 5.55584   1
  -5   9   1 61.0236 9.73746   6
  -4  -5   1 59.9886 5.69333   1
  -5   9   1 46.2959 4.39024   1
  -5   9   1 45.5544 8.15932   7
  -4  -5   1 54.5942 5.95879   2
   9  -4   1 54.7450 6.01736   2
   9  -4   1 56.8563 5.53372   1
  -5   9   1 58.5750 8.24404   3
   5   4  -1 226.507 12.7996   1
   4  -9  -1 243.115 13.1736   1
   4  -9  -1 230.070 13.5827   2
   4  -9  -1 242.652 15.8298   3
   5   4  -1 235.785 13.4840   2
  -9   5  -1 265.867 14.0214   1
  -9   5  -1 229.823 14.2325   2
  -5  -4   1 219.440 13.3259   2
  -4   9   1 215.904 16.6351   7
  -4   9   1 225.211 12.2001   1
  -5  -4   1 217.985 13.1088   1
   9  -5   1 228.507 13.2495   1
  -4   9   1 228.453 16.0715   3
   9  -5   1 221.966 13.5799   2
  -4   9   1 247.294 18.9544   6
   6   3  -1 144.799 10.7357   2
   6   3  -1 144.749 10.0027   1
   3  -9  -1 149.488 12.8334   3
   3  -9  -1 164.452 10.1628   1
   3  -9  -1 138.201 10.5443   2
  -9   6  -1 150.087 11.0401   1
  -9   6  -1 147.250 11.0906   2
  -6  -3   1 169.207 10.3368   1
   9  -6   1 177.481 11.3893   2
  -3   9   1 175.381 16.2310   6
   9  -6   1 164.903 10.5593   1
  -6  -3   1 178.079 10.9886   2
  -3   9   1 175.873 9.35818   1
  -3   9   1 167.061 14.3440   7
  -9   7  -1 69.4850 7.56193   2
   2  -9  -1 84.0981 7.47815   2
   2  -9  -1 58.5153 8.35324   3
   7   2  -1 71.8018 6.46530   1
   2  -9  -1 64.7681 6.10391   1
   7   2  -1 64.3172 6.92307   2
  -9   7  -1 69.9372 7.16406   1
   9  -7   1 84.2862 7.02268   1
  -2   9   1 84.8441 13.0110   6
  -7  -2   1 89.2526 7.34774   2
  -7  -2   1 85.6180 6.92221   1
   9  -7   1 82.8936 7.66311   2
  -2   9   1 109.279 11.8792   7
  -2   9   1 82.1799 6.40581   1
   8   1  -1 48.5098 6.04762   2
   1  -9  -1 47.9923 6.01420   2
   1  -9  -1 48.8611 5.53961   1
   1  -9  -1 36.8135 7.40325   3
  -9   8  -1 46.2398 6.32070   1
   8   1  -1 47.6782 5.36486   1
  -9   8  -1 44.4025 6.69990   2
  -8  -1   1 50.8875 5.70220   1
  -1   9   1 50.8921 9.01851   7
  -1   9   1 49.5636 11.7667   6
  -1   9   1 46.6010 4.74454   1
   9  -8   1 52.8258 5.97849   1
  -8  -1   1 34.5904 5.61661   2
   9  -8   1 42.6954 6.42671   2
  -9   9  -1 109.754 10.1744   2
  -9   9  -1 139.990 10.8769   1
   0  -9  -1 133.593 9.40680   1
   9   0  -1 129.419 10.2006   2
   9   0  -1 143.553 9.65762   1
   0  -9  -1 132.448 10.2469   2
   0   9   1 133.305 16.3576   6
   0   9   1 124.688 8.77596   1
   9  -9   1 119.317 10.1238   1
   9  -9   1 119.167 10.7433   2
  -9   0   1 123.429 10.1947   2
  -9   0   1 115.939 9.27838   1
  -9  10  -1 80.2332 8.87311   2
  10  -1  -1 95.0777 7.77355   1
  -1  -9  -1 93.5889 8.78870   2
  10  -1  -1 83.1123 8.42642   2
  -9  10  -1 91.3837 8.61323   1
  -1  -9  -1 76.1285 7.32145   1
 -10   1   1 87.5779 8.34908   2
   9 -10   1 86.4113 8.19642   1
 -10   1   1 89.0029 7.92268   1
   9 -10   1 88.7397 9.05409   2
   1   9   1 119.381 16.3276   6
   1   9   1 93.2850 7.89602   1
  -9  11  -1 234.762 16.2096   2
  -2  -9  -1 234.320 14.2827   1
  -2  -9  -1 229.726 14.9870   2
  11  -2  -1 231.131 14.5631   1
  -9  11  -1 234.786 15.3420   1
  11  -2  -1 244.206 15.2998   2
   9 -11   1 236.960 15.9648   2
 -11   2   1 219.746 15.1448   2
   2   9   1 246.251 23.0150   6
 -11   2   1 250.563 14.7653   1
   2   9   1 233.644 13.5053   1
   9 -11   1 226.654 14.9040   1
  -3  -9  -1 79.9845 8.01211   1
  -9  12  -1 63.9228 9.40511   2
  -3  -9  -1 77.0410 9.23061   2
  12  -3  -1 91.8306 8.27370   1
  12  -3  -1 85.3099 9.20685   2
  -9  12  -1 71.0844 8.37262   1
   9 -12   1 75.6006 8.58281   1
   9 -12   1 73.2998 9.18084   2
 -12   3   1 77.5009 7.90149   1
   3   9   1 80.3490 7.00121   1
   3   9   1 92.7334 16.1269   6
  13  -4  -1 6.56812 6.44353   2
  -9  13  -1 -2.1090 6.31116   1
  13  -4  -1 8.28891 5.93677   1
  -4  -9  -1 8.40735 6.71247   2
  -4  -9  -1 10.5149 5.58347   1
  -9  13  -1 10.0674 9.47451   2
 -13   4   1 16.5842 5.92762   1
   4   9   1 5.97132 11.4330   6
   4   9   1 11.5761 5.09709   1
   9 -13   1 -0.4051 6.25809   1
   9 -13   1 -1.0307 6.90653   2
  14  -5  -1 58.3290 8.32097   1
  -5  -9  -1 58.0087 9.46333   2
  14  -5  -1 46.4763 9.03290   2
  -9  14  -1 54.3606 8.25674   1
  -5  -9  -1 29.8891 7.52652   1
   9 -14   1 50.6880 9.38482   2
   9 -14   1 39.6192 8.20017   1
   5   9   1 49.0137 6.70488   1
 -14   5   1 50.6907 7.20928   1
  -6  -9  -1 -10.498 6.06690   1
  -9  15  -1 5.15278 7.02792   1
  -6  -9  -1 -9.3128 7.56358   2
  15  -6  -1 15.3896 7.35979   1
  15  -6  -1 7.08828 8.06390   2
   9 -15   1 -0.8603 7.94867   2
 -15   6   1 -0.2270 5.62664   1
   9 -15   1 5.99626 7.85008   1
   6   9   1 -2.9660 5.39611   1
  -7  -9  -1 -12.303 6.33990   1
  16  -7  -1 3.32531 7.25126   1
  16  -7  -1 18.3467 9.20219   2
  -9  16  -1 2.93286 7.50726   1
  -7  -9  -1 -4.6966 8.84459   2
   9 -16   1 7.99528 8.22513   1
   7   9   1 4.32564 5.97027   1
   9 -16   1 15.0186 8.87528   2
 -16   7   1 2.76028 6.29848   1
  -8  -9  -1 5.46305 7.38685   1
  17  -8  -1 15.1429 9.82769   2
  -8  -9  -1 8.54610 9.87417   2
  -9  17  -1 8.07138 7.93547   1
  17  -8  -1 -1.4930 8.14798   1
   9 -17   1 0.26016 8.47239   1
   8   9   1 9.83813 6.52166   1
 -17   8   1 13.6768 6.53072   1
   9 -17   1 -6.6876 9.05770   2
  18  -9  -1 2.12300 8.77536   1
  -9  18  -1 -0.9671 7.63231   1
  18  -9  -1 0.05794 9.91226   2
  -9  -9  -1 7.01897 10.7554   2
  -9  -9  -1 0.09335 7.94001   1
   9   9   1 13.5387 6.83234   1
   9 -18   1 2.63095 9.90290   2
   9 -18   1 -2.9494 9.12937   1
 -10  -9  -1 -1.4292 11.1086   2
  -9  19  -1 14.2229 8.16780   1
  19 -10  -1 -8.9284 10.5581   2
 -10  -9  -1 17.7074 9.06315   1
  19 -10  -1 5.06332 9.69026   1
   9 -19   1 -1.6488 9.79438   1
   9 -19   1 6.40999 10.4757   2
  18 -10  -1 5.63032 10.4270   2
 -10  -8  -1 29.0142 11.4014   2
  18 -10  -1 10.2203 9.49364   1
 -10  -8  -1 -0.5002 7.73411   1
  -8  18  -1 14.3299 8.21900   1
   8 -18   1 19.7273 9.51916   1
  10   8   1 20.1034 7.50672   1
   8 -18   1 29.0559 10.9778   2
 -10  -7  -1 13.5232 7.82688   1
 -10  -7  -1 13.5079 10.3833   2
  17 -10  -1 8.44767 9.74637   2
  17 -10  -1 5.85351 8.95498   1
  -7  17  -1 18.6304 7.80344   1
   7 -17   1 21.3257 9.07459   1
   7 -17   1 25.4053 10.6229   2
  10   7   1 10.5038 6.69621   1
 -10  -6  -1 11.8057 7.75637   1
 -10  -6  -1 7.41975 9.45216   2
  16 -10  -1 0.12493 7.85971   1
  16 -10  -1 7.91252 8.56149   2
  -6  16  -1 18.3929 7.66072   1
   6 -16   1 2.26095 8.85444   2
  10   6   1 7.81271 6.74375   1
   6 -16   1 5.24569 7.72211   1
 -10  -5  -1 6.07656 8.79832   2
 -10  -5  -1 20.0573 7.36103   1
  15 -10  -1 11.0400 7.82523   1
  -5  15  -1 20.3342 7.47278   1
  15 -10  -1 29.7480 9.01359   2
 -15  10   1 15.9953 6.50260   1
   5 -15   1 20.4659 9.20449   2
  10   5   1 14.6226 6.12609   1
   5 -15   1 13.5411 7.90225   1
  -4  14  -1 198.217 14.3116   1
  14 -10  -1 207.072 16.2671   2
  14 -10  -1 179.682 15.0940   1
 -10  -4  -1 205.014 15.0683   1
 -10  -4  -1 190.258 15.1915   2
   4 -14   1 173.116 14.9394   2
   4 -14   1 151.266 13.5813   1
  10   4   1 174.708 13.1840   1
 -14  10   1 168.149 13.1367   1
  -3  13  -1 8.65934 6.05446   1
  13 -10  -1 -4.1953 6.82788   2
  13 -10  -1 0.13628 6.05257   1
 -10  -3  -1 8.20106 7.09125   2
  -3  13  -1 6.76794 12.7741   2
 -10  -3  -1 -7.3191 5.49341   1
   3 -13   1 -3.5572 6.73298   2
  10   3   1 8.70834 5.20813   1
 -13  10   1 -5.7471 5.24917   1
   3 -13   1 5.08674 6.22590   1
  -2  12  -1 250.605 18.2955   2
  12 -10  -1 289.344 17.4480   1
  -2  12  -1 262.423 16.6696   1
 -10  -2  -1 271.095 17.4888   1
 -10  -2  -1 277.188 18.3181   2
  12 -10  -1 279.605 18.2742   2
  10   2   1 272.615 17.6203   2
   2 -12   1 281.643 18.0016   2
 -12  10   1 279.410 15.8935   1
   2 -12   1 271.730 17.2954   1
  10   2   1 280.464 16.1530   1
  11 -10  -1 41.6133 7.64661   2
  -1  11  -1 33.2795 7.43556   2
 -10  -1  -1 45.6309 7.44944   2
 -10  -1  -1 45.7782 7.34923   1
  11 -10  -1 37.0920 6.83458   1
  -1  11  -1 48.9366 6.37558   1
  10   1   1 31.7693 6.70325   2
   1 -11   1 49.1909 6.97278   1
 -11  10   1 46.6699 5.88318   1
  10   1   1 44.3809 6.18031   1
   1 -11   1 22.4428 6.79942   2
 -10   0  -1 222.748 14.6769   1
   0  10  -1 210.528 14.4549   2
   0  10  -1 211.125 13.6587   1
  10 -10  -1 215.021 14.2298   1
  10 -10  -1 217.158 14.9096   2
 -10   0  -1 233.189 15.0878   2
 -10  10   1 233.231 22.7386   3
   0 -10   1 210.708 14.6200   2
  10   0   1 224.541 13.6085   1
   0 -10   1 224.617 14.4371   1
  10   0   1 203.342 14.1948   2
 -10  10   1 222.563 12.9342   1
 -10   1  -1 68.4531 7.50467   2
 -10   1  -1 61.8457 6.94651   1
   1   9  -1 60.3750 6.61837   1
   9 -10  -1 46.6172 7.10237   2
   9 -10  -1 50.4691 6.98602   1
   1   9  -1 57.0484 6.90328   2
  -9  10   1 33.5918 9.18812   7
  -9  10   1 48.1254 9.86240   3
  -9  10   1 50.8823 5.39618   1
  -1  -9   1 40.0220 6.62579   2
  10  -1   1 54.1751 6.80404   2
  -1  -9   1 45.9387 6.62265   1
  10  -1   1 46.2194 5.91393   1
   2   8  -1 23.8199 5.29649   2
   8 -10  -1 14.4274 5.48371   2
 -10   2  -1 28.1278 5.62048   2
 -10   2  -1 18.6630 5.44942   1
   8 -10  -1 18.7764 5.20178   1
   2   8  -1 23.5445 4.95249   1
  -8  10   1 30.7545 8.89447   3
  -8  10   1 30.6835 9.32479   7
  -2  -8   1 36.2671 5.51769   1
  -2  -8   1 37.0617 5.69749   2
  -8  10   1 24.1337 4.41605   1
  10  -2   1 31.5558 5.11576   1
  -8  10   1 16.7153 7.31846   6
  10  -2   1 28.6198 5.49562   2
   7 -10  -1 56.5715 7.06072   2
 -10   3  -1 57.3131 7.28580   2
 -10   3  -1 71.9740 7.47446   1
   3   7  -1 66.0903 6.51456   1
   3   7  -1 54.3431 7.03265   2
   7 -10  -1 71.8623 7.09691   1
  -3  -7   1 83.0574 7.66739   2
  -7  10   1 86.8162 10.5647   6
  -7  10   1 80.3006 10.2159   3
  -7  10   1 65.2584 9.90007   7
  10  -3   1 74.4641 7.55535   2
  -3  -7   1 76.4332 7.06352   1
  10  -3   1 75.1732 6.81203   1
  -7  10   1 73.5331 5.89367   1
   4   6  -1 27.5894 5.19793   2
   6 -10  -1 33.2905 5.12821   1
   4   6  -1 28.9766 4.83062   1
   6 -10  -1 34.5944 5.85879   2
 -10   4  -1 26.5992 5.38176   1
 -10   4  -1 24.6282 5.71470   2
  -4  -6   1 29.3801 5.11924   1
  10  -4   1 17.9885 4.87510   1
  -6  10   1 21.1948 7.68719   7
  10  -4   1 28.1078 5.32240   2
  -4  -6   1 24.9032 5.23218   2
  -6  10   1 24.5566 8.66826   6
  -6  10   1 30.3669 7.80820   3
  -6  10   1 16.7526 3.95398   1
 -10   5  -1 218.345 14.5777   2
   5   5  -1 244.432 13.4302   1
   5 -10  -1 207.212 14.0544   2
   5   5  -1 236.073 14.1969   2
 -10   5  -1 233.678 14.3912   1
   5 -10  -1 215.355 13.4940   1
  -5  -5   1 261.089 13.8624   1
  -5  10   1 262.639 18.5337   7
  10  -5   1 237.489 13.7033   1
  -5  10   1 216.989 16.7573   3
  10  -5   1 231.429 14.3421   2
  -5  10   1 227.053 12.5289   1
  -5  10   1 236.138 19.3274   6
  -5  -5   1 237.922 14.2950   2
 -10   6  -1 160.487 11.9317   2
   6   4  -1 169.825 10.7822   1
   4 -10  -1 168.379 10.9602   1
   4 -10  -1 165.102 13.7884   3
 -10   6  -1 166.671 12.1678   1
   6   4  -1 148.398 11.3653   2
   4 -10  -1 161.184 11.5328   2
  -4  10   1 160.022 14.1778   3
  -6  -4   1 171.614 11.1039   1
  10  -6   1 163.006 11.7564   2
  -6  -4   1 181.190 11.2769   2
  -4  10   1 187.184 15.9292   7
  10  -6   1 172.457 11.3598   1
  -4  10   1 160.795 9.87587   1
  -4  10   1 172.618 16.7077   6
 -10   7  -1 68.4335 7.75090   2
   3 -10  -1 45.9755 6.00774   1
   3 -10  -1 59.9150 6.85948   2
   7   3  -1 62.5327 7.08886   2
 -10   7  -1 57.5186 7.12227   1
   7   3  -1 60.2751 6.29468   1
   3 -10  -1 52.1490 8.17014   3
  -3  10   1 72.1478 12.5049   6
  -7  -3   1 69.2517 7.03353   2
  -7  -3   1 80.2615 6.71998   1
  -3  10   1 68.8363 9.79704   7
  -3  10   1 54.9365 5.24954   1
  10  -7   1 65.2738 7.41160   2
  10  -7   1 63.3685 6.66775   1
 -10   8  -1 157.163 13.0571   1
 -10   8  -1 170.547 13.5491   2
   2 -10  -1 171.161 12.0565   1
   8   2  -1 147.558 12.6308   2
   8   2  -1 187.732 12.3728   1
   2 -10  -1 160.715 12.6979   2
  -2  10   1 245.539 21.0583   6
  -8  -2   1 224.749 13.1055   2
  10  -8   1 218.239 13.7054   2
  -8  -2   1 225.075 12.5871   1
  -2  10   1 207.284 16.9552   7
  -2  10   1 220.133 11.2697   1
  10  -8   1 201.206 12.6805   1
 -10   9  -1 206.596 14.7722   2
   9   1  -1 179.413 13.5355   2
 -10   9  -1 195.149 14.0690   1
   1 -10  -1 197.628 12.9261   1
   1 -10  -1 200.226 13.6350   2
   9   1  -1 193.314 13.1257   1
  10  -9   1 218.851 14.3999   2
  -9  -1   1 212.588 14.0335   2
  -1  10   1 222.256 12.1842   1
  -9  -1   1 242.788 13.3647   1
  10  -9   1 219.928 13.6646   1
  -1  10   1 210.386 17.6560   7
  -1  10   1 258.228 22.5190   6
 -10  10  -1 288.305 18.7511   2
  10   0  -1 323.776 17.3222   1
   0 -10  -1 342.367 18.3082   2
   0 -10  -1 320.061 17.4271   1
 -10  10  -1 317.535 18.1308   1
  10   0  -1 306.811 18.1155   2
  10 -10   1 269.698 18.3920   2
 -10   0   1 284.337 17.9966   2
  10 -10   1 291.176 17.7370   1
   0  10   1 274.736 25.6367   6
 -10   0   1 306.033 17.6996   1
   0  10   1 310.984 16.3012   1
 -10  11  -1 49.9075 8.39097   2
  -1 -10  -1 58.2272 6.66044   1
  11  -1  -1 44.9352 7.41148   2
  11  -1  -1 41.9254 6.53151   1
  -1 -10  -1 51.8034 7.54950   2
 -10  11  -1 48.2671 7.51466   1
  10 -11   1 39.5033 7.44286   2
 -11   1   1 44.9728 6.81013   1
  10 -11   1 56.8498 7.43827   1
 -11   1   1 46.6864 7.24339   2
   1  10   1 49.0374 5.90858   1
   1  10   1 57.1193 14.4870   6
  -2 -10  -1 26.7387 6.00378   1
  -2 -10  -1 30.0670 7.15859   2
 -10  12  -1 20.0195 7.75250   2
 -10  12  -1 29.1843 6.93880   1
  12  -2  -1 24.8700 6.83876   2
  12  -2  -1 14.9540 6.02133   1
   2  10   1 22.6457 13.1621   6
 -12   2   1 28.0516 6.24824   1
  10 -12   1 22.5020 6.45157   1
   2  10   1 24.0784 5.16929   1
  10 -12   1 13.3967 6.91990   2
  13  -3  -1 15.2286 7.06914   2
 -10  13  -1 24.5886 7.07890   1
  13  -3  -1 17.8807 6.53120   1
  -3 -10  -1 14.1673 7.09495   2
  -3 -10  -1 9.37649 5.76345   1
  10 -13   1 11.0436 6.62992   1
   3  10   1 17.0655 5.16541   1
  10 -13   1 25.7964 7.98469   2
 -13   3   1 5.40823 5.70079   1
 -10  14  -1 44.5569 8.08233   1
  14  -4  -1 25.2116 7.49854   1
  14  -4  -1 26.5646 8.07583   2
  -4 -10  -1 34.4988 7.42702   1
  -4 -10  -1 24.0093 8.04542   2
  10 -14   1 32.2545 8.11627   1
   4  10   1 31.0734 6.04390   1
 -14   4   1 20.9751 6.51204   1
  10 -14   1 21.5022 8.24926   2
  15  -5  -1 23.4240 7.91538   1
 -10  15  -1 19.2181 7.61400   1
  -5 -10  -1 31.9148 7.63381   1
  -5 -10  -1 29.6119 9.12503   2
  15  -5  -1 44.1251 8.92385   2
  10 -15   1 14.4933 9.08616   2
  10 -15   1 28.2703 8.20728   1
   5  10   1 36.8122 6.51491   1
 -15   5   1 27.8433 6.91125   1
  16  -6  -1 58.0142 10.2390   1
  -6 -10  -1 56.4224 8.89597   1
 -10  16  -1 58.3694 9.17147   1
  16  -6  -1 52.4548 10.7787   2
  -6 -10  -1 52.9650 11.1568   2
   6  10   1 61.3870 7.75504   1
  10 -16   1 50.8225 10.8460   2
  10 -16   1 49.0616 9.63152   1
 -16   6   1 56.9145 8.05954   1
  -7 -10  -1 20.4133 8.16238   1
  -7 -10  -1 9.20349 10.2543   2
 -10  17  -1 17.8607 8.07074   1
  17  -7  -1 22.6524 8.53347   1
  17  -7  -1 18.9088 10.0581   2
   7  10   1 17.4265 6.79876   1
  10 -17   1 25.6831 9.09433   1
  10 -17   1 23.4223 10.3850   2
 -17   7   1 20.4448 7.23062   1
  -8 -10  -1 5.04596 10.8945   2
 -10  18  -1 -4.1053 7.81191   1
  -8 -10  -1 8.00743 8.28709   1
  18  -8  -1 -14.008 8.09247   1
  18  -8  -1 -0.2274 10.1436   2
  10 -18   1 16.7826 10.5544   2
   8  10   1 10.7376 6.77624   1
 -18   8   1 5.01864 6.69399   1
  10 -18   1 3.97575 9.16541   1
  19  -9  -1 -3.4623 10.8370   2
 -10  19  -1 2.94854 7.85640   1
  -9 -10  -1 -0.7143 11.2387   2
  -9 -10  -1 9.92283 8.77003   1
  19  -9  -1 -7.1721 8.89437   1
  10 -19   1 17.7736 11.2217   2
  10 -19   1 -4.3809 9.54739   1
  19 -11  -1 -3.7138 9.59907   1
  19 -11  -1 3.28858 10.9472   2
 -11  -8  -1 6.47030 8.65673   1
  -8  19  -1 -8.8915 7.64114   1
 -11  -8  -1 7.21750 11.2830   2
   8 -19   1 7.57574 11.3217   2
   8 -19   1 3.58713 9.64312   1
  11   8   1 -6.8440 7.31759   1
  18 -11  -1 1.25319 9.26862   1
  -7  18  -1 8.11442 7.69416   1
 -11  -7  -1 0.86704 11.0963   2
  18 -11  -1 12.5502 10.7244   2
 -11  -7  -1 6.26292 8.05871   1
  11   7   1 3.21603 6.99181   1
   7 -18   1 -1.6594 9.02659   1
   7 -18   1 17.9728 11.2070   2
 -11  -6  -1 15.8426 8.54444   1
  -6  17  -1 12.0182 7.64029   1
 -11  -6  -1 8.53197 9.88544   2
  17 -11  -1 27.1683 10.7089   2
  17 -11  -1 13.6805 8.99774   1
   6 -17   1 16.7492 10.4017   2
   6 -17   1 12.5380 8.82820   1
  11   6   1 8.61361 7.07031   1
  16 -11  -1 20.5117 8.86393   1
  16 -11  -1 31.7869 10.3861   2
 -11  -5  -1 8.52922 9.83796   2
 -11  -5  -1 22.0894 8.04376   1
  -5  16  -1 36.9490 8.16727   1
  11   5   1 25.2422 7.17667   1
   5 -16   1 37.2982 10.1710   2
   5 -16   1 53.6644 9.45751   1
 -11  -4  -1 12.6185 7.33884   1
  15 -11  -1 15.2334 8.76541   2
  15 -11  -1 11.2784 7.76840   1
 -11  -4  -1 0.99122 8.13094   2
  -4  15  -1 20.5701 7.33417   1
   4 -15   1 21.2862 8.47858   2
   4 -15   1 13.7124 7.76175   1
  11   4   1 11.6618 6.56005   1
  -3  14  -1 10.5352 6.76790   1
  14 -11  -1 21.5983 8.41362   2
 -11  -3  -1 4.66435 6.34091   1
 -11  -3  -1 12.1483 7.51709   2
  14 -11  -1 16.7345 8.00127   1
   3 -14   1 25.8920 8.40329   2
 -14  11   1 12.3173 5.73373   1
  11   3   1 7.86820 5.84847   1
   3 -14   1 13.1492 7.11549   1
 -11  -2  -1 1.90904 7.15840   2
 -11  -2  -1 8.99150 6.07047   1
  13 -11  -1 12.2407 7.65645   2
  -2  13  -1 3.31626 6.35618   1
   2 -13   1 14.8518 7.28543   2
 -13  11   1 9.71506 5.68914   1
  11   2   1 3.31530 5.36863   1
   2 -13   1 9.58212 6.80696   1
  -1  12  -1 48.6620 7.39603   1
 -11  -1  -1 53.8600 9.04648   2
  -1  12  -1 64.8697 9.66009   2
 -11  -1  -1 67.9282 8.71778   1
  12 -11  -1 57.2009 8.95851   2
  11   1   1 59.5206 7.24573   1
 -12  11   1 53.7046 6.46337   1
   1 -12   1 50.1919 8.05438   1
   1 -12   1 51.0884 8.63505   2
  11   1   1 62.0151 8.08596   2
 -11   0  -1 205.247 15.1748   1
 -11   0  -1 206.510 15.5648   2
   0  11  -1 197.428 15.5816   2
   0  11  -1 203.711 14.1379   1
  11 -11  -1 220.992 15.5124   2
  11   0   1 223.445 14.0205   1
  11   0   1 221.571 14.8867   2
   0 -11   1 189.724 15.2007   2
 -11  11   1 211.586 13.0714   1
   0 -11   1 219.650 14.7518   1
 -11   1  -1 15.3381 6.59351   1
   1  10  -1 30.0774 6.77471   2
  10 -11  -1 15.7630 6.63498   2
   1  10  -1 28.3170 5.78831   1
 -11   1  -1 20.4793 6.31335   2
  11  -1   1 30.9695 6.32778   2
  11  -1   1 20.2580 5.45637   1
  -1 -10   1 29.0732 6.36711   2
  -1 -10   1 21.6328 5.89135   1
   9 -11  -1 47.4332 7.47936   2
 -11   2  -1 44.5987 7.29839   2
   2   9  -1 47.3634 6.29598   1
 -11   2  -1 42.2026 6.88823   1
   2   9  -1 47.2633 6.98394   2
  -2  -9   1 52.1730 7.27478   2
  -9  11   1 53.5978 10.1243   3
  11  -2   1 43.2498 6.10361   1
  -2  -9   1 58.4834 6.93204   1
  -9  11   1 41.6579 5.29899   1
  11  -2   1 48.2186 6.97539   2
 -11   3  -1 418.631 21.7050   2
   3   8  -1 376.072 21.0050   2
 -11   3  -1 392.894 21.4305   1
   3   8  -1 367.010 20.2570   1
   8 -11  -1 426.533 21.8384   2
  -8  11   1 388.137 24.6625   3
  -3  -8   1 386.065 21.4753   2
  11  -3   1 366.831 20.4430   1
  -8  11   1 382.922 24.6492   6
  11  -3   1 343.415 21.1722   2
  -8  11   1 379.594 28.2149   7
  -3  -8   1 376.095 20.6869   1
   4   7  -1 5.69326 4.51955   1
 -11   4  -1 9.04689 5.66635   1
 -11   4  -1 6.17430 5.35525   2
   4   7  -1 12.5577 5.25208   2
   7 -11  -1 7.16309 5.23351   2
  -4  -7   1 10.2202 5.42411   2
  -7  11   1 4.83712 3.91953   1
  -7  11   1 12.9679 8.49453   6
  11  -4   1 12.1801 4.71240   1
  -7  11   1 7.43154 7.49710   3
  11  -4   1 10.6740 5.24903   2
  -4  -7   1 3.99890 4.58305   1
  -7  11   1 1.22680 7.85403   7
   6 -11  -1 131.888 11.4581   2
 -11   5  -1 137.380 10.7806   1
 -11   5  -1 118.338 11.0854   2
   5   6  -1 149.420 10.5357   1
   5   6  -1 136.904 11.2022   2
  -6  11   1 142.565 14.3486   3
  -6  11   1 165.182 15.9172   6
  11  -5   1 150.278 10.8609   1
  -5  -6   1 159.185 10.9678   1
  -6  11   1 147.542 9.47223   1
  -6  11   1 177.063 16.4452   7
  11  -5   1 150.716 11.8121   2
  -5  -6   1 144.042 10.9734   2
 -11   6  -1 225.510 14.9734   2
   5 -11  -1 214.744 14.7449   2
   6   5  -1 216.113 13.7510   1
   6   5  -1 244.534 14.4308   2
 -11   6  -1 238.701 15.3198   1
  -6  -5   1 230.323 14.4467   2
  -5  11   1 236.666 19.3791   3
  11  -6   1 234.268 15.0074   2
  -5  11   1 206.284 18.4805   7
  -6  -5   1 236.742 14.0648   1
  11  -6   1 228.375 14.3272   1
  -5  11   1 246.518 21.0320   6
 -11   7  -1 951.111 43.6750   1
   4 -11  -1 953.069 44.0419   2
 -11   7  -1 922.518 44.4227   2
   7   4  -1 965.315 43.9730   2
   7   4  -1 918.841 42.9584   1
  -4  11   1 897.335 49.4309   6
  -4  11   1 852.003 41.9547   1
  -7  -4   1 861.511 43.7187   2
  -7  -4   1 870.828 43.1245   1
  11  -7   1 872.083 43.1998   1
  -4  11   1 862.963 47.3439   7
  11  -7   1 853.461 43.8871   2
   8   3  -1 15.2794 5.07854   1
 -11   8  -1 18.6114 6.34882   1
   8   3  -1 20.1433 5.84050   2
   3 -11  -1 22.7017 6.08503   2
 -11   8  -1 26.4970 6.68101   2
  -3  11   1 26.8152 11.5364   6
  11  -8   1 30.9966 6.55320   2
  11  -8   1 18.1999 5.44697   1
  -8  -3   1 13.6424 5.42289   2
  -3  11   1 11.3424 13.0758   7
  -8  -3   1 18.8296 5.28702   1
   9   2  -1 126.351 9.98975   1
   2 -11  -1 130.459 11.4337   2
   9   2  -1 133.167 11.6603   2
 -11   9  -1 140.284 10.9797   1
 -11   9  -1 132.720 11.5837   2
  -9  -2   1 145.031 11.1625   1
  11  -9   1 143.350 12.2758   2
  11  -9   1 129.758 10.3068   1
  -2  11   1 140.352 18.0290   6
  -9  -2   1 136.997 11.5338   2
  10   1  -1 94.6605 8.32047   1
 -11  10  -1 91.7298 9.81893   2
  10   1  -1 77.5636 8.60385   2
   1 -11  -1 79.4572 8.75425   2
 -11  10  -1 85.5662 8.76583   1
  -1  11   1 86.1816 6.94347   1
  11 -10   1 79.6301 8.47018   1
 -10  -1   1 80.2089 8.09737   1
  -1  11   1 73.9233 15.5826   6
  11 -10   1 71.4829 9.03123   2
 -10  -1   1 87.4830 9.30366   2
  11   0  -1 162.069 11.9887   1
 -11  11  -1 171.670 13.5046   1
 -11  11  -1 142.886 12.8853   2
   0 -11  -1 174.453 12.9509   2
   0 -11  -1 142.754 15.0311   1
  11   0  -1 154.258 12.6777   2
   0  11   1 134.549 18.9993   6
  11 -11   1 160.399 12.8877   2
 -11   0   1 145.148 12.0330   1
   0  11   1 133.530 10.4406   1
  11 -11   1 136.821 11.6013   1
 -11   0   1 152.632 12.4184   2
 -11  12  -1 29.5257 7.65163   1
  -1 -11  -1 53.4025 8.25464   2
  12  -1  -1 55.0414 8.34521   2
  12  -1  -1 43.7849 7.31704   1
  -1 -11  -1 48.5494 7.61871   1
 -11  12  -1 43.4480 9.05738   2
 -12   1   1 45.0473 7.29175   1
   1  11   1 68.0518 6.48590   1
 -12   1   1 52.2608 12.7723   2
  11 -12   1 47.3235 8.71163   2
   1  11   1 51.3017 19.6179   6
  11 -12   1 56.4997 8.00147   1
  13  -2  -1 25.4459 7.00083   1
  -2 -11  -1 14.3243 6.37322   1
 -11  13  -1 20.1073 7.04738   1
  -2 -11  -1 22.7394 7.90305   2
  13  -2  -1 14.4688 7.40135   2
 -13   2   1 33.8454 7.19461   1
  11 -13   1 17.4842 7.43619   1
  11 -13   1 20.4482 8.20507   2
   2  11   1 24.6979 5.73145   1
  -3 -11  -1 -3.9714 6.77319   2
  -3 -11  -1 1.35041 6.26920   1
 -11  14  -1 -5.1721 6.93270   1
  14  -3  -1 7.64127 7.03304   1
  14  -3  -1 -1.1065 7.09075   2
  11 -14   1 3.24383 6.93906   1
   3  11   1 -1.8084 5.22713   1
 -14   3   1 1.64152 6.46368   1
  11 -14   1 1.15508 7.62799   2
  15  -4  -1 30.2550 8.86064   2
  -4 -11  -1 16.5234 7.42365   1
 -11  15  -1 16.2984 7.71199   1
  15  -4  -1 20.9181 8.19037   1
  -4 -11  -1 3.27404 7.88099   2
 -15   4   1 18.4383 7.18004   1
  11 -15   1 18.3688 7.90243   1
  11 -15   1 15.9533 8.94404   2
   4  11   1 20.8816 6.08700   1
 -11  16  -1 10.6754 7.67596   1
  16  -5  -1 3.14668 8.73902   2
  -5 -11  -1 27.6101 7.94486   1
  16  -5  -1 20.4112 9.20812   1
  -5 -11  -1 25.8571 9.60299   2
  11 -16   1 14.2445 9.44859   2
 -16   5   1 5.58494 6.94388   1
  11 -16   1 7.19480 7.99988   1
 -11  17  -1 21.8797 8.13686   1
  17  -6  -1 1.58727 9.80239   1
  -6 -11  -1 8.88676 7.68130   1
  17  -6  -1 1.22607 9.46663   2
  -6 -11  -1 2.78745 9.74466   2
 -17   6   1 9.28828 7.33902   1
  11 -17   1 15.3445 10.2242   2
  11 -17   1 8.09377 8.86039   1
  18  -7  -1 3.55475 11.0985   1
  -7 -11  -1 4.29707 8.41846   1
  18  -7  -1 22.7864 10.7595   2
 -11  18  -1 20.6089 8.58241   1
  -7 -11  -1 22.8299 11.2295   2
  11 -18   1 5.63402 9.36884   1
  11 -18   1 5.03476 10.6571   2
 -18   7   1 5.00464 6.62855   1
 -11  19  -1 7.47181 8.04667   1
  19  -8  -1 -6.9635 12.0958   1
  19  -8  -1 11.3147 11.3564   2
  -8 -11  -1 -0.8756 8.42630   1
  -8 -11  -1 0.82626 11.5436   2
  11 -19   1 11.8438 11.4282   2
 -19   8   1 1.03140 10.4198   1
  11 -19   1 21.5832 10.0553   1
  18 -12  -1 14.3799 11.1165   2
 -12  -6  -1 4.54026 10.9654   2
  -6  18  -1 -0.9984 7.52724   1
  18 -12  -1 -5.2954 9.26410   1
 -12  -6  -1 -4.8348 7.90368   1
  12   6   1 0.81422 7.06978   1
   6 -18   1 2.82722 10.8386   2
   6 -18   1 -7.2865 8.93622   1
 -12  -5  -1 7.14926 8.15639   1
  17 -12  -1 -6.2973 9.28907   2
 -12  -5  -1 -6.6399 9.99729   2
  -5  17  -1 11.7068 7.71477   1
  17 -12  -1 12.1741 9.30123   1
  12   5   1 -2.4836 6.76944   1
   5 -17   1 6.31251 8.39441   1
   5 -17   1 18.3308 10.6149   2
 -12  -4  -1 13.1704 7.87700   1
  16 -12  -1 13.1107 8.81674   1
  16 -12  -1 10.8985 9.68201   2
  -4  16  -1 15.8105 7.68853   1
 -12  -4  -1 24.0006 10.4539   2
  12   4   1 7.04421 6.86587   1
   4 -16   1 11.6570 8.30354   1
   4 -16   1 3.40008 9.28983   2
 -12  -3  -1 41.7588 10.2724   2
  15 -12  -1 42.6598 10.2349   2
  -3  15  -1 32.3606 7.83372   1
 -12  -3  -1 35.6320 8.35696   1
   3 -15   1 31.1257 8.53452   1
  12   3   1 30.2578 7.07215   1
   3 -15   1 54.4935 10.3984   2
  14 -12  -1 7.20874 8.59704   2
  -2  14  -1 6.76914 6.78402   1
 -12  -2  -1 23.5348 9.09676   2
 -12  -2  -1 4.97635 6.70088   1
   2 -14   1 6.82779 7.32148   1
   2 -14   1 -1.0545 7.67400   2
  12   2   1 1.82948 5.93218   1
  13 -12  -1 5.90327 7.77931   2
  -1  13  -1 13.5874 6.49404   1
 -12  -1  -1 11.0976 8.15662   2
   1 -13   1 29.0239 7.46561   1
   1 -13   1 10.2924 7.75716   2
  12   1   1 16.6204 6.06222   1
  12 -12  -1 39.9425 8.54643   2
   0  12  -1 42.6513 9.58531   2
   0  12  -1 42.9785 6.99344   1
 -12   0  -1 40.3000 8.64672   2
 -12   0  -1 45.9205 8.43125   1
  12   0   1 30.7525 6.61775   1
   0 -12   1 44.0744 8.66943   2
   0 -12   1 27.1812 7.33083   1
  12   0   1 38.4440 7.68011   2
 -12   1  -1 1.87829 6.56262   1
 -12   1  -1 9.40800 7.07506   2
  11 -12  -1 4.31890 6.49163   2
   1  11  -1 -0.0466 5.38663   1
  -1 -11   1 11.3267 6.06952   1
  -1 -11   1 2.95673 6.27995   2
  12  -1   1 -5.7644 5.27998   1
  12  -1   1 3.69637 6.19652   2
 -12   2  -1 81.4150 9.35553   1
   2  10  -1 77.5978 8.07091   1
  10 -12  -1 76.4550 9.13956   2
   2  10  -1 74.5290 8.68725   2
 -12   2  -1 65.3304 8.93271   2
  -2 -10   1 64.5593 8.86352   2
  12  -2   1 71.8583 8.60503   2
  12  -2   1 68.0462 7.64202   1
  -2 -10   1 58.0593 8.01152   1
 -12   3  -1 26.2554 7.02398   2
 -12   3  -1 31.0812 6.96303   1
   9 -12  -1 33.6462 7.38202   2
   3   9  -1 30.3266 6.01406   1
   3   9  -1 20.8255 6.18853   2
  12  -3   1 29.9340 6.00631   1
  -3  -9   1 25.7335 6.61786   2
  12  -3   1 31.4037 6.73719   2
  -3  -9   1 36.6811 6.50647   1
 -12   4  -1 31.2575 7.20299   1
 -12   4  -1 36.7492 7.31892   2
   8 -12  -1 15.8631 6.32651   2
   4   8  -1 36.3316 6.50603   2
   4   8  -1 38.9624 6.23098   1
  12  -4   1 26.3421 6.69322   2
  -4  -8   1 32.7877 6.95282   2
  -4  -8   1 27.1110 5.73280   1
  12  -4   1 22.3040 5.73774   1
  -8  12   1 29.4928 9.78292   6
 -12   5  -1 148.186 11.3354   1
   5   7  -1 121.368 10.8575   1
 -12   5  -1 145.835 11.8384   2
   5   7  -1 131.977 11.6369   2
   7 -12  -1 141.745 11.8994   2
  12  -5   1 128.324 11.4077   2
  -5  -7   1 136.628 10.6648   1
  12  -5   1 122.257 10.0991   1
  -7  12   1 144.125 15.5190   6
  -5  -7   1 129.452 11.3908   2
   6 -12  -1 47.3907 7.55928   2
   6   6  -1 51.1755 6.58433   1
 -12   6  -1 47.3266 7.78833   2
 -12   6  -1 61.6698 7.94612   1
   6   6  -1 48.2221 7.32594   2
  12  -6   1 33.8757 7.35742   2
  -6  -6   1 50.3234 6.80295   1
  -6  12   1 38.8561 11.2228   6
  -6  -6   1 47.6347 7.28284   2
  12  -6   1 45.6375 6.63278   1
   7   5  -1 157.481 11.4769   1
 -12   7  -1 131.019 12.0496   2
   7   5  -1 154.016 12.1409   2
   5 -12  -1 146.048 12.4297   2
 -12   7  -1 169.904 13.3831   1
  -5  12   1 185.888 18.5588   6
  12  -7   1 142.088 11.8486   1
  12  -7   1 127.604 11.7539   2
  -7  -5   1 140.982 12.2912   2
  -7  -5   1 149.846 11.5593   1
   4 -12  -1 69.2787 8.44959   2
 -12   8  -1 67.9027 9.24506   2
   8   4  -1 79.4146 8.63009   2
   8   4  -1 66.0863 7.43016   1
 -12   8  -1 69.3204 8.38148   1
  12  -8   1 66.9508 8.03165   1
  -8  -4   1 82.2822 7.93931   1
  12  -8   1 58.2192 8.19724   2
  -4  12   1 63.1081 13.9413   6
  -8  -4   1 84.8512 8.89794   2
   9   3  -1 22.4125 6.62450   2
 -12   9  -1 30.5096 7.65586   2
   3 -12  -1 23.2907 6.61261   2
   9   3  -1 26.9314 6.03976   1
 -12   9  -1 24.7801 6.88876   1
  12  -9   1 24.7751 6.30264   1
  -9  -3   1 23.5804 5.73018   1
  -9  -3   1 22.0613 6.83036   2
  12  -9   1 24.9213 7.25108   2
  -3  12   1 36.5199 13.1859   6
  10   2  -1 80.9930 8.63728   1
  10   2  -1 86.5073 9.58497   2
 -12  10  -1 107.662 10.6515   2
 -12  10  -1 97.3808 9.69793   1
   2 -12  -1 81.3503 9.63123   2
  12 -10   1 92.3347 9.13785   1
 -10  -2   1 90.1824 9.69594   2
  -2  12   1 64.6461 16.0306   6
 -10  -2   1 90.2987 8.90494   1
  12 -10   1 76.8642 9.75028   2
  11   1  -1 145.186 11.0440   1
  11   1  -1 124.277 11.6440   2
   1 -12  -1 133.833 12.0907   2
 -12  11  -1 132.717 11.4650   1
 -12  11  -1 151.425 13.1039   2
  12 -11   1 130.726 12.5124   2
 -11  -1   1 136.925 12.3605   2
  -1  12   1 131.419 9.96475   1
  -1  12   1 189.336 28.8999   6
  12 -11   1 142.878 11.4912   1
 -11  -1   1 124.924 10.7621   1
  12   0  -1 39.9459 7.24928   1
 -12  12  -1 21.2476 7.55073   1
   0 -12  -1 47.9326 8.18935   2
  12   0  -1 40.3600 7.87592   2
 -12  12  -1 27.1284 12.2928   2
 -12   0   1 38.1953 6.98788   1
  12 -12   1 28.5203 8.39834   2
  12 -12   1 34.1249 7.41984   1
 -12   0   1 27.5754 13.1406   2
  -1 -12  -1 20.8294 7.81760   2
 -12  13  -1 20.6332 7.52967   1
  13  -1  -1 26.9244 7.80069   2
  13  -1  -1 17.9563 6.94078   1
  12 -13   1 21.1630 7.54628   1
  12 -13   1 11.1796 8.09764   2
 -13   1   1 17.1573 6.45081   1
   1  12   1 9.93734 5.21690   1
 -12  14  -1 17.8787 7.68708   1
  14  -2  -1 16.5006 8.33892   2
  -2 -12  -1 19.0166 8.23754   2
  14  -2  -1 20.5481 7.45461   1
  -2 -12  -1 7.68346 7.81569   1
  12 -14   1 14.5651 8.53669   2
  12 -14   1 9.12820 7.62645   1
 -14   2   1 22.7719 6.91158   1
  -3 -12  -1 3.11714 6.95092   1
  -3 -12  -1 -7.9074 7.96641   2
 -12  15  -1 15.3364 7.64222   1
  15  -3  -1 0.85475 7.88267   1
  15  -3  -1 -8.4333 7.93357   2
 -15   3   1 3.72254 6.57630   1
  12 -15   1 10.8998 8.80734   2
  12 -15   1 -7.2804 7.48361   1
  16  -4  -1 6.26262 8.69253   2
  16  -4  -1 22.4284 9.74700   1
 -12  16  -1 7.56805 7.66180   1
  -4 -12  -1 16.0998 7.77716   1
  -4 -12  -1 8.38840 9.59678   2
 -16   4   1 8.80426 6.92505   1
  12 -16   1 20.0281 9.07000   1
  12 -16   1 10.4042 9.54970   2
  -5 -12  -1 20.4437 8.27124   1
  17  -5  -1 26.3373 10.6108   1
  -5 -12  -1 14.6107 10.0697   2
 -12  17  -1 6.65048 8.15236   1
  17  -5  -1 17.9835 9.97065   2
  12 -17   1 13.9002 9.16646   1
 -17   5   1 9.73748 6.80876   1
  12 -17   1 7.15743 9.84684   2
  -6 -12  -1 22.5015 11.1534   2
  -6 -12  -1 18.5720 8.66895   1
  18  -6  -1 41.1285 12.2372   1
  18  -6  -1 14.3199 10.4832   2
 -12  18  -1 12.3155 8.32573   1
 -18   6   1 17.6928 7.47235   1
  12 -18   1 8.46206 10.5208   2
  12 -18   1 -6.0049 8.80858   1
 -13  -5  -1 35.5149 12.3924   2
  -5  18  -1 26.2476 8.38573   1
 -13  -5  -1 33.5479 9.55042   1
  18 -13  -1 15.0779 10.2999   1
  18 -13  -1 15.0016 11.0237   2
   5 -18   1 26.8992 9.98387   1
   5 -18   1 33.6800 11.6084   2
  13   5   1 15.7638 8.13962   1
 -13  -4  -1 -2.0005 10.8243   2
  17 -13  -1 9.87463 10.5671   2
 -13  -4  -1 26.5087 9.07229   1
  -4  17  -1 11.5915 7.79994   1
  17 -13  -1 3.65380 9.93786   1
  13   4   1 0.46112 7.14668   1
   4 -17   1 16.0107 8.91883   1
   4 -17   1 4.92140 10.1491   2
 -13  -3  -1 -0.2666 9.52357   2
 -13  -3  -1 -3.1351 7.73088   1
  16 -13  -1 4.73021 9.13229   2
  -3  16  -1 8.50279 7.43532   1
   3 -16   1 7.14208 9.48311   2
  13   3   1 4.18604 6.66945   1
   3 -16   1 2.53077 8.11720   1
 -13  -2  -1 -1.1280 7.23884   1
  -2  15  -1 -2.1962 6.98164   1
 -13  -2  -1 -1.6910 9.52219   2
  15 -13  -1 -9.5004 8.23133   2
   2 -15   1 -3.1441 7.29986   1
   2 -15   1 4.54532 9.21136   2
  13   2   1 -1.4923 6.49441   1
 -13  -1  -1 11.6544 7.39296   1
  -1  14  -1 4.64863 7.06631   1
  14 -13  -1 11.9508 8.77519   2
 -13  -1  -1 11.5736 9.12872   2
  13   1   1 1.63670 6.20483   1
   1 -14   1 19.2151 7.69695   1
   1 -14   1 11.8455 8.27039   2
  13 -13  -1 64.9243 10.3774   2
 -13   0  -1 58.1184 10.7507   2
   0  13  -1 55.2798 8.06758   1
 -13   0  -1 56.7156 9.74687   1
  13   0   1 60.9949 8.10662   1
   0 -13   1 63.9984 10.1035   2
   0 -13   1 50.6452 8.83126   1
   1  12  -1 129.449 11.3101   1
  12 -13  -1 135.746 13.2626   2
 -13   1  -1 154.483 13.7673   2
 -13   1  -1 151.722 13.5038   1
  -1 -12   1 144.498 13.1291   2
  13  -1   1 140.063 11.3298   1
  13  -1   1 150.114 12.9539   2
  -1 -12   1 137.587 11.9055   1
 -13   2  -1 131.719 12.2108   1
  11 -13  -1 106.930 11.8968   2
   2  11  -1 127.248 12.2117   2
   2  11  -1 118.906 10.2831   1
 -13   2  -1 139.827 12.6276   2
  13  -2   1 129.612 11.9837   2
  13  -2   1 142.931 11.7868   1
  -2 -11   1 118.732 10.9673   1
  -2 -11   1 127.311 12.0231   2
   3  10  -1 21.2680 7.07084   2
 -13   3  -1 26.7566 7.86111   1
   3  10  -1 19.4062 6.42217   1
  10 -13  -1 15.5005 7.45244   2
 -13   3  -1 20.8411 7.52144   2
  13  -3   1 34.0480 7.22830   2
  -3 -10   1 22.5532 6.80601   1
  -3 -10   1 16.0014 7.12580   2
  13  -3   1 15.2581 6.06968   1
   9 -13  -1 92.8058 10.6759   2
 -13   4  -1 98.6577 10.8423   2
   4   9  -1 124.539 10.6798   2
 -13   4  -1 88.2375 10.1151   1
   4   9  -1 102.292 9.25350   1
  -4  -9   1 100.683 10.2901   2
  13  -4   1 99.7194 9.44707   1
  -4  -9   1 93.6451 9.51302   1
  13  -4   1 100.684 10.6642   2
 -13   5  -1 13.3625 7.09590   2
   5   8  -1 7.82376 6.27310   2
   8 -13  -1 14.1807 6.82209   2
   5   8  -1 11.1445 5.76660   1
 -13   5  -1 19.0313 7.18102   1
  -8  13   1 11.1856 9.91256   6
  -5  -8   1 6.46657 5.57463   1
  13  -5   1 4.19587 5.92941   1
  -5  -8   1 11.7002 7.00602   2
  13  -5   1 22.1126 7.12517   2
 -13   6  -1 24.7061 7.29385   1
   6   7  -1 14.3322 5.84421   1
 -13   6  -1 5.85112 6.74391   2
   7 -13  -1 15.0389 7.15674   2
   6   7  -1 18.5027 6.33246   2
  13  -6   1 15.7327 6.67175   2
  13  -6   1 12.7050 6.07535   1
  -7  13   1 -9.0248 9.56864   6
  -6  -7   1 11.2435 6.49325   2
  -6  -7   1 23.4601 6.32719   1
   7   6  -1 287.145 17.0269   1
 -13   7  -1 303.649 18.9278   1
   6 -13  -1 289.964 18.4451   2
 -13   7  -1 274.031 19.0918   2
   7   6  -1 302.287 18.3668   2
  -7  -6   1 276.238 18.7343   2
  -7  -6   1 280.039 17.2431   1
  -6  13   1 285.500 24.6409   6
  13  -7   1 270.770 17.3271   1
  13  -7   1 267.458 18.3692   2
 -13   8  -1 21.3539 7.94807   2
   5 -13  -1 25.5437 7.50844   2
   8   5  -1 24.9803 6.25684   1
   8   5  -1 16.4443 6.65442   2
 -13   8  -1 31.3544 7.36200   1
  13  -8   1 29.3335 6.70956   1
  -8  -5   1 32.3254 7.16711   2
  13  -8   1 26.6940 7.45330   2
  -5  13   1 16.0484 11.7750   6
  -8  -5   1 26.8890 6.20375   1
   9   4  -1 40.7224 6.68797   1
 -13   9  -1 35.7834 7.81418   1
   4 -13  -1 28.7733 7.60702   2
   9   4  -1 40.0368 7.71455   2
 -13   9  -1 23.3373 8.45048   2
  -9  -4   1 33.7273 6.46692   1
  13  -9   1 30.4846 7.68983   2
  -4  13   1 36.1181 13.8851   6
  13  -9   1 18.8258 6.79787   1
  -9  -4   1 42.9081 8.02841   2
 -13  10  -1 42.5760 8.04960   1
  10   3  -1 34.9807 6.86729   1
  10   3  -1 42.1006 8.23321   2
   3 -13  -1 39.9791 8.16658   2
 -13  10  -1 30.9774 9.00496   2
 -10  -3   1 28.8736 7.88142   2
  13 -10   1 31.2778 7.19442   1
  13 -10   1 36.5167 8.43386   2
 -10  -3   1 38.3591 6.92775   1
 -13  11  -1 9.52059 7.95586   2
  11   2  -1 22.5454 6.86306   1
 -13  11  -1 -0.8269 6.70589   1
   2 -13  -1 15.7495 7.29644   2
  11   2  -1 15.3611 7.09514   2
  13 -11   1 1.32706 7.44099   2
 -11  -2   1 4.98122 5.76936   1
 -11  -2   1 8.22814 7.07108   2
  13 -11   1 -0.8499 6.57102   1
 -13  12  -1 45.0801 8.53593   1
  12   1  -1 31.6998 8.31205   2
  12   1  -1 38.0472 7.74755   1
   1 -13  -1 45.2705 9.16917   2
  13 -12   1 33.5104 9.07468   2
 -12  -1   1 45.9932 7.61895   1
  13 -12   1 35.8566 7.97437   1
   0 -13  -1 20.8981 8.19069   2
 -13  13  -1 22.4898 7.97295   1
  13   0  -1 26.9197 7.80597   1
  13   0  -1 25.4261 7.84999   2
  13 -13   1 16.0854 7.56754   1
 -13   0   1 15.3021 6.65307   1
  13 -13   1 33.1038 8.60887   2
  -1 -13  -1 18.8906 8.24994   2
  14  -1  -1 11.1817 8.28714   2
  14  -1  -1 1.02339 7.22088   1
 -13  14  -1 2.32738 7.54262   1
  13 -14   1 -3.0538 7.42465   1
  13 -14   1 -3.1721 8.36647   2
 -14   1   1 0.62188 6.32049   1
  15  -2  -1 -0.7290 8.00979   1
  15  -2  -1 5.01154 8.03180   2
  -2 -13  -1 -5.2937 8.02020   2
 -13  15  -1 2.13405 7.68269   1
  13 -15   1 2.87453 7.83569   1
 -15   2   1 3.97869 6.85689   1
  13 -15   1 -3.3640 8.58632   2
  16  -3  -1 -0.9141 9.21310   2
  16  -3  -1 10.7502 9.01955   1
  -3 -13  -1 15.1437 9.50257   2
 -13  16  -1 12.4091 7.99158   1
  -3 -13  -1 10.2602 8.14963   1
  13 -16   1 9.37764 9.46866   2
  13 -16   1 23.1238 8.74506   1
 -16   3   1 7.37677 7.05861   1
 -13  17  -1 28.9451 8.54711   1
  17  -4  -1 34.9154 10.9038   2
  -4 -13  -1 20.1274 8.78390   1
  -4 -13  -1 14.8812 10.3565   2
  17  -4  -1 44.0118 10.8273   1
 -17   4   1 12.6106 7.46093   1
  13 -17   1 30.5140 10.8683   2
  13 -17   1 35.3449 9.90500   1
  18  -5  -1 0.27702 10.1429   2
  18  -5  -1 4.47793 10.7169   1
  -5 -13  -1 -0.7812 8.22596   1
  -5 -13  -1 -6.9373 10.6203   2
 -13  18  -1 3.52709 8.27205   1
  13 -18   1 18.0900 11.0069   2
  13 -18   1 10.5292 9.70524   1
 -18   5   1 10.6192 7.35332   1
 -14  -4  -1 5.21249 9.03148   1
  -4  18  -1 15.5793 8.03444   1
  18 -14  -1 -7.0349 10.7995   2
 -14  -4  -1 21.5793 11.9558   2
  18 -14  -1 6.93737 11.1317   1
  14   4   1 14.1949 7.77727   1
   4 -18   1 9.07809 11.1710   2
   4 -18   1 14.9970 9.78421   1
  -3  17  -1 12.1279 8.13700   1
  17 -14  -1 4.66661 10.1594   2
 -14  -3  -1 9.49597 10.7765   2
 -14  -3  -1 1.38739 7.98614   1
  14   3   1 11.3460 7.66506   1
   3 -17   1 20.8713 10.6680   2
   3 -17   1 9.48405 9.49068   1
  16 -14  -1 10.2047 10.0860   2
  -2  16  -1 19.3827 7.99745   1
 -14  -2  -1 2.55725 10.0371   2
 -14  -2  -1 26.0886 9.02966   1
   2 -16   1 12.9711 10.1333   2
  14   2   1 6.23891 7.12374   1
   2 -16   1 -1.6972 8.19870   1
 -14  -1  -1 11.0769 10.0230   2
 -14  -1  -1 0.23583 7.36308   1
  15 -14  -1 -10.390 8.57909   2
  -1  15  -1 15.1139 7.71213   1
   1 -15   1 7.19514 7.85777   1
  14   1   1 4.62148 6.83168   1
   1 -15   1 8.46051 9.22530   2
   0  14  -1 1.79040 6.94639   1
  14 -14  -1 -4.3435 8.59123   2
 -14   0  -1 6.66664 9.22428   2
 -14   0  -1 -3.7945 6.72102   1
   0 -14   1 4.24019 7.31214   1
  14   0   1 6.90697 6.77172   1
   0 -14   1 -4.5503 8.04632   2
  13 -14  -1 10.9483 8.60121   2
 -14   1  -1 18.9700 8.96859   2
   1  13  -1 21.2986 7.13525   1
 -14   1  -1 8.67863 8.70046   1
  14  -1   1 8.05639 6.88936   1
  -1 -13   1 -3.8422 6.99154   1
  -1 -13   1 15.7758 8.86592   2
   2  12  -1 78.4294 9.06581   1
  12 -14  -1 60.4851 10.2448   2
 -14   2  -1 79.2202 11.3200   2
 -14   2  -1 82.0285 11.2062   1
  -2 -12   1 60.3377 9.24812   1
  -2 -12   1 65.3779 10.3065   2
  14  -2   1 79.3875 9.10874   1
  14  -2   1 67.7097 10.2220   2
  11 -14  -1 54.4331 9.84969   2
   3  11  -1 51.3901 13.1153   2
   3  11  -1 61.0717 8.11864   1
 -14   3  -1 55.8193 9.99602   2
 -14   3  -1 49.3016 9.44670   1
  14  -3   1 41.1586 7.70739   1
  -3 -11   1 51.1481 9.47205   2
  14  -3   1 41.9658 8.58449   2
  -3 -11   1 40.0508 7.93167   1
   4  10  -1 62.5567 9.30189   2
 -14   4  -1 80.2175 10.6075   1
  10 -14  -1 59.1174 9.98828   2
 -14   4  -1 51.2188 10.0857   2
   4  10  -1 71.7318 8.60165   1
  -4 -10   1 75.6690 8.76988   1
  14  -4   1 71.3045 9.70000   2
  -4 -10   1 79.6815 10.2778   2
  14  -4   1 77.5213 8.98239   1
   9 -14  -1 30.1007 8.51290   2
 -14   5  -1 49.5486 8.85202   1
 -14   5  -1 43.9366 9.11568   2
   5   9  -1 39.7729 7.14724   1
   5   9  -1 29.3419 7.84158   2
  14  -5   1 32.5058 8.23661   2
  -5  -9   1 51.1917 8.98546   2
  -5  -9   1 41.3865 7.57310   1
  14  -5   1 15.9834 6.94954   1
   6   8  -1 156.877 13.0236   1
 -14   6  -1 145.877 12.9405   1
 -14   6  -1 154.238 14.0598   2
   8 -14  -1 141.812 13.3383   2
   6   8  -1 176.304 14.4178   2
  14  -6   1 146.405 13.2967   2
  -6  -8   1 166.362 13.9440   2
  -8  14   1 152.666 17.8137   6
  -6  -8   1 181.435 13.4735   1
  14  -6   1 157.740 13.3428   1
   7   7  -1 16.9931 7.17635   2
   7 -14  -1 16.6252 7.61379   2
 -14   7  -1 9.22845 7.59803   2
   7   7  -1 7.10666 6.34196   1
 -14   7  -1 6.06357 7.41826   1
  14  -7   1 16.0171 6.38973   1
  -7  14   1 13.9381 11.5696   6
  -7  -7   1 11.8250 7.20184   2
  14  -7   1 22.6589 7.76631   2
  -7  -7   1 10.1588 6.20009   1
 -14   8  -1 18.3393 8.47352   2
 -14   8  -1 23.8181 8.11758   1
   8   6  -1 33.2743 6.90639   1
   8   6  -1 31.7507 8.08398   2
   6 -14  -1 32.4617 8.25402   2
  14  -8   1 48.3127 8.81192   2
  14  -8   1 31.6462 7.36999   1
  -8  -6   1 33.0259 8.44297   2
  -6  14   1 20.7460 12.7173   6
  -8  -6   1 38.8831 7.14194   1
   5 -14  -1 46.7434 9.07526   2
   9   5  -1 47.0934 8.52061   2
 -14   9  -1 38.6480 8.28940   1
 -14   9  -1 42.0654 9.74382   2
   9   5  -1 51.8225 7.78090   1
  -9  -5   1 57.3380 9.56766   2
  14  -9   1 56.8265 9.47839   2
  14  -9   1 52.8686 8.44199   1
  -9  -5   1 45.1618 7.40180   1
  10   4  -1 31.2264 7.36789   1
 -14  10  -1 45.5285 10.0484   2
   4 -14  -1 38.8842 8.60501   2
 -14  10  -1 28.5584 7.97667   1
  10   4  -1 47.1860 8.69952   2
  14 -10   1 40.7801 8.18592   1
 -10  -4   1 43.6910 7.31055   1
  14 -10   1 42.8654 8.97752   2
 -10  -4   1 39.8991 8.83197   2
 -14  11  -1 28.7176 8.18789   1
  11   3  -1 34.7655 7.52259   1
   3 -14  -1 34.2136 9.06819   2
  11   3  -1 43.0393 8.78989   2
  14 -11   1 33.8642 8.14749   1
  14 -11   1 32.0103 9.21718   2
 -11  -3   1 31.0585 7.11952   1
 -11  -3   1 23.5460 8.77996   2
 -14  12  -1 59.3296 8.98277   1
  12   2  -1 53.2674 9.48740   2
  12   2  -1 63.7406 8.88293   1
   2 -14  -1 47.0778 9.31645   2
  14 -12   1 42.2526 10.0190   2
  14 -12   1 46.9464 8.75559   1
 -12  -2   1 45.7116 7.90102   1
  13   1  -1 36.4419 9.01466   1
   1 -14  -1 38.0321 9.59295   2
 -14  13  -1 41.8680 8.77481   1
  13   1  -1 52.4177 9.87090   2
  14 -13   1 66.2024 9.45510   1
 -13  -1   1 55.3578 8.35569   1
  14 -13   1 64.5091 10.5494   2
  14   0  -1 46.0320 9.34899   1
  14   0  -1 26.3230 8.90764   2
 -14  14  -1 24.3038 8.12848   1
   0 -14  -1 27.0967 9.77696   2
 -14   0   1 31.6302 7.86602   1
  14 -14   1 21.6801 8.44317   1
  14 -14   1 14.3730 9.57421   2
  15  -1  -1 14.9741 9.28827   2
  -1 -14  -1 13.7299 9.18989   2
 -14  15  -1 17.2389 8.15758   1
  15  -1  -1 32.6047 9.73175   1
  14 -15   1 36.6744 9.02160   1
 -15   1   1 13.3976 7.53403   1
  14 -15   1 16.2816 9.56958   2
  -2 -14  -1 15.3189 9.85151   2
  16  -2  -1 23.2449 10.1198   2
  16  -2  -1 34.7060 10.1855   1
 -14  16  -1 3.03672 7.69963   1
  14 -16   1 12.6627 10.1085   2
 -16   2   1 2.40118 7.21967   1
  14 -16   1 4.62706 8.82227   1
  17  -3  -1 12.5035 10.0905   2
  -3 -14  -1 26.3937 10.8317   2
  17  -3  -1 10.5881 10.0226   1
 -14  17  -1 13.9023 8.22733   1
  -3 -14  -1 29.1939 9.40864   1
  14 -17   1 14.4190 9.60277   1
 -17   3   1 9.86186 8.12562   1
  14 -17   1 -6.2234 10.1780   2
  18  -4  -1 21.9602 11.0347   1
  -4 -14  -1 14.2804 11.0958   2
  -4 -14  -1 12.5627 9.19487   1
 -14  18  -1 22.8054 8.59577   1
  18  -4  -1 34.8259 11.2345   2
 -18   4   1 25.9958 8.70080   1
  14 -18   1 7.27721 10.8773   2
  14 -18   1 18.7730 10.0854   1
 -15  -2  -1 -2.7511 11.0262   2
  17 -15  -1 0.99114 10.6673   2
 -15  -2  -1 -0.0191 8.44452   1
  -2  17  -1 14.6424 8.30219   1
   2 -17   1 7.43778 9.00541   1
   2 -17   1 13.7866 10.8327   2
  15   2   1 4.06380 7.50812   1
 -15  -1  -1 1.95684 10.3204   2
  16 -15  -1 6.44364 10.1723   2
 -15  -1  -1 -11.052 7.86024   1
  -1  16  -1 5.29371 7.90086   1
   1 -16   1 6.47975 10.1494   2
  15   1   1 -0.6937 7.80486   1
   1 -16   1 -13.875 7.90384   1
   0  15  -1 9.14052 7.84349   1
  15 -15  -1 14.5241 9.77389   2
 -15   0  -1 15.0640 10.5025   2
 -15   0  -1 17.6156 8.18101   1
  15   0   1 5.02036 7.37741   1
   0 -15   1 -2.2687 9.05394   2
   0 -15   1 -4.1936 7.66293   1
  14 -15  -1 20.7235 9.70272   2
 -15   1  -1 10.7338 7.36484   1
 -15   1  -1 6.97965 10.1982   2
   1  14  -1 4.05698 7.12924   1
  -1 -14   1 26.5397 10.1504   2
  15  -1   1 4.43486 7.03673   1
  -1 -14   1 13.8759 8.04841   1
 -15   2  -1 17.4025 10.1585   2
 -15   2  -1 22.2999 9.78221   1
   2  13  -1 0.68193 6.72533   1
  13 -15  -1 11.8015 9.22524   2
  15  -2   1 18.1079 7.52901   1
  -2 -13   1 1.58650 7.41454   1
  -2 -13   1 13.3668 9.07037   2
 -15   3  -1 97.5237 12.0654   1
  12 -15  -1 89.4203 11.7363   2
 -15   3  -1 86.1661 11.8519   2
   3  12  -1 80.5122 9.34658   1
  -3 -12   1 71.3099 11.2464   2
  -3 -12   1 58.2181 9.67953   1
  15  -3   1 80.2160 13.4064   2
  15  -3   1 70.1585 9.48334   1
 -15   4  -1 0.36182 8.44981   1
   4  11  -1 13.2914 7.08706   1
 -15   4  -1 5.78276 8.68771   2
  11 -15  -1 0.96054 8.15423   2
  15  -4   1 -1.0734 6.67181   1
  -4 -11   1 0.09086 8.35432   2
  -4 -11   1 5.88006 6.55709   1
  15  -4   1 12.2011 7.98500   2
   5  10  -1 69.1135 15.2360   2
 -15   5  -1 79.6874 11.6226   2
 -15   5  -1 76.9893 11.0692   1
  10 -15  -1 65.5422 10.7159   2
   5  10  -1 50.4088 8.25116   1
  15  -5   1 49.0994 9.90918   2
  15  -5   1 68.7892 9.21661   1
  -5 -10   1 57.3956 10.2582   2
  -5 -10   1 67.9480 9.16930   1
 -15   6  -1 47.6418 10.3886   2
 -15   6  -1 27.4491 8.96354   1
   9 -15  -1 35.6451 9.03937   2
   6   9  -1 41.7900 8.81849   2
   6   9  -1 51.9802 8.03957   1
  15  -6   1 36.4595 9.36050   2
  -6  -9   1 42.8752 9.73955   2
  -6  -9   1 45.1140 7.87410   1
  15  -6   1 53.3053 8.77393   1
 -15   7  -1 45.5537 9.53124   1
 -15   7  -1 59.6751 10.8072   2
   7   8  -1 62.7379 8.78428   1
   7   8  -1 68.8839 9.91812   2
   8 -15  -1 63.7814 10.1851   2
  15  -7   1 63.5494 10.3613   2
  -7  -8   1 72.1075 10.7131   2
  -7  -8   1 72.2503 8.68431   1
  15  -7   1 52.0480 8.38684   1
   8   7  -1 13.2143 7.79746   2
 -15   8  -1 7.76840 8.56290   2
   8   7  -1 8.92188 6.96961   1
 -15   8  -1 26.3398 8.43186   1
   7 -15  -1 12.5198 8.44555   2
  15  -8   1 6.99148 6.84099   1
  -8  -7   1 15.1336 6.82555   1
  15  -8   1 24.5037 8.96909   2
  -8  -7   1 28.6900 8.44143   2
 -15   9  -1 25.4621 8.39903   1
   9   6  -1 9.17632 7.86855   2
 -15   9  -1 -0.9826 8.48725   2
   9   6  -1 -4.0251 6.45882   1
   6 -15  -1 7.93618 7.79836   2
  15  -9   1 10.5914 6.93894   1
  -9  -6   1 -3.4041 7.85273   2
  15  -9   1 -0.8856 7.57930   2
  -9  -6   1 4.24275 6.20354   1
  10   5  -1 56.5252 8.61544   1
   5 -15  -1 40.5559 9.60313   2
 -15  10  -1 50.7294 9.37801   1
  10   5  -1 51.0826 9.50152   2
  15 -10   1 54.2803 10.0714   2
 -10  -5   1 50.4884 9.50843   2
 -10  -5   1 44.3906 7.83544   1
  15 -10   1 54.3299 9.22384   1
 -15  11  -1 13.3281 8.21197   1
   4 -15  -1 17.2579 8.90658   2
  11   4  -1 21.9591 7.70030   1
  11   4  -1 20.0616 8.69147   2
  15 -11   1 28.1348 9.46094   2
 -11  -4   1 13.1173 8.75076   2
 -11  -4   1 29.5828 7.17862   1
  15 -11   1 23.0876 8.14353   1
 -15  12  -1 35.0663 8.72097   1
  12   3  -1 30.0723 9.19709   2
  12   3  -1 45.9705 8.68720   1
   3 -15  -1 22.4349 9.42921   2
  15 -12   1 27.9204 8.76997   1
 -12  -3   1 31.4328 7.51455   1
  15 -12   1 30.0016 9.98682   2
 -15  13  -1 8.82476 8.08922   1
   2 -15  -1 1.13628 8.41562   2
  13   2  -1 -4.8219 8.08432   1
  13   2  -1 11.4002 8.88690   2
  15 -13   1 -7.3617 7.76828   1
 -13  -2   1 7.91537 6.94390   1
  15 -13   1 -0.7003 9.09280   2
   1 -15  -1 0.78309 8.68995   2
 -15  14  -1 11.2659 8.45715   1
  14   1  -1 16.5407 8.90396   1
  14   1  -1 4.52378 8.67733   2
  15 -14   1 11.2299 8.48122   1
  15 -14   1 -1.2373 9.40536   2
 -14  -1   1 12.6507 7.05460   1
  15   0  -1 24.0674 9.90721   1
   0 -15  -1 65.9146 11.8020   2
  15   0  -1 39.3558 10.8278   2
 -15  15  -1 28.7719 9.06168   1
  15 -15   1 7.91094 10.1697   2
  15 -15   1 27.4633 9.11082   1
 -15   0   1 19.0497 7.64237   1
  16  -1  -1 21.7783 10.3098   2
  16  -1  -1 32.5919 10.4855   1
  -1 -15  -1 20.8393 10.5902   2
 -15  16  -1 26.3342 9.15647   1
 -16   1   1 15.4440 7.92977   1
  15 -16   1 17.1832 9.46491   1
  15 -16   1 15.4270 10.8340   2
  17  -2  -1 33.7043 11.3689   1
  -2 -15  -1 12.5136 10.9488   2
 -15  17  -1 37.5524 9.42071   1
  17  -2  -1 28.2432 10.7750   2
 -17   2   1 30.4210 8.43356   1
  15 -17   1 19.8651 10.0698   1
  15 -17   1 23.4877 11.2025   2
  -1  17  -1 9.63626 7.98409   1
  17 -16  -1 3.66354 10.9326   2
 -16  -1  -1 2.86311 8.62988   1
 -16  -1  -1 -9.7314 10.6429   2
   1 -17   1 7.74242 9.10351   1
  16   1   1 18.5703 8.35108   1
   1 -17   1 -2.4646 10.8238   2
 -16   0  -1 7.40788 8.80390   1
 -16   0  -1 1.39519 11.0584   2
   0  16  -1 8.19237 8.00503   1
  16 -16  -1 1.37762 10.3496   2
   0 -16   1 10.9786 8.93151   1
  16   0   1 21.8943 8.35721   1
   0 -16   1 -0.7563 10.0425   2
   1  15  -1 1.48039 7.78196   1
 -16   1  -1 22.6241 11.1062   2
  15 -16  -1 6.52607 10.2333   2
 -16   1  -1 13.9327 8.53965   1
  -1 -15   1 -2.2177 7.77616   1
  16  -1   1 5.63381 7.95555   1
  -1 -15   1 12.7263 10.3678   2
  14 -16  -1 6.83769 9.20573   2
 -16   2  -1 23.1679 11.0437   2
   2  14  -1 19.6078 7.95845   1
 -16   2  -1 6.56716 7.72955   1
  16  -2   1 19.0035 8.63961   1
  -2 -14   1 25.1097 8.75677   1
  -2 -14   1 8.29150 9.90753   2
 -16   3  -1 10.0733 9.86576   1
   3  13  -1 3.25791 7.27010   1
 -16   3  -1 1.57128 10.5041   2
  13 -16  -1 -4.8443 8.65386   2
  -3 -13   1 11.1074 9.26795   2
  16  -3   1 3.38097 7.78750   1
  -3 -13   1 -6.5878 7.10779   1
   4  12  -1 14.8810 7.33177   1
 -16   4  -1 -14.547 9.13814   2
  12 -16  -1 4.94264 9.15738   2
 -16   4  -1 -0.1428 9.63902   1
  16  -4   1 6.55615 7.89224   1
  -4 -12   1 -13.293 6.54484   1
  -4 -12   1 19.8959 9.09457   2
 -16   5  -1 1.83800 8.94068   1
  11 -16  -1 8.63992 9.12072   2
 -16   5  -1 4.87255 9.48256   2
   5  11  -1 10.7673 7.45381   1
  16  -5   1 7.56147 7.69708   1
  -5 -11   1 5.72470 7.38468   1
  16  -5   1 4.95835 8.75538   2
  -5 -11   1 6.06461 9.25166   2
 -16   6  -1 28.9157 9.95459   1
   6  10  -1 28.7132 7.98141   1
  10 -16  -1 55.2724 10.6583   2
 -16   6  -1 30.7045 10.5252   2
  16  -6   1 24.2163 9.59076   2
  -6 -10   1 20.5817 7.40200   1
  -6 -10   1 15.9044 9.51850   2
  16  -6   1 31.1249 8.83831   1
   9 -16  -1 13.3465 8.78718   2
   7   9  -1 28.5472 7.59523   1
 -16   7  -1 4.27678 9.78292   2
 -16   7  -1 21.3458 9.25092   1
  -7  -9   1 15.4460 9.37702   2
  16  -7   1 3.40702 8.25432   1
  16  -7   1 5.08234 8.76271   2
  -7  -9   1 8.46220 6.79428   1
 -16   8  -1 60.7354 10.1039   1
   8   8  -1 46.7893 10.1039   2
   8 -16  -1 53.7210 10.8594   2
   8   8  -1 54.4884 8.87726   1
  16  -8   1 43.2519 10.3851   2
  16  -8   1 31.9192 8.29369   1
  -8  -8   1 58.2535 10.9588   2
  -8  -8   1 41.1450 8.14928   1
   7 -16  -1 -0.3438 8.39597   2
 -16   9  -1 -0.6592 8.34435   1
   9   7  -1 -9.8239 7.85017   2
   9   7  -1 15.8334 7.93155   1
  16  -9   1 1.46913 8.90717   2
  -9  -7   1 -7.6738 6.28890   1
  16  -9   1 4.85698 7.30530   1
  -9  -7   1 10.1299 8.67103   2
  10   6  -1 -14.209 7.39563   2
  10   6  -1 -5.8958 7.02515   1
   6 -16  -1 4.53490 8.58660   2
 -16  10  -1 -0.0713 8.27994   1
  16 -10   1 -9.5393 7.24129   1
 -10  -6   1 9.25210 6.71756   1
 -10  -6   1 7.61853 9.57212   2
  16 -10   1 21.4019 9.70152   2
  11   5  -1 3.77611 7.78933   1
  11   5  -1 12.5891 8.87868   2
 -16  11  -1 22.4573 8.94977   1
   5 -16  -1 25.7925 9.50058   2
 -11  -5   1 16.6878 7.18391   1
 -11  -5   1 7.86518 13.9702   2
  16 -11   1 25.4870 8.70475   1
  16 -11   1 23.1198 10.1530   2
 -16  12  -1 12.4036 8.41438   1
  12   4  -1 15.6875 8.35696   1
  12   4  -1 -8.8408 7.98151   2
   4 -16  -1 13.1389 9.35495   2
 -12  -4   1 -1.0932 6.67861   1
  16 -12   1 24.5412 8.85147   1
  16 -12   1 -4.3297 9.13689   2
  13   3  -1 16.5418 8.74600   1
   3 -16  -1 -1.9600 9.28794   2
  13   3  -1 15.5927 9.67843   2
 -16  13  -1 13.5260 8.69213   1
 -13  -3   1 21.5814 7.47206   1
  16 -13   1 24.9856 9.16646   1
  16 -13   1 25.0678 10.5247   2
  14   2  -1 62.7958 11.8461   2
 -16  14  -1 51.5874 9.91943   1
   2 -16  -1 45.7884 11.2708   2
  14   2  -1 43.7543 10.2863   1
  16 -14   1 57.0761 10.6454   1
  16 -14   1 35.3879 11.7421   2
 -14  -2   1 28.1441 8.23845   1
   1 -16  -1 -18.651 8.62232   2
 -16  15  -1 9.95783 8.25668   1
  15   1  -1 -0.4438 9.28148   2
  15   1  -1 17.6978 10.0339   1
 -15  -1   1 9.11857 7.57052   1
  16 -15   1 -0.0377 8.65036   1
  16 -15   1 -2.1399 10.2180   2
  16   0  -1 3.42923 10.1023   2
  16   0  -1 -1.0233 9.84388   1
 -16  16  -1 6.85132 8.39803   1
   0 -16  -1 -6.8314 9.83203   2
  16 -16   1 7.04416 10.7667   2
  16 -16   1 -6.1258 8.97100   1
 -16   0   1 -7.1218 7.37077   1
  17  -1  -1 -4.5765 10.4062   1
 -16  17  -1 -5.2718 8.10343   1
  -1 -16  -1 -1.2477 10.5389   2
  17  -1  -1 -1.5685 10.2677   2
  16 -17   1 4.19460 10.9249   2
  16 -17   1 -3.9308 9.22278   1
 -17   1   1 2.25002 8.07581   1
 -17   1  -1 -0.0271 8.74629   1
   1  16  -1 -2.1461 8.12403   1
  16 -17  -1 -6.5542 10.2513   2
 -17   1  -1 22.4615 19.8398   2
  -1 -16   1 13.3125 8.99546   1
  -1 -16   1 -18.464 9.83371   2
  17  -1   1 5.45821 8.66664   1
   2  15  -1 28.0233 8.81534   1
 -17   2  -1 15.6137 8.91897   1
 -17   2  -1 9.77870 16.7920   2
  15 -17  -1 25.3193 11.1109   2
  -2 -15   1 11.1215 10.9052   2
  -2 -15   1 24.1194 8.88772   1
  17  -2   1 23.4646 8.94229   1
 -17   3  -1 0.77475 17.0642   2
 -17   3  -1 19.1495 8.51672   1
  14 -17  -1 6.11038 10.0475   2
   3  14  -1 20.3991 8.06540   1
  17  -3   1 32.7887 9.80322   1
  -3 -14   1 5.70542 10.3766   2
  -3 -14   1 15.8176 8.55763   1
 -17   4  -1 28.9459 10.7936   1
   4  13  -1 20.4189 8.31632   1
  13 -17  -1 13.8350 9.78942   2
  -4 -13   1 15.1260 10.2528   2
  17  -4   1 4.21379 8.68428   1
  -4 -13   1 24.3575 8.35991   1
 -17   5  -1 10.0110 10.4340   1
  12 -17  -1 27.0805 10.3364   2
   5  12  -1 16.6300 7.85519   1
  17  -5   1 23.3602 9.22918   1
  -5 -12   1 16.9736 10.3631   2
  -5 -12   1 13.3031 7.73632   1
  11 -17  -1 -2.1627 9.29684   2
 -17   6  -1 -9.6733 9.16182   1
   6  11  -1 7.65104 7.73522   1
  17  -6   1 -0.4046 10.2014   2
  -6 -11   1 10.0630 7.65384   1
  17  -6   1 8.12888 8.50327   1
  -6 -11   1 19.9038 10.2731   2
   7  10  -1 0.19443 7.41695   1
  10 -17  -1 8.97963 9.65921   2
 -17   7  -1 -3.3695 9.44277   1
  -7 -10   1 -12.984 6.66294   1
  -7 -10   1 11.0833 9.28662   2
  17  -7   1 2.10781 8.90585   1
  17  -7   1 5.69263 9.12394   2
 -17   8  -1 7.33104 9.62469   1
   9 -17  -1 1.91969 9.01838   2
   8   9  -1 3.63470 7.61513   1
  -8  -9   1 2.72729 9.72625   2
  -8  -9   1 -0.9932 6.87585   1
  17  -8   1 4.37473 9.35319   1
  17  -8   1 -7.2480 9.17247   2
   8 -17  -1 27.6625 10.4528   2
   9   8  -1 12.5523 8.32166   1
 -17   9  -1 11.5372 9.19551   1
  17  -9   1 17.5552 10.0033   2
  -9  -8   1 10.3773 9.61437   2
  17  -9   1 12.1576 8.08651   1
  -9  -8   1 15.6853 7.33196   1
 -17  10  -1 16.7131 9.05254   1
   7 -17  -1 30.9099 10.3845   2
  10   7  -1 34.1309 9.27877   1
  17 -10   1 42.2733 11.1411   2
 -10  -7   1 22.2428 10.2635   2
 -10  -7   1 24.4720 7.90711   1
  17 -10   1 20.1985 8.21920   1
  11   6  -1 12.6447 8.58482   1
   6 -17  -1 -10.348 8.88208   2
 -17  11  -1 -3.3081 8.70582   1
  11   6  -1 3.17778 11.4607   2
  17 -11   1 2.55318 9.71686   2
 -11  -6   1 10.4449 7.51950   1
  17 -11   1 8.97883 8.17340   1
  12   5  -1 29.0123 10.3860   2
  12   5  -1 12.9111 8.73250   1
 -17  12  -1 15.5225 9.06697   1
   5 -17  -1 10.3408 10.0165   2
  17 -12   1 1.82813 9.75025   2
 -12  -5   1 20.4567 7.69570   1
  17 -12   1 14.2911 8.82548   1
  13   4  -1 -19.673 8.46223   1
 -17  13  -1 -8.4035 8.07188   1
   4 -17  -1 -8.5217 9.41462   2
  13   4  -1 3.15984 9.19775   2
  17 -13   1 9.08807 10.5609   2
 -13  -4   1 -6.0684 7.03078   1
  17 -13   1 4.34568 8.69968   1
  14   3  -1 -0.4289 9.65133   2
  14   3  -1 3.40825 9.15085   1
 -17  14  -1 15.4511 8.79517   1
   3 -17  -1 -16.669 9.37153   2
  17 -14   1 15.7488 9.19111   1
 -14  -3   1 7.55627 7.75394   1
  17 -14   1 3.03380 10.3712   2
  15   2  -1 6.66325 10.2777   2
 -17  15  -1 23.0201 9.01966   1
  15   2  -1 0.19576 9.66675   1
   2 -17  -1 4.58590 10.3423   2
  17 -15   1 -6.2783 10.3444   2
  17 -15   1 -1.4348 9.45725   1
 -15  -2   1 14.5010 7.88486   1
 -17  16  -1 4.07402 8.50118   1
  16   1  -1 -7.9841 9.74212   2
  16   1  -1 -14.180 9.30104   1
   1 -17  -1 -1.9727 10.2929   2
  17 -16   1 -9.7975 9.02846   1
  17 -16   1 2.28371 11.0867   2
 -16  -1   1 -4.5796 7.69482   1
  14 -18  -1 -7.4063 10.2993   2
   4  14  -1 21.1381 8.57666   1
 -18   4  -1 -2.8578 7.88972   1
  -4 -14   1 7.16332 8.22285   1
  18  -4   1 7.88576 9.74748   1
  -4 -14   1 23.8499 11.2801   2
   5  13  -1 7.36382 8.38912   1
  13 -18  -1 -8.6721 10.2764   2
  18  -5   1 1.29249 9.28773   1
  -5 -13   1 -0.6098 8.05638   1
  -5 -13   1 5.07272 10.9640   2
  12 -18  -1 5.47792 10.0509   2
 -18   6  -1 22.9532 10.9351   1
   6  12  -1 -2.1644 7.77186   1
  18  -6   1 2.11292 9.10365   1
  -6 -12   1 -14.397 10.1128   2
  -6 -12   1 11.7390 8.01346   1
 -18   7  -1 17.9274 10.6617   1
  11 -18  -1 0.66527 9.81085   2
   7  11  -1 11.7302 8.54748   1
  -7 -11   1 -1.4700 7.58314   1
  18  -7   1 -9.4387 9.50175   1
  -7 -11   1 0.89676 10.1612   2
   8  10  -1 17.9054 8.82820   1
 -18   8  -1 -5.2401 9.80291   1
  10 -18  -1 16.3058 10.8123   2
  -8 -10   1 18.4530 7.73572   1
  18  -8   1 4.09837 10.8126   2
  18  -8   1 -4.7848 9.94661   1
  -8 -10   1 5.74788 10.3626   2
   9 -18  -1 17.8096 10.5455   2
 -18   9  -1 13.7007 10.1390   1
   9   9  -1 24.7496 9.04512   1
  -9  -9   1 18.4483 11.3005   2
  18  -9   1 33.1017 11.6659   2
  18  -9   1 43.1430 11.5626   1
  -9  -9   1 17.7892 8.15670   1
 -18  10  -1 27.7603 10.4279   1
   8 -18  -1 27.2310 11.1657   2
  10   8  -1 27.2466 10.0056   1
 -10  -8   1 20.1564 7.77205   1
  18 -10   1 10.4920 8.65035   1
  18 -10   1 10.3733 10.4624   2
  11   7  -1 35.0604 9.81733   1
 -18  11  -1 27.0856 9.74976   1
   7 -18  -1 23.1269 10.8231   2
 -11  -7   1 23.2696 8.28738   1
  18 -11   1 26.5845 9.21801   1
  18 -11   1 34.5086 11.7250   2
   6 -18  -1 -4.7148 9.99370   2
  12   6  -1 -6.7516 9.17123   1
 -18  12  -1 9.88455 8.90257   1
  18 -12   1 2.91217 10.7249   2
 -12  -6   1 -7.4531 7.35197   1
  18 -12   1 -15.396 7.89901   1
   5 -18  -1 28.1670 11.3918   2
  13   5  -1 20.5806 10.0167   1
 -18  13  -1 16.4228 8.90094   1
  18 -13   1 -0.0985 8.82813   1
  18 -13   1 5.49302 10.8987   2
 -13  -5   1 10.6295 8.07832   1
 -18  14  -1 14.5158 9.42556   1
  14   4  -1 33.4339 10.5678   1
   4 -18  -1 11.7229 11.1030   2
  18 -14   1 16.1206 12.0475   2
  18 -14   1 29.8386 9.81380   1
 -14  -4   1 9.84215 7.90770   1
   8  11  -1 3.77875 8.83629   1
  11 -19  -1 0.13481 10.8937   2
 -19   8  -1 22.2320 11.1262   1
  19  -8   1 1.52982 10.5997   1
  -8 -11   1 -1.5165 12.1940   2
  -8 -11   1 -3.6622 7.69292   1
 -19   9  -1 -5.1285 10.0244   1
   9  10  -1 -5.5816 8.55486   1
  10 -19  -1 -10.941 10.3371   2
  -9 -10   1 10.0311 7.82101   1
  19  -9   1 -16.299 10.4150   1
   9 -19  -1 3.77412 10.8866   2
  10   9  -1 27.4355 9.80796   1
 -19  10  -1 6.59312 9.76656   1
  19 -10   1 12.3075 11.7056   1
  19 -10   1 5.09621 11.6189   2
 -10  -9   1 2.03974 7.97656   1
  11   8  -1 11.4035 10.0737   1
 -19  11  -1 11.8948 10.1480   1
   8 -19  -1 24.5423 12.0266   2
  19 -11   1 7.17487 11.5524   2
 -11  -8   1 9.02271 7.86645   1
  19 -11   1 -0.5579 8.53963   1
   0   0  -2 1280.03 57.6085   3
   0   0   2 1248.78 57.5288   3
   0   0   2 1172.35 56.8395   8
  -1   0  -2 444.667 24.0921   3
   0   1  -2 457.834 23.5043   3
   1  -1  -2 434.637 24.1884   3
   0  -1   2 496.630 23.1604   8
   1   0   2 490.750 22.7198   7
  -1   1   2 484.383 24.2725   3
   0  -1   2 503.174 22.9776   7
   1   0   2 470.375 23.2746   8
  -1   1   2 507.712 23.3563   8
   0  -1   2 502.159 23.6536   5
   0  -1   2 500.039 23.4426   3
  -1   1   2 512.384 23.4467   5
   1   0  -2 3623.42 163.507   3
   0  -1  -2 3494.69 163.711   3
  -1   1  -2 3547.09 163.162   3
   0   1   2 3442.82 162.734   8
  -1   0   2 3695.42 162.845   8
   1  -1   2 3555.73 162.608   7
  -1   0   2 3690.37 163.124   5
   1  -1   2 3569.15 162.799   8
   0   1   2 3563.46 163.672   3
  -1   0   2 3603.61 163.424   3
   2  -1  -2 280.605 15.6282   3
  -1   2  -2 264.167 13.8553   3
  -2   1   2 272.734 13.3047   7
  -2   1   2 266.100 14.2089   5
   1  -2   2 280.718 14.3252   7
   1  -2   2 271.932 13.8906   8
  -2   1   2 278.312 15.3922   3
  -2   1   2 264.865 14.1087   8
   1   1   2 272.215 13.4158   7
   1   1   2 262.598 13.9428   8
   1  -2   2 275.924 14.5320   5
  -2  -1  -2 1220.86 56.1523   9
  -2  -1  -2 1142.86 57.2788   6
  -3   2   2 1237.36 57.0278   8
   1  -3   2 1240.09 57.4213   7
   2   1   2 1195.48 56.7766   7
   1  -3   2 1238.81 57.1293   5
   1  -3   2 1294.33 55.7809   1
  -3   2   2 1210.81 56.4794   7
   2   1   2 1176.27 56.7380   8
  -3   2   2 1234.26 56.7541   5
  -3   2   2 1215.06 58.3149   3
   1  -3   2 1277.60 56.5231   8
   0   2  -2 350.821 16.9855   3
  -2   0  -2 359.454 16.4300   9
   2  -2  -2 328.632 18.6913   3
   0  -2   2 346.588 17.4043   7
   2   0   2 350.258 17.2191   7
   0  -2   2 349.165 16.7891   3
  -2   2   2 327.662 17.0867   5
   0  -2   2 336.821 17.3153   8
   0  -2   2 332.506 17.5761   5
   2   0   2 336.358 17.2146   8
  -2   2   2 330.037 17.2060   8
  -2   2   2 331.200 18.6720   3
  -2   1  -2 415.609 18.9513   9
   1  -2  -2 408.453 20.9850   3
  -1  -1   2 406.710 20.1077   5
   2  -1   2 396.392 19.7931   7
  -1  -1   2 405.333 19.6956   7
   2  -1   2 404.841 19.7219   8
  -1  -1   2 390.434 19.9371   3
  -1   2   2 373.671 20.8748   3
  -1  -1   2 418.161 19.5071   8
  -1   2   2 371.600 19.4498   8
   0  -2  -2 165.834 11.3222   3
   2  -2   2 176.291 10.2246   7
  -2   0   2 166.125 9.61900   8
   0   2   2 172.867 9.52624   8
  -2   0   2 162.765 9.37809   7
   2  -2   2 176.165 9.80961   8
  -2   0   2 163.457 10.6806   3
  -1  -2  -2 420.482 17.7981   9
  -3   1   2 363.005 19.0715   8
  -3   1   2 370.940 18.6731   7
  -3   1   2 392.228 20.5939   3
   2  -3   2 384.501 19.6077   7
   2  -3   2 381.037 19.1252   5
   2  -3   2 381.838 17.6617   1
   2  -3   2 377.651 18.7175   8
   1   2   2 349.316 18.4742   7
   1   2   2 353.981 18.5652   8
  -2   4  -2 697.891 34.2606   7
  -2  -2  -2 749.997 32.7768   9
   2   2   2 697.542 34.4220   6
  -4   2   2 675.938 33.6817   8
  -4   2   2 671.929 35.1573   3
   2  -4   2 695.968 32.3632   1
  -4   2   2 715.576 33.5549   7
   2   2   2 728.586 33.2583   8
   2  -4   2 696.564 32.9431   8
   2   2   2 683.591 33.4715   7
   2  -4   2 656.773 33.4134   5
   5  -3  -2 829.499 37.7341   2
  -2   5  -2 826.799 38.1163   2
  -2   5  -2 811.524 39.8027   7
  -3  -2  -2 855.494 37.9262   2
  -2   5  -2 832.657 37.7129   1
  -5   3   2 775.784 40.7496   3
  -5   3   2 796.554 39.0758   7
   2  -5   2 797.031 37.8017   8
   3   2   2 783.040 39.5138   6
   3   2   2 760.185 39.0247   7
   2  -5   2 810.030 39.8248   7
   2  -5   2 831.762 37.6916   1
   3   2   2 793.356 38.3677   8
  -3  -1  -2 4.47766 2.75668   9
  -1   4  -2 5.84434 3.72947   7
   1  -4   2 6.04266 3.81437   7
  -4   3   2 7.62929 4.83469   3
   1  -4   2 2.86158 4.07235   8
   3   1   2 3.44388 3.35836   7
   1  -4   2 -1.0208 1.81517   7
   1  -4   2 4.67152 2.24598   1
  -4   3   2 2.72768 3.86456   8
  -4   3   2 5.67535 3.13579   7
  -3   0  -2 806.524 37.9129   9
   3  -3  -2 826.774 40.0638   3
  -3   0  -2 807.007 38.5804   6
   0  -3   2 831.970 37.2508   1
   3   0   2 820.204 38.7551   7
  -3   3   2 771.840 38.3743   8
  -3   3   2 796.714 37.9869   7
  -3   3   2 787.356 37.9145   5
   0  -3   2 815.549 39.1039   7
   0  -3   2 851.334 39.1380   7
  -3   3   2 804.999 40.0631   3
   2  -3  -2 991.592 47.3622   3
  -3   1  -2 982.096 45.4958   9
  -1  -2   2 1015.35 45.5157   8
  -1  -2   2 954.081 45.7290   3
  -2   3   2 999.240 45.3199   7
  -1  -2   2 962.032 46.3012   7
   3  -1   2 973.247 46.3049   7
  -2   3   2 977.214 47.2769   3
  -2   3   2 955.734 45.7397   8
   1  -3  -2 872.134 41.5102   3
  -3   2  -2 883.379 39.7696   9
  -1   3   2 830.503 39.3827   7
  -1   3   2 834.015 41.3014   3
  -1   3   2 855.594 39.5126   7
  -2  -1   2 864.333 40.3507   7
  -2  -1   2 855.481 39.8196   8
  -1   3   2 803.672 39.6765   8
   3  -2   2 844.708 40.6340   7
   0  -3  -2 155.089 11.1241   3
  -3   3  -2 156.038 9.08846   9
   3  -3   2 148.281 10.1372   7
  -3   0   2 152.971 9.17633   8
   0   3   2 144.765 10.6692   6
   0   3   2 144.782 8.62081   7
   0   3   2 142.913 8.87132   7
   3  -3   2 151.595 7.71449   1
   0   3   2 140.663 8.62547   8
  -3   0   2 152.351 9.32650   7
  -3   4  -2 1281.61 61.5943   7
  -3   4  -2 1384.06 60.7535   9
   1   3   2 1259.76 60.2721   8
  -4   1   2 1301.13 61.0169   7
   1   3   2 1274.43 60.6574   7
   3  -4   2 1330.15 59.7088   1
   3  -4   2 1327.43 60.6905   5
   1   3   2 1284.18 61.9737   6
  -4   1   2 1299.95 60.9446   8
  -3   5  -2 306.019 18.9004   7
   5  -2  -2 332.574 16.8618   2
  -3   5  -2 322.556 17.2726   2
  -2  -3  -2 283.581 16.7139   2
  -3   5  -2 314.746 16.8219   1
   2   3   2 371.656 19.7697   6
  -5   2   2 375.698 18.6173   7
   3  -5   2 369.038 17.8952   5
   2   3   2 344.712 17.3161   8
   2   3   2 358.145 18.2853   7
   3  -5   2 370.035 16.8085   1
   3  -5   2 386.255 19.4320   7
  -3  -3  -2 648.283 32.0883   2
  -3   6  -2 694.969 32.1143   1
   6  -3  -2 713.438 32.1906   2
  -3   6  -2 670.930 32.5197   2
  -3   6  -2 668.084 34.5335   7
  -6   3   2 689.226 33.9084   7
   3   3   2 659.349 33.6759   7
   3   3   2 677.645 32.5593   8
   3  -6   2 685.795 34.5960   7
   3   3   2 666.981 34.4934   6
   3  -6   2 674.837 32.0276   1
   3  -6   2 678.672 32.1859   8
  -3   7  -2 122.361 9.50777   2
  -4  -3  -2 136.983 9.18536   2
  -3   7  -2 133.630 9.19927   1
   7  -4  -2 135.140 9.18722   2
  -3   7  -2 117.003 11.6362   7
   3  -7   2 156.360 8.89764   8
   3  -7   2 165.769 9.79297   2
   3  -7   2 165.749 9.32238   1
   4   3   2 165.852 12.3914   6
   4   3   2 150.925 11.4648   7
   3  -7   2 169.541 12.7628   7
  -7   4   2 159.068 11.8028   7
  -2   6  -2 734.377 39.8415   7
  -4  -2  -2 755.106 37.7715   2
  -2   6  -2 765.010 37.6009   1
  -2   6  -2 762.402 38.1023   2
   6  -4  -2 799.183 37.7655   2
   2  -6   2 836.395 40.2547   7
   2  -6   2 825.249 37.6297   1
  -6   4   2 835.584 39.4925   7
  -6   4   2 836.593 41.4501   3
   4   2   2 820.138 39.4902   7
   2  -6   2 835.955 40.4202   7
   2  -6   2 812.633 37.4618   8
   4   2   2 817.942 39.6450   6
  -4  -1  -2 512.357 26.1884   2
   5  -4  -2 522.123 26.0552   2
  -1   5  -2 502.074 26.3815   2
  -1   5  -2 504.559 27.9848   7
  -1   5  -2 528.749 26.0153   1
  -4  -1  -2 503.814 26.6295   9
   4   1   2 572.143 27.8161   7
   1  -5   2 608.379 28.5411   7
  -5   4   2 584.766 27.6342   7
   4   1   2 567.175 27.5736   6
   1  -5   2 588.665 26.0245   1
  -5   4   2 600.400 29.6542   3
  -4   0  -2 227.084 12.9925   6
   0   4  -2 248.586 12.8865   2
  -4   0  -2 243.592 12.4248   2
  -4   0  -2 243.938 12.4951   9
  -4   4   2 209.889 12.9479   8
   4   0   2 236.333 13.5236   7
   0  -4   2 232.862 11.5868   1
  -4   4   2 217.486 12.9645   7
  -4   4   2 213.283 15.0059   3
   0  -4   2 219.691 13.9722   7
  -4   4   2 216.509 11.8938   5
   3  -4  -2 130.309 11.0510   3
  -4   1  -2 128.088 8.66987   6
   3  -4  -2 134.915 7.56909   9
  -4   1  -2 122.907 8.80993   9
   4  -1   2 143.402 9.86323   7
  -1  -3   2 154.039 7.58220   1
  -1  -3   2 156.150 8.22113   8
  -3   4   2 129.284 11.0062   3
  -3   4   2 142.552 9.23166   7
   4  -1   2 134.103 7.05420   1
  -3   4   2 140.525 9.12425   8
  -1  -3   2 153.085 10.1870   7
  -1  -3   2 145.589 9.73093   7
   2  -4  -2 769.656 34.7973   9
  -4   2  -2 784.475 35.8564   9
   2  -4  -2 808.711 37.6707   3
  -2   4   2 759.344 35.7006   7
  -2  -2   2 770.729 35.5162   8
   4  -2   2 704.426 36.7226   7
  -2   4   2 758.042 35.6401   8
  -2   4   2 740.165 37.4376   3
   4  -2   2 688.904 34.5456   1
  -2  -2   2 739.509 34.5991   1
  -2   4   2 767.594 35.8522   7
  -2  -2   2 762.966 36.6581   7
   1  -4  -2 683.169 31.4845   9
  -4   3  -2 685.050 33.3387   7
   1  -4  -2 693.200 33.9044   3
  -4   3  -2 732.457 32.4438   9
   4  -3   2 623.193 33.2682   7
  -1   4   2 652.461 31.7559   8
  -1   4   2 663.333 32.2225   7
  -3  -1   2 676.793 32.1755   8
  -3  -1   2 684.357 32.8997   7
  -1   4   2 677.534 33.7733   6
  -1   4   2 645.656 32.0633   7
   4  -3   2 653.367 31.0545   1
  -1   4   2 666.941 33.8684   3
   4   0  -2 375.324 19.2471   2
  -4   4  -2 327.708 19.5258   9
  -4   4  -2 339.127 19.7351   2
   0  -4  -2 341.178 21.0214   3
  -4   4  -2 310.340 20.4243   7
   0   4   2 403.270 18.8988   8
  -4   0   2 435.171 20.3042   7
   0   4   2 437.752 19.9640   7
   0   4   2 407.958 21.4591   6
   0   4   2 422.524 19.7529   7
   4  -4   2 398.543 18.4010   1
  -4   5  -2 340.883 17.8977   9
  -1  -4  -2 344.223 19.6557   3
   5  -1  -2 326.112 16.6197   2
  -4   5  -2 331.275 16.6964   1
  -4   5  -2 310.549 18.8404   7
  -1  -4  -2 324.512 16.4661   2
  -4   5  -2 326.407 17.1555   2
   4  -5   2 336.946 17.3415   5
  -5   1   2 350.725 18.3659   7
   1   4   2 346.889 16.8196   8
   1   4   2 338.413 18.0043   7
   4  -5   2 340.493 16.4747   1
   1   4   2 334.838 19.6599   6
   4  -5   2 323.391 18.9400   7
   6  -2  -2 44.3747 4.43569   2
  -4   6  -2 42.0537 4.86264   2
  -2  -4  -2 47.4996 4.40297   2
  -4   6  -2 48.1310 4.68509   1
  -4   6  -2 44.1654 5.92233   9
  -4   6  -2 24.8164 5.29470   7
   4  -6   2 37.9154 4.16877   1
   2   4   2 47.0009 7.45308   6
   2   4   2 52.8100 5.02840   8
  -6   2   2 45.0237 6.14368   7
   2   4   2 47.2237 5.95632   7
   4  -6   2 46.2475 5.13364   5
   4  -6   2 53.7649 6.92642   7
   7  -3  -2 1416.60 61.3985   2
  -4   7  -2 1383.57 64.0855   7
  -4   7  -2 1382.09 61.2358   1
  -4   7  -2 1398.09 61.7301   2
  -3  -4  -2 1352.53 61.2721   2
  -7   3   2 1219.95 63.0412   7
   3   4   2 1274.11 62.9351   7
   3   4   2 1246.57 64.0037   6
   4  -7   2 1238.70 60.9772   1
   4  -7   2 1298.39 61.7173   2
   3   4   2 1284.34 61.3520   8
   8  -4  -2 802.190 36.6488   1
  -4   8  -2 769.357 38.4873   9
  -4  -4  -2 735.212 36.5943   1
   8  -4  -2 786.868 37.2008   2
  -4   8  -2 806.239 37.1135   1
  -4  -4  -2 725.684 37.0141   2
  -4   8  -2 800.412 37.7262   2
   4  -8   2 749.188 36.8762   1
   4   4   2 813.007 37.3684   8
  -8   4   2 775.360 39.6271   7
   4   4   2 789.023 40.4827   6
   4  -8   2 753.832 37.4962   2
  -4   9  -2 156.583 10.9069   1
  -5  -4  -2 166.980 10.2201   1
  -4   9  -2 162.260 11.2361   2
  -5  -4  -2 143.880 10.5747   2
   9  -5  -2 173.104 10.8246   2
   4  -9   2 143.288 10.8705   2
   5   4   2 150.105 14.5087   6
   4  -9   2 162.448 10.8212   1
   5   4   2 166.572 9.00963   1
  -9   5   2 159.929 14.3638   7
  -3   8  -2 166.537 11.2702   2
  -5  -3  -2 160.736 10.0816   1
  -3   8  -2 168.741 10.7624   1
  -5  -3  -2 170.099 10.8971   2
   8  -5  -2 158.358 10.4237   2
   5   3   2 171.620 9.17088   1
   3  -8   2 159.752 13.9188   7
   5   3   2 209.578 14.3789   6
   3  -8   2 173.878 10.5540   1
  -8   5   2 174.539 13.8259   7
   3  -8   2 179.560 11.1093   2
   3  -8   2 170.044 10.5782   8
  -5  -2  -2 120.711 8.15194   1
  -2   7  -2 122.828 11.2036   7
  -2   7  -2 119.974 8.81950   2
  -5  -2  -2 114.850 8.46398   2
   7  -5  -2 122.021 8.32534   2
  -2   7  -2 118.421 8.46307   1
   5   2   2 116.395 10.6747   7
  -7   5   2 134.509 13.2844   3
  -7   5   2 123.807 11.3210   7
   5   2   2 132.411 7.14728   1
   2  -7   2 138.680 8.42312   1
   2  -7   2 133.736 9.14630   2
   5   2   2 125.218 10.8399   6
   2  -7   2 138.179 11.8607   7
  -5  -1  -2 126.503 8.41183   2
  -1   6  -2 137.336 11.0929   7
   6  -5  -2 128.762 8.18658   2
  -1   6  -2 133.482 8.04678   1
  -5  -1  -2 132.331 9.39448   9
  -1   6  -2 122.630 8.74756   2
   5   1   2 131.224 9.91979   6
   1  -6   2 130.454 8.08732   1
   5   1   2 121.993 7.05899   1
   1  -6   2 138.830 11.1792   7
  -6   5   2 137.036 10.6933   7
   1  -6   2 127.602 11.1829   7
   5   1   2 119.603 10.2670   7
  -6   5   2 128.266 12.3992   3
  -5   0  -2 119.711 8.80142   9
   0   5  -2 118.797 7.54343   1
  -5   0  -2 120.803 9.47607   6
   0   5  -2 114.099 8.03389   2
  -5   0  -2 126.376 8.08258   2
   5  -5  -2 118.465 7.67205   2
  -5   5   2 106.062 11.4736   3
   5   0   2 121.524 10.0196   7
   0  -5   2 135.000 7.57279   1
   0  -5   2 126.456 10.4073   7
  -5   5   2 133.863 10.0576   7
   5   0   2 120.202 6.78675   1
   0  -5   2 134.128 10.3326   7
   4  -5  -2 139.134 8.06384   2
  -5   1  -2 138.097 9.02843   6
   1   4  -2 141.649 8.35171   2
  -5   1  -2 139.246 9.31764   9
  -5   1  -2 139.000 8.40859   2
   1   4  -2 137.871 7.79242   1
   4  -5  -2 139.842 11.9565   3
  -4   5   2 128.001 9.48211   8
  -1  -4   2 141.271 7.82533   1
   5  -1   2 131.262 7.37344   1
   5  -1   2 140.146 10.2199   7
  -4   5   2 134.298 9.87462   7
  -1  -4   2 138.023 10.6100   7
  -4   5   2 124.175 7.79708   5
  -4   5   2 125.333 11.7213   3
  -5   2  -2 212.266 12.1043   9
   3  -5  -2 210.346 14.0379   3
  -5   2  -2 221.420 11.2826   2
   2   3  -2 198.742 10.9883   2
   3  -5  -2 213.899 11.3144   2
  -3   5   2 209.457 14.1240   3
   5  -2   2 192.685 10.2481   1
  -3   5   2 210.371 12.4597   7
  -2  -3   2 191.204 10.9796   8
  -2  -3   2 194.811 12.9415   7
  -2  -3   2 191.305 10.4072   1
  -3   5   2 198.234 13.6019   6
   5  -2   2 198.664 12.9262   7
  -3   5   2 206.962 11.7204   8
  -5   3  -2 44.8306 4.87510   2
  -5   3  -2 49.7614 5.92940   9
  -5   3  -2 36.1172 6.62217   7
   2  -5  -2 40.0313 4.64379   2
   2  -5  -2 44.9716 6.85523   3
   3   2  -2 46.6838 4.58037   2
  -3  -2   2 72.6098 5.75424   8
  -2   5   2 71.3071 7.74498   6
  -2   5   2 84.2403 7.33006   7
   5  -3   2 67.2067 4.70581   1
  -3  -2   2 70.8349 6.80531   7
  -2   5   2 62.7635 7.58864   3
  -2   5   2 71.3717 6.81968   7
  -2   5   2 68.2422 5.47006   8
  -3  -2   2 66.2348 4.52532   1
  -5   4  -2 165.081 9.32280   2
   4   1  -2 167.629 8.73107   2
   1  -5  -2 161.972 11.9590   3
  -5   4  -2 177.177 9.03648   1
   1  -5  -2 158.961 8.61722   2
  -5   4  -2 163.756 11.5873   7
  -5   4  -2 170.149 10.5792   9
  -1   5   2 133.957 11.7700   6
  -4  -1   2 133.848 10.3544   7
  -4  -1   2 143.284 7.94405   1
  -1   5   2 127.634 10.1650   7
   5  -4   2 144.352 8.38574   1
  -1   5   2 125.461 8.65437   8
  -1   5   2 130.037 9.99970   7
   5   0  -2 1271.76 58.0336   2
  -5   5  -2 1144.85 60.0805   7
   0  -5  -2 1193.74 57.8551   2
   0  -5  -2 1250.92 60.5367   3
  -5   5  -2 1228.81 58.4606   2
  -5   5  -2 1206.18 58.9753   9
  -5   5  -2 1169.41 57.8829   1
   0   5   2 1304.62 59.3280   7
   0   5   2 1270.18 57.8950   8
   5  -5   2 1246.09 57.6637   1
   0   5   2 1229.12 60.8024   6
  -5   0   2 1351.22 59.8682   7
   5  -5   2 1290.23 60.4716   7
   0   5   2 1330.39 59.3412   7
  -5   0   2 1292.93 57.2692   1
  -5   6  -2 515.560 29.7356   7
  -5   6  -2 525.650 27.1759   1
  -5   6  -2 526.258 28.4453   9
  -1  -5  -2 481.769 26.9225   2
  -5   6  -2 521.717 27.6183   2
   6  -1  -2 535.442 27.1483   2
  -1  -5  -2 537.860 29.9591   3
   1   5   2 624.169 31.0628   6
   5  -6   2 587.600 27.0158   1
   5  -6   2 595.211 30.1661   7
  -6   1   2 626.296 29.4061   7
   1   5   2 591.103 27.0570   8
   5  -6   2 589.422 27.6032   5
   1   5   2 613.826 29.0713   7
  -6   1   2 603.362 26.3437   1
  -2  -5  -2 129.610 9.09305   2
  -5   7  -2 134.711 9.45622   1
   7  -2  -2 144.063 8.68328   1
   7  -2  -2 142.561 9.12177   2
  -5   7  -2 140.785 10.0485   2
  -5   7  -2 158.525 11.5390   9
  -5   7  -2 133.082 12.4857   7
   5  -7   2 142.114 9.00769   1
  -7   2   2 140.255 8.01318   1
   5  -7   2 145.782 9.71967   2
   5  -7   2 143.834 9.55447   5
   2   5   2 151.096 9.06423   8
   2   5   2 163.964 13.9748   6
  -7   2   2 144.646 11.8081   7
   2   5   2 153.996 11.6625   7
  -3  -5  -2 31.4028 4.37454   1
  -3  -5  -2 31.2178 4.72369   2
   8  -3  -2 38.5831 4.39477   1
   8  -3  -2 34.5102 4.68925   2
  -5   8  -2 36.9410 5.45976   2
  -5   8  -2 29.6411 5.00517   1
  -5   8  -2 54.9212 7.30614   9
   3   5   2 28.8166 7.97599   6
   5  -8   2 25.2346 4.93663   2
  -8   3   2 22.9741 6.31241   7
   5  -8   2 21.9260 4.42065   1
   3   5   2 27.9751 4.56767   8
   9  -4  -2 27.0495 5.01159   2
   9  -4  -2 22.5684 4.40832   1
  -5   9  -2 32.6197 5.76548   2
  -4  -5  -2 18.5521 4.93223   2
  -5   9  -2 17.2669 5.00626   1
   4   5   2 38.7285 5.32560   8
   5  -9   2 28.9769 5.01863   1
   4   5   2 31.7763 8.52400   6
  -9   4   2 30.5722 7.40300   7
   5  -9   2 27.0710 5.43769   2
  -5  -5  -2 72.2171 7.51015   2
  -5  10  -2 63.0064 7.66313   2
  -5  10  -2 56.6517 7.04706   1
  10  -5  -2 67.8935 7.42217   2
   5   5   2 81.0515 7.60967   8
   5 -10   2 67.1221 7.75798   2
   5 -10   2 75.7563 7.21498   1
   5   5   2 74.9764 11.0689   6
 -10   5   2 67.3480 10.1775   7
  -6  -5  -2 120.758 12.8544   1
  -6  -5  -2 126.883 10.8675   2
  11  -6  -2 129.647 11.4531   2
  -5  11  -2 120.977 10.3818   1
  -5  11  -2 137.881 11.3896   2
   6   5   2 154.881 9.15076   1
   5 -11   2 139.579 11.2072   1
   5 -11   2 152.755 11.9311   2
   6   5   2 155.108 15.1951   6
 -11   6   2 158.359 16.2493   7
  10  -6  -2 20.4592 5.28050   2
  -4  10  -2 14.6942 5.45454   2
  -6  -4  -2 16.5129 4.96918   2
  -4  10  -2 19.5493 5.22448   1
  -6  -4  -2 19.3866 4.49308   1
   4 -10   2 10.1631 5.49153   2
   4 -10   2 12.8971 4.76174   1
   6   4   2 10.5745 3.44347   1
   6   4   2 17.9767 7.62332   6
 -10   6   2 14.4334 7.71195   7
   9  -6  -2 13.3548 4.55880   2
  -6  -3  -2 6.55116 4.46892   2
  -3   9  -2 7.96795 4.59963   2
  -6  -3  -2 9.07969 3.74624   1
  -3   9  -2 13.1622 4.58695   1
   3  -9   2 16.9878 4.39268   1
   3  -9   2 21.6913 5.05204   2
   6   3   2 22.2767 6.88406   6
  -9   6   2 22.1350 6.85615   7
   6   3   2 14.7771 3.41702   1
  -2   8  -2 357.589 19.5854   2
   8  -6  -2 350.421 18.9335   2
  -6  -2  -2 377.812 19.2614   2
  -6  -2  -2 371.241 18.7078   1
  -2   8  -2 369.214 18.8527   1
  -8   6   2 346.973 21.7716   7
   2  -8   2 381.039 19.6290   2
   2  -8   2 353.695 22.3980   7
  -8   6   2 383.050 24.1270   3
   2  -8   2 359.171 18.8948   1
   6   2   2 363.518 17.8451   1
   6   2   2 361.183 20.9822   6
  -6  -1  -2 52.4114 5.50944   2
  -6  -1  -2 57.2461 5.25687   1
   7  -6  -2 52.3116 5.33727   2
  -1   7  -2 46.5897 4.99423   1
  -1   7  -2 57.4287 5.85068   2
   6   1   2 50.2771 4.31357   1
  -7   6   2 53.2247 8.81244   3
   6   1   2 45.4769 6.59496   7
   1  -7   2 59.8791 5.88594   2
   6   1   2 55.7265 6.49363   6
   1  -7   2 46.4789 4.94835   1
   1  -7   2 38.3943 6.70216   7
  -7   6   2 67.5572 8.26524   7
  -6   0  -2 102.258 8.55165   9
  -6   0  -2 98.9395 7.72476   1
  -6   0  -2 94.2074 7.93453   2
   0   6  -2 106.587 7.51309   1
   6  -6  -2 96.2711 7.67573   2
   0   6  -2 108.135 7.94940   2
   0  -6   2 123.587 7.56454   1
   0  -6   2 139.862 9.33575   2
  -6   6   2 113.378 11.3219   3
   6   0   2 75.1681 8.94048   7
   0  -6   2 117.518 11.9556   7
   0  -6   2 135.154 11.0267   7
   6   0   2 108.412 6.71223   1
  -6   6   2 141.978 10.9556   7
   1   5  -2 123.100 8.70298   2
  -6   1  -2 126.548 9.94899   9
   1   5  -2 125.142 8.16019   1
  -6   1  -2 130.444 8.76229   1
  -6   1  -2 120.319 8.60128   2
   5  -6  -2 142.561 8.57642   2
  -5   6   2 142.689 7.75142   5
  -1  -5   2 141.100 8.25675   1
  -5   6   2 149.867 12.7464   3
  -1  -5   2 149.997 11.3976   7
  -1  -5   2 145.203 11.5111   7
   6  -1   2 145.120 7.86225   1
  -5   6   2 152.482 10.9281   7
  -6   2  -2 351.012 17.7727   1
   2   4  -2 350.188 17.8638   2
  -6   2  -2 362.824 18.1070   2
   2   4  -2 342.535 17.3333   1
  -6   2  -2 339.446 20.1072   7
   4  -6  -2 360.596 17.7162   2
  -6   2  -2 337.413 17.7356   6
   4  -6  -2 345.366 20.8073   3
  -4   6   2 364.036 20.4937   6
  -4   6   2 352.101 18.5284   8
  -2  -4   2 373.690 20.2918   7
  -2  -4   2 360.945 19.8167   7
  -4   6   2 374.082 21.0707   3
   6  -2   2 328.520 17.0696   1
  -2  -4   2 352.437 17.3897   1
  -2  -4   2 362.524 17.5772   8
  -4   6   2 358.447 19.6806   7
   3   3  -2 148.555 8.55582   1
  -6   3  -2 152.400 10.6473   9
  -6   3  -2 150.878 9.40900   2
   3  -6  -2 143.189 8.66563   2
  -6   3  -2 160.038 11.9201   7
   3   3  -2 152.500 8.99905   2
   3  -6  -2 147.453 12.2268   3
  -6   3  -2 148.855 9.24358   1
  -3   6   2 203.095 13.1841   6
   6  -3   2 123.761 10.3549   7
  -6   4  -2 30.9619 5.13005   9
   4   2  -2 32.7852 3.43757   1
   4   2  -2 32.8955 3.97707   2
   2  -6  -2 27.4309 5.91002   3
  -6   4  -2 24.7236 4.15516   2
  -6   4  -2 27.9340 5.76240   7
   2  -6  -2 26.9266 3.67322   2
  -6   4  -2 29.7294 4.21577   1
  -2   6   2 22.2542 4.99738   7
   6  -4   2 24.3540 3.50012   1
  -2   6   2 19.6782 6.18024   6
   6  -4   2 27.6027 5.53247   7
  -4  -2   2 27.0058 3.18007   1
  -2   6   2 21.4686 3.97042   8
  -2   6   2 25.6605 5.20487   7
  -2   6   2 31.8394 6.54739   3
  -4  -2   2 26.3502 5.11498   7
   5   1  -2 60.6838 4.99656   2
   1  -6  -2 75.6798 8.21769   3
  -6   5  -2 61.4130 6.84459   9
  -6   5  -2 62.5727 5.24367   1
  -6   5  -2 62.0473 5.43533   2
   1  -6  -2 65.9032 5.05985   2
  -6   5  -2 54.0226 7.34012   7
   6  -5   2 35.8434 4.22172   1
  -1   6   2 42.3775 4.57204   8
  -5  -1   2 35.7548 3.74442   1
   6  -5   2 34.2241 6.46663   7
  -1   6   2 33.5502 5.74556   7
  -1   6   2 39.5805 6.23130   7
  -1   6   2 44.0808 7.74695   6
  -5  -1   2 40.5010 6.78485   7
  -6   6  -2 1261.29 60.1289   1
  -6   6  -2 1323.30 61.4859   9
   0  -6  -2 1315.82 63.0276   3
  -6   6  -2 1296.05 60.6135   2
   6   0  -2 1323.84 60.2385   2
  -6   6  -2 1239.26 62.8699   7
   0  -6  -2 1247.34 60.0636   2
   6   0  -2 1295.79 59.7117   1
   0   6   2 1251.92 63.5007   6
   6  -6   2 1274.43 59.8023   1
  -6   0   2 1284.35 62.1967   7
   0   6   2 1325.73 61.8374   7
   0   6   2 1328.00 59.8317   8
  -6   0   2 1271.61 59.4215   1
   6  -6   2 1318.28 61.5889   2
   0   6   2 1344.73 61.9992   7
  -1  -6  -2 192.438 11.8256   2
  -6   7  -2 219.721 21.9201   7
  -6   7  -2 192.843 13.8924   9
   7  -1  -2 193.093 11.4997   1
  -6   7  -2 205.699 12.2788   1
   7  -1  -2 184.481 11.8658   2
  -6   7  -2 201.384 13.0015   2
   1   6   2 217.131 11.4790   8
   6  -7   2 231.154 12.9259   2
   1   6   2 226.246 17.0741   6
  -7   1   2 212.477 14.8569   7
  -7   1   2 215.402 11.0806   1
   6  -7   2 227.419 12.4135   5
   6  -7   2 211.359 11.9245   1
   1   6   2 240.059 14.5557   7
   8  -2  -2 116.113 8.36305   1
  -2  -6  -2 112.138 8.82420   2
  -6   8  -2 98.0871 8.98016   1
  -6   8  -2 104.508 10.5803   9
  -6   8  -2 111.426 9.27858   2
   8  -2  -2 113.563 8.77115   2
  -8   2   2 127.936 12.1901   7
   6  -8   2 140.490 8.98985   1
  -8   2   2 130.836 7.62735   1
   2   6   2 111.237 12.6372   6
   6  -8   2 129.718 9.60453   2
   6  -8   2 127.444 8.88264   5
   2   6   2 126.963 8.07796   8
  -6   9  -2 83.4590 7.96920   2
  -3  -6  -2 91.8723 7.78666   2
   9  -3  -2 103.911 7.65108   1
   9  -3  -2 90.9160 7.41406   2
  -6   9  -2 82.9222 7.32135   1
   6  -9   2 65.1401 6.79239   1
   3   6   2 54.2535 10.4187   6
  -9   3   2 69.4995 6.22701   1
  -9   3   2 76.2842 9.92652   7
   6  -9   2 61.7012 7.28422   2
  -6  10  -2 42.6379 6.83779   2
  -6  10  -2 33.0169 6.01668   1
  10  -4  -2 55.0651 6.35803   1
  10  -4  -2 34.3952 5.91332   2
  -4  -6  -2 58.6459 6.80954   2
   6 -10   2 46.2525 5.98661   1
   6 -10   2 49.3216 6.90362   2
 -10   4   2 40.6001 8.60654   7
   4   6   2 56.5281 10.5434   6
  -6  11  -2 90.2557 8.57734   1
  -5  -6  -2 76.5254 8.44141   2
  11  -5  -2 77.2717 8.49382   2
  -6  11  -2 85.6693 9.32794   2
 -11   5   2 136.936 18.0584   7
   5   6   2 82.9292 12.7608   6
   6 -11   2 83.8357 8.24204   1
   6 -11   2 90.2203 9.01664   2
  -6  12  -2 73.4636 9.41678   2
  -6  12  -2 49.6455 7.75150   1
  12  -6  -2 65.4438 8.32312   2
  -6  -6  -2 63.3296 8.55257   2
   6 -12   2 56.2551 7.63626   1
   6 -12   2 84.4851 9.15209   2
   6   6   2 68.0960 12.1494   6
  13  -7  -2 19.7710 7.30569   2
  -6  13  -2 10.0942 6.87520   1
  -7  -6  -2 24.1672 7.51741   2
  -6  13  -2 5.64624 7.94193   2
   6 -13   2 13.7125 6.43201   1
   7   6   2 12.0581 9.82530   6
   6 -13   2 17.3804 7.40545   2
   7   6   2 34.8249 5.11291   1
  12  -7  -2 50.4746 7.80354   2
  -5  12  -2 35.2997 7.67468   2
  -7  -5  -2 49.7520 7.56996   2
  -5  12  -2 37.5580 7.00279   1
   7   5   2 43.6412 5.21952   1
   5 -12   2 50.8045 7.72621   2
   7   5   2 23.0644 9.65347   6
   5 -12   2 44.1215 7.00324   1
  -4  11  -2 194.736 13.4489   1
  -7  -4  -2 198.555 13.6374   2
  -7  -4  -2 183.009 12.7517   1
  -4  11  -2 198.766 14.1811   2
  11  -7  -2 210.337 13.9039   2
   4 -11   2 205.571 14.1306   2
   7   4   2 188.476 16.5844   6
   7   4   2 186.205 11.3518   1
   4 -11   2 188.650 13.1967   1
 -11   7   2 174.673 17.6547   7
  -7  -3  -2 131.947 9.83370   1
  -7  -3  -2 125.183 10.5619   2
  10  -7  -2 122.434 10.2994   2
  -3  10  -2 138.680 10.9660   2
  -3  10  -2 122.602 9.96827   1
   7   3   2 111.932 11.7445   6
   3 -10   2 111.679 9.80774   2
   7   3   2 118.793 8.25969   1
 -10   7   2 133.416 14.2129   7
   3 -10   2 95.1444 8.71803   1
  -7  -2  -2 77.3545 7.50283   2
  -7  -2  -2 74.1647 6.78338   1
  -2   9  -2 78.1959 7.01837   1
  -2   9  -2 103.064 8.37588   2
   9  -7  -2 74.3106 7.13781   2
  -9   7   2 62.1735 10.0099   7
   2  -9   2 64.1656 7.25992   2
   7   2   2 72.7445 8.75677   6
   2  -9   2 72.0823 6.86556   1
  -9   7   2 70.3880 11.2450   3
   7   2   2 72.6965 5.81606   1
   8  -7  -2 32.7507 5.01433   2
  -1   8  -2 29.8853 5.25605   2
  -7  -1  -2 29.1094 4.74406   1
  -7  -1  -2 28.1330 5.01106   2
  -1   8  -2 30.0468 4.82434   1
   1  -8   2 35.3962 5.38914   2
   7   1   2 28.4037 5.59873   6
  -8   7   2 32.8854 7.31802   7
   7   1   2 36.1526 4.00504   1
  -8   7   2 23.1296 8.01159   3
   1  -8   2 25.5366 4.61339   1
  -7   0  -2 1035.89 48.2930   1
   0   7  -2 1050.68 48.7505   2
   0   7  -2 1017.60 48.0751   1
   7  -7  -2 1029.67 48.5031   2
  -7   0  -2 1058.09 48.7111   2
   7   0   2 1005.37 47.5153   1
   0  -7   2 1013.17 51.3257   7
  -7   7   2 1006.57 50.7635   7
  -7   7   2 1033.85 52.3098   3
   0  -7   2 1044.37 48.7381   2
   0  -7   2 989.731 48.0708   1
  -7   1  -2 90.1857 8.18916   2
  -7   1  -2 108.741 8.09844   1
  -7   1  -2 121.461 9.96110   9
   6  -7  -2 91.7282 7.54872   2
   1   6  -2 82.1344 7.73522   2
   1   6  -2 90.4822 7.42005   1
  -1  -6   2 115.398 8.14423   2
  -1  -6   2 109.604 10.9493   7
  -6   7   2 100.110 11.3008   3
   7  -1   2 111.317 7.09708   1
   7  -1   2 117.100 13.3927   7
  -1  -6   2 113.677 7.61938   1
  -6   7   2 108.239 11.0333   7
  -7   2  -2 354.408 18.9714   2
  -7   2  -2 363.070 18.8530   1
  -7   2  -2 380.870 21.8794   7
  -7   2  -2 366.032 20.0808   9
   5  -7  -2 378.694 18.8126   2
   2   5  -2 361.111 18.9231   2
   2   5  -2 373.156 18.3930   1
  -2  -5   2 401.533 21.7066   7
  -5   7   2 343.451 17.5996   5
  -5   7   2 365.252 21.5307   6
  -5   7   2 384.308 21.2619   7
  -2  -5   2 358.476 21.3072   7
   7  -2   2 356.480 18.0556   1
   7  -2   2 364.070 21.1982   7
  -2  -5   2 375.987 18.4469   1
  -5   7   2 366.805 22.2875   3
  -2  -5   2 378.061 19.9991   2
  -7   3  -2 54.5302 7.75368   7
   3   4  -2 54.8790 4.74446   1
  -7   3  -2 59.0345 6.84003   9
  -7   3  -2 64.0336 5.65754   1
  -7   3  -2 57.8637 5.09386   6
   4  -7  -2 66.6884 5.40752   2
   4  -7  -2 64.5800 8.35420   3
  -7   3  -2 65.7058 5.96733   2
   3   4  -2 57.9695 5.51842   2
  -3  -4   2 34.3930 6.48087   7
   7  -3   2 50.1594 4.63549   1
  -4   7   2 44.6525 6.90882   7
  -4   7   2 57.0152 8.31696   6
  -4   7   2 50.1104 8.24281   3
  -3  -4   2 41.6528 4.61812   1
   7  -3   2 48.0997 7.33431   7
  -7   4  -2 783.715 37.0469   2
   4   3  -2 775.426 36.8200   2
  -7   4  -2 751.109 39.3598   7
   4   3  -2 769.552 36.3183   1
  -7   4  -2 807.964 38.1621   9
  -7   4  -2 772.583 36.7444   1
   3  -7  -2 776.323 39.5583   3
   3  -7  -2 786.713 36.6667   2
  -4  -3   2 775.856 39.0675   7
   7  -4   2 761.421 39.4532   7
  -3   7   2 775.960 38.6338   7
  -4  -3   2 759.606 36.2229   1
   7  -4   2 753.976 36.1815   1
  -3   7   2 751.549 36.8099   8
  -3   7   2 774.826 40.0746   6
  -3   7   2 771.028 39.5146   3
  -7   5  -2 68.1302 7.81223   9
  -7   5  -2 64.9692 6.35148   2
  -7   5  -2 64.0992 6.09584   1
   2  -7  -2 60.3303 8.23309   3
  -7   5  -2 49.3739 7.67775   7
   5   2  -2 68.1534 5.25868   1
   2  -7  -2 57.8941 5.49523   2
   5   2  -2 69.3738 5.77243   2
  -2   7   2 51.2901 7.41761   7
   7  -5   2 61.8746 5.37152   1
  -2   7   2 67.8706 8.78353   3
   7  -5   2 64.1500 6.14149   2
  -2   7   2 62.8906 9.34814   6
  -2   7   2 58.8653 7.70223   7
  -5  -2   2 65.9530 8.13245   7
  -5  -2   2 67.4871 5.10129   1
   7  -5   2 61.1370 8.39679   7
  -2   7   2 66.4958 5.77960   8
   1  -7  -2 461.959 23.6986   2
   6   1  -2 524.592 24.0791   2
  -7   6  -2 484.572 24.3293   2
   1  -7  -2 490.501 26.8595   3
  -7   6  -2 512.620 25.6480   9
   6   1  -2 512.507 23.5052   1
  -7   6  -2 491.422 24.0338   1
  -6  -1   2 477.114 26.3642   7
  -1   7   2 458.227 26.0304   7
  -1   7   2 472.735 25.9938   7
   7  -6   2 485.293 24.2955   2
   7  -6   2 457.803 23.4563   1
  -6  -1   2 467.040 23.1689   1
  -1   7   2 456.938 27.8440   6
  -1   7   2 459.338 23.3214   8
  -7   7  -2 1036.07 51.1396   1
   7   0  -2 1079.67 51.2737   2
   7   0  -2 1088.00 50.6982   1
  -7   7  -2 1080.74 51.7511   2
  -7   7  -2 1103.56 52.6717   9
   0  -7  -2 1088.27 51.2395   2
   7  -7   2 1121.71 51.7839   2
   7  -7   2 1092.30 51.2654   5
  -7   0   2 1096.52 50.5115   1
   0   7   2 1118.74 53.4543   7
   0   7   2 1094.90 50.5574   8
  -7   0   2 1095.75 53.7208   7
   0   7   2 1049.29 55.1468   6
   7  -7   2 1097.64 50.9113   1
   0   7   2 1078.52 53.3276   7
  -7   8  -2 69.9322 7.58845   2
   8  -1  -2 76.8836 6.07419   1
  -7   8  -2 88.7871 9.94743   9
  -1  -7  -2 67.0033 6.56348   2
   8  -1  -2 84.5210 7.02540   2
  -7   8  -2 67.2846 6.80557   1
   7  -8   2 74.0581 6.53863   1
   7  -8   2 67.2073 6.42104   5
  -8   1   2 72.7740 9.33943   7
  -8   1   2 64.4015 5.61446   1
   7  -8   2 70.1385 7.28340   2
   1   7   2 67.3527 11.3788   6
  -2  -7  -2 50.7927 6.18167   2
   9  -2  -2 58.7221 5.74136   1
  -7   9  -2 50.2024 6.34410   1
   9  -2  -2 54.0089 6.25808   2
  -7   9  -2 54.1685 7.18206   2
  -9   2   2 48.6450 4.99044   1
   2   7   2 56.1812 10.8832   6
   7  -9   2 49.7197 6.10835   1
  -9   2   2 49.6258 8.47631   7
   7  -9   2 52.6489 6.79644   2
  -3  -7  -2 94.8924 8.89007   2
  -7  10  -2 118.234 9.46621   1
  -7  10  -2 108.481 9.98798   2
  10  -3  -2 108.750 8.39499   1
  10  -3  -2 107.395 9.17659   2
 -10   3   2 104.947 8.05434   1
 -10   3   2 117.605 12.1987   7
   3   7   2 104.012 13.9810   6
   7 -10   2 106.487 8.54118   1
   7 -10   2 112.674 9.71655   2
  -4  -7  -2 39.0145 6.74048   2
  -7  11  -2 18.0752 6.76051   2
  11  -4  -2 29.0709 6.26113   2
  11  -4  -2 26.4087 6.40960   1
  -7  11  -2 37.7840 6.80171   1
   7 -11   2 7.84876 5.38491   1
   4   7   2 18.1606 9.72941   6
   7 -11   2 34.3014 6.56817   2
 -11   4   2 24.1401 4.44822   1
  12  -5  -2 95.9118 9.61972   2
  -7  12  -2 99.8399 9.42033   1
  -5  -7  -2 90.2316 9.58597   2
  -7  12  -2 100.937 10.6606   2
   7 -12   2 83.7339 9.64764   2
   5   7   2 96.7255 14.2237   6
 -12   5   2 83.1341 6.87106   1
   7 -12   2 85.9129 8.82671   1
  -7  13  -2 183.339 14.6086   2
  13  -6  -2 174.618 13.8116   2
  -6  -7  -2 144.075 12.8445   2
  -7  13  -2 177.275 14.2284   1
   7 -13   2 133.336 12.6539   2
   7 -13   2 139.038 11.8494   1
   6   7   2 139.159 17.0103   6
  -7  14  -2 43.9822 8.48854   1
  -7  14  -2 30.1454 9.74160   2
  14  -7  -2 34.5605 8.37733   2
  -7  -7  -2 36.1573 8.39114   2
   7 -14   2 32.0646 8.48987   2
   7   7   2 30.4036 11.6317   6
   7 -14   2 28.4883 7.62198   1
  -7  15  -2 6.41345 7.98779   1
  -8  -7  -2 13.3008 8.49274   2
  -7  15  -2 -10.816 9.63594   2
  15  -8  -2 15.3992 8.50602   2
   7 -15   2 5.67118 8.26226   2
   7 -15   2 10.5387 7.36253   1
  -6  14  -2 43.4124 10.0630   2
  14  -8  -2 24.9854 8.75284   2
  -6  14  -2 25.9731 8.03727   1
  -8  -6  -2 16.6954 8.28318   2
   6 -14   2 53.8268 9.88345   2
   8   6   2 51.0928 6.11591   1
   6 -14   2 40.3732 7.82451   1
  -5  13  -2 12.1469 6.76749   1
  -8  -5  -2 0.87229 6.79348   2
  13  -8  -2 6.30954 6.70990   2
  -5  13  -2 13.5491 7.95990   2
  -8  -5  -2 19.1839 5.97132   1
   5 -13   2 14.5010 7.03636   2
   5 -13   2 10.2597 6.25932   1
   8   5   2 10.4948 4.67361   1
  12  -8  -2 3.45606 6.22921   2
  -4  12  -2 15.5142 6.32974   1
  -8  -4  -2 10.7285 6.29284   2
  -4  12  -2 4.89433 6.38054   2
  -8  -4  -2 12.5654 5.75995   1
   4 -12   2 6.13061 5.49721   1
   4 -12   2 8.69480 6.17186   2
   8   4   2 0.08894 4.23561   1
  -8  -3  -2 69.5942 8.41560   2
  -3  11  -2 66.9453 8.49630   2
  -3  11  -2 51.1384 7.25433   1
  11  -8  -2 76.0707 8.31947   2
  -8  -3  -2 67.0711 7.45290   1
   3 -11   2 62.1259 7.43470   1
   3 -11   2 59.8429 8.05861   2
   8   3   2 72.0786 6.44147   1
 -11   8   2 58.5569 11.8481   7
  -2  10  -2 35.8963 6.83479   2
  -8  -2  -2 35.6785 5.65005   1
  -8  -2  -2 24.4302 5.86895   2
  10  -8  -2 28.6087 5.99843   2
  -2  10  -2 29.8199 5.69503   1
   2 -10   2 55.4445 7.13495   2
 -10   8   2 43.9525 9.95192   7
   8   2   2 38.0166 9.08933   6
   8   2   2 38.4784 4.82339   1
   2 -10   2 29.1338 5.75172   1
   9  -8  -2 224.820 13.4929   2
  -1   9  -2 218.731 13.2466   1
  -1   9  -2 202.651 13.5803   2
  -8  -1  -2 232.043 13.3862   1
  -8  -1  -2 228.350 13.8068   2
   1  -9   2 198.620 13.0212   1
  -9   8   2 237.319 19.1743   3
   1  -9   2 214.987 13.7619   2
   8   1   2 204.107 14.1543   2
   8   1   2 197.582 14.5688   6
   8   1   2 211.436 11.9267   1
  -9   8   2 192.534 17.0086   7
   8  -8  -2 164.675 11.1979   2
   0   8  -2 173.055 11.9509   2
  -8   0  -2 152.516 11.2127   1
  -8   0  -2 165.041 11.6902   2
   0   8  -2 142.254 10.8710   1
   0  -8   2 192.439 11.8934   2
   8   0   2 181.606 11.1421   2
   0  -8   2 187.104 11.0292   1
   8   0   2 183.733 10.3383   1
  -8   8   2 191.464 15.2010   7
  -8   8   2 171.714 16.4757   3
  -8   1  -2 134.053 9.91863   1
   1   7  -2 137.064 9.28565   1
  -8   1  -2 128.212 10.0903   2
   7  -8  -2 139.088 9.51989   2
   1   7  -2 144.863 9.82244   2
  -8   1  -2 138.025 11.7524   9
  -1  -7   2 131.687 9.33066   1
  -1  -7   2 127.739 13.4289   7
  -7   8   2 136.327 13.2092   7
   8  -1   2 127.802 9.35924   2
  -7   8   2 134.244 13.8983   3
   8  -1   2 140.265 8.73255   1
  -1  -7   2 135.046 9.82113   2
   6  -8  -2 61.8259 6.13964   2
  -8   2  -2 73.1279 6.56591   1
  -8   2  -2 57.0568 7.64402   9
   2   6  -2 69.0389 5.79928   1
  -8   2  -2 73.8842 6.90087   2
   2   6  -2 58.7812 6.30081   2
  -2  -6   2 61.6005 5.77781   1
   8  -2   2 62.4246 6.26794   2
  -2  -6   2 63.3952 6.33016   2
  -6   8   2 70.1670 9.93286   3
  -2  -6   2 66.0012 8.94650   7
  -6   8   2 70.1731 9.48635   7
   8  -2   2 63.5851 5.46369   1
   3   5  -2 1324.75 61.7812   2
   5  -8  -2 1381.96 61.7977   2
   3   5  -2 1285.36 61.1296   1
  -8   3  -2 1378.28 62.0760   2
  -8   3  -2 1364.37 61.6703   1
  -8   3  -2 1339.09 62.8267   9
   8  -3   2 1250.02 61.6900   2
  -3  -5   2 1337.88 61.9462   2
  -3  -5   2 1308.68 61.3056   1
  -5   8   2 1336.90 64.5362   6
  -3  -5   2 1258.73 64.2209   7
  -5   8   2 1292.13 63.8881   7
   8  -3   2 1316.43 61.0128   1
  -5   8   2 1295.90 64.8291   3
  -8   4  -2 1022.11 48.9062   1
  -8   4  -2 1052.33 50.3172   9
   4   4  -2 1046.07 49.0615   2
   4  -8  -2 1003.94 48.8848   2
   4   4  -2 1056.60 48.5093   1
  -8   4  -2 1061.36 49.4447   2
  -4   8   2 1013.58 52.0842   6
  -4   8   2 994.481 51.7736   3
   8  -4   2 1040.08 49.1811   2
  -4  -4   2 1068.90 49.0858   2
   8  -4   2 1038.03 48.4194   1
  -4  -4   2 1036.21 48.4970   1
  -4   8   2 1049.05 51.2581   7
  -8   5  -2 41.3961 7.12334   9
  -8   5  -2 30.5756 5.17971   2
  -8   5  -2 31.9733 5.05265   1
   5   3  -2 33.2310 4.79955   2
   3  -8  -2 30.6903 4.54098   2
   5   3  -2 39.7672 4.50179   1
   8  -5   2 23.7088 4.18044   1
  -3   8   2 17.8095 6.82094   3
  -5  -3   2 16.4002 3.59174   1
  -5  -3   2 16.3304 4.24339   2
  -5  -3   2 22.6764 6.92741   7
  -3   8   2 19.0989 7.40678   6
   8  -5   2 20.3668 4.54884   2
  -3   8   2 22.0278 6.82592   7
  -8   6  -2 75.7383 8.80024   9
  -8   6  -2 81.8306 7.60210   2
   6   2  -2 77.0156 6.82996   2
   2  -8  -2 78.5252 6.74083   2
  -8   6  -2 74.6058 6.98930   1
   6   2  -2 80.7722 6.68970   1
  -6  -2   2 77.2947 6.19596   1
   8  -6   2 76.6413 7.08066   2
   8  -6   2 80.4489 6.54136   1
  -2   8   2 79.9969 11.2762   6
  -2   8   2 71.3253 9.26741   7
  -2   8   2 86.3170 6.53311   8
  -6  -2   2 67.3561 6.61080   2
  -2   8   2 83.0289 9.40065   7
  -6  -2   2 75.0386 9.20775   7
  -8   7  -2 219.057 13.6476   2
   7   1  -2 225.207 12.3189   1
  -8   7  -2 213.002 14.8921   9
   1  -8  -2 241.148 12.8717   2
   7   1  -2 234.819 12.9059   2
  -8   7  -2 210.533 13.1788   1
  -1   8   2 212.433 18.0480   6
   8  -7   2 187.977 12.3029   1
  -7  -1   2 203.245 15.8037   7
  -7  -1   2 205.558 11.8729   1
   8  -7   2 203.482 12.9936   2
  -7  -1   2 202.630 12.4610   2
  -1   8   2 214.134 15.5699   7
  -8   8  -2 4.99829 4.92690   1
   8   0  -2 13.3788 4.34496   2
   8   0  -2 10.3408 3.78798   1
   0  -8  -2 5.83000 4.21167   2
  -8   8  -2 9.03244 4.88803   2
   0   8   2 29.8555 9.55717   6
  -8   0   2 19.2928 4.03480   1
  -8   0   2 18.6961 4.57955   2
   8  -8   2 22.0139 4.71334   1
  -8   0   2 33.9454 7.98479   7
   8  -8   2 27.7867 5.36765   2
   0   8   2 31.0123 7.49527   7
  -8   9  -2 28.8495 6.51138   2
   9  -1  -2 43.8243 5.34763   1
  -8   9  -2 50.3191 6.60638   1
  -1  -8  -2 44.1472 5.95788   2
   9  -1  -2 40.2188 5.91092   2
  -9   1   2 47.4253 5.19850   1
   1   8   2 44.8000 11.0213   6
   8  -9   2 37.4409 5.71219   1
  -9   1   2 45.7532 8.52100   7
   8  -9   2 33.0942 6.38219   2
  -8  10  -2 66.3830 7.52247   1
  10  -2  -2 56.2063 7.11842   2
  10  -2  -2 64.3990 6.58093   1
  -8  10  -2 72.6786 8.36359   2
  -2  -8  -2 45.2431 7.01834   2
   8 -10   2 61.2776 7.86661   2
   8 -10   2 70.6451 7.21021   1
 -10   2   2 71.0003 6.17111   1
   2   8   2 38.2863 11.5325   6
  -8  11  -2 411.104 22.0049   1
  -8  11  -2 393.361 22.9191   2
  -3  -8  -2 429.685 21.9720   2
  11  -3  -2 390.696 20.7913   1
  11  -3  -2 399.319 21.7856   2
   8 -11   2 391.087 22.3187   2
   8 -11   2 376.433 21.0705   1
   3   8   2 364.977 27.5376   6
 -11   3   2 348.274 19.8989   1
  -4  -8  -2 13.6687 6.11640   2
  12  -4  -2 6.47786 5.52877   1
  12  -4  -2 11.0779 6.11934   2
  -8  12  -2 16.3713 7.21321   2
  -8  12  -2 1.85296 6.29578   1
   8 -12   2 7.70220 6.32543   2
   8 -12   2 12.9760 5.87119   1
   4   8   2 19.9088 10.7123   6
 -12   4   2 9.49398 4.52402   1
  13  -5  -2 4.22149 6.77152   2
  -8  13  -2 4.40796 8.07184   2
  -5  -8  -2 18.9012 7.13265   2
  -8  13  -2 13.9593 6.92112   1
   8 -13   2 22.6306 6.65334   1
   5   8   2 28.1531 11.7832   6
   8 -13   2 15.3400 7.08742   2
  -8  14  -2 23.6239 7.83799   1
  14  -6  -2 3.19400 7.49263   2
  -6  -8  -2 16.8306 7.82222   2
  -8  14  -2 6.53804 8.97622   2
   8 -14   2 23.8543 7.27911   1
   6   8   2 30.7169 12.0774   6
   8 -14   2 19.5209 8.00517   2
  15  -7  -2 71.3068 10.7492   2
  -7  -8  -2 56.0452 10.1034   2
  -8  15  -2 69.0770 12.7609   2
  -8  15  -2 60.5848 9.70862   1
   8 -15   2 42.5612 9.76431   2
   8 -15   2 46.1159 8.68930   1
  -8  -8  -2 -2.6889 8.75316   2
  -8  16  -2 3.39813 8.48168   1
  16  -8  -2 12.9769 9.44509   2
   8 -16   2 10.1810 9.19758   2
   8 -16   2 19.1008 8.05301   1
  -8  17  -2 4.96878 9.29486   1
  -9  -8  -2 -6.8827 9.33112   2
  17  -9  -2 5.40942 9.54441   2
   8 -17   2 -7.2430 9.21800   2
   8 -17   2 -2.1895 8.02263   1
  -9  -7  -2 18.1242 12.1220   1
  16  -9  -2 -0.2722 8.80300   2
  -9  -7  -2 3.89560 8.95331   2
  -7  16  -2 5.17575 8.32653   1
   7 -16   2 9.32868 7.78898   1
   7 -16   2 10.7875 9.35557   2
  15  -9  -2 19.7607 9.01033   2
  -9  -6  -2 32.1853 9.35853   2
  -9  -6  -2 22.2120 7.40612   1
  -6  15  -2 14.4666 8.08525   1
  -6  15  -2 27.5664 11.2010   2
   6 -15   2 28.3021 9.27598   2
   6 -15   2 16.1143 7.76447   1
  -9  -5  -2 100.953 10.6834   1
  -5  14  -2 109.583 11.0510   1
  -9  -5  -2 117.620 12.3931   2
  14  -9  -2 109.312 11.9329   2
  -5  14  -2 109.413 12.9418   2
   5 -14   2 107.565 10.6890   1
   9   5   2 134.648 9.31974   1
   5 -14   2 119.411 12.4674   2
  -4  13  -2 21.9807 7.23347   1
  13  -9  -2 27.1642 7.85665   2
  -4  13  -2 35.6117 8.54942   2
  -9  -4  -2 19.5020 6.70918   1
  -9  -4  -2 27.7926 7.72795   2
   9   4   2 24.7388 5.55850   1
   4 -13   2 19.8151 6.55485   1
   4 -13   2 25.9863 8.01685   2
  -9  -3  -2 31.1027 7.45477   2
  -3  12  -2 20.3469 6.37068   1
  -9  -3  -2 33.4396 6.89546   1
  -3  12  -2 27.9517 7.80535   2
  12  -9  -2 23.4580 7.09837   2
   9   3   2 22.9903 5.38712   1
   3 -12   2 26.3527 6.55940   1
   3 -12   2 17.9229 7.13890   2
  -2  11  -2 69.6372 8.89573   2
  -2  11  -2 68.1589 7.81249   1
  -9  -2  -2 77.7472 8.28068   1
  -9  -2  -2 87.2147 9.13414   2
  11  -9  -2 64.2212 8.21336   2
   9   2   2 68.9502 6.52340   1
   2 -11   2 68.1022 7.76780   1
   2 -11   2 82.0014 9.00415   2
 -11   9   2 59.8059 11.5238   7
  10  -9  -2 308.231 17.9080   2
  -9  -1  -2 273.595 16.9740   1
  -9  -1  -2 260.536 17.1899   2
  -1  10  -2 282.749 17.9309   2
  -1  10  -2 277.174 16.7594   1
   9   1   2 307.226 15.7073   1
 -10   9   2 307.217 21.4658   7
   1 -10   2 282.719 17.2370   2
   1 -10   2 314.096 16.9927   1
   9  -9  -2 212.442 13.1232   2
  -9   0  -2 200.324 13.2683   2
   0   9  -2 213.924 12.6783   1
  -9   0  -2 205.784 13.0228   1
   9   0   2 187.546 13.2715   2
  -9   9   2 186.602 18.3016   3
   0  -9   2 182.132 12.7696   2
   0  -9   2 192.018 12.2608   1
  -9   9   2 184.279 16.7750   7
   9   0   2 158.349 11.3578   1
  -9   1  -2 40.1469 5.85959   1
   8  -9  -2 44.3718 6.02214   2
  -9   1  -2 45.0735 6.29629   2
   1   8  -2 44.8779 6.25755   2
   1   8  -2 33.4216 5.45137   1
  -8   9   2 39.1514 8.26786   7
  -1  -8   2 34.8558 5.49368   1
   9  -1   2 47.4034 5.21617   1
  -8   9   2 46.4568 9.84043   3
  -1  -8   2 42.7327 6.16375   2
   9  -1   2 43.5476 5.85448   2
  -9   2  -2 1.43497 4.37821   1
   2   7  -2 6.34675 4.00524   1
   7  -9  -2 6.74462 4.33179   2
  -9   2  -2 -5.7031 4.19290   2
   2   7  -2 10.7008 4.29671   2
  -9   2  -2 10.8604 6.11363   9
   9  -2   2 4.40480 4.31308   2
  -2  -7   2 5.06001 4.28950   2
  -2  -7   2 9.31755 4.06482   1
  -7   9   2 2.60474 7.00678   3
  -7   9   2 7.45885 6.30171   7
   9  -2   2 9.37634 3.74597   1
   3   6  -2 34.1567 5.37973   2
  -9   3  -2 30.0392 5.39089   1
  -9   3  -2 34.8328 7.28079   9
  -9   3  -2 38.7922 5.79781   2
   3   6  -2 28.6009 4.60249   1
   6  -9  -2 34.7085 5.18571   2
  -6   9   2 33.4625 8.19587   6
  -3  -6   2 25.1478 4.60922   1
  -6   9   2 31.0805 7.46077   7
  -6   9   2 37.6162 8.63597   3
   9  -3   2 36.8980 4.89441   1
   9  -3   2 31.6442 5.02043   2
  -3  -6   2 35.4213 5.42419   2
   5  -9  -2 25.1282 4.65690   2
  -9   4  -2 27.7416 5.35582   2
   4   5  -2 13.4002 3.91103   1
   4   5  -2 30.7444 4.91992   2
  -9   4  -2 19.4571 5.11358   1
  -9   4  -2 23.6138 6.25116   9
  -5   9   2 22.8992 7.76059   3
  -4  -5   2 32.3071 5.18197   2
   9  -4   2 29.4719 4.48028   1
  -5   9   2 17.1173 7.91040   6
   9  -4   2 33.1990 5.22913   2
  -4  -5   2 27.2595 4.48184   1
  -4  -5   2 23.0899 6.98648   7
  -5   9   2 27.2374 7.33708   7
  -9   5  -2 49.7877 7.89900   9
   5   4  -2 36.9558 4.77042   1
  -9   5  -2 34.5939 5.92640   2
  -9   5  -2 41.7599 5.80752   1
   5   4  -2 29.6280 5.11842   2
   4  -9  -2 33.5310 5.17829   2
  -5  -4   2 32.1380 7.28933   7
  -5  -4   2 35.2461 5.38395   2
  -4   9   2 43.0449 8.43640   3
  -4   9   2 36.4939 8.99100   6
   9  -5   2 42.9614 5.89640   2
   9  -5   2 37.4097 5.00553   1
  -4   9   2 39.5348 8.35795   7
  -5  -4   2 37.6867 4.84335   1
  -9   6  -2 62.6492 6.64914   1
  -9   6  -2 42.3901 7.31614   9
   6   3  -2 48.7984 5.46302   1
   6   3  -2 53.0872 6.24261   2
  -9   6  -2 57.9382 6.71312   2
   3  -9  -2 46.6128 5.72821   2
  -3   9   2 57.9684 8.73791   7
   9  -6   2 57.0731 5.95251   1
  -6  -3   2 48.9482 5.44667   1
   9  -6   2 59.7246 6.66498   2
  -6  -3   2 48.1995 5.78571   2
  -3   9   2 51.2130 10.5389   6
  -6  -3   2 53.2571 8.83260   7
  -9   7  -2 35.6187 6.16608   2
  -9   7  -2 30.6084 5.87074   1
   2  -9  -2 24.7575 5.17188   2
   7   2  -2 28.7473 5.17729   2
   7   2  -2 28.5148 4.80592   1
  -2   9   2 49.8687 10.6336   6
  -7  -2   2 43.4731 8.77885   7
  -2   9   2 52.7081 8.73943   7
  -7  -2   2 30.3177 4.71145   1
   9  -7   2 37.4480 6.04319   2
   9  -7   2 41.2411 5.56656   1
  -7  -2   2 40.7187 5.61876   2
   8   1  -2 54.3908 6.40667   2
   8   1  -2 61.0040 5.89968   1
  -9   8  -2 41.8671 6.72390   1
   1  -9  -2 49.2436 6.14221   2
  -9   8  -2 69.0805 7.74294   2
  -1   9   2 47.8239 11.4836   6
  -1   9   2 47.4526 8.89687   7
  -8  -1   2 48.2992 5.96328   2
   9  -8   2 45.6936 6.58486   2
  -8  -1   2 46.9497 10.3228   7
   9  -8   2 43.1945 5.77578   1
  -8  -1   2 40.4134 5.28902   1
   0  -9  -2 57.1713 6.80088   2
   9   0  -2 48.8157 6.27152   2
   9   0  -2 56.1632 6.00497   1
  -9   9  -2 41.6932 6.79867   1
  -9   9  -2 40.2785 6.98661   2
   0   9   2 29.2320 11.0340   6
  -9   0   2 35.7971 5.23592   1
   9  -9   2 44.1784 6.01412   1
   9  -9   2 31.5254 6.32755   2
  10  -1  -2 45.3028 6.10895   1
  -9  10  -2 42.7463 7.56764   2
  -1  -9  -2 44.1031 6.68659   2
  10  -1  -2 47.3214 6.85981   2
  -9  10  -2 33.3367 6.74190   1
   1   9   2 42.2196 12.1567   6
 -10   1   2 49.1325 5.65293   1
   9 -10   2 37.7675 6.32584   1
   9 -10   2 42.4777 7.08268   2
  11  -2  -2 102.863 8.64471   1
  11  -2  -2 101.089 9.64821   2
  -2  -9  -2 93.0832 9.55584   2
  -9  11  -2 99.3434 9.62771   1
  -9  11  -2 99.5468 10.7665   2
 -11   2   2 115.693 9.35095   1
   9 -11   2 98.5948 10.2506   2
   2   9   2 83.4433 15.1779   6
   9 -11   2 97.5129 8.97660   1
  -9  12  -2 20.7632 7.02169   1
  -9  12  -2 5.81079 7.63438   2
  12  -3  -2 14.0023 5.82112   1
  -3  -9  -2 16.7198 6.47195   2
  12  -3  -2 5.66289 5.96348   2
   9 -12   2 6.59031 6.10898   1
   9 -12   2 11.5752 6.89946   2
   3   9   2 -8.4559 10.4444   6
 -12   3   2 13.7028 4.95394   1
  13  -4  -2 -1.4970 6.59978   2
  13  -4  -2 -5.5756 5.49199   1
  -4  -9  -2 3.33808 6.66765   2
  -9  13  -2 19.1092 8.87291   2
  -9  13  -2 7.38018 7.31843   1
   9 -13   2 5.57838 6.11725   1
 -13   4   2 6.28269 5.11540   1
   9 -13   2 8.59409 7.03965   2
   4   9   2 18.7883 11.9713   6
  14  -5  -2 92.7235 13.2771   1
  -9  14  -2 99.7143 12.9538   2
  14  -5  -2 65.1138 10.0256   2
  -5  -9  -2 65.4123 10.2320   2
  -9  14  -2 82.8634 10.2099   1
   9 -14   2 81.6003 9.31742   1
 -14   5   2 85.2754 7.78856   1
   9 -14   2 79.9755 11.0195   2
  -9  15  -2 75.5289 10.4354   1
  -6  -9  -2 67.3851 11.0548   2
  15  -6  -2 87.4531 11.1711   2
  -9  15  -2 77.0377 16.1349   2
   9 -15   2 91.8097 11.6947   2
   9 -15   2 68.4745 9.59966   1
  16  -7  -2 11.6760 9.04005   2
  -9  16  -2 9.53006 8.57994   1
  -7  -9  -2 21.0412 9.50785   2
   9 -16   2 14.8444 7.81953   1
   9 -16   2 -7.0049 8.56562   2
  17  -8  -2 38.3723 10.6991   2
  -8  -9  -2 18.7613 10.1693   2
  -9  17  -2 4.32252 9.06996   1
   9 -17   2 31.3183 10.3389   2
   9 -17   2 5.71639 8.13588   1
  -9  18  -2 11.5147 9.32419   1
  -9  -9  -2 15.4231 10.9030   2
  18  -9  -2 18.7933 10.7437   2
   9 -18   2 17.1562 8.93775   1
   9 -18   2 -3.0421 9.81322   2
 -10  -8  -2 13.8911 11.2186   2
 -10  -8  -2 5.43165 8.60597   1
  -8  18  -2 7.34082 9.36927   1
  18 -10  -2 7.96698 10.5059   2
   8 -18   2 8.19717 10.7384   2
   8 -18   2 2.95492 8.57847   1
  -7  17  -2 0.81160 9.00827   1
  17 -10  -2 5.86686 9.84101   2
 -10  -7  -2 19.1509 10.5315   2
 -10  -7  -2 14.5069 8.54536   1
   7 -17   2 17.4799 10.3062   2
   7 -17   2 -2.1367 8.14747   1
 -10  -6  -2 3.44778 7.40992   1
 -10  -6  -2 5.60035 9.48292   2
  16 -10  -2 -1.9417 8.74177   2
  -6  16  -2 7.20634 8.62783   1
   6 -16   2 5.00274 9.46239   2
   6 -16   2 -4.0612 7.51624   1
  -5  15  -2 33.9879 8.59451   1
  -5  15  -2 31.5872 14.4375   2
  15 -10  -2 29.7130 9.02510   2
 -10  -5  -2 51.4487 10.3356   2
 -10  -5  -2 31.3995 7.89565   1
   5 -15   2 37.8811 9.94210   2
   5 -15   2 39.7515 8.50267   1
  10   5   2 29.3828 6.28010   1
 -10  -4  -2 8.95780 6.51695   1
 -10  -4  -2 12.1066 7.63470   2
  -4  14  -2 10.4411 7.23803   1
  -4  14  -2 21.8378 9.38220   2
  14 -10  -2 6.08189 8.06447   2
   4 -14   2 8.92653 6.70690   1
  10   4   2 9.49277 5.73934   1
   4 -14   2 18.4630 8.29966   2
  -3  13  -2 25.8828 7.17008   1
  13 -10  -2 30.6093 8.15191   2
  -3  13  -2 28.9698 8.79025   2
 -10  -3  -2 37.7180 7.82378   1
 -10  -3  -2 25.2907 8.31151   2
   3 -13   2 30.6650 7.42606   1
  10   3   2 11.3442 5.40902   1
   3 -13   2 23.7760 7.78777   2
  -2  12  -2 130.860 12.8175   2
 -10  -2  -2 141.132 11.7789   1
 -10  -2  -2 166.053 13.3059   2
  12 -10  -2 144.416 12.6506   2
  -2  12  -2 153.994 12.9500   1
   2 -12   2 142.372 12.6053   2
   2 -12   2 172.805 13.0374   1
  10   2   2 140.690 10.8143   1
  11 -10  -2 103.151 10.4809   2
  -1  11  -2 111.837 10.9700   2
 -10  -1  -2 111.666 10.5883   2
 -10  -1  -2 102.350 9.66115   1
  -1  11  -2 101.424 9.41504   1
   1 -11   2 103.979 10.2209   2
   1 -11   2 105.299 9.24282   1
  10   1   2 101.306 8.19179   1
 -10   0  -2 18.6654 6.15683   2
   0  10  -2 19.1858 5.75725   1
  10 -10  -2 26.2350 6.28247   2
   0  10  -2 17.4501 6.52897   2
 -10   0  -2 26.3494 6.30133   1
  10   0   2 9.76957 4.56390   1
   0 -10   2 28.4105 6.48201   2
 -10  10   2 27.9595 8.81177   7
   0 -10   2 14.6889 5.22128   1
 -10   1  -2 18.2001 5.68087   1
   1   9  -2 9.33779 5.34092   2
 -10   1  -2 13.9061 5.95778   2
   1   9  -2 15.4572 5.05840   1
   9 -10  -2 11.0962 5.61149   2
  10  -1   2 11.6969 4.68949   1
  10  -1   2 2.53863 5.42547   2
  -1  -9   2 21.1653 5.60423   2
  -1  -9   2 10.3356 4.99025   1
  -9  10   2 6.80317 8.21093   7
   2   8  -2 94.2949 8.27386   1
   2   8  -2 102.161 8.87020   2
   8 -10  -2 89.4543 8.78904   2
 -10   2  -2 109.299 9.45015   2
 -10   2  -2 104.876 8.93015   1
  -2  -8   2 98.1147 9.09965   2
  -8  10   2 92.7163 12.6295   3
  -8  10   2 85.7202 11.3624   7
  -2  -8   2 107.283 9.12285   1
  10  -2   2 110.655 8.72913   1
  10  -2   2 90.3271 8.49307   2
   3   7  -2 198.407 12.9940   2
   7 -10  -2 184.544 12.6409   2
 -10   3  -2 219.139 13.5533   1
   3   7  -2 215.499 12.5254   1
 -10   3  -2 185.671 13.4960   2
  -3  -7   2 200.682 13.0838   2
  -7  10   2 190.640 16.7728   7
  -7  10   2 194.339 16.8670   6
  -7  10   2 192.973 17.3191   3
  10  -3   2 198.966 12.0900   1
  -3  -7   2 188.490 12.3650   1
  10  -3   2 190.635 12.9125   2
   6 -10  -2 95.8096 8.53494   2
   4   6  -2 110.018 8.82355   2
 -10   4  -2 91.9703 8.79516   2
 -10   4  -2 101.504 8.95116   1
   4   6  -2 99.9431 8.58070   1
  -6  10   2 116.703 12.8613   7
  -4  -6   2 113.764 9.17835   2
  10  -4   2 103.201 8.51045   1
  -6  10   2 95.7496 11.7978   3
  -4  -6   2 94.9221 8.02366   1
  10  -4   2 85.1056 8.27834   2
  -6  10   2 92.5229 12.1444   6
   5   5  -2 130.236 10.2839   2
 -10   5  -2 114.408 10.1375   2
   5 -10  -2 128.600 10.0370   2
 -10   5  -2 134.867 10.2528   1
   5   5  -2 139.407 9.66174   1
  10  -5   2 127.954 10.2047   2
  -5  10   2 146.926 14.4715   7
  -5  -5   2 121.548 9.62047   1
  10  -5   2 125.091 9.79760   1
  -5  10   2 127.500 14.3021   6
  -5  10   2 114.294 12.8793   3
  -5  -5   2 135.956 10.0925   2
   6   4  -2 210.814 14.4678   2
   4 -10  -2 231.610 14.2385   2
   6   4  -2 219.905 13.7612   1
 -10   6  -2 212.078 14.9995   2
 -10   6  -2 222.416 15.1249   1
  -6  -4   2 247.117 14.5808   2
  -4  10   2 276.962 20.7464   6
  10  -6   2 270.775 15.0218   2
  -4  10   2 254.185 18.4496   3
  -4  10   2 241.488 17.9762   7
  10  -6   2 260.288 14.1690   1
  -6  -4   2 231.625 13.7339   1
 -10   7  -2 209.874 13.5517   2
   7   3  -2 235.074 12.6471   1
   3 -10  -2 210.546 12.9905   2
 -10   7  -2 235.668 13.9136   1
   7   3  -2 232.095 13.3499   2
  10  -7   2 172.928 12.3723   1
  -3  10   2 203.256 19.8752   6
  -7  -3   2 174.156 12.1075   1
  -3  10   2 172.090 16.2267   7
  10  -7   2 175.781 13.4166   2
  -7  -3   2 168.846 12.5240   2
 -10   8  -2 103.300 9.79335   2
   8   2  -2 121.679 9.26614   1
 -10   8  -2 103.958 9.43490   1
   8   2  -2 118.356 9.55615   2
   2 -10  -2 110.144 9.37248   2
  -2  10   2 98.4470 14.4841   6
  10  -8   2 97.0993 8.63471   1
  -8  -2   2 106.877 9.17641   2
  -2  10   2 118.283 13.2162   7
  -8  -2   2 108.586 8.90609   1
  10  -8   2 110.742 9.73534   2
   9   1  -2 130.450 9.92268   1
 -10   9  -2 131.885 11.0559   2
   1 -10  -2 135.289 10.2427   2
 -10   9  -2 129.480 10.3664   1
   9   1  -2 139.626 10.8057   2
  -1  10   2 101.630 13.1235   7
  10  -9   2 104.182 10.1668   2
  -1  10   2 118.824 16.5347   6
  -9  -1   2 104.467 9.35507   1
  10  -9   2 101.664 9.10628   1
 -10  10  -2 232.269 15.3558   1
  10   0  -2 220.766 14.0624   2
   0 -10  -2 191.788 14.0189   2
 -10  10  -2 202.614 15.2147   2
  10   0  -2 223.146 13.7615   1
 -10   0   2 208.094 13.1506   1
  10 -10   2 200.276 15.1465   2
   0  10   2 213.749 21.2768   6
  10 -10   2 211.902 13.9412   1
 -10  11  -2 64.0284 8.96890   2
  -1 -10  -2 53.9590 7.93778   2
  11  -1  -2 57.6335 7.98466   2
 -10  11  -2 47.5272 7.93978   1
  11  -1  -2 60.4920 7.31796   1
 -11   1   2 48.0126 6.41826   1
   1  10   2 73.4161 14.4921   6
  10 -11   2 56.3295 7.35786   1
  10 -11   2 63.2620 8.54560   2
 -10  12  -2 17.4033 7.13576   1
  -2 -10  -2 6.03804 6.39113   2
  12  -2  -2 13.5090 6.54375   2
  12  -2  -2 15.9559 6.10250   1
 -10  12  -2 -1.7195 7.40422   2
 -12   2   2 16.6725 5.38675   1
   2  10   2 25.1725 12.2802   6
  10 -12   2 17.8901 7.56260   2
  10 -12   2 6.74581 6.05510   1
  13  -3  -2 7.57015 6.24492   1
 -10  13  -2 16.8686 8.93838   2
 -10  13  -2 1.73008 7.32159   1
  -3 -10  -2 21.1143 7.46059   2
  13  -3  -2 19.2299 7.47715   2
  10 -13   2 23.9941 7.91059   2
 -13   3   2 15.7457 5.64891   1
  10 -13   2 14.9274 6.89580   1
  14  -4  -2 9.53633 7.50224   2
 -10  14  -2 0.17235 7.66085   1
 -10  14  -2 6.89473 9.33856   2
  -4 -10  -2 5.79515 7.72755   2
  14  -4  -2 3.64628 6.28498   1
 -14   4   2 1.47051 5.47662   1
  10 -14   2 14.5227 8.40466   2
  10 -14   2 -1.5939 6.82428   1
  15  -5  -2 18.2414 7.64507   1
  -5 -10  -2 12.8701 8.72939   2
  15  -5  -2 12.9229 8.46173   2
 -10  15  -2 25.4357 8.81625   1
 -15   5   2 14.8201 5.87534   1
  10 -15   2 7.96782 7.45972   1
  10 -15   2 4.17524 8.74688   2
 -10  16  -2 -3.9107 8.31610   1
  16  -6  -2 -2.8270 8.91661   1
  -6 -10  -2 0.11818 8.91169   2
  16  -6  -2 13.0289 8.79525   2
  10 -16   2 -4.4359 7.22338   1
  10 -16   2 14.9324 8.69405   2
 -10  17  -2 -4.4040 9.06890   1
  17  -7  -2 -5.0486 9.06571   2
  -7 -10  -2 -7.5767 9.22100   2
  10 -17   2 -8.0592 9.80005   2
  10 -17   2 -7.9820 7.74059   1
  18  -8  -2 0.16617 10.3491   2
 -10  18  -2 -8.3817 9.04053   1
  -8 -10  -2 -12.869 10.6143   2
  10 -18   2 0.33691 10.3569   2
  10 -18   2 7.38026 8.73658   1
  18 -11  -2 -0.3024 10.2144   2
 -11  -7  -2 21.8046 11.6188   2
  -7  18  -2 14.4284 9.66427   1
 -11  -7  -2 4.03185 8.76438   1
   7 -18   2 -14.256 9.77402   2
   7 -18   2 11.6500 9.04125   1
 -11  -6  -2 1.24801 10.2719   2
 -11  -6  -2 15.3840 8.22850   1
  -6  17  -2 -5.2936 8.67214   1
  17 -11  -2 12.0756 10.4883   2
   6 -17   2 -16.937 7.51303   1
   6 -17   2 14.8881 10.6347   2
 -11  -5  -2 11.6842 8.24867   1
  -5  16  -2 7.74893 8.55603   1
 -11  -5  -2 11.7899 9.87362   2
  16 -11  -2 28.1664 9.88051   2
   5 -16   2 38.1642 10.4781   2
   5 -16   2 11.8809 8.05311   1
 -11  -4  -2 5.92124 7.62923   1
 -11  -4  -2 31.3363 9.51676   2
  -4  15  -2 5.85605 7.88634   1
  15 -11  -2 23.7945 9.40830   2
  11   4   2 18.5472 6.38104   1
   4 -15   2 11.6814 7.24676   1
   4 -15   2 13.8967 9.23089   2
  -3  14  -2 12.4170 9.04561   2
  -3  14  -2 0.13583 7.47530   1
  14 -11  -2 -5.9696 7.72613   2
 -11  -3  -2 -1.0792 7.99379   2
 -11  -3  -2 2.15383 7.31179   1
  11   3   2 8.53703 5.86840   1
   3 -14   2 7.45410 6.84648   1
   3 -14   2 1.27558 7.71436   2
  13 -11  -2 13.5143 7.80715   2
 -11  -2  -2 20.5176 7.71000   1
 -11  -2  -2 29.1662 8.09147   2
  -2  13  -2 31.6464 8.76981   2
  -2  13  -2 27.9500 7.33911   1
   2 -13   2 28.1391 8.46021   2
  11   2   2 20.6301 5.66420   1
   2 -13   2 18.0567 6.94602   1
 -11  -1  -2 31.9934 7.89971   1
  12 -11  -2 28.8425 7.92155   2
  -1  12  -2 24.5635 8.62663   2
 -11  -1  -2 27.5918 7.80580   2
  -1  12  -2 39.5447 7.42835   1
  11   1   2 39.4036 6.26718   1
   1 -12   2 40.3922 7.08005   1
   1 -12   2 40.8073 7.78467   2
 -11   0  -2 186.964 13.9169   1
   0  11  -2 184.252 13.2355   1
  11 -11  -2 171.918 13.8579   2
 -11   0  -2 177.709 14.4716   2
   0  11  -2 174.548 14.6636   2
  11   0   2 144.937 11.4319   1
   0 -11   2 156.681 12.9206   1
   0 -11   2 164.144 13.7015   2
   1  10  -2 21.3654 5.87390   1
 -11   1  -2 22.2787 6.71472   1
  10 -11  -2 21.2648 6.62774   2
   1  10  -2 12.8368 6.31186   2
 -11   1  -2 19.9484 6.63490   2
  -1 -10   2 22.3983 6.40707   2
 -10  11   2 19.4133 8.67993   7
  -1 -10   2 11.4614 5.45066   1
  11  -1   2 20.8274 5.33657   1
   2   9  -2 62.5998 8.03785   2
   2   9  -2 74.6134 7.47639   1
 -11   2  -2 53.5731 7.85871   2
   9 -11  -2 74.0057 8.36518   2
 -11   2  -2 82.4143 8.75303   1
  -9  11   2 64.5617 11.1748   7
  -2  -9   2 75.5663 8.31294   2
  11  -2   2 66.1341 7.10329   1
  11  -2   2 77.5931 9.83723   2
  -2  -9   2 65.5917 7.31701   1
   3   8  -2 73.8876 8.30058   2
   8 -11  -2 90.1299 8.83147   2
 -11   3  -2 72.3901 8.72510   2
 -11   3  -2 69.7211 8.28080   1
   3   8  -2 70.0158 7.49670   1
  -8  11   2 76.4400 11.4785   6
  -3  -8   2 86.6086 8.66238   2
  11  -3   2 69.0173 8.19090   2
  -8  11   2 76.7888 15.4822   3
  -8  11   2 69.2480 12.2078   7
  -3  -8   2 87.1233 7.96627   1
  11  -3   2 86.6221 7.33271   1
 -11   4  -2 170.783 13.8305   1
   4   7  -2 196.554 13.2196   2
   4   7  -2 184.317 12.6123   1
 -11   4  -2 202.050 13.9086   2
   7 -11  -2 197.990 13.1688   2
  11  -4   2 176.869 12.1817   1
  -7  11   2 157.118 17.0672   3
  -7  11   2 180.798 17.4320   7
  -4  -7   2 209.255 12.7802   1
  -7  11   2 180.384 17.6207   6
  11  -4   2 184.327 12.9897   2
  -4  -7   2 197.647 13.4540   2
   6 -11  -2 84.1985 8.59584   2
   5   6  -2 94.6752 7.97706   1
   5   6  -2 92.6888 8.70060   2
 -11   5  -2 67.5818 8.48877   2
 -11   5  -2 81.1075 8.65626   1
  -5  -6   2 87.9914 7.89075   1
  -6  11   2 85.3365 11.8407   7
  -5  -6   2 86.9576 8.68885   2
  11  -5   2 76.2128 8.49241   2
  -6  11   2 63.1398 11.7433   6
  -6  11   2 83.7898 11.7079   3
  11  -5   2 95.0115 7.77760   1
 -11   6  -2 43.0375 7.68320   2
 -11   6  -2 54.2552 7.79503   1
   5 -11  -2 62.1192 7.78628   2
   6   5  -2 57.7717 7.46860   2
   6   5  -2 53.0206 6.60388   1
  -6  -5   2 74.6511 7.69884   2
  -5  11   2 76.6545 10.8390   7
  -6  -5   2 77.0675 7.10603   1
  11  -6   2 85.7892 7.24724   1
  -5  11   2 78.7286 12.8427   6
  -5  11   2 71.5686 10.8255   3
  11  -6   2 73.6061 8.14302   2
 -11   7  -2 59.0321 8.53254   2
   7   4  -2 49.3217 6.26690   1
   7   4  -2 43.3736 6.89409   2
   4 -11  -2 60.9276 7.21516   2
 -11   7  -2 53.0192 7.50168   1
  -7  -4   2 57.9646 6.41759   1
  -4  11   2 63.5480 11.0322   7
  -7  -4   2 41.4438 6.74382   2
  11  -7   2 55.0447 6.54838   1
  11  -7   2 50.8508 7.39643   2
  -4  11   2 50.0131 12.1409   6
 -11   8  -2 254.583 16.1224   1
   8   3  -2 240.460 14.3901   1
   3 -11  -2 240.304 14.9334   2
   8   3  -2 228.220 14.8819   2
 -11   8  -2 201.481 15.4046   2
  11  -8   2 240.769 15.8884   2
  -3  11   2 239.228 19.4132   7
  -3  11   2 241.022 22.0476   6
  -8  -3   2 239.841 14.9659   2
  11  -8   2 219.710 14.4973   1
  -8  -3   2 224.462 14.1399   1
 -11   9  -2 48.3389 8.00969   1
 -11   9  -2 39.0790 7.92955   2
   9   2  -2 57.1296 7.60979   2
   9   2  -2 61.5058 7.12248   1
   2 -11  -2 35.9052 7.26005   2
  -2  11   2 66.3465 13.8045   6
  11  -9   2 77.0671 7.87226   1
  11  -9   2 62.5525 8.35102   2
  -2  11   2 53.7047 11.2960   7
  -9  -2   2 62.4249 6.74655   1
  10   1  -2 256.197 15.9089   1
 -11  10  -2 239.748 17.8522   2
  10   1  -2 270.413 16.7478   2
 -11  10  -2 263.998 17.4040   1
   1 -11  -2 233.761 16.2103   2
 -10  -1   2 279.625 15.4767   1
  11 -10   2 249.570 17.2941   2
  -1  11   2 267.586 25.4998   6
  11 -10   2 250.567 15.9935   1
  -1  11   2 262.179 23.3914   7
 -11  11  -2 13.9616 7.20682   1
   0 -11  -2 16.0431 6.35044   2
  11   0  -2 14.8821 5.88958   1
 -11  11  -2 27.1709 8.05222   2
  11   0  -2 26.6129 6.89907   2
   0  11   2 5.81974 11.7947   6
 -11   0   2 20.2663 5.46886   1
  11 -11   2 34.1901 7.42101   2
  11 -11   2 20.2977 6.24024   1
  -1 -11  -2 70.1925 9.48370   2
 -11  12  -2 82.5094 10.7424   2
 -11  12  -2 68.4489 9.80772   1
  12  -1  -2 82.0060 9.42504   2
  12  -1  -2 77.8295 8.73747   1
  11 -12   2 76.3679 8.87457   1
 -12   1   2 74.3643 7.74861   1
  11 -12   2 87.5276 10.2291   2
  13  -2  -2 58.9973 9.20688   2
  -2 -11  -2 53.2035 9.11297   2
  13  -2  -2 70.9256 8.84754   1
 -11  13  -2 70.0732 10.8163   2
 -11  13  -2 62.8413 9.64188   1
 -13   2   2 53.2970 7.28559   1
  11 -13   2 79.0605 10.2559   2
  11 -13   2 73.5804 9.10677   1
  14  -3  -2 69.2244 9.09143   1
 -11  14  -2 43.3667 10.5793   2
  14  -3  -2 54.2711 9.46436   2
  -3 -11  -2 72.7971 10.1095   2
 -11  14  -2 42.2784 9.48478   1
  11 -14   2 61.6843 9.05716   1
 -14   3   2 43.2477 7.11094   1
  11 -14   2 48.5691 10.0243   2
  15  -4  -2 3.24043 8.42917   2
 -11  15  -2 14.4824 8.82290   1
  15  -4  -2 17.2235 8.12824   1
  -4 -11  -2 14.0306 8.59840   2
  11 -15   2 -6.3330 7.97294   2
  11 -15   2 -8.0500 7.14956   1
 -15   4   2 12.0139 6.17852   1
 -11  16  -2 -0.1239 8.81049   1
  16  -5  -2 4.17272 8.78652   1
  16  -5  -2 2.10129 8.48309   2
  -5 -11  -2 -1.3719 8.66901   2
  11 -16   2 1.67568 9.21695   2
  11 -16   2 10.7131 8.18486   1
  17  -6  -2 33.6091 10.9244   1
 -11  17  -2 24.1464 9.98643   1
  17  -6  -2 29.9300 10.6413   2
  -6 -11  -2 37.0461 10.9450   2
  11 -17   2 28.1750 9.39413   1
  11 -17   2 21.4983 10.9290   2
  18  -7  -2 -2.2976 9.64009   2
  18  -7  -2 -5.3244 10.1752   1
 -11  18  -2 -4.8082 9.25272   1
  -7 -11  -2 9.53778 10.5820   2
  11 -18   2 11.7988 8.98296   1
  11 -18   2 3.29567 10.6023   2
 -12  -6  -2 -5.3570 10.5424   2
 -12  -6  -2 3.15687 8.74093   1
  -6  18  -2 7.92238 9.36135   1
  18 -12  -2 10.8717 10.8620   2
   6 -18   2 -14.418 10.2713   2
   6 -18   2 16.9274 9.04614   1
  -5  17  -2 2.63399 9.31093   1
  17 -12  -2 4.05786 10.0880   2
 -12  -5  -2 9.30258 8.48137   1
 -12  -5  -2 11.8075 10.9605   2
   5 -17   2 -0.6023 9.81468   2
   5 -17   2 11.3388 8.54727   1
  16 -12  -2 7.29177 9.55443   2
 -12  -4  -2 -2.5573 7.32927   1
 -12  -4  -2 14.0567 9.96448   2
  -4  16  -2 -11.050 8.05332   1
   4 -16   2 8.99056 7.65891   1
   4 -16   2 4.07996 9.62180   2
  12   4   2 -11.137 5.94336   1
  -3  15  -2 18.9029 8.47963   1
 -12  -3  -2 27.7283 9.44654   2
  15 -12  -2 5.90266 8.55074   2
 -12  -3  -2 12.7514 7.83846   1
   3 -15   2 3.17130 7.08273   1
  12   3   2 14.9665 6.32980   1
   3 -15   2 6.06935 8.82052   2
 -12  -2  -2 6.46910 8.37221   1
  14 -12  -2 9.63214 8.39699   2
  -2  14  -2 -0.2574 7.11230   1
 -12  -2  -2 7.79001 8.60446   2
  -2  14  -2 -2.7382 9.31394   2
   2 -14   2 1.67207 6.89636   1
  12   2   2 3.00383 5.68078   1
   2 -14   2 24.4352 8.98563   2
  13 -12  -2 23.7933 8.59597   2
 -12  -1  -2 30.3226 9.40797   2
  -1  13  -2 18.2902 9.48442   2
 -12  -1  -2 42.6920 8.67256   1
  -1  13  -2 25.1644 7.57050   1
   1 -13   2 19.4244 6.89948   1
  12   1   2 29.1301 6.37928   1
   1 -13   2 33.7831 8.73762   2
   0  12  -2 8.96567 6.78371   1
  12 -12  -2 21.4966 7.54286   2
   0  12  -2 27.0940 8.97365   2
 -12   0  -2 20.6120 8.11301   1
 -12   0  -2 18.1262 7.67883   2
  12   0   2 13.7085 5.58696   1
   0 -12   2 15.3378 6.50645   1
   0 -12   2 18.2985 7.69725   2
 -12   1  -2 34.6470 8.15349   1
 -12   1  -2 40.8850 8.16241   2
  11 -12  -2 26.8677 7.73712   2
   1  11  -2 45.8839 7.67652   1
   1  11  -2 34.7756 8.49600   2
  -1 -11   2 34.0744 6.61541   1
  12  -1   2 33.7815 6.26498   1
  -1 -11   2 27.6783 7.73306   2
   2  10  -2 26.9083 6.29556   1
  10 -12  -2 18.5092 7.07141   2
   2  10  -2 17.1562 6.59996   2
 -12   2  -2 22.0536 7.42438   2
 -12   2  -2 26.2559 7.43662   1
  -2 -10   2 15.4165 6.73396   2
  12  -2   2 20.7386 5.86629   1
  -2 -10   2 17.1838 5.99240   1
   3   9  -2 19.1539 6.07439   1
   3   9  -2 17.5079 6.13002   2
   9 -12  -2 20.1031 6.68117   2
 -12   3  -2 34.8182 7.54803   1
 -12   3  -2 10.9347 6.71713   2
  12  -3   2 15.1151 5.50163   1
  -3  -9   2 13.7358 6.31866   2
  -3  -9   2 15.7787 5.60164   1
   4   8  -2 19.6103 6.24863   2
 -12   4  -2 16.1407 7.25073   2
   8 -12  -2 16.4977 6.48417   2
 -12   4  -2 14.8157 6.72178   1
   4   8  -2 11.4142 5.34049   1
  -8  12   2 7.41428 9.16514   6
  -4  -8   2 12.1634 5.37484   1
  -8  12   2 17.4898 8.99186   7
  12  -4   2 12.3788 6.10055   2
  12  -4   2 18.6207 5.38327   1
  -4  -8   2 16.8195 6.01574   2
 -12   5  -2 95.0218 9.72792   1
   5   7  -2 91.2857 8.31830   1
   7 -12  -2 85.8141 9.20014   2
   5   7  -2 70.8904 8.80318   2
 -12   5  -2 89.2753 9.81571   2
  12  -5   2 73.7448 8.74838   2
  -7  12   2 83.8375 12.9744   6
  -5  -7   2 85.3065 8.14259   1
  12  -5   2 84.8125 8.07074   1
  -5  -7   2 85.2411 9.14995   2
  -7  12   2 48.5353 11.2288   7
   6   6  -2 42.2191 6.26555   1
   6 -12  -2 29.5928 6.98747   2
   6   6  -2 36.5108 6.90086   2
 -12   6  -2 45.4519 7.57405   1
 -12   6  -2 40.0272 7.80084   2
  12  -6   2 32.0021 7.01276   2
  -6  12   2 30.7279 11.4899   6
  -6  -6   2 44.9463 7.38118   2
  -6  12   2 43.0816 11.3276   7
  -6  -6   2 41.6373 6.31199   1
  12  -6   2 41.0556 6.40345   1
   7   5  -2 177.786 13.6153   2
 -12   7  -2 167.452 14.5838   2
   7   5  -2 173.085 12.7691   1
 -12   7  -2 168.681 14.7001   1
   5 -12  -2 167.491 13.4142   2
  -7  -5   2 192.346 12.4650   1
  -5  12   2 193.087 19.2689   6
  -7  -5   2 217.482 14.0204   2
  12  -7   2 167.512 12.7763   1
  -5  12   2 187.916 18.4380   7
  12  -7   2 199.031 14.1460   2
 -12   8  -2 62.9759 8.86039   1
   4 -12  -2 58.9502 8.17173   2
 -12   8  -2 78.3976 9.87856   2
   8   4  -2 61.4713 8.39354   2
   8   4  -2 68.3631 7.63605   1
  -4  12   2 77.7951 12.2943   7
  12  -8   2 73.5601 9.01519   2
  12  -8   2 78.3576 8.23789   1
  -8  -4   2 70.8380 7.73599   1
  -8  -4   2 91.5030 8.99040   2
  -4  12   2 74.5029 14.3728   6
 -12   9  -2 56.0631 8.33473   1
   9   3  -2 46.5921 7.67983   2
   9   3  -2 54.9905 7.02020   1
   3 -12  -2 48.4786 7.63553   2
 -12   9  -2 38.6816 8.35812   2
  -3  12   2 5.60682 11.8017   6
  -9  -3   2 29.1192 6.15889   1
  12  -9   2 29.1209 6.60439   1
  12  -9   2 29.2571 7.39275   2
 -12  10  -2 8.84687 6.99894   2
   2 -12  -2 -0.3761 5.87364   2
  10   2  -2 6.00451 5.66073   1
  10   2  -2 7.26360 6.22553   2
 -12  10  -2 7.99889 7.17242   1
  12 -10   2 -1.8011 5.97989   1
  -2  12   2 5.87392 12.3877   6
  12 -10   2 10.2479 6.62015   2
 -10  -2   2 8.17482 5.09863   1
  11   1  -2 227.841 15.5758   2
  11   1  -2 204.899 14.3255   1
 -12  11  -2 192.404 16.3797   1
   1 -12  -2 182.710 14.9619   2
 -12  11  -2 196.226 16.6241   2
 -11  -1   2 197.496 13.7235   1
  12 -11   2 184.727 15.3762   2
  12 -11   2 194.833 14.3696   1
   0 -12  -2 7.61696 6.70128   2
  12   0  -2 21.6870 6.62964   1
 -12  12  -2 29.6447 9.20805   2
 -12  12  -2 1.59442 7.78291   1
  12   0  -2 31.8658 7.58066   2
  12 -12   2 7.97755 6.42181   1
 -12   0   2 14.3880 5.79352   1
  12 -12   2 14.6277 7.68608   2
  13  -1  -2 7.46488 7.51463   2
 -12  13  -2 7.52421 8.78154   2
  -1 -12  -2 -2.0785 6.92365   2
  13  -1  -2 -0.8215 6.55289   1
 -12  13  -2 -2.6275 7.95690   1
  12 -13   2 1.47071 7.70681   2
 -13   1   2 1.83747 5.57459   1
  12 -13   2 -0.3765 6.68609   1
  14  -2  -2 -1.6175 7.25641   2
  -2 -12  -2 -7.2579 7.38878   2
 -12  14  -2 -1.2224 8.04775   1
  14  -2  -2 10.0857 7.35548   1
 -12  14  -2 -17.379 8.25185   2
 -14   2   2 8.41020 6.07741   1
  12 -14   2 8.51406 7.37432   1
  12 -14   2 3.83501 8.40878   2
 -12  15  -2 -7.7743 8.25785   1
  15  -3  -2 3.61765 8.03397   1
  15  -3  -2 -1.9413 7.98109   2
  -3 -12  -2 16.1113 8.61773   2
  12 -15   2 5.48390 8.61341   2
  12 -15   2 9.55356 7.84093   1
 -15   3   2 -8.6720 5.87051   1
  16  -4  -2 2.88951 8.97705   1
  -4 -12  -2 14.7340 9.46133   2
 -12  16  -2 18.0498 9.48565   1
  16  -4  -2 10.5353 8.99235   2
  12 -16   2 5.56856 8.03176   1
 -16   4   2 4.75583 6.48347   1
  12 -16   2 16.1771 9.90438   2
  17  -5  -2 11.4561 9.77661   2
 -12  17  -2 16.2510 9.94143   1
  17  -5  -2 7.83630 10.0972   1
  -5 -12  -2 2.62396 9.67275   2
  12 -17   2 8.98220 8.38303   1
  12 -17   2 1.28095 9.96409   2
  18  -6  -2 0.23179 10.8944   1
 -12  18  -2 -3.1350 9.25051   1
  18  -6  -2 10.2437 10.6289   2
  -6 -12  -2 11.4406 10.6358   2
  12 -18   2 -2.1940 8.89180   1
  12 -18   2 -10.063 9.58719   2
  18 -13  -2 20.8582 11.6835   2
 -13  -5  -2 24.3101 9.71718   1
  -5  18  -2 31.9338 10.1635   1
 -13  -5  -2 38.8074 12.4151   2
   5 -18   2 16.5244 11.1282   2
   5 -18   2 33.0270 9.88674   1
 -13  -4  -2 14.8695 9.17809   1
  -4  17  -2 28.3774 9.78911   1
 -13  -4  -2 20.5006 11.0621   2
  17 -13  -2 9.90793 10.2896   2
   4 -17   2 26.1696 11.5268   2
   4 -17   2 20.3175 8.84150   1
 -13  -3  -2 -1.6968 7.76780   1
 -13  -3  -2 -5.6764 9.57445   2
  -3  16  -2 5.01273 8.31584   1
  16 -13  -2 13.3095 9.87424   2
   3 -16   2 -3.4406 7.58747   1
  13   3   2 19.6216 7.00845   1
   3 -16   2 9.16510 9.93689   2
  15 -13  -2 -7.5442 8.74671   2
 -13  -2  -2 9.18620 7.90682   1
 -13  -2  -2 10.4482 9.52328   2
  -2  15  -2 12.6569 8.33300   1
   2 -15   2 9.15261 7.63720   1
   2 -15   2 11.7741 9.50690   2
  13   2   2 15.3113 6.68990   1
  14 -13  -2 38.0849 9.78851   2
 -13  -1  -2 46.2058 10.3864   1
 -13  -1  -2 37.1505 9.93078   2
  -1  14  -2 22.8741 8.09200   1
  -1  14  -2 23.8224 10.4223   2
  13   1   2 21.3545 6.75443   1
   1 -14   2 48.0803 9.94273   2
   1 -14   2 27.1492 8.05857   1
 -13   0  -2 13.6162 8.62729   1
   0  13  -2 1.46243 9.00393   2
   0  13  -2 15.2641 7.77170   1
  13 -13  -2 8.16284 8.26501   2
 -13   0  -2 1.42551 8.33313   2
  13   0   2 15.4839 6.24414   1
   0 -13   2 2.34547 7.68321   2
   0 -13   2 8.70474 6.80434   1
  12 -13  -2 0.17667 7.55490   2
 -13   1  -2 4.78728 8.25927   1
   1  12  -2 2.88560 8.46944   2
   1  12  -2 19.5374 7.03142   1
 -13   1  -2 -1.4408 7.55508   2
  -1 -12   2 8.48839 8.13613   2
  -1 -12   2 9.03920 6.06542   1
  13  -1   2 -4.2189 5.62717   1
  11 -13  -2 -3.2310 7.08969   2
   2  11  -2 -2.3584 6.78237   2
   2  11  -2 7.45229 6.72907   1
 -13   2  -2 -1.0125 7.54140   2
 -13   2  -2 5.04769 7.70720   1
  -2 -11   2 9.11426 7.10387   2
  13  -2   2 3.15913 5.70497   1
  -2 -11   2 7.08271 6.07173   1
   3  10  -2 50.8523 8.70837   2
   3  10  -2 51.1524 7.92110   1
 -13   3  -2 47.2481 9.11981   1
 -13   3  -2 56.6826 9.42536   2
  10 -13  -2 34.1829 8.33038   2
  -3 -10   2 60.1321 7.72711   1
  13  -3   2 73.1851 7.73216   1
  -3 -10   2 64.0602 9.19315   2
   9 -13  -2 5.07435 6.64575   2
 -13   4  -2 -5.6624 7.00031   2
 -13   4  -2 7.38483 7.68192   1
   4   9  -2 1.78937 6.22989   1
   4   9  -2 -4.1456 6.19612   2
  -4  -9   2 4.35666 6.84611   2
  -4  -9   2 5.64773 5.59042   1
  13  -4   2 3.15613 5.43895   1
   8 -13  -2 89.7477 9.78522   2
 -13   5  -2 95.9004 10.2706   1
   5   8  -2 77.9941 9.68545   2
   5   8  -2 98.9127 9.20107   1
 -13   5  -2 81.1198 10.2632   2
  -8  13   2 65.2088 12.9860   6
  13  -5   2 88.2373 8.59758   1
  -5  -8   2 92.0090 10.1506   2
  -5  -8   2 73.6402 8.48429   1
  13  -5   2 67.8028 9.33960   2
 -13   6  -2 9.51411 7.35484   1
   6   7  -2 18.3725 6.71949   2
 -13   6  -2 11.2905 7.39753   2
   6   7  -2 11.6655 5.97965   1
   7 -13  -2 19.8851 6.97162   2
  -6  -7   2 21.5036 7.30057   2
  13  -6   2 11.4892 5.93181   1
  13  -6   2 22.8262 7.47923   2
  -7  13   2 15.5994 10.7762   6
  -6  -7   2 20.7118 5.73091   1
 -13   7  -2 44.3430 8.31612   1
   6 -13  -2 29.2634 7.52287   2
 -13   7  -2 33.7579 8.46328   2
   7   6  -2 27.2913 6.35325   1
   7   6  -2 35.8157 7.63301   2
  -6  13   2 24.1921 11.8020   6
  -7  -6   2 49.5916 7.98955   2
  13  -7   2 43.3411 8.02083   2
  -7  -6   2 52.6274 6.99238   1
  13  -7   2 51.3872 7.21992   1
   8   5  -2 14.7741 5.90209   1
   8   5  -2 3.11195 5.88462   2
 -13   8  -2 -0.5053 7.19912   1
   5 -13  -2 -0.3938 6.27030   2
 -13   8  -2 17.5846 8.01799   2
  13  -8   2 3.16321 5.68172   1
  -8  -5   2 2.78252 5.04517   1
  -5  13   2 -4.3431 10.0859   6
  13  -8   2 9.84218 6.70630   2
   9   4  -2 29.5840 7.39090   2
 -13   9  -2 25.2074 8.09331   1
 -13   9  -2 23.1560 8.84184   2
   9   4  -2 20.1302 6.45615   1
   4 -13  -2 23.9824 7.19943   2
  13  -9   2 10.2596 6.48331   1
  13  -9   2 22.5139 7.46489   2
  -9  -4   2 17.0275 5.90360   1
  -4  13   2 8.34661 19.1478   6
 -13  10  -2 38.9765 8.81243   1
  10   3  -2 41.5841 8.23486   2
 -13  10  -2 30.2407 9.28169   2
  10   3  -2 49.5349 7.62942   1
   3 -13  -2 34.2921 7.99414   2
  13 -10   2 38.4946 8.66274   2
  13 -10   2 38.8331 7.59539   1
 -10  -3   2 44.4718 7.02773   1
  11   2  -2 9.54450 6.92039   2
 -13  11  -2 9.03320 8.29598   2
   2 -13  -2 17.7674 7.28819   2
 -13  11  -2 2.78225 7.82764   1
  11   2  -2 13.4254 6.52522   1
  13 -11   2 1.40703 6.60104   1
  13 -11   2 6.29639 7.20093   2
 -11  -2   2 5.65125 5.57111   1
  12   1  -2 77.6728 9.25694   1
  12   1  -2 49.7326 9.33527   2
   1 -13  -2 37.8989 8.74919   2
 -13  12  -2 62.2497 10.8957   2
 -13  12  -2 67.6938 10.1645   1
  13 -12   2 39.6535 8.16485   1
 -12  -1   2 48.9760 7.38754   1
  13 -12   2 84.2845 10.8523   2
  13   0  -2 8.34557 7.81001   2
   0 -13  -2 1.69792 7.43996   2
 -13  13  -2 12.0350 9.37273   2
  13   0  -2 -0.7194 6.83693   1
 -13  13  -2 17.5066 8.80382   1
  13 -13   2 4.35743 8.08286   2
 -13   0   2 6.00647 5.93920   1
  13 -13   2 -1.7739 6.82562   1
 -13  14  -2 26.9957 9.21766   1
  14  -1  -2 30.8239 8.44233   1
  -1 -13  -2 20.1262 8.29365   2
 -13  14  -2 27.1935 14.2357   2
  14  -1  -2 36.3619 9.57675   2
 -14   1   2 30.3039 7.16568   1
  13 -14   2 19.2715 9.36993   2
  13 -14   2 22.0235 7.85966   1
  -2 -13  -2 6.74419 8.72830   2
  15  -2  -2 1.40829 8.12065   1
  15  -2  -2 3.13152 8.34920   2
 -13  15  -2 2.38515 8.67088   1
 -15   2   2 8.83045 6.58525   1
  13 -15   2 -1.4770 7.47316   1
  13 -15   2 26.0854 9.76203   2
  16  -3  -2 23.2358 9.28039   1
  16  -3  -2 14.3510 9.23650   2
  -3 -13  -2 8.45615 9.42254   2
 -13  16  -2 5.28590 9.16726   1
  13 -16   2 -7.3892 9.28218   2
  13 -16   2 -6.3044 7.96947   1
 -16   3   2 1.98428 6.67559   1
 -13  17  -2 4.83080 9.38857   1
  17  -4  -2 7.65793 9.83625   2
  17  -4  -2 12.8737 10.6243   1
  -4 -13  -2 -1.4029 10.1156   2
  13 -17   2 7.84315 9.80828   2
  13 -17   2 -4.3587 8.31675   1
  18  -5  -2 30.7573 12.5380   1
 -13  18  -2 26.2852 10.2636   1
  -5 -13  -2 28.3879 11.8443   2
  18  -5  -2 25.6518 11.1171   2
  13 -18   2 23.3499 9.88662   1
  13 -18   2 13.4033 11.2850   2
  18 -14  -2 -16.159 10.1782   2
  -4  18  -2 6.39868 9.55608   1
 -14  -4  -2 1.83624 11.9641   2
   4 -18   2 6.93568 10.8949   2
  -3  17  -2 -12.251 8.71927   1
 -14  -3  -2 -4.1139 8.15958   1
 -14  -3  -2 4.52153 10.5831   2
  17 -14  -2 12.9400 10.6552   2
   3 -17   2 4.26082 8.25027   1
   3 -17   2 -7.3790 10.3343   2
  14   3   2 2.69790 7.07261   1
 -14  -2  -2 10.5776 10.9569   2
  16 -14  -2 24.8253 10.6107   2
 -14  -2  -2 -2.3740 8.33773   1
  -2  16  -2 13.1002 9.08009   1
   2 -16   2 12.2679 9.95738   2
   2 -16   2 35.9637 8.88645   1
  14   2   2 28.4350 7.68190   1
  -1  15  -2 29.4695 9.05275   1
 -14  -1  -2 25.1654 10.6039   2
  15 -14  -2 15.1999 9.97327   2
   1 -15   2 26.4408 10.4175   2
   1 -15   2 25.8871 8.42609   1
  14   1   2 21.1897 7.02685   1
 -14   0  -2 13.2231 10.1310   1
 -14   0  -2 -2.0550 9.41393   2
  14 -14  -2 6.12912 8.77481   2
   0  14  -2 8.53280 7.99930   1
  14   0   2 -2.1098 6.10654   1
   0 -14   2 -11.901 8.25598   2
   0 -14   2 5.87823 6.97140   1
   1  13  -2 5.76871 7.65340   1
  13 -14  -2 3.10908 8.30195   2
 -14   1  -2 6.66120 8.69767   2
   1  13  -2 -5.3422 9.22953   2
 -14   1  -2 4.63549 8.84078   1
  -1 -13   2 3.08359 6.72080   1
  -1 -13   2 10.0470 8.97950   2
  14  -1   2 8.09262 6.19320   1
 -14   2  -2 90.9209 12.2791   1
   2  12  -2 93.9376 10.6227   1
 -14   2  -2 100.407 12.1970   2
  12 -14  -2 75.8025 10.9188   2
  -2 -12   2 88.3690 11.5614   2
  -2 -12   2 80.5248 9.56013   1
  14  -2   2 91.1903 9.18581   1
 -14   3  -2 22.8362 8.89732   2
 -14   3  -2 44.9094 9.63929   1
   3  11  -2 41.3683 8.16645   1
   3  11  -2 38.2637 8.75312   2
  11 -14  -2 29.6823 8.71023   2
  -3 -11   2 25.9390 7.00673   1
  14  -3   2 32.0061 7.19648   1
  -3 -11   2 33.6770 8.89723   2
  10 -14  -2 5.32257 7.51180   2
   4  10  -2 23.2066 7.48829   2
 -14   4  -2 10.5572 8.11724   2
   4  10  -2 7.66828 6.90908   1
 -14   4  -2 32.4360 9.25899   1
  -4 -10   2 11.8267 8.01352   2
  -4 -10   2 2.10135 5.82695   1
  14  -4   2 8.41910 6.14851   1
 -14   5  -2 11.3080 8.48680   2
   5   9  -2 8.96046 7.47122   2
   5   9  -2 16.7708 7.16834   1
 -14   5  -2 14.9071 8.55244   1
   9 -14  -2 10.3214 7.67969   2
  14  -5   2 1.60372 5.87198   1
  -5  -9   2 20.4129 7.95023   2
  -5  -9   2 1.64707 5.67959   1
   6   8  -2 189.683 15.0567   1
   8 -14  -2 175.072 15.2465   2
 -14   6  -2 176.007 15.6495   2
   6   8  -2 174.669 14.7422   2
 -14   6  -2 191.845 15.0171   1
  -8  14   2 164.501 18.7586   6
  14  -6   2 165.542 13.4671   1
  14  -6   2 194.961 20.1240   2
  -6  -8   2 193.709 15.9979   2
  -6  -8   2 177.314 13.7485   1
   7   7  -2 33.2840 7.95289   2
   7   7  -2 34.2376 7.14708   1
 -14   7  -2 13.2519 8.30163   2
   7 -14  -2 22.7651 8.02989   2
 -14   7  -2 12.1593 8.30676   1
  -7  14   2 16.2830 11.5821   6
  14  -7   2 16.5135 7.81686   2
  -7  -7   2 27.7236 6.28649   1
  -7  -7   2 28.4319 9.41767   2
  14  -7   2 27.1096 6.73191   1
 -14   8  -2 14.3550 8.37401   1
 -14   8  -2 4.34114 8.02027   2
   6 -14  -2 7.51061 7.16331   2
   8   6  -2 4.51735 7.09579   2
   8   6  -2 2.19112 6.46998   1
  14  -8   2 6.55340 6.30564   1
  14  -8   2 -1.0403 7.17591   2
  -8  -6   2 4.88761 5.83812   1
 -14   9  -2 38.1463 9.58757   2
   5 -14  -2 32.9198 8.68633   2
   9   5  -2 38.4418 8.39208   2
 -14   9  -2 50.8664 9.29928   1
   9   5  -2 52.5296 7.93382   1
  14  -9   2 43.2676 9.09580   2
  -9  -5   2 50.7330 7.08139   1
  14  -9   2 37.0124 7.47413   1
  10   4  -2 21.5664 7.68019   2
   4 -14  -2 19.4865 7.95421   2
  10   4  -2 20.9929 7.14250   1
 -14  10  -2 14.2754 8.73153   1
 -14  10  -2 24.6251 9.98580   2
  14 -10   2 45.6388 9.28825   2
  14 -10   2 32.6564 7.54909   1
 -10  -4   2 34.3478 6.98714   1
  11   3  -2 15.0535 7.97831   2
  11   3  -2 18.6550 7.49485   1
 -14  11  -2 12.6286 9.61989   2
 -14  11  -2 4.88261 8.43725   1
   3 -14  -2 24.4154 8.35662   2
  14 -11   2 14.1890 7.18025   1
  14 -11   2 18.8505 8.42495   2
 -11  -3   2 24.8491 6.75292   1
 -14  12  -2 32.5497 10.1194   2
   2 -14  -2 16.3038 8.12798   2
  12   2  -2 16.3638 8.34190   2
  12   2  -2 15.9839 7.95454   1
 -14  12  -2 25.8772 8.93228   1
  14 -12   2 27.5039 8.00333   1
 -12  -2   2 28.3524 6.82159   1
  14 -12   2 27.1745 9.18956   2
 -14  13  -2 10.4984 8.96369   1
  13   1  -2 -2.1309 7.45652   2
  13   1  -2 -1.4721 7.52292   1
   1 -14  -2 1.32460 8.30910   2
 -14  13  -2 3.01787 9.56971   2
  14 -13   2 -0.2435 7.01471   1
  14 -13   2 3.48784 8.71612   2
 -13  -1   2 -0.4140 6.25425   1
   0 -14  -2 19.1607 9.28064   2
  14   0  -2 21.3298 9.08861   1
  14   0  -2 30.8081 9.24524   2
 -14  14  -2 17.7803 9.53265   1
  14 -14   2 13.9307 7.94135   1
 -14   0   2 23.2934 7.07733   1
  14 -14   2 35.2275 10.5540   2
  15  -1  -2 -8.4112 8.54898   1
  -1 -14  -2 3.44203 8.80970   2
  15  -1  -2 -5.6832 8.37818   2
 -14  15  -2 -3.1133 9.12123   1
  14 -15   2 -2.0955 7.73396   1
 -15   1   2 4.57626 6.90343   1
  14 -15   2 0.00661 9.13043   2
 -14  16  -2 6.89594 9.63872   1
  -2 -14  -2 8.64402 9.47909   2
  16  -2  -2 16.4799 9.99757   1
  16  -2  -2 20.8727 10.0106   2
  14 -16   2 -15.760 9.14924   2
  14 -16   2 5.62863 8.23805   1
 -16   2   2 -1.6764 6.94666   1
  17  -3  -2 -8.7337 9.89058   1
 -14  17  -2 13.0584 9.74483   1
  17  -3  -2 13.0154 9.87354   2
  -3 -14  -2 4.98391 10.0069   2
  14 -17   2 -6.1619 10.0638   2
  14 -17   2 -5.4607 8.47286   1
 -14  18  -2 40.6520 10.6600   1
  18  -4  -2 18.9722 10.9474   2
  18  -4  -2 32.4541 11.7614   1
  -4 -14  -2 12.7969 11.2656   2
  14 -18   2 6.13202 9.33421   1
  14 -18   2 15.1095 11.3425   2
 -15  -2  -2 30.6127 11.7669   2
  17 -15  -2 8.78198 10.5840   2
  -2  17  -2 1.58999 9.19598   1
 -15  -2  -2 2.64533 8.91041   1
   2 -17   2 2.87590 8.05952   1
  15   2   2 16.3023 7.50715   1
   2 -17   2 -4.6842 10.4765   2
 -15  -1  -2 -7.5867 10.3706   2
  16 -15  -2 -0.6254 9.99987   2
  -1  16  -2 0.82261 9.20982   1
 -15  -1  -2 -1.5253 8.32619   1
   1 -16   2 -4.5041 9.68258   2
  15   1   2 4.14181 6.89759   1
   1 -16   2 -6.3014 7.78236   1
 -15   0  -2 4.01960 10.5471   2
   0  15  -2 -11.437 8.21942   1
  15 -15  -2 1.49960 9.35340   2
 -15   0  -2 16.0198 10.5845   1
   0 -15   2 -0.2655 9.31916   2
   0 -15   2 -1.0912 7.49690   1
  15   0   2 5.11527 6.94152   1
 -15   1  -2 0.01126 10.4212   1
 -15   1  -2 10.2232 9.78731   2
   1  14  -2 -5.4580 7.65326   1
  14 -15  -2 14.7457 9.40526   2
  15  -1   2 2.95718 6.90412   1
  -1 -14   2 0.60933 7.14288   1
  -1 -14   2 0.84055 9.15734   2
  13 -15  -2 21.6573 9.24412   2
   2  13  -2 3.69723 11.9429   2
 -15   2  -2 -12.724 9.41470   1
 -15   2  -2 -2.1935 9.38447   2
   2  13  -2 -4.0714 7.70905   1
  -2 -13   2 -5.4549 6.41772   1
  15  -2   2 -0.8617 6.44788   1
  -2 -13   2 -1.6611 9.13828   2
 -15   3  -2 15.5727 10.2696   1
   3  12  -2 1.08906 8.36925   2
  12 -15  -2 20.0422 9.03185   2
 -15   3  -2 0.32222 9.16994   2
   3  12  -2 13.8626 8.23297   1
  -3 -12   2 4.39153 8.14424   2
  15  -3   2 5.86334 6.80339   1
  -3 -12   2 1.13183 6.47605   1
   4  11  -2 21.1986 8.19228   1
 -15   4  -2 13.8923 9.75874   1
   4  11  -2 27.8314 8.71882   2
 -15   4  -2 57.8394 10.9692   2
  11 -15  -2 31.7751 8.92702   2
  -4 -11   2 31.6791 9.52046   2
  15  -4   2 33.3096 7.61010   1
  -4 -11   2 27.3329 7.14127   1
 -15   5  -2 46.3160 10.7931   2
   5  10  -2 36.3078 8.30195   1
 -15   5  -2 46.7477 10.5287   1
  10 -15  -2 30.7092 9.18012   2
   5  10  -2 43.4969 9.01637   2
  15  -5   2 42.3220 7.77987   1
  -5 -10   2 31.6760 7.24722   1
  -5 -10   2 43.5947 9.58852   2
   9 -15  -2 71.2768 10.4439   2
   6   9  -2 46.8887 9.54425   2
 -15   6  -2 60.8341 10.8942   1
 -15   6  -2 72.6263 11.6377   2
   6   9  -2 85.3464 9.97671   1
  -6  -9   2 44.7433 7.89110   1
  15  -6   2 66.9124 8.82291   1
  -6  -9   2 74.3756 13.7701   2
   7   8  -2 -7.2204 7.18379   1
   7   8  -2 -7.6204 7.19150   2
 -15   7  -2 -7.1172 8.17428   2
   8 -15  -2 2.50215 7.93244   2
 -15   7  -2 0.57453 8.56816   1
  15  -7   2 -8.8216 6.34416   1
  -7  -8   2 2.13935 6.08101   1
   7 -15  -2 23.4020 9.02262   2
   8   7  -2 20.6495 8.55459   2
   8   7  -2 12.8526 7.54263   1
 -15   8  -2 17.7100 8.94050   1
 -15   8  -2 30.9504 9.89162   2
  15  -8   2 23.0926 7.34354   1
  15  -8   2 8.11181 10.6568   2
  -8  -7   2 26.0784 6.75075   1
   9   6  -2 16.1385 7.55821   1
 -15   9  -2 2.17283 8.85726   2
 -15   9  -2 5.65488 9.08498   1
   9   6  -2 20.9314 8.39274   2
   6 -15  -2 15.5996 8.56964   2
  -9  -6   2 27.2071 7.09218   1
  15  -9   2 10.2499 8.33674   2
  15  -9   2 9.38134 6.93786   1
   5 -15  -2 40.7823 9.53241   2
  10   5  -2 31.9577 8.38706   1
  10   5  -2 35.4410 9.05945   2
 -15  10  -2 46.3030 10.1906   1
 -15  10  -2 44.9500 10.8776   2
  15 -10   2 27.7465 7.67133   1
  15 -10   2 22.6411 9.45072   2
 -10  -5   2 34.7246 7.10830   1
   4 -15  -2 21.2102 8.59674   2
  11   4  -2 14.2668 8.47879   2
 -15  11  -2 15.3832 9.15505   1
 -15  11  -2 14.7542 10.4374   2
  11   4  -2 4.33390 7.47150   1
  15 -11   2 4.16182 8.90001   2
 -11  -4   2 14.9651 6.49555   1
  15 -11   2 9.46226 7.20173   1
 -15  12  -2 21.8285 10.7256   2
  12   3  -2 17.8183 8.34795   1
 -15  12  -2 -1.2698 8.85796   1
  12   3  -2 16.1926 8.67983   2
   3 -15  -2 8.19136 8.71747   2
  15 -12   2 1.77204 8.94141   2
  15 -12   2 8.81008 7.53313   1
 -12  -3   2 0.57125 6.42425   1
   2 -15  -2 33.0675 9.82541   2
 -15  13  -2 37.2382 10.3354   1
  13   2  -2 28.9552 9.34867   1
  13   2  -2 45.7089 10.1690   2
 -13  -2   2 21.8400 7.39012   1
  15 -13   2 26.4674 10.2578   2
  15 -13   2 8.75603 8.14071   1
   1 -15  -2 11.9128 8.93673   2
  14   1  -2 18.8578 9.37086   1
  14   1  -2 12.2144 8.99820   2
 -15  14  -2 21.8506 10.0968   1
  15 -14   2 14.5158 8.50916   1
  15 -14   2 -2.8400 9.13450   2
 -14  -1   2 10.6621 7.39116   1
 -15  15  -2 31.8800 10.5895   1
  15   0  -2 29.5974 10.3233   2
   0 -15  -2 21.1993 10.0383   2
  15   0  -2 29.5356 10.3718   1
  15 -15   2 17.4170 10.4917   2
 -15   0   2 15.9564 8.01399   1
  15 -15   2 21.6665 8.65858   1
  -1 -15  -2 -1.3952 9.64342   2
  16  -1  -2 10.0581 9.76490   2
  16  -1  -2 4.33281 10.0127   1
 -15  16  -2 13.4337 9.82213   1
  15 -16   2 2.04177 10.4358   2
 -16   1   2 -3.3773 7.45177   1
  15 -16   2 -12.296 8.11269   1
  17  -2  -2 -5.4546 9.83806   2
 -15  17  -2 8.74827 10.0591   1
  17  -2  -2 -8.5299 10.2586   1
  -2 -15  -2 -14.149 9.63781   2
  15 -17   2 35.6038 11.1684   2
 -17   2   2 8.64019 7.78260   1
  15 -17   2 2.27479 8.83879   1
   0  16  -2 -7.4913 9.24889   1
  16 -16  -2 -6.2772 10.1336   2
 -16   0  -2 -6.0147 8.30503   1
 -16   0  -2 13.2653 11.7076   2
  16   0   2 0.24082 7.19743   1
   0 -16   2 8.15932 11.2829   2
   0 -16   2 11.8721 8.37323   1
 -16   1  -2 8.56229 11.6491   2
 -16   1  -2 22.1644 11.6571   1
  15 -16  -2 24.2885 10.8843   2
   1  15  -2 4.76946 9.06382   1
  -1 -15   2 -4.9541 9.67299   2
  16  -1   2 5.01358 7.34116   1
  -1 -15   2 17.1033 8.24752   1
 -16   2  -2 12.7049 11.3459   2
   2  14  -2 0.14025 8.76982   1
 -16   2  -2 11.7286 11.5005   1
  14 -16  -2 10.0789 9.80140   2
  16  -2   2 5.51626 7.00636   1
  -2 -14   2 8.19946 7.54470   1
  -2 -14   2 13.6215 10.5673   2
  13 -16  -2 -0.6223 8.97828   2
 -16   3  -2 1.35041 10.2165   2
   3  13  -2 -1.7904 8.30556   1
 -16   3  -2 -7.2750 10.0590   1
  -3 -13   2 11.0411 10.7783   2
  -3 -13   2 -2.5332 6.65496   1
  16  -3   2 -1.0381 7.13778   1
 -16   4  -2 5.96114 9.94487   2
  12 -16  -2 -9.6558 8.48099   2
   4  12  -2 -0.5226 8.49353   2
   4  12  -2 -2.6395 8.38453   1
 -16   4  -2 3.34455 10.6506   1
  -4 -12   2 2.42696 13.8098   2
  -4 -12   2 -4.0031 6.70695   1
  16  -4   2 -4.2457 6.90568   1
 -16   5  -2 2.64158 9.87254   1
  11 -16  -2 11.2349 9.14711   2
   5  11  -2 5.72027 8.26612   1
   5  11  -2 13.5437 8.30539   2
 -16   5  -2 5.13185 9.96226   2
  16  -5   2 20.2137 7.43964   1
  -5 -11   2 6.82679 6.62416   1
   6  10  -2 6.55919 8.36700   2
   6  10  -2 9.29623 8.02932   1
 -16   6  -2 21.1921 10.5512   2
 -16   6  -2 0.71231 9.75787   1
  10 -16  -2 11.7350 8.91667   2
  -6 -10   2 -2.2652 6.29355   1
  16  -6   2 -4.3381 6.72022   1
 -16   7  -2 25.6550 10.3748   1
   7   9  -2 30.8597 9.02389   1
 -16   7  -2 20.0800 10.4130   2
   9 -16  -2 27.9163 9.12694   2
   7   9  -2 10.7878 8.54509   2
  -7  -9   2 5.75157 6.48054   1
  16  -7   2 15.6365 7.77337   1
 -16   8  -2 6.80108 9.99809   2
   8   8  -2 16.3775 8.99192   1
 -16   8  -2 9.70530 9.42987   1
   8 -16  -2 11.7596 9.07355   2
   8   8  -2 18.2054 8.90296   2
  -8  -8   2 11.3898 6.82631   1
  16  -8   2 4.19670 7.61623   1
   7 -16  -2 -6.9377 8.37218   2
 -16   9  -2 -4.7091 9.70879   2
   9   7  -2 -2.1450 7.90593   1
   9   7  -2 4.89520 8.27033   2
 -16   9  -2 4.23275 9.60960   1
  16  -9   2 -0.9764 6.73910   1
  -9  -7   2 -5.9374 5.93558   1
 -16  10  -2 -7.5360 8.92883   1
   6 -16  -2 15.6408 9.02192   2
  10   6  -2 8.58426 8.23938   1
 -16  10  -2 1.26992 10.3540   2
  10   6  -2 4.91191 8.64975   2
 -10  -6   2 -1.1970 6.57536   1
  16 -10   2 12.5208 7.37878   1
 -16  11  -2 10.5944 10.9752   2
   5 -16  -2 17.8819 9.23436   2
 -16  11  -2 14.3814 9.67943   1
  11   5  -2 4.92790 8.56996   2
  11   5  -2 3.26908 8.53036   1
 -11  -5   2 -0.8231 6.24324   1
  16 -11   2 0.47161 7.12933   1
  16 -11   2 7.64446 9.06433   2
  12   4  -2 15.5276 9.42008   2
   4 -16  -2 12.7113 9.09465   2
 -16  12  -2 -0.3191 9.40429   1
  12   4  -2 2.29691 8.54265   1
  16 -12   2 1.77365 9.78443   2
 -12  -4   2 17.6835 6.74232   1
  16 -12   2 13.3769 7.91751   1
 -16  13  -2 -6.8462 9.58072   1
  13   3  -2 17.8854 9.16420   1
   3 -16  -2 12.8677 9.64563   2
  13   3  -2 7.83092 9.21556   2
  16 -13   2 -7.0228 9.16152   2
 -13  -3   2 -1.0532 6.80178   1
  16 -13   2 -2.1434 7.93303   1
  14   2  -2 16.3847 9.91481   1
  14   2  -2 17.3251 9.92395   2
 -16  14  -2 5.63216 9.83428   1
   2 -16  -2 14.4766 9.96582   2
  16 -14   2 1.98595 8.26594   1
  16 -14   2 -11.001 9.85703   2
 -14  -2   2 -0.1791 6.98502   1
  15   1  -2 7.35969 10.2587   1
   1 -16  -2 27.8893 10.1985   2
  15   1  -2 19.7644 10.6980   2
 -16  15  -2 0.59737 9.58424   1
  16 -15   2 5.20669 10.6390   2
 -15  -1   2 10.1191 7.61368   1
  16 -15   2 -6.5322 8.41723   1
   0 -16  -2 1.07921 10.5215   2
  16   0  -2 2.01394 10.4875   1
 -16  16  -2 -0.4968 9.68832   1
  16   0  -2 -0.5251 9.81784   2
  16 -16   2 -3.0107 9.05010   1
  16 -16   2 13.6290 11.1378   2
 -16   0   2 13.2896 8.05878   1
 -17   2  -2 -8.9530 11.3688   1
 -17   2  -2 6.28255 11.4738   2
   2  15  -2 -1.4539 9.26616   1
  15 -17  -2 3.18139 10.3674   2
  17  -2   2 16.2759 7.75232   1
  -2 -15   2 17.5249 8.27677   1
   3  14  -2 -1.7471 9.43934   1
 -17   3  -2 1.09821 11.2742   2
 -17   3  -2 18.7288 11.8828   1
  14 -17  -2 -1.2474 9.93712   2
  17  -3   2 2.33874 7.60770   1
  -3 -14   2 10.9398 7.81070   1
   4  13  -2 10.0452 9.42329   1
  13 -17  -2 -6.3639 9.47328   2
 -17   4  -2 -6.2713 10.3308   2
 -17   4  -2 1.32105 11.0777   1
  17  -4   2 0.30320 7.55770   1
  -4 -13   2 5.47079 7.28142   1
  12 -17  -2 -1.4589 9.61603   2
   5  12  -2 15.0503 9.66387   1
 -17   5  -2 -11.315 10.6952   1
 -17   5  -2 10.3928 11.1928   2
  17  -5   2 8.10813 7.89333   1
  -5 -12   2 6.11823 7.16086   1
 -17   6  -2 -13.095 10.2447   2
   6  11  -2 -1.2937 8.82780   2
   6  11  -2 6.20963 8.99280   1
  11 -17  -2 11.2466 9.65005   2
 -17   6  -2 -11.953 10.3883   1
  -6 -11   2 1.47101 6.74984   1
  17  -6   2 3.77146 7.49564   1
   7  10  -2 6.12632 8.84802   1
  10 -17  -2 11.3399 9.70851   2
   7  10  -2 8.64922 9.49440   2
 -17   7  -2 -17.109 9.91632   1
 -17   7  -2 1.90368 10.6667   2
  -7 -10   2 1.00563 6.92073   1
  17  -7   2 3.90804 7.67553   1
   8   9  -2 -11.778 8.83122   1
   9 -17  -2 8.92302 9.10168   2
 -17   8  -2 1.08547 10.7579   2
 -17   8  -2 -1.3756 10.4567   1
   8   9  -2 5.62277 9.38201   2
  17  -8   2 18.3429 8.80831   1
  -8  -9   2 3.21875 6.68871   1
   9   8  -2 29.8140 9.98201   1
   9   8  -2 23.1906 9.91784   2
 -17   9  -2 11.1046 10.7782   2
 -17   9  -2 12.1685 10.3560   1
   8 -17  -2 20.5837 9.90210   2
  -9  -8   2 10.8424 7.40087   1
  17  -9   2 9.10664 8.77727   1
 -17  10  -2 12.0438 11.1481   2
  10   7  -2 9.21547 9.29716   2
  10   7  -2 24.0439 9.52772   1
 -17  10  -2 17.1335 10.7494   1
   7 -17  -2 -11.615 9.19001   2
  17 -10   2 4.25539 7.47938   1
 -10  -7   2 16.0316 7.32535   1
   6 -17  -2 -7.7608 9.05614   2
  11   6  -2 6.32311 9.53270   2
 -17  11  -2 13.9181 10.3219   1
  11   6  -2 -17.177 8.37873   1
 -11  -6   2 -8.7366 6.68001   1
  17 -11   2 9.82525 8.08214   1
  12   5  -2 5.47613 9.82825   2
  12   5  -2 20.8109 10.1731   1
 -17  12  -2 21.9589 10.6044   1
   5 -17  -2 3.57958 10.0261   2
 -12  -5   2 5.69191 7.31846   1
  17 -12   2 0.39287 7.63797   1
  13   4  -2 23.2066 10.5277   2
   4 -17  -2 26.9329 10.6545   2
  13   4  -2 46.7292 10.5703   1
 -17  13  -2 16.5182 10.2729   1
  17 -13   2 19.1719 8.91762   1
 -13  -4   2 20.9024 7.79868   1
  14   3  -2 -2.2498 9.95317   1
   3 -17  -2 0.66048 10.1757   2
  14   3  -2 9.05852 9.90690   2
 -17  14  -2 2.15067 10.1878   1
  17 -14   2 6.42906 8.81634   1
 -14  -3   2 11.4316 7.27833   1
   2 -17  -2 -26.221 9.68112   2
 -17  15  -2 6.91159 10.4535   1
  15   2  -2 -17.456 9.62593   1
  15   2  -2 4.63688 10.4668   2
  17 -15   2 -4.6673 8.51307   1
 -15  -2   2 14.7777 7.89163   1
 -18   4  -2 -4.0046 12.1531   1
  14 -18  -2 -12.806 9.81575   2
   4  14  -2 10.8140 10.1923   1
  18  -4   2 5.13025 8.06233   1
 -18   5  -2 -9.1436 11.3884   1
 -18   5  -2 17.2006 12.0679   2
   5  13  -2 -11.975 9.01368   1
  13 -18  -2 5.64007 10.4141   2
  -5 -13   2 16.8059 7.68168   1
  18  -5   2 6.07949 8.32011   1
  12 -18  -2 4.90658 10.0224   2
   6  12  -2 2.41429 9.67111   1
 -18   6  -2 2.32649 11.9353   2
 -18   6  -2 17.0275 11.6980   1
  -6 -12   2 10.9727 7.65000   1
  18  -6   2 10.8810 8.58227   1
  11 -18  -2 -13.421 9.83100   2
   7  11  -2 12.7910 9.52084   1
 -18   7  -2 -7.5666 11.3640   2
 -18   7  -2 -1.6986 11.5365   1
  -7 -11   2 3.57112 7.19401   1
  18  -7   2 13.9489 8.55495   1
  10 -18  -2 -14.244 10.1951   2
   8  10  -2 -10.754 8.96445   1
 -18   8  -2 -5.2735 10.8263   1
 -18   8  -2 19.1110 12.1058   2
  -8 -10   2 -5.9733 7.04874   1
  18  -8   2 -2.2416 8.32985   1
   9 -18  -2 -4.0981 9.81491   2
 -18   9  -2 -2.8773 10.8008   1
   9   9  -2 7.80023 10.0715   2
   9   9  -2 21.9242 10.3233   1
  18  -9   2 -5.1364 9.09993   1
  -9  -9   2 -4.6304 6.97118   1
 -18  10  -2 21.9831 11.4696   1
  10   8  -2 38.6545 10.7514   1
  10   8  -2 26.1346 11.0253   2
   8 -18  -2 27.0797 11.3534   2
  18 -10   2 19.1667 10.1819   1
 -10  -8   2 30.2040 8.59005   1
   7 -18  -2 -9.3750 10.0310   2
  11   7  -2 11.6403 10.3388   1
 -18  11  -2 -11.846 10.2535   1
  11   7  -2 16.1084 9.75361   2
 -11  -7   2 -6.8804 7.07959   1
  18 -11   2 13.6658 9.83222   1
  12   6  -2 -1.6354 9.72882   2
   6 -18  -2 2.01118 10.3855   2
 -18  12  -2 2.52174 10.6481   1
  12   6  -2 -1.7910 9.63340   1
 -12  -6   2 4.80739 7.15514   1
  18 -12   2 -2.8125 8.37014   1
  13   5  -2 -3.5479 10.4592   2
  13   5  -2 2.87772 10.0380   1
   5 -18  -2 -11.174 10.1331   2
 -18  13  -2 14.5803 10.9556   1
  18 -13   2 -5.9945 8.11550   1
 -13  -5   2 17.4838 8.06543   1
  14   4  -2 14.5897 10.9375   1
 -18  14  -2 14.0485 10.9046   1
   4 -18  -2 27.0938 11.4820   2
  14   4  -2 8.21475 10.3698   2
  18 -14   2 10.4015 8.78426   1
   0   0  -3 304.852 16.8178   3
   0   0   3 291.269 16.5469   3
   0   0   3 300.117 15.5257   8
   0   0   3 281.051 16.0183   5
  -1   0  -3 4468.89 207.578   3
   0   1  -3 4591.99 207.137   3
   1  -1  -3 4557.70 207.805   3
  -1   1   3 4482.06 206.775   5
  -1   1   3 4461.65 206.577   8
   0  -1   3 4512.69 206.467   8
   1   0   3 4559.47 206.610   8
   0  -1   3 4547.34 206.970   5
   0  -1   3 4551.14 206.975   3
   0  -1   3 4562.92 205.968   7
  -1   1   3 4600.33 207.731   3
  -1   1  -3 76.5104 7.45371   3
   1   0  -3 77.5459 7.25433   3
   0  -1  -3 76.9085 7.69032   3
   1  -1   3 62.3329 5.67151   7
   0   1   3 74.4113 6.12235   8
   0   1   3 66.9723 7.12375   3
   1  -1   3 60.2366 5.89169   8
  -1   0   3 62.5188 6.80084   3
  -1   0   3 77.5663 6.64733   5
  -1   0   3 61.3899 5.81558   8
   2  -1  -3 955.589 44.6752   3
  -1   2  -3 896.941 43.2247   3
  -1  -1  -3 953.211 44.8179   3
  -2   1   3 884.897 44.2354   3
   1   1   3 880.095 43.0022   8
  -2   1   3 892.215 43.1099   8
   1  -2   3 915.516 42.9580   8
   1  -2   3 902.575 42.9344   7
   1  -2   3 909.212 43.5167   5
  -2   1   3 908.428 43.3532   5
  -1   3  -3 642.242 31.0499   2
  -1   3  -3 645.735 31.5920   3
   3  -2  -3 633.653 33.7984   3
  -2  -1  -3 623.843 30.5303   9
  -3   2   3 670.913 32.1266   8
  -3   2   3 653.669 32.0840   5
   1  -3   3 667.444 32.5034   5
   2   1   3 641.543 31.9789   8
   1  -3   3 700.403 32.4137   7
   2   1   3 660.803 31.5037   7
   1  -3   3 675.985 31.7064   8
  -3   2   3 712.463 34.0690   3
   2  -2  -3 79.2523 8.41836   3
   0   2  -3 85.4357 7.54422   3
  -2   2   3 88.5595 9.39546   3
   2   0   3 95.3191 7.01733   7
   0  -2   3 100.454 8.22311   5
   2   0   3 94.6249 7.48659   8
  -2   2   3 83.7087 7.33599   5
   0  -2   3 101.749 7.26880   7
  -2   2   3 94.3395 7.34666   8
   0  -2   3 90.8270 7.11934   3
   0  -2   3 95.4019 6.91982   8
   1  -2  -3 145.924 10.8675   3
   1   1  -3 130.401 9.77758   3
  -1   2   3 133.452 8.87477   8
  -1  -1   3 127.828 9.50346   5
   2  -1   3 134.858 8.97934   8
  -1  -1   3 131.694 8.90517   8
  -1  -1   3 132.229 9.45859   3
  -1  -1   3 128.562 8.40121   7
  -1   2   3 128.369 10.6822   3
   2  -1   3 145.525 8.79340   7
   2   0  -3 903.331 42.5147   3
   0  -2  -3 875.216 42.9393   3
  -2   2  -3 915.552 41.8012   3
  -2   0   3 858.360 40.6500   7
   2  -2   3 884.480 41.3133   7
   2  -2   3 871.837 41.2152   8
  -2   0   3 841.487 41.1789   8
  -2   0   3 856.545 41.6526   5
  -2   0   3 834.276 42.1502   3
   0   2   3 835.806 41.0860   8
  -2   3  -3 2315.12 108.042   2
  -1  -2  -3 2266.05 110.565   3
  -2   3  -3 2292.25 108.741   3
  -3   1   3 2439.54 109.254   5
   1   2   3 2391.59 108.068   7
   2  -3   3 2388.46 109.316   7
   2  -3   3 2419.54 108.793   8
  -3   1   3 2374.66 108.970   8
  -3   1   3 2390.83 108.322   7
  -3   1   3 2391.25 110.392   3
   1   2   3 2344.71 108.764   8
   2  -3   3 2399.66 109.265   5
  -2  -2  -3 890.960 41.6805   2
  -2  -2  -3 917.367 41.7362   9
   4  -2  -3 939.896 41.7082   2
  -2   4  -3 926.250 42.2079   2
  -2   4  -3 927.868 42.1971   3
   2   2   3 884.859 42.8618   8
   2  -4   3 892.981 42.6413   8
   2  -4   3 895.945 43.4131   5
   2   2   3 881.003 42.6374   7
  -4   2   3 872.458 44.9048   3
  -4   2   3 885.461 42.5542   7
   2  -4   3 886.972 43.6808   7
  -4   2   3 904.963 43.2914   8
  -2   5  -3 609.208 28.3136   2
  -3  -2  -3 591.660 28.1493   9
  -3  -2  -3 583.187 27.8259   2
   5  -3  -3 598.441 27.7021   2
   2  -5   3 596.386 27.3081   1
  -5   3   3 595.595 31.7880   3
   3   2   3 560.217 28.8954   8
   2  -5   3 585.721 30.2025   7
  -5   3   3 591.038 29.6423   8
   3   2   3 577.793 29.1372   7
  -5   3   3 582.492 29.0559   7
   2  -5   3 571.806 29.4943   5
   2  -5   3 565.622 28.4178   8
  -1   4  -3 412.745 21.2011   2
   4  -3  -3 422.165 20.9874   2
  -3  -1  -3 424.549 20.8855   2
  -3  -1  -3 410.959 21.1169   9
   1  -4   3 444.803 22.9435   5
  -4   3   3 424.942 24.5861   3
   1  -4   3 448.088 22.9518   7
   3   1   3 451.238 22.1782   7
  -4   3   3 431.428 22.4368   8
   3   1   3 438.887 22.2392   8
   1  -4   3 426.499 21.4067   8
  -4   3   3 458.263 22.1593   5
  -4   3   3 451.820 21.6146   7
   0   3  -3 243.215 12.6182   2
  -3   0  -3 252.036 12.5336   2
  -3   0  -3 236.048 12.7192   9
   3  -3  -3 253.084 16.1412   3
   0  -3   3 227.280 13.1718   8
   0  -3   3 241.193 12.9622   3
   0  -3   3 254.463 14.3660   7
  -3   3   3 259.838 16.1088   3
  -3   3   3 221.988 13.6595   8
   0  -3   3 244.871 14.4932   5
   3   0   3 260.448 13.9039   7
   0  -3   3 253.563 14.3572   7
  -3   3   3 244.494 13.6497   5
   3   0   3 240.838 13.9157   8
  -3   1  -3 33.1959 3.79957   9
   1   2  -3 31.5466 3.82032   2
   2  -3  -3 35.2871 6.29124   3
  -1  -2   3 30.6444 4.51208   8
  -2   3   3 28.9214 4.67444   8
   3  -1   3 32.8015 5.08950   8
  -1  -2   3 28.1762 5.16623   5
  -1  -2   3 33.1120 4.82566   7
  -2   3   3 27.8011 5.93698   3
  -1  -2   3 21.5960 4.15439   3
   3  -1   3 34.9357 4.77635   7
   1  -3  -3 1165.78 56.0127   3
  -3   2  -3 1161.29 53.4394   9
  -3   2  -3 1204.48 53.3796   2
   3  -2   3 1152.92 54.5672   7
  -1   3   3 1161.34 55.9627   3
  -1   3   3 1087.79 53.9663   8
  -2  -1   3 1152.93 54.8475   3
  -2  -1   3 1151.25 54.1058   7
  -2  -1   3 1152.55 54.0309   8
   3  -2   3 1136.61 54.2664   8
   0  -3  -3 843.092 44.0786   3
  -3   3  -3 821.514 41.3378   2
   3   0  -3 855.103 41.3619   2
   3  -3   3 896.086 42.8940   7
   0   3   3 907.508 42.0835   8
  -3   0   3 904.619 42.2246   8
   3  -3   3 891.128 42.2790   8
  -3   0   3 927.624 43.6704   3
  -3   0   3 934.918 42.1761   7
  -1  -3  -3 400.714 18.1797   2
  -3   4  -3 388.374 18.8652   2
   4  -1  -3 410.568 18.2988   2
  -1  -3  -3 381.240 17.9180   9
  -4   1   3 374.620 19.4918   7
   3  -4   3 343.236 20.4341   7
  -4   1   3 371.466 21.5353   3
   3  -4   3 360.339 19.9933   5
   1   3   3 340.541 19.1599   8
  -4   1   3 380.960 19.9957   8
   3  -4   3 374.027 19.5489   8
   1   3   3 375.656 19.0472   7
  -3   5  -3 701.015 33.1655   2
  -2  -3  -3 653.805 32.6203   9
  -2  -3  -3 649.291 32.4896   2
   5  -2  -3 694.078 32.5783   2
  -5   2   3 665.671 33.8072   7
   2   3   3 697.051 33.6240   8
   3  -5   3 718.502 34.2360   5
   3  -5   3 724.344 33.5676   8
   3  -5   3 727.088 32.1089   1
  -5   2   3 694.061 36.2535   3
   2   3   3 669.826 33.7215   7
   3  -5   3 724.090 35.1365   7
  -5   2   3 701.264 34.3573   8
   6  -3  -3 122.814 7.65325   2
  -3   6  -3 135.174 8.62219   2
  -3  -3  -3 109.816 7.70101   2
  -3   6  -3 128.030 8.05428   1
   3  -6   3 115.469 7.38482   1
  -6   3   3 117.685 9.91947   7
   3   3   3 126.951 9.11544   8
   3  -6   3 121.194 9.82119   5
   3  -6   3 112.733 8.49747   8
   3   3   3 108.410 9.64246   7
  -6   3   3 116.061 11.8652   3
   7  -4  -3 480.000 23.8227   2
  -3   7  -3 437.563 24.2267   2
  -4  -3  -3 446.140 23.8305   2
  -3   7  -3 486.749 23.9991   1
  -7   4   3 468.065 28.6300   3
  -7   4   3 494.710 25.9820   7
   4   3   3 499.985 26.0722   7
   3  -7   3 501.824 24.1286   8
   4   3   3 516.687 25.1148   8
   4   3   3 509.294 26.9622   6
   3  -7   3 491.692 23.4744   1
  -4  -2  -3 245.099 12.6320   2
  -2   6  -3 250.846 13.3182   2
  -2   6  -3 233.490 12.4885   1
   6  -4  -3 241.656 12.4833   2
  -4  -2  -3 232.145 13.3554   9
   2  -6   3 229.048 15.7177   7
   4   2   3 223.490 13.7258   8
   2  -6   3 229.730 12.1027   1
  -6   4   3 213.261 14.2083   7
   2  -6   3 232.136 12.8256   8
   4   2   3 219.542 14.4861   7
  -6   4   3 257.257 17.7140   3
  -1   5  -3 528.412 25.2351   2
  -4  -1  -3 535.955 25.0091   2
   5  -4  -3 546.870 24.5975   2
  -4  -1  -3 497.658 25.2320   9
   4   1   3 495.086 26.4642   7
  -5   4   3 482.754 26.3874   8
   1  -5   3 509.969 27.3249   7
   1  -5   3 530.355 24.2216   1
  -5   4   3 540.698 26.0075   7
   1  -5   3 509.480 25.0923   8
   4   1   3 474.085 26.0416   8
  -5   4   3 524.561 28.8402   3
   1  -5   3 501.064 27.0493   7
  -4   0  -3 497.618 23.1205   9
   0   4  -3 505.541 22.8311   2
   4  -4  -3 499.055 26.5113   3
  -4   0  -3 501.321 22.6320   2
   4  -4  -3 516.281 22.1783   2
  -4   4   3 448.126 23.9733   8
  -4   4   3 431.634 25.9953   3
   0  -4   3 461.400 24.5578   7
   0  -4   3 437.579 22.7951   8
   4   0   3 430.005 23.9146   7
  -4   4   3 432.226 23.2161   5
   4   0   3 424.645 23.6798   8
   0  -4   3 477.899 24.8042   7
  -4   4   3 440.926 23.0201   7
  -4   1  -3 213.105 11.7968   9
  -4   1  -3 221.488 11.2685   2
   3  -4  -3 210.560 14.8304   3
   1   3  -3 217.068 11.1892   2
  -3   4   3 210.334 14.9998   3
  -1  -3   3 218.387 11.9259   3
  -3   4   3 201.905 12.4313   8
  -1  -3   3 192.724 12.9959   7
   4  -1   3 219.581 13.1293   7
  -3   4   3 189.398 11.9869   5
  -3   4   3 214.327 11.4513   7
  -1  -3   3 202.026 12.8755   7
   4  -1   3 179.746 12.4518   8
  -1  -3   3 206.973 11.7425   8
   2  -4  -3 764.995 39.7266   3
  -4   2  -3 750.987 36.7310   2
   2   2  -3 779.662 36.6099   2
  -4   2  -3 744.849 37.1599   9
   4  -2   3 765.694 37.8879   8
  -2   4   3 801.289 39.8294   3
  -2  -2   3 785.639 38.2099   7
  -2  -2   3 817.368 37.4788   8
   4  -2   3 801.463 38.5048   7
  -2  -2   3 813.537 38.1632   3
  -2   4   3 789.876 37.5448   8
  -4   3  -3 232.993 14.0986   9
   3   1  -3 248.487 13.1355   2
  -4   3  -3 251.144 13.5265   2
   1  -4  -3 242.047 16.7635   3
  -3  -1   3 275.464 14.4658   8
  -3  -1   3 272.794 14.9200   7
  -1   4   3 259.309 13.4996   7
   4  -3   3 266.788 15.4989   7
   4  -3   3 252.227 14.8534   8
  -1   4   3 258.559 16.6875   3
  -1   4   3 259.155 14.2690   8
  -1   4   3 272.503 13.7028   7
  -3  -1   3 263.600 15.6446   3
   0  -4  -3 762.914 36.1097   3
  -4   4  -3 741.142 33.4020   9
   0  -4  -3 707.693 32.0624   2
   4   0  -3 737.527 32.3679   2
  -4   4  -3 766.056 32.9887   2
   0   4   3 639.708 32.8284   7
   0   4   3 656.116 32.9271   7
   0   4   3 658.847 33.1011   8
   4  -4   3 698.176 34.7476   7
   4  -4   3 642.394 33.4160   8
  -4   0   3 617.296 34.9402   3
  -4   0   3 677.505 33.6108   8
  -4   0   3 635.282 33.5743   7
  -4   5  -3 608.221 31.6343   9
  -1  -4  -3 658.989 34.6656   3
   5  -1  -3 628.963 30.4905   2
  -1  -4  -3 607.810 30.3004   2
  -4   5  -3 631.520 31.0922   2
  -5   1   3 693.123 32.3044   8
   1   4   3 650.868 31.2090   8
   4  -5   3 639.342 31.5329   8
   4  -5   3 631.934 33.0579   7
   1   4   3 669.388 31.6330   7
  -5   1   3 653.493 32.0650   7
   4  -5   3 668.224 29.9752   1
  -5   1   3 634.322 34.0243   3
   4  -5   3 637.771 31.8888   5
   6  -2  -3 1700.09 78.2337   2
  -2  -4  -3 1611.84 78.0610   2
  -4   6  -3 1667.25 78.7488   2
  -4   6  -3 1658.30 78.1829   1
  -4   6  -3 1622.03 79.3115   9
  -6   2   3 1730.38 79.8583   7
  -6   2   3 1774.48 82.2405   3
   2   4   3 1765.02 78.9914   8
   2   4   3 1791.98 81.4969   6
   4  -6   3 1690.80 79.3994   5
   2   4   3 1693.20 79.5287   7
   4  -6   3 1693.93 78.9875   8
   4  -6   3 1709.78 77.7595   1
  -3  -4  -3 465.887 22.8823   2
  -4   7  -3 486.086 23.6732   2
  -4   7  -3 493.162 23.1846   1
   7  -3  -3 491.031 23.0065   2
   4  -7   3 458.325 23.5513   8
  -7   3   3 443.486 27.5258   3
   3   4   3 451.621 24.8087   7
  -7   3   3 459.444 25.2129   7
   4  -7   3 448.658 24.2811   5
   3   4   3 461.834 26.5098   6
   3   4   3 444.842 23.6631   8
   4  -7   3 445.717 22.5258   1
  -4  -4  -3 204.917 12.4743   2
  -4   8  -3 210.437 12.6129   1
  -4   8  -3 200.698 13.1557   2
  -4   8  -3 201.488 14.4574   9
   8  -4  -3 199.974 12.3186   2
   4   4   3 209.831 13.2799   8
   4  -8   3 196.619 11.9044   1
   4   4   3 215.811 16.2384   6
  -8   4   3 211.350 15.2231   7
  -8   4   3 201.234 18.0652   3
   4  -8   3 233.529 13.2181   2
   4  -8   3 217.765 12.5465   8
  -4   9  -3 56.2685 8.78374   9
  -4   9  -3 57.6896 7.29790   2
  -4   9  -3 63.0443 6.88434   1
  -5  -4  -3 73.2762 7.04027   2
   9  -5  -3 74.0538 6.89648   2
   5   4   3 67.0746 9.85892   6
  -9   5   3 71.1038 9.55141   7
   5   4   3 57.3173 7.79702   8
   4  -9   3 65.9977 7.36990   2
   4  -9   3 66.0815 6.28361   1
   8  -5  -3 386.501 20.3223   2
  -3   8  -3 378.839 20.9382   2
  -5  -3  -3 364.955 20.3754   2
  -3   8  -3 368.209 20.2429   1
   3  -8   3 407.395 21.0307   2
   3  -8   3 389.218 23.9257   7
   5   3   3 413.412 21.4542   8
   3  -8   3 393.622 20.1047   8
  -8   5   3 415.888 25.8405   3
   5   3   3 402.363 23.5337   6
  -8   5   3 423.069 23.1326   7
   3  -8   3 397.232 19.9746   1
  -2   7  -3 239.198 15.0697   2
  -5  -2  -3 262.086 15.5050   9
  -2   7  -3 240.071 14.2639   1
   7  -5  -3 250.783 14.2565   2
  -5  -2  -3 237.836 14.3495   2
  -7   5   3 305.842 20.0725   3
   2  -7   3 286.271 14.1437   1
   2  -7   3 273.310 14.2297   8
   2  -7   3 277.947 18.0185   7
  -7   5   3 289.543 17.0007   7
   5   2   3 274.102 16.8452   7
   5   2   3 291.162 16.1030   8
  -5  -1  -3 183.599 11.1061   9
  -1   6  -3 192.408 9.89381   1
   6  -5  -3 184.112 9.78095   2
   6  -5  -3 167.554 9.85884   9
  -5  -1  -3 176.002 10.0365   2
  -1   6  -3 190.004 10.5858   2
   5   1   3 142.685 11.9148   7
   1  -6   3 147.084 12.7840   7
  -6   5   3 142.402 11.6647   7
  -6   5   3 145.557 14.5234   3
   1  -6   3 143.195 9.60090   8
   1  -6   3 147.171 9.35899   1
   0   5  -3 183.998 9.62994   1
  -5   0  -3 183.446 10.2674   2
   0   5  -3 183.121 10.3504   2
   5  -5  -3 189.741 9.68295   2
  -5   0  -3 177.247 11.0538   9
   5  -5  -3 173.057 9.66875   9
   5   0   3 165.624 12.0450   7
  -5   5   3 172.922 11.4153   7
   0  -5   3 169.457 10.0903   8
  -5   5   3 158.825 14.3651   3
  -5   5   3 160.328 10.4609   5
  -5   5   3 159.829 12.1436   8
   0  -5   3 170.131 12.5596   7
   0  -5   3 164.300 9.29992   1
   0  -5   3 159.843 12.8068   7
   4  -5  -3 50.6929 4.77896   9
  -5   1  -3 59.9137 6.29672   9
   4  -5  -3 59.4566 5.05982   2
   4  -5  -3 52.4307 8.38392   3
  -5   1  -3 59.5824 5.38251   2
   1   4  -3 59.8815 5.31728   2
  -1  -4   3 71.9970 7.66361   7
  -4   5   3 66.6042 6.32701   7
  -4   5   3 76.1846 7.12145   8
  -4   5   3 68.1051 5.93208   5
  -1  -4   3 66.4463 7.34122   7
  -4   5   3 57.7952 8.49755   3
  -1  -4   3 81.3670 6.15359   8
  -1  -4   3 75.2667 6.07274   3
   5  -1   3 57.6489 7.01905   7
   3  -5  -3 222.867 10.5052   9
   3  -5  -3 212.231 15.1858   3
  -5   2  -3 207.980 11.4251   2
  -5   2  -3 220.643 12.5644   9
   3  -5  -3 220.652 10.7343   2
   2   3  -3 211.895 11.3958   2
  -3   5   3 199.921 12.1761   7
  -2  -3   3 194.849 12.4440   3
  -3   5   3 189.298 12.2303   8
  -3   5   3 192.109 15.1275   3
  -2  -3   3 201.882 11.9890   8
  -2  -3   3 186.601 13.4792   7
   5  -2   3 208.076 13.7978   7
   3   2  -3 2530.94 118.580   2
   2  -5  -3 2561.92 118.155   2
   2  -5  -3 2562.99 118.033   9
  -5   3  -3 2504.99 118.793   2
   2  -5  -3 2610.06 121.741   3
  -5   3  -3 2538.47 119.359   9
  -3  -2   3 2685.36 119.359   8
  -2   5   3 2591.01 119.259   8
  -2   5   3 2637.87 119.106   7
   5  -3   3 2648.38 120.847   7
  -3  -2   3 2588.13 120.266   7
  -2   5   3 2599.17 121.684   3
  -2   5   3 2694.54 119.244   7
  -5   4  -3 1241.54 57.3937   2
   4   1  -3 1270.31 57.0312   2
   1  -5  -3 1240.82 56.6374   9
   1  -5  -3 1281.53 60.5330   3
  -5   4  -3 1268.69 58.1218   9
   1  -5  -3 1208.86 56.6474   2
  -1   5   3 1210.74 57.6656   7
  -4  -1   3 1225.72 58.0257   8
  -4  -1   3 1226.70 58.7032   7
  -1   5   3 1156.80 57.5229   8
  -1   5   3 1231.11 57.8203   7
   5  -4   3 1205.73 59.4403   7
  -5   5  -3 696.211 33.1817   1
  -5   5  -3 725.263 34.5943   9
  -5   5  -3 740.598 33.9332   2
   0  -5  -3 669.415 32.9176   2
   5   0  -3 694.811 33.1178   2
   0   5   3 690.829 34.2924   7
   0   5   3 681.310 34.1493   7
   5  -5   3 702.413 35.9264   7
  -5   0   3 698.661 34.9087   7
   0   5   3 743.427 36.9648   6
   0   5   3 678.547 33.6337   8
  -5   0   3 689.844 34.5443   8
   5  -5   3 700.539 32.5779   1
  -1  -5  -3 167.124 10.0089   2
  -5   6  -3 180.520 11.3332   2
  -5   6  -3 174.136 10.5156   1
   6  -1  -3 162.904 10.0691   2
  -5   6  -3 187.548 12.5313   9
   5  -6   3 183.598 9.80077   1
   1   5   3 164.722 10.7336   8
   1   5   3 168.654 14.7488   6
  -6   1   3 168.493 12.3721   7
   1   5   3 171.635 12.0262   7
   5  -6   3 190.265 11.9315   5
  -5   7  -3 110.773 9.40082   9
  -5   7  -3 103.145 8.67877   2
  -2  -5  -3 89.5223 7.14593   2
   7  -2  -3 102.203 7.50508   2
  -5   7  -3 99.6102 8.03949   1
   5  -7   3 96.5999 8.39432   8
   2   5   3 74.7226 8.64428   7
  -7   2   3 83.6359 9.66821   7
   5  -7   3 81.7075 8.04791   5
   2   5   3 94.1251 10.8679   6
   2   5   3 90.3470 7.67447   8
   5  -7   3 87.7719 7.01123   1
   8  -3  -3 785.941 38.4025   2
  -5   8  -3 781.291 40.0964   9
  -3  -5  -3 733.752 38.3420   2
  -5   8  -3 771.563 39.1104   2
  -5   8  -3 758.452 38.4319   1
   5  -8   3 811.111 39.0337   2
   3   5   3 805.696 42.2269   6
   5  -8   3 839.413 39.0277   8
   3   5   3 855.029 38.9844   8
  -8   3   3 828.575 41.0763   7
   5  -8   3 851.253 38.0969   1
  -5   9  -3 240.174 17.0460   9
   9  -4  -3 245.101 14.6768   2
  -5   9  -3 250.535 14.9915   1
  -4  -5  -3 234.833 14.5357   2
  -5   9  -3 221.553 15.5905   2
  -9   4   3 259.654 18.0697   7
   5  -9   3 269.239 15.5370   2
   5  -9   3 271.901 15.1012   8
   5  -9   3 256.017 14.3598   1
   4   5   3 288.118 19.6323   6
   4   5   3 264.977 15.1735   8
  -5  10  -3 111.399 9.68764   2
  -5  -5  -3 93.9927 8.56972   2
  -5  10  -3 104.097 8.87951   1
  10  -5  -3 104.194 8.90475   2
 -10   5   3 85.6824 11.2674   7
   5 -10   3 82.1525 7.80708   1
   5   5   3 111.290 12.6584   6
   5   5   3 107.133 9.53088   8
   5 -10   3 108.710 9.50097   2
  11  -6  -3 11.5515 5.85309   2
  -5  11  -3 20.6191 6.63448   2
  -5  11  -3 9.14380 5.83708   1
  -6  -5  -3 13.8031 5.84949   2
   6   5   3 9.31257 8.12234   6
   5 -11   3 5.24629 5.63179   2
   5 -11   3 12.2459 5.21874   1
 -11   6   3 1.49382 7.94523   7
  -4  10  -3 34.1455 6.68343   2
  10  -6  -3 49.1595 6.63279   2
  -4  10  -3 56.6891 6.82066   1
  -6  -4  -3 44.1381 6.75358   2
   4 -10   3 53.7835 6.20738   1
   4 -10   3 48.9843 7.02151   2
   6   4   3 72.0067 8.46444   8
   6   4   3 46.2218 9.34767   6
 -10   6   3 38.9794 9.71470   7
  -3   9  -3 35.4738 5.77482   1
  -6  -3  -3 45.0248 6.25743   2
   9  -6  -3 36.7155 5.60294   2
  -3   9  -3 38.5514 6.45314   2
   3  -9   3 41.3725 6.35161   2
  -9   6   3 48.5637 8.69034   7
   3  -9   3 35.5588 5.47059   1
   6   3   3 47.2405 7.42719   8
   6   3   3 46.7156 8.35979   6
  -6  -2  -3 194.967 12.2428   2
   8  -6  -3 197.954 12.0821   2
  -2   8  -3 220.853 12.2934   1
  -2   8  -3 210.909 13.1244   2
  -8   6   3 199.392 17.6960   3
   2  -8   3 194.150 12.6009   2
   2  -8   3 179.664 15.7200   7
  -8   6   3 180.477 14.7695   7
   2  -8   3 193.908 11.7434   1
  -1   7  -3 868.887 41.6867   2
  -1   7  -3 872.010 41.0164   1
   7  -6  -3 867.102 41.1257   2
  -6  -1  -3 899.085 42.2622   9
  -6  -1  -3 858.699 41.4119   2
  -7   6   3 848.140 45.7718   3
   1  -7   3 849.744 44.5168   7
  -7   6   3 862.140 43.1485   7
   1  -7   3 862.722 41.3856   8
   1  -7   3 899.672 41.7471   2
   1  -7   3 842.538 40.7640   1
  -6   0  -3 1659.86 77.0208   2
   6  -6  -3 1592.54 76.9165   9
   6  -6  -3 1638.10 76.5483   2
  -6   0  -3 1616.35 77.5496   9
   0   6  -3 1649.05 76.4760   1
   0   6  -3 1642.79 77.1247   2
   0  -6   3 1678.03 76.2270   1
   0  -6   3 1725.49 79.8095   7
  -6   6   3 1671.23 80.8540   3
   0  -6   3 1691.38 76.5699   8
  -6   6   3 1718.21 78.3806   7
   6   0   3 1641.76 79.0289   7
   1   5  -3 1017.63 46.7040   1
   5  -6  -3 1027.35 46.8465   2
  -6   1  -3 999.880 47.9940   9
   1   5  -3 1000.92 47.2600   2
  -6   1  -3 994.839 47.2231   2
   5  -6  -3 1017.14 46.9391   9
  -5   6   3 963.040 48.2276   8
  -5   6   3 967.754 47.0213   5
  -1  -5   3 995.958 46.3722   1
  -1  -5   3 997.528 49.3878   7
  -5   6   3 1004.95 48.4132   7
  -1  -5   3 1026.93 47.0796   8
  -1  -5   3 1020.58 49.7675   7
   6  -1   3 988.088 49.3470   7
  -5   6   3 1014.24 50.9151   3
  -6   2  -3 543.110 27.6135   9
   4  -6  -3 518.632 26.1269   9
   2   4  -3 584.396 26.7940   2
  -6   2  -3 569.762 26.8880   2
   4  -6  -3 554.186 26.2170   2
   2   4  -3 559.352 26.0862   1
   6  -2   3 519.396 28.8104   7
  -2  -4   3 530.994 28.5705   7
  -2  -4   3 570.789 29.1581   7
  -4   6   3 520.994 27.6039   8
  -2  -4   3 545.779 26.7965   8
  -2  -4   3 550.791 25.5969   1
  -4   6   3 542.430 30.3874   3
  -4   6   3 527.919 27.7436   7
   3   3  -3 212.543 11.7517   2
  -6   3  -3 216.678 12.1114   2
   3  -6  -3 205.352 11.4227   9
   3  -6  -3 212.307 11.1889   2
  -6   3  -3 226.235 13.2808   9
  -3   6   3 203.231 16.0250   3
  -3  -3   3 207.248 12.3346   8
  -3  -3   3 199.225 14.0752   7
  -3   6   3 205.975 12.5751   8
   6  -3   3 198.794 14.4888   7
  -3   6   3 220.098 13.2748   7
   2  -6  -3 825.443 39.0413   9
  -6   4  -3 838.107 39.2572   1
   2  -6  -3 850.415 39.0218   2
  -6   4  -3 859.150 39.8135   2
  -6   4  -3 864.823 40.6142   9
   4   2  -3 861.411 39.4257   2
  -4  -2   3 816.542 41.3907   7
  -2   6   3 831.266 39.9246   8
   6  -4   3 804.790 41.9865   7
  -2   6   3 813.531 42.7844   3
  -4  -2   3 808.348 40.1444   8
  -2   6   3 815.759 40.4411   7
  -2   6   3 841.391 40.3985   7
   6  -4   3 818.097 38.4533   1
  -6   5  -3 18.7743 5.45666   9
  -6   5  -3 12.1319 4.02687   2
  -6   5  -3 13.1116 3.76267   1
   1  -6  -3 15.8472 3.32323   2
   5   1  -3 22.5453 3.72502   2
   6  -5   3 10.4553 2.96809   1
  -1   6   3 15.3464 4.89377   7
  -5  -1   3 11.8683 4.74933   7
  -1   6   3 18.0763 4.37072   8
   6  -5   3 15.2885 5.32770   7
  -1   6   3 15.7874 6.82800   6
  -1   6   3 10.1782 4.71789   7
  -6   6  -3 356.386 19.9539   9
  -6   6  -3 377.196 19.0303   2
   0  -6  -3 340.963 17.8408   2
  -6   6  -3 355.150 18.2177   1
   6   0  -3 374.072 18.1214   2
   6  -6   3 359.050 17.5239   1
   0   6   3 322.217 19.4922   7
   0   6   3 324.875 18.3155   8
  -6   0   3 369.470 20.5109   7
   0   6   3 368.975 22.4489   6
   0   6   3 338.274 19.7770   7
   6  -6   3 333.950 19.1152   5
  -1  -6  -3 265.796 13.2594   2
  -6   7  -3 256.614 13.8610   1
  -6   7  -3 291.956 16.1526   9
   7  -1  -3 276.694 13.5075   2
  -6   7  -3 286.829 14.8114   2
   1   6   3 231.559 13.5317   8
   6  -7   3 203.033 14.2584   5
   1   6   3 231.575 17.8056   6
   6  -7   3 201.699 12.7955   1
   1   6   3 200.600 15.2497   7
   6  -7   3 215.780 13.9114   2
  -7   1   3 214.832 15.7585   7
  -6   8  -3 104.514 9.22883   2
   8  -2  -3 103.276 8.61369   2
  -6   8  -3 109.253 11.1795   9
  -6   8  -3 98.7519 8.52033   1
  -2  -6  -3 97.7072 8.55368   2
   6  -8   3 120.648 8.47160   1
   6  -8   3 107.983 9.31717   5
   6  -8   3 112.411 9.16456   2
  -8   2   3 116.530 12.1555   7
   2   6   3 124.658 8.71588   8
   2   6   3 124.321 12.9840   6
   9  -3  -3 150.367 10.3678   2
  -6   9  -3 169.077 14.2203   9
  -3  -6  -3 130.023 9.71984   2
  -6   9  -3 151.195 10.9673   1
  -6   9  -3 151.903 11.5419   2
  -9   3   3 130.750 12.7219   7
   6  -9   3 110.863 9.52710   1
   6  -9   3 120.520 10.5297   2
   3   6   3 114.839 10.2026   8
   3   6   3 117.023 13.8895   6
  -6  10  -3 30.6851 6.47062   1
  -6  10  -3 31.9365 6.81059   2
  10  -4  -3 43.7434 6.24816   2
  -4  -6  -3 38.7455 6.04531   2
   6 -10   3 25.3644 6.18420   2
   4   6   3 30.7072 9.64887   6
   6 -10   3 32.6061 5.57029   1
 -10   4   3 29.5469 8.04011   7
  -6  11  -3 27.9200 6.68732   1
  -5  -6  -3 17.8597 6.22058   2
  11  -5  -3 22.4642 6.24000   2
  -6  11  -3 23.0236 7.27009   2
 -11   5   3 33.3743 9.55502   7
   5   6   3 34.6004 9.88348   6
   6 -11   3 24.1086 6.60178   2
   6 -11   3 30.0453 5.53782   1
  -6  12  -3 132.592 11.5173   1
  -6  12  -3 132.438 12.6713   2
  -6  -6  -3 127.150 11.8460   2
  12  -6  -3 139.022 11.7215   2
   6   6   3 143.700 16.0465   6
   6 -12   3 177.493 13.5978   2
   6 -12   3 154.108 11.8667   1
  -6  13  -3 97.8875 11.5513   2
  -7  -6  -3 94.7213 10.5289   2
  -6  13  -3 80.7939 10.1208   1
  13  -7  -3 85.0516 9.91502   2
   6 -13   3 73.4862 8.61209   1
   6 -13   3 67.3365 9.64730   2
   7   6   3 55.6545 12.2825   6
  -7  -5  -3 51.7266 8.30654   2
  -5  12  -3 42.3222 8.43059   2
  12  -7  -3 57.7565 8.33747   2
  -5  12  -3 46.2521 7.76284   1
   5 -12   3 49.9461 8.53643   2
 -12   7   3 48.8578 11.9839   7
   7   5   3 51.4538 10.8583   6
   5 -12   3 52.3524 7.19283   1
  -4  11  -3 107.833 9.99908   1
  -7  -4  -3 129.744 11.1358   2
  -4  11  -3 121.709 11.1440   2
  11  -7  -3 136.326 10.8809   2
   7   4   3 146.508 12.2475   8
   7   4   3 111.891 13.0081   6
   4 -11   3 121.957 9.83992   1
 -11   7   3 132.527 14.1175   7
   4 -11   3 138.759 11.9167   2
  -3  10  -3 78.9869 7.94351   1
  -3  10  -3 80.5277 8.87363   2
  10  -7  -3 77.9388 8.00816   2
  -7  -3  -3 94.3192 8.97459   2
   7   3   3 72.8776 10.2153   6
   3 -10   3 85.7237 7.74076   1
   3 -10   3 94.8013 9.16529   2
 -10   7   3 78.0110 10.9211   7
  -2   9  -3 278.371 16.7013   2
  -7  -2  -3 280.776 16.5814   2
  -2   9  -3 263.779 16.0206   1
   9  -7  -3 262.323 16.0941   2
  -9   7   3 279.088 19.4856   7
   2  -9   3 286.357 15.7035   1
   2  -9   3 301.338 16.5841   2
   8  -7  -3 748.693 36.0749   2
  -1   8  -3 763.467 35.8601   1
  -7  -1  -3 725.539 36.2721   2
  -1   8  -3 742.038 36.5649   2
   1  -8   3 763.537 35.6752   1
  -8   7   3 737.891 41.1674   3
   1  -8   3 754.909 40.3155   7
  -8   7   3 700.576 38.4491   7
   1  -8   3 747.201 36.4753   2
  -7   0  -3 528.583 27.6795   2
   7  -7  -3 525.821 27.1090   2
  -7   0  -3 532.719 28.6217   9
   0   7  -3 515.060 26.9492   1
   0   7  -3 511.187 27.7762   2
  -7   7   3 564.396 32.4295   3
   0  -7   3 567.112 30.8167   7
   0  -7   3 582.793 27.7975   2
   0  -7   3 575.857 26.7731   1
  -7   7   3 614.747 30.0790   7
  -7   1  -3 202.012 13.5196   9
  -7   1  -3 192.902 11.9329   2
  -7   1  -3 217.091 12.8613   1
   6  -7  -3 194.273 11.4198   2
   1   6  -3 199.744 11.2731   1
   1   6  -3 195.670 11.7666   2
  -1  -6   3 192.663 11.3713   8
  -6   7   3 203.509 16.9804   3
  -1  -6   3 196.134 15.1061   7
  -1  -6   3 209.744 11.0751   1
  -6   7   3 173.928 11.5819   5
  -6   7   3 177.676 13.7473   7
  -7   2  -3 42.5756 7.00118   9
   2   5  -3 42.1445 5.05779   2
   2   5  -3 44.0345 4.50331   1
   5  -7  -3 35.2861 7.27809   9
  -7   2  -3 46.6872 5.27972   1
  -7   2  -3 40.5229 5.23089   2
   5  -7  -3 35.0849 4.49079   2
  -2  -5   3 35.8902 4.92954   8
  -5   7   3 31.9781 4.58542   5
  -5   7   3 34.9810 6.62061   7
  -5   7   3 19.0123 7.58454   3
  -2  -5   3 30.4724 4.03081   1
  -2  -5   3 40.8895 7.77519   7
  -5   7   3 27.1165 6.15810   8
   4  -7  -3 1387.98 64.8062   2
   4  -7  -3 1370.63 65.0949   9
  -7   3  -3 1329.96 64.9365   1
  -7   3  -3 1271.44 65.2313   6
  -7   3  -3 1389.08 65.4646   2
   3   4  -3 1366.85 64.6358   1
   3   4  -3 1399.62 65.2773   2
  -7   3  -3 1392.31 66.3507   9
  -4   7   3 1440.87 65.9202   8
  -3  -4   3 1477.59 65.4990   8
  -3  -4   3 1429.05 67.7501   7
   7  -3   3 1382.11 64.0386   1
  -3  -4   3 1435.59 64.3044   1
  -4   7   3 1454.57 69.0190   3
  -4   7   3 1496.64 66.8931   7
   3  -7  -3 371.887 19.9029   9
   4   3  -3 396.260 20.0625   2
   4   3  -3 411.751 19.5730   1
   3  -7  -3 395.487 19.7693   2
  -7   4  -3 400.457 21.7276   9
  -7   4  -3 399.966 20.5803   2
  -7   4  -3 383.804 20.0865   1
  -3   7   3 368.160 20.4858   8
   7  -4   3 407.918 19.1313   1
  -3   7   3 401.762 24.3619   3
  -4  -3   3 396.177 22.7610   7
  -3   7   3 391.934 21.8186   7
  -7   5  -3 192.253 11.9233   1
  -7   5  -3 208.192 12.6624   2
   2  -7  -3 201.953 11.5434   2
   5   2  -3 204.101 11.7967   2
   5   2  -3 211.849 11.1960   1
  -7   5  -3 193.318 13.9508   9
  -2   7   3 215.395 16.7701   6
   7  -5   3 194.244 10.9836   1
  -2   7   3 196.735 12.1915   8
  -2   7   3 199.987 13.7646   7
  -5  -2   3 210.766 14.5629   7
  -2   7   3 190.277 13.8000   7
  -7   6  -3 101.969 8.84566   1
  -7   6  -3 110.632 10.2019   9
  -7   6  -3 111.255 9.14456   2
   1  -7  -3 107.392 7.99602   2
   6   1  -3 96.0023 8.02053   2
  -1   7   3 108.639 10.6445   7
  -1   7   3 113.054 10.7974   7
  -6  -1   3 112.649 11.0100   7
  -1   7   3 111.906 8.43577   8
   7  -6   3 104.289 7.71902   1
   7  -6   3 110.376 9.40138   2
  -1   7   3 124.801 13.1291   6
   7   0  -3 302.407 16.6261   2
  -7   7  -3 326.419 18.9974   9
   0  -7  -3 305.138 16.4680   2
  -7   7  -3 280.680 16.8308   1
  -7   7  -3 288.534 17.4723   2
   0   7   3 308.276 16.6498   8
   7  -7   3 302.289 16.1769   1
   0   7   3 326.072 22.2036   6
  -7   0   3 318.573 19.4815   7
   7  -7   3 316.908 17.2116   2
   0   7   3 332.403 19.0571   7
   7  -7   3 308.951 17.6840   5
   0   7   3 312.311 18.9330   7
   8  -1  -3 212.479 13.5491   2
  -7   8  -3 214.501 14.9568   2
  -7   8  -3 229.951 16.2944   9
  -1  -7  -3 211.700 13.5923   2
  -7   8  -3 204.990 14.0688   1
   7  -8   3 246.814 14.7805   5
  -8   1   3 271.983 17.3967   7
   7  -8   3 235.127 14.2373   2
   1   7   3 254.430 13.5985   8
   1   7   3 240.331 19.6072   6
   7  -8   3 247.754 13.2722   1
  -2  -7  -3 96.7027 7.90773   2
  -7   9  -3 84.2769 8.03004   1
   9  -2  -3 96.6783 8.00478   2
  -7   9  -3 106.743 9.30747   2
   7  -9   3 74.0308 8.35737   2
   7  -9   3 78.3197 7.12551   1
   2   7   3 66.9701 11.9074   6
  -9   2   3 80.1267 10.7844   7
  -7  10  -3 520.224 27.2048   2
  -7  10  -3 516.636 26.1584   1
  -3  -7  -3 527.788 26.1704   2
  10  -3  -3 511.834 25.9483   2
   3   7   3 485.354 31.3905   6
 -10   3   3 463.239 29.0488   7
   7 -10   3 465.878 26.4371   2
   7 -10   3 477.677 25.2543   1
  -4  -7  -3 336.783 19.2766   2
  -7  11  -3 339.983 19.5737   1
  -7  11  -3 335.519 20.7536   2
  11  -4  -3 349.710 19.3773   2
 -11   4   3 319.032 23.1713   7
   7 -11   3 312.381 19.6384   2
   4   7   3 319.966 24.7228   6
   7 -11   3 306.009 18.3629   1
  12  -5  -3 150.346 11.8342   2
  -7  12  -3 130.573 11.1536   1
  -7  12  -3 132.893 12.5325   2
  -5  -7  -3 127.620 11.2703   2
   7 -12   3 123.580 10.2212   1
   7 -12   3 114.744 11.3240   2
   5   7   3 109.913 15.2693   6
  -7  13  -3 17.7197 7.84486   1
  13  -6  -3 32.9932 8.01482   2
  -6  -7  -3 22.9220 7.90003   2
  -7  13  -3 24.9829 9.13832   2
   7 -13   3 35.0927 6.82273   1
   7 -13   3 32.9016 8.18386   2
   6   7   3 39.3668 11.6441   6
  -7  14  -3 22.2630 8.70626   1
  -7  14  -3 -0.1736 9.02752   2
  14  -7  -3 11.9172 7.94763   2
  -7  -7  -3 9.93373 7.77986   2
   7 -14   3 11.3271 8.10537   2
   7   7   3 -5.9098 9.48724   6
   7 -14   3 -3.2227 5.95090   1
  -7  15  -3 80.6001 13.2559   2
  -7  15  -3 56.9156 10.8889   1
  -8  -7  -3 73.6040 11.2986   2
  15  -8  -3 70.0724 10.7071   2
   7 -15   3 53.9414 8.92227   1
  14  -8  -3 92.3050 11.0937   2
  -8  -6  -3 95.8903 11.3198   2
  -6  14  -3 93.1895 10.9263   1
  -6  14  -3 108.412 12.9581   2
   6 -14   3 74.5774 11.2130   2
   6 -14   3 70.5590 9.20226   1
  13  -8  -3 52.1426 9.05523   2
  -5  13  -3 71.1620 10.4642   2
  -5  13  -3 60.2848 9.22291   1
  -8  -5  -3 83.8681 9.94972   2
   5 -13   3 79.5358 10.2835   2
   5 -13   3 51.0049 7.95880   1
  -4  12  -3 78.0528 8.97019   1
  12  -8  -3 77.3097 9.29835   2
  -8  -4  -3 66.8449 9.40500   2
  -4  12  -3 86.1453 10.4023   2
   4 -12   3 91.4869 8.62065   1
 -12   8   3 80.5029 12.9694   7
   4 -12   3 73.9897 9.70191   2
   8   4   3 85.5268 11.1232   8
  11  -8  -3 167.522 12.6184   2
  -3  11  -3 162.290 13.1105   1
  -3  11  -3 151.667 13.3038   2
  -8  -3  -3 165.910 13.3761   2
   3 -11   3 171.093 12.4541   1
 -11   8   3 170.826 17.1940   7
   3 -11   3 170.194 13.7802   2
  -2  10  -3 129.393 11.0647   1
  10  -8  -3 132.339 11.1205   2
  -8  -2  -3 135.197 11.4226   2
  -2  10  -3 130.111 11.2491   2
 -10   8   3 151.953 15.3695   7
   2 -10   3 134.841 10.7215   1
   2 -10   3 131.680 11.3952   2
  -1   9  -3 173.642 13.2429   2
  -1   9  -3 170.498 12.1442   1
  -8  -1  -3 190.896 12.7461   2
   9  -8  -3 199.130 12.4461   2
  -9   8   3 209.081 16.5718   7
   1  -9   3 162.303 12.7121   2
   1  -9   3 183.386 11.7841   1
   8  -8  -3 256.703 15.0642   2
   0   8  -3 260.821 14.9624   1
  -8   0  -3 262.303 15.5720   2
  -8   0  -3 291.199 17.4665   9
   0  -8   3 252.606 14.5885   1
  -8   8   3 259.928 18.2285   7
   0  -8   3 249.953 15.4582   2
   7  -8  -3 388.087 20.5793   2
  -8   1  -3 391.732 21.2732   2
  -8   1  -3 346.362 23.6570   1
   1   7  -3 388.927 20.3958   1
   1   7  -3 369.165 20.8467   2
  -8   1  -3 384.460 22.5587   9
  -1  -7   3 414.486 21.0761   2
  -1  -7   3 401.982 24.4204   7
  -7   8   3 430.724 26.4321   3
  -1  -7   3 411.151 20.2564   1
   8  -1   3 406.345 19.0998   1
  -7   8   3 410.295 23.6001   7
  -8   2  -3 217.579 15.0398   9
  -8   2  -3 221.665 13.3939   1
   2   6  -3 229.748 12.8042   1
   6  -8  -3 222.999 12.9617   2
   2   6  -3 227.691 13.5573   2
  -8   2  -3 236.600 13.8306   2
  -2  -6   3 204.425 16.4417   7
   8  -2   3 227.403 11.8119   1
  -6   8   3 214.424 15.8481   7
  -2  -6   3 226.716 12.5478   1
  -2  -6   3 246.143 13.5233   2
  -6   8   3 200.644 18.0282   3
   3   5  -3 132.619 9.04243   2
   5  -8  -3 126.436 8.67782   2
  -8   3  -3 133.501 9.58762   1
  -8   3  -3 110.619 9.45081   2
   3   5  -3 129.694 8.47383   1
  -8   3  -3 113.263 10.3068   9
  -3  -5   3 116.960 8.02117   1
  -3  -5   3 123.956 12.3032   7
  -3  -5   3 120.105 9.01473   2
  -5   8   3 113.535 12.6890   3
  -5   8   3 116.637 11.2474   7
   8  -3   3 104.546 7.67701   1
   4  -8  -3 374.115 19.2888   2
  -8   4  -3 371.570 19.6453   1
   4   4  -3 404.038 19.1028   1
  -8   4  -3 369.460 19.9270   2
   4   4  -3 369.799 19.6580   2
  -8   4  -3 392.835 21.5231   9
   8  -4   3 351.867 18.4302   1
  -4   8   3 389.475 24.1697   3
  -4   8   3 363.780 21.8102   7
  -4  -4   3 368.106 22.5420   7
  -4   8   3 367.825 20.2124   8
  -4  -4   3 367.197 18.4650   1
   5   3  -3 528.237 26.8531   2
   5   3  -3 542.023 26.3046   1
  -8   5  -3 505.813 26.7991   1
  -8   5  -3 510.469 28.5414   9
   3  -8  -3 547.352 26.6142   2
  -8   5  -3 509.811 27.1724   2
   8  -5   3 520.493 26.9338   2
  -5  -3   3 567.654 29.8919   7
   8  -5   3 551.179 25.9294   1
  -5  -3   3 549.205 25.6609   1
  -3   8   3 527.838 27.0184   8
  -3   8   3 581.967 31.2584   3
  -3   8   3 561.103 29.0465   7
  -3   8   3 542.712 31.2773   6
  -8   6  -3 189.281 13.6420   2
   6   2  -3 218.848 13.0940   2
  -8   6  -3 204.526 13.3552   1
   6   2  -3 202.356 12.2282   1
  -8   6  -3 204.615 15.2240   9
   2  -8  -3 196.907 12.5913   2
  -2   8   3 235.106 15.6734   7
  -2   8   3 257.264 15.9044   7
  -2   8   3 226.472 19.0242   6
   8  -6   3 240.314 12.3523   1
   8  -6   3 221.978 13.3607   2
  -2   8   3 213.752 12.9056   8
  -6  -2   3 241.469 16.1578   7
  -8   7  -3 249.575 16.1682   9
  -8   7  -3 229.014 13.7854   1
  -8   7  -3 235.540 14.4874   2
   1  -8  -3 208.701 13.0174   2
   7   1  -3 219.475 13.4330   2
   8  -7   3 236.982 12.9879   1
  -1   8   3 231.646 16.1929   7
   8  -7   3 210.798 13.6433   2
  -1   8   3 216.571 18.7122   6
  -1   8   3 224.861 13.3209   8
  -7  -1   3 219.360 16.4135   7
  -8   8  -3 164.138 14.6359   9
  -8   8  -3 175.999 12.8910   2
  -8   8  -3 180.440 12.4547   1
   8   0  -3 168.230 11.6245   2
   0  -8  -3 177.539 11.3777   2
   0   8   3 174.615 14.3825   7
   0   8   3 194.411 18.1216   6
   8  -8   3 161.094 12.2754   2
  -8   0   3 184.771 15.2597   7
   8  -8   3 177.050 11.2754   1
   8  -8   3 189.592 12.7920   5
  -8   9  -3 150.019 12.3677   2
  -1  -8  -3 149.529 11.3972   2
   9  -1  -3 142.549 11.2085   2
  -8   9  -3 166.638 12.4557   1
   8  -9   3 162.722 11.0137   1
  -9   1   3 176.628 15.6010   7
   1   8   3 145.454 16.4646   6
   8  -9   3 164.081 12.3084   2
  -8  10  -3 562.814 30.5086   2
  -2  -8  -3 545.089 29.2093   2
  -8  10  -3 580.605 29.7128   1
  10  -2  -3 583.080 29.4131   2
   8 -10   3 577.641 28.5496   1
 -10   2   3 586.624 33.1069   7
   8 -10   3 555.399 29.9140   2
   2   8   3 575.081 35.3482   6
  -8  11  -3 220.622 17.6989   2
  11  -3  -3 250.104 16.0084   2
  -8  11  -3 262.070 17.0416   1
  -3  -8  -3 230.720 15.8362   2
   8 -11   3 261.540 15.5025   1
   3   8   3 265.399 22.6632   6
   8 -11   3 257.026 17.0520   2
  12  -4  -3 194.212 13.6422   2
  -8  12  -3 162.640 13.0475   1
  -8  12  -3 172.907 14.4992   2
  -4  -8  -3 153.999 13.1110   2
   8 -12   3 149.488 13.2795   2
   8 -12   3 161.098 12.6506   1
   4   8   3 130.340 17.3532   6
  -8  13  -3 -0.0666 7.59022   1
  -8  13  -3 15.0384 8.92787   2
  -5  -8  -3 -9.1337 6.47607   2
  13  -5  -3 9.79280 7.00271   2
   8 -13   3 4.33800 6.10236   1
   8 -13   3 1.52871 7.23807   2
   5   8   3 12.4787 10.5978   6
  -8  14  -3 162.355 15.9817   2
  -8  14  -3 170.794 14.7251   1
  -6  -8  -3 154.166 14.5631   2
  14  -6  -3 181.146 15.7429   2
   8 -14   3 194.259 16.1533   2
   8 -14   3 180.666 14.2126   1
  15  -7  -3 33.0464 9.22046   2
  -8  15  -3 44.4361 10.2742   1
  -7  -8  -3 39.0298 9.86097   2
  -8  15  -3 45.1122 11.8754   2
   8 -15   3 28.5035 7.76408   1
  16  -8  -3 15.1274 9.47452   2
  -8  16  -3 26.0466 12.1324   2
  -8  -8  -3 10.2481 9.53792   2
  -8  16  -3 2.71404 10.1154   1
   8 -16   3 17.4356 7.48541   1
  -9  -8  -3 2.54990 9.91048   2
  17  -9  -3 19.3187 10.3831   2
  -8  17  -3 -9.0889 9.81343   1
   8 -17   3 -0.1018 7.43227   1
  -7  16  -3 39.8943 12.5639   2
  -9  -7  -3 17.8275 9.78759   2
  16  -9  -3 18.3081 9.26149   2
  -7  16  -3 6.23714 9.96831   1
   7 -16   3 21.8771 7.73210   1
  -6  15  -3 61.5153 12.5776   2
  -6  15  -3 46.8703 10.1291   1
  15  -9  -3 73.9524 11.1061   2
  -9  -6  -3 44.8028 10.4553   2
   6 -15   3 32.3808 8.24399   1
  14  -9  -3 16.7223 8.10524   2
  -5  14  -3 20.6033 9.08393   1
  -9  -5  -3 35.3213 8.72476   2
  -5  14  -3 7.82133 9.36442   2
   5 -14   3 6.84408 6.68372   1
   5 -14   3 7.53622 9.13662   2
  -4  13  -3 69.2205 10.8811   2
  -9  -4  -3 75.9991 10.1243   2
  13  -9  -3 84.9340 10.1128   2
  -4  13  -3 76.7637 9.72540   1
   4 -13   3 79.8807 8.92142   1
   4 -13   3 74.4895 10.4957   2
  -3  12  -3 53.1289 8.21234   1
  12  -9  -3 67.7546 8.66037   2
  -3  12  -3 47.7944 9.40172   2
  -9  -3  -3 65.0912 9.38196   2
 -12   9   3 65.6317 12.8878   7
   3 -12   3 55.2792 7.58576   1
   3 -12   3 70.0816 9.25938   2
  11  -9  -3 181.586 13.9816   2
  -2  11  -3 170.452 14.5303   2
  -2  11  -3 175.201 13.4782   1
  -9  -2  -3 193.909 14.0477   2
   2 -11   3 163.595 12.6853   1
   2 -11   3 189.898 13.9889   2
 -11   9   3 150.607 16.2437   7
  -1  10  -3 182.484 14.3424   2
  -9  -1  -3 196.963 13.7135   2
  -1  10  -3 186.784 13.3103   1
  10  -9  -3 204.927 13.5890   2
   1 -10   3 178.115 13.5778   2
   1 -10   3 163.407 12.3349   1
 -10   9   3 177.870 17.1031   7
   9  -9  -3 70.9603 7.90280   2
   0   9  -3 82.0288 8.66977   2
  -9   0  -3 75.7889 8.20709   2
   0   9  -3 73.9357 7.37025   1
  -9   9   3 71.6228 10.2513   7
   0  -9   3 69.6223 7.09612   1
   0  -9   3 82.6542 8.37825   2
  -9   1  -3 81.0509 8.27590   2
  -9   1  -3 92.7870 10.1770   9
  -9   1  -3 84.0034 11.3081   1
   1   8  -3 78.1532 8.05118   2
   1   8  -3 64.3026 6.98092   1
   8  -9  -3 75.4487 7.57146   2
  -1  -8   3 73.7528 6.93197   1
  -1  -8   3 94.5144 8.47577   2
   9  -1   3 74.5054 6.53017   1
  -8   9   3 87.9958 10.8431   7
   2   7  -3 193.088 12.1967   1
  -9   2  -3 199.829 13.2487   2
  -9   2  -3 217.068 15.3760   9
   2   7  -3 196.130 12.8286   2
   7  -9  -3 191.398 12.4170   2
  -9   2  -3 186.279 12.9399   1
  -7   9   3 212.257 18.5251   3
  -7   9   3 191.691 15.9733   7
   9  -2   3 192.675 11.0723   1
  -2  -7   3 192.837 12.4198   2
  -2  -7   3 190.051 11.7984   1
  -9   3  -3 121.313 9.17520   1
   6  -9  -3 132.265 9.11625   2
  -9   3  -3 112.807 9.23158   2
   3   6  -3 109.411 8.71208   1
   3   6  -3 119.739 9.58990   2
  -9   3  -3 148.944 12.5218   9
  -3  -6   3 103.862 8.83898   2
  -6   9   3 102.712 12.8113   3
  -3  -6   3 100.410 8.29227   1
  -6   9   3 103.482 11.5884   7
  -3  -6   3 86.9626 10.9642   7
   9  -3   3 95.9419 7.94336   1
   5  -9  -3 362.034 20.0108   2
   4   5  -3 378.845 19.4842   1
  -9   4  -3 380.587 22.3028   9
   4   5  -3 353.911 20.0384   2
  -9   4  -3 378.856 20.3560   1
  -9   4  -3 384.174 20.8332   2
  -5   9   3 389.210 24.9806   3
   9  -4   3 390.313 19.0671   1
  -5   9   3 389.917 23.1817   7
  -4  -5   3 377.254 19.1707   1
  -4  -5   3 386.440 23.7403   7
   5   4  -3 282.478 15.4131   1
  -9   5  -3 287.043 16.5372   1
   4  -9  -3 271.312 15.6478   2
   5   4  -3 276.463 16.1045   2
  -9   5  -3 301.891 18.5153   9
  -9   5  -3 288.512 16.8812   2
  -4   9   3 283.198 20.9887   3
   9  -5   3 283.048 17.3451   2
  -5  -4   3 278.802 19.3523   7
  -4   9   3 290.692 21.7846   6
  -4   9   3 269.367 16.6095   8
  -5  -4   3 273.929 14.9319   1
  -4   9   3 277.709 19.0216   7
   9  -5   3 303.903 15.2011   1
   6   3  -3 156.483 11.4476   2
   3  -9  -3 167.855 11.1189   2
  -9   6  -3 162.640 12.4181   2
  -9   6  -3 166.589 12.2467   1
  -9   6  -3 155.388 14.2013   9
   6   3  -3 167.436 11.0365   1
  -3   9   3 165.563 11.6383   8
  -6  -3   3 189.024 10.2593   1
  -3   9   3 183.899 15.0201   7
   9  -6   3 164.623 11.7355   2
   9  -6   3 189.794 10.9155   1
  -6  -3   3 180.946 15.0929   7
  -3   9   3 175.637 16.8511   6
   7   2  -3 4.00873 3.63029   1
  -9   7  -3 0.02532 6.67638   9
   7   2  -3 -4.6165 4.21911   2
  -9   7  -3 -1.8517 5.10693   2
   2  -9  -3 1.57101 4.33204   2
  -9   7  -3 -0.6437 5.06029   1
   9  -7   3 4.91469 4.19933   1
   9  -7   3 -1.9066 4.65556   2
  -7  -2   3 5.89394 3.24186   1
  -7  -2   3 6.92334 7.11710   7
  -2   9   3 -0.0501 8.52269   6
  -2   9   3 0.72983 6.23285   7
  -9   8  -3 16.0502 5.81666   1
   1  -9  -3 13.1611 4.90365   2
  -9   8  -3 24.4132 6.33460   2
   8   1  -3 12.3997 4.96403   2
  -1   9   3 20.8392 9.89345   6
   9  -8   3 14.3130 5.45283   2
  -8  -1   3 5.66593 6.51340   7
  -8  -1   3 12.0435 3.54109   1
  -1   9   3 27.5183 8.18839   7
   9  -8   3 13.4957 4.90235   1
  -9   9  -3 11.7125 6.08476   1
   9   0  -3 3.20040 5.04118   2
  -9   9  -3 2.56759 5.94714   2
   0  -9  -3 1.72501 5.02809   2
   9  -9   3 2.52272 5.22019   2
   9  -9   3 -4.9187 4.46033   1
  -9   0   3 1.40099 6.69526   7
   0   9   3 8.04776 9.87084   6
  -9  10  -3 229.362 15.8330   1
  -1  -9  -3 223.184 14.8069   2
  -9  10  -3 254.720 16.4794   2
  10  -1  -3 228.107 14.7920   2
   9 -10   3 215.669 14.0109   1
   9 -10   3 211.567 15.3605   2
   1   9   3 207.218 21.2837   6
  -9  11  -3 302.306 19.2934   2
  -9  11  -3 343.576 19.3014   1
  11  -2  -3 287.298 17.9429   2
  -2  -9  -3 293.636 18.3697   2
   9 -11   3 276.963 18.8350   2
   9 -11   3 293.464 17.1942   1
   2   9   3 241.215 23.6026   6
  -9  12  -3 103.413 12.4260   2
  -9  12  -3 125.315 11.5362   1
  -3  -9  -3 144.298 12.0214   2
  12  -3  -3 136.937 11.5703   2
   3   9   3 125.650 17.4478   6
   9 -12   3 120.857 10.2885   1
   9 -12   3 116.922 11.7512   2
  -9  13  -3 46.9170 9.02215   1
  -4  -9  -3 48.9443 8.74302   2
  13  -4  -3 47.9994 8.61836   2
  -9  13  -3 42.7246 10.2619   2
   9 -13   3 37.4523 7.25625   1
   9 -13   3 42.4849 9.00584   2
  -5  -9  -3 38.9971 9.11919   2
  -9  14  -3 40.4385 9.60467   1
  14  -5  -3 36.4656 8.74812   2
  -9  14  -3 25.7373 10.7914   2
   9 -14   3 57.1648 10.3433   2
   9 -14   3 29.3769 7.44387   1
  -9  15  -3 36.0846 10.1677   1
  -9  15  -3 23.1473 11.2905   2
  -6  -9  -3 10.8172 8.72205   2
  15  -6  -3 28.6514 9.00794   2
   9 -15   3 21.3941 7.60510   1
  16  -7  -3 13.2538 9.45971   2
  -9  16  -3 7.25895 10.1955   1
  -7  -9  -3 15.4377 9.10592   2
  -9  16  -3 6.05396 11.3778   2
   9 -16   3 17.4571 7.96613   1
  17  -8  -3 4.66881 9.58422   2
  -8  -9  -3 -2.1253 9.29652   2
  -9  17  -3 0.64462 10.6161   1
   9 -17   3 11.9691 8.27175   1
  -9  18  -3 17.9829 11.8202   1
  -9  -9  -3 15.7423 10.9272   2
  18  -9  -3 4.36706 10.8517   2
   9 -18   3 7.77676 8.35844   1
 -10  -8  -3 15.7910 11.4840   2
  -8  18  -3 -2.0920 10.8125   1
  18 -10  -3 8.55163 10.6585   2
   8 -18   3 2.10323 7.94638   1
  -7  17  -3 26.5454 11.1748   1
  17 -10  -3 8.65623 9.85325   2
 -10  -7  -3 12.9608 10.5355   2
   7 -17   3 6.90941 7.81094   1
 -10  -6  -3 13.7175 10.0728   2
  16 -10  -3 18.3067 9.84235   2
  -6  16  -3 13.6057 10.1007   1
  -6  16  -3 -3.6173 10.7841   2
   6 -16   3 5.78031 7.29637   1
  -5  15  -3 112.823 12.8270   1
  -5  15  -3 125.448 14.6908   2
  15 -10  -3 108.615 12.7714   2
 -10  -5  -3 133.085 13.5959   2
   5 -15   3 107.591 11.2135   1
  -4  14  -3 33.3776 9.27340   1
 -10  -4  -3 40.9280 9.20877   2
  -4  14  -3 48.7304 11.1922   2
  14 -10  -3 58.9405 9.91185   2
   4 -14   3 49.8526 8.22584   1
 -10  -3  -3 69.0569 10.2479   2
  -3  13  -3 72.0940 9.95231   1
  -3  13  -3 84.8709 11.4147   2
  13 -10  -3 63.4164 9.63422   2
   3 -13   3 68.8802 8.59682   1
   3 -13   3 83.4134 11.4747   2
  -2  12  -3 40.7910 8.00830   1
  12 -10  -3 54.0155 9.01154   2
 -10  -2  -3 71.3995 9.58039   2
  -2  12  -3 54.6678 9.61870   2
   2 -12   3 83.7689 8.41496   1
   2 -12   3 72.1674 9.51780   2
 -10  -1  -3 57.6699 8.62801   2
  11 -10  -3 48.1778 8.16128   2
  -1  11  -3 68.8276 9.36719   2
  -1  11  -3 58.0897 7.87440   1
   1 -11   3 27.4550 6.34453   1
 -11  10   3 34.6028 10.8043   7
   1 -11   3 36.9394 7.69202   2
   0  10  -3 288.491 16.8736   1
   0  10  -3 276.362 17.9776   2
 -10   0  -3 286.234 17.6968   2
  10 -10  -3 274.125 17.2140   2
   0 -10   3 246.483 16.9180   2
 -10  10   3 282.276 21.3807   7
  10   0   3 268.368 14.6282   1
   0 -10   3 273.323 16.4248   1
 -10   1  -3 27.8650 7.11612   1
   1   9  -3 20.1930 5.76644   1
 -10   1  -3 26.9542 6.83872   2
   9 -10  -3 33.6790 6.67566   2
   1   9  -3 32.6771 6.79186   2
  -1  -9   3 45.1888 7.28439   2
  10  -1   3 55.2192 5.21306   1
  -1  -9   3 53.9201 6.41351   1
  -9  10   3 46.7795 10.0306   7
 -10   2  -3 9.45586 7.29672   9
   2   8  -3 6.33591 5.23803   2
   2   8  -3 9.84162 4.88350   1
 -10   2  -3 -0.9776 5.22206   1
 -10   2  -3 16.4300 6.17710   2
   8 -10  -3 13.8532 5.36035   2
  -2  -8   3 25.8313 6.36530   2
  -2  -8   3 16.9231 4.77052   1
  -8  10   3 6.39331 7.28903   7
  10  -2   3 17.8039 4.32980   1
 -10   3  -3 7.54470 5.67050   1
   7 -10  -3 8.70850 5.04609   2
 -10   3  -3 5.04828 5.50279   2
 -10   3  -3 11.3958 7.38412   9
   3   7  -3 7.15359 5.05022   2
   3   7  -3 2.00245 4.38764   1
  10  -3   3 7.94554 4.14993   1
  -7  10   3 7.90343 7.82511   7
  -3  -7   3 18.1494 4.57280   1
 -10   4  -3 2.10583 5.41892   2
   4   6  -3 1.42722 4.81203   2
   4   6  -3 -0.5467 4.17276   1
   6 -10  -3 2.93298 4.74780   2
 -10   4  -3 3.83247 6.57816   9
 -10   4  -3 9.20565 5.60096   1
  -4  -6   3 2.28626 3.86416   1
  10  -4   3 4.03810 4.05553   1
  -6  10   3 5.26978 7.20987   7
 -10   5  -3 329.162 19.4381   2
 -10   5  -3 339.014 19.1782   1
   5   5  -3 339.152 17.8675   1
   5 -10  -3 351.346 18.4297   2
 -10   5  -3 319.400 21.0412   9
   5   5  -3 359.192 18.9937   2
  10  -5   3 294.933 17.3959   1
  -5  10   3 337.359 23.8578   3
  -5  -5   3 312.583 17.5036   1
  -5  10   3 331.714 22.0719   7
  -5  10   3 344.660 24.3721   6
   6   4  -3 88.8956 7.57512   1
 -10   6  -3 100.292 8.75907   1
 -10   6  -3 87.9385 9.00311   2
   4 -10  -3 94.8796 8.17191   2
   6   4  -3 94.3963 8.36417   2
  -6  -4   3 87.4689 6.88428   1
  -4  10   3 65.6187 10.2927   7
  -4  10   3 84.4994 11.9325   3
  -4  10   3 80.4675 13.1821   6
  10  -6   3 67.7111 6.89816   1
 -10   7  -3 462.744 24.6273   1
   7   3  -3 464.588 23.5418   1
 -10   7  -3 453.488 24.9493   2
   3 -10  -3 446.996 23.8952   2
   7   3  -3 443.879 24.2261   2
  10  -7   3 445.447 25.2862   2
  -3  10   3 477.147 30.6929   6
  -7  -3   3 445.933 22.7970   1
  10  -7   3 471.348 23.2649   1
  -3  10   3 464.544 27.4581   7
 -10   8  -3 41.7234 7.64643   2
   8   2  -3 42.7649 6.71937   2
   2 -10  -3 53.8245 6.93747   2
   8   2  -3 43.0850 6.21127   1
 -10   8  -3 41.5576 7.34865   1
  10  -8   3 45.9351 7.18695   2
  10  -8   3 52.2720 6.33692   1
  -8  -2   3 50.0718 5.27791   1
  -2  10   3 47.6963 9.29811   7
  -2  10   3 52.7572 12.1322   6
 -10   9  -3 377.328 21.1476   2
   1 -10  -3 361.870 19.6093   2
   9   1  -3 347.586 19.9593   2
 -10   9  -3 366.991 20.5991   1
  -1  10   3 340.251 23.1293   7
  10  -9   3 317.408 20.0801   2
  10  -9   3 348.109 19.0364   1
  -9  -1   3 315.400 17.7851   1
  -1  10   3 329.637 27.1079   6
 -10  10  -3 297.155 19.3598   2
   0 -10  -3 303.195 17.5884   2
 -10  10  -3 283.483 18.7673   1
  10   0  -3 285.816 17.8206   2
  10 -10   3 308.123 17.1721   1
  10 -10   3 265.588 17.9486   2
   0  10   3 295.924 25.6394   6
 -10  11  -3 130.702 11.4897   1
 -10  11  -3 130.440 12.2594   2
  -1 -10  -3 114.774 10.6485   2
  11  -1  -3 135.142 11.0083   2
  10 -11   3 109.626 9.74955   1
  10 -11   3 101.180 10.9842   2
   1  10   3 92.8084 15.8586   6
  12  -2  -3 67.3878 8.75922   2
 -10  12  -3 58.4682 9.44042   1
 -10  12  -3 52.6773 9.51022   2
  -2 -10  -3 53.3112 8.29962   2
  10 -12   3 63.3337 9.12645   2
  10 -12   3 42.7522 7.39186   1
 -10  13  -3 13.7374 8.76844   1
  -3 -10  -3 12.1446 7.34220   2
 -10  13  -3 13.8655 9.03043   2
  13  -3  -3 4.54225 6.79504   2
  10 -13   3 -9.5639 7.11052   2
  10 -13   3 13.5931 6.46814   1
 -10  14  -3 12.6914 9.22814   1
  -4 -10  -3 0.90625 7.86413   2
 -10  14  -3 -4.0655 9.77574   2
  14  -4  -3 16.3590 8.11837   2
  10 -14   3 6.20375 10.3795   2
  10 -14   3 0.64999 6.75814   1
  15  -5  -3 2.63730 8.43197   2
 -10  15  -3 37.9059 10.4929   1
 -10  15  -3 14.7121 11.0963   2
  -5 -10  -3 19.3389 8.85942   2
  10 -15   3 10.2192 7.41093   1
  -6 -10  -3 28.3654 10.1775   2
  16  -6  -3 12.2265 9.28948   2
 -10  16  -3 29.4363 11.2351   1
 -10  16  -3 37.0696 12.7185   2
  10 -16   3 32.9283 8.48142   1
  17  -7  -3 31.8060 10.5769   2
 -10  17  -3 49.7435 11.9430   1
  -7 -10  -3 44.0828 11.5719   2
  10 -17   3 19.5142 8.58817   1
  -8 -10  -3 7.57914 10.9956   2
  18  -8  -3 9.84973 10.3308   2
 -10  18  -3 -10.309 10.8193   1
  10 -18   3 3.54768 8.40566   1
  18 -11  -3 -2.5440 10.3169   2
  -7  18  -3 9.53274 10.9757   1
 -11  -7  -3 -2.0603 10.9594   2
   7 -18   3 15.3269 8.56219   1
 -11  -6  -3 9.04786 10.2884   2
  17 -11  -3 -16.532 9.26119   2
  -6  17  -3 10.2430 10.4572   1
   6 -17   3 7.68647 7.89665   1
  16 -11  -3 35.7579 10.4609   2
  -5  16  -3 50.4189 12.6291   2
 -11  -5  -3 25.2513 10.4483   2
  -5  16  -3 33.4426 10.7498   1
   5 -16   3 40.4832 8.82940   1
  15 -11  -3 18.4814 9.31943   2
  -4  15  -3 8.08282 10.7419   2
 -11  -4  -3 9.84499 8.73649   2
  -4  15  -3 1.12615 9.29832   1
   4 -15   3 12.4974 7.20577   1
  -3  14  -3 89.6471 12.6147   2
 -11  -3  -3 73.1771 11.3013   2
  14 -11  -3 62.3014 10.5645   2
  -3  14  -3 80.3867 10.7358   1
   3 -14   3 63.2231 9.00739   1
  -2  13  -3 -7.7126 7.93472   2
 -11  -2  -3 0.59186 7.77158   2
  13 -11  -3 20.3451 8.09866   2
  -2  13  -3 3.74008 7.64189   1
   2 -13   3 -5.9555 6.00913   1
  -1  12  -3 275.585 19.4316   2
 -11  -1  -3 235.143 17.7877   2
  -1  12  -3 230.538 17.1629   1
  12 -11  -3 251.220 17.7952   2
   1 -12   3 254.948 16.2659   1
 -11   0  -3 121.277 11.6491   2
   0  11  -3 125.385 10.9683   1
   0  11  -3 147.659 12.7038   2
  11 -11  -3 130.238 11.5379   2
   0 -11   3 106.102 10.0139   1
 -11  11   3 112.798 15.1042   7
  10 -11  -3 22.7005 6.78557   2
 -11   1  -3 12.7653 6.99111   2
 -11   1  -3 19.1321 6.96419   1
   1  10  -3 20.4331 6.24156   1
 -10  11   3 22.2441 9.79010   7
  11  -1   3 21.8185 4.81464   1
  -1 -10   3 25.5886 5.91431   1
 -11   2  -3 71.9373 8.46233   1
   2   9  -3 54.1368 7.47027   1
   2   9  -3 58.1305 8.12780   2
   9 -11  -3 61.0259 7.91265   2
 -11   2  -3 65.9286 8.81101   2
  11  -2   3 64.4642 6.33443   1
  -9  11   3 53.4087 11.5085   7
  -2  -9   3 56.2770 6.99848   1
   3   8  -3 19.8148 6.22124   2
 -11   3  -3 39.7525 7.57501   2
   8 -11  -3 37.1268 6.85256   2
 -11   3  -3 36.2149 7.07719   1
   3   8  -3 33.5071 6.40914   1
  -8  11   3 40.1708 10.4193   7
  -3  -8   3 27.1250 5.48830   1
  11  -3   3 31.4564 5.26473   1
 -11   4  -3 76.3056 9.17586   2
   7 -11  -3 68.1943 8.05002   2
   4   7  -3 89.6653 7.91503   1
   4   7  -3 80.6053 8.77144   2
 -11   4  -3 84.9213 9.15133   1
  11  -4   3 88.1222 7.44339   1
  -4  -7   3 79.9542 7.30103   1
  -7  11   3 93.7645 12.1593   7
   6 -11  -3 54.2035 7.19581   2
   5   6  -3 42.4851 6.30124   1
 -11   5  -3 32.8896 7.49130   2
 -11   5  -3 41.7648 7.47537   1
   5   6  -3 46.1243 7.04302   2
  -6  11   3 40.2335 10.3430   7
  -5  -6   3 37.6802 5.85546   1
  11  -5   3 40.0234 5.77235   1
  -6  11   3 50.7855 11.4737   6
 -11   6  -3 274.431 17.8816   2
   6   5  -3 286.537 16.9640   2
 -11   6  -3 282.626 17.5336   1
   5 -11  -3 265.121 16.5072   2
   6   5  -3 270.255 15.8149   1
  -6  -5   3 250.755 15.1792   1
  -5  11   3 267.245 20.6646   7
  11  -6   3 260.611 15.4548   1
  -5  11   3 277.326 23.3967   6
 -11   7  -3 361.185 22.1759   1
   7   4  -3 386.029 20.9270   1
 -11   7  -3 383.152 22.7346   2
   7   4  -3 390.310 21.6643   2
   4 -11  -3 382.411 21.5697   2
  -4  11   3 391.911 25.6378   7
  -4  11   3 443.932 29.2328   6
  -7  -4   3 382.393 20.3154   1
  11  -7   3 399.525 20.7236   1
 -11   8  -3 49.9324 7.87011   1
 -11   8  -3 41.6253 7.92953   2
   8   3  -3 29.7455 6.59125   2
   8   3  -3 32.0537 6.23262   1
   3 -11  -3 37.4691 6.80858   2
  -3  11   3 29.4428 12.1351   6
  11  -8   3 31.4086 6.03612   1
  -3  11   3 38.7544 9.54773   7
  -8  -3   3 46.9494 5.80898   1
 -11   9  -3 175.885 14.9351   2
   9   2  -3 170.592 12.7663   1
 -11   9  -3 178.717 13.7268   1
   9   2  -3 184.039 13.7912   2
   2 -11  -3 188.104 13.6879   2
  -2  11   3 185.099 20.1436   6
  -9  -2   3 192.650 11.9752   1
  11  -9   3 171.887 12.7495   1
  -2  11   3 188.651 17.9417   7
  10   1  -3 11.9513 6.40441   2
   1 -11  -3 17.9087 6.31612   2
 -11  10  -3 12.5186 7.71161   2
 -11  10  -3 25.1933 7.60254   1
  11 -10   3 4.43484 5.65924   1
 -10  -1   3 3.56166 4.49324   1
  -1  11   3 1.03756 8.42959   7
  -1  11   3 17.3246 12.2124   6
  11 -10   3 7.23006 7.71749   2
  11   0  -3 116.929 11.4997   2
 -11  11  -3 151.371 12.6483   1
 -11  11  -3 108.082 12.4848   2
   0 -11  -3 126.092 11.6529   2
  11 -11   3 169.159 12.2469   1
  11 -11   3 156.385 14.5746   2
 -11  12  -3 3.37557 8.26161   2
 -11  12  -3 0.53275 7.89887   1
  -1 -11  -3 1.25138 6.45348   2
  12  -1  -3 -4.9605 6.19009   2
  11 -12   3 -6.2547 7.63456   2
  11 -12   3 11.3791 6.08219   1
  13  -2  -3 9.46703 7.41305   2
 -11  13  -3 24.5476 9.07364   1
 -11  13  -3 22.5689 9.20284   2
  -2 -11  -3 18.1911 7.75380   2
  11 -13   3 8.04838 6.41107   1
 -11  14  -3 12.4035 10.1061   2
  -3 -11  -3 23.4478 8.57612   2
  14  -3  -3 9.08337 7.76825   2
 -11  14  -3 11.8078 9.36788   1
  11 -14   3 1.76088 6.66185   1
 -11  15  -3 11.6444 9.88721   1
  -4 -11  -3 11.9434 8.65330   2
  15  -4  -3 10.6323 8.45793   2
 -11  15  -3 -7.2748 10.1635   2
  11 -15   3 6.74089 7.14727   1
  16  -5  -3 9.53538 9.49556   2
  -5 -11  -3 13.2231 9.33884   2
 -11  16  -3 -12.454 11.0017   2
 -11  16  -3 -0.5711 10.1746   1
  11 -16   3 -10.085 7.38587   1
  17  -6  -3 23.1029 10.4405   2
 -11  17  -3 3.74961 10.5304   1
  -6 -11  -3 5.94918 10.1237   2
  11 -17   3 9.56415 8.36310   1
 -11  18  -3 -13.696 10.9319   1
  18  -7  -3 -8.3392 10.0028   2
  -7 -11  -3 6.29977 11.3081   2
  11 -18   3 1.31343 8.48685   1
  18 -12  -3 -0.8514 11.1100   2
 -12  -6  -3 6.14608 11.0986   2
  -6  18  -3 8.35770 11.4687   1
   6 -18   3 3.04949 8.07067   1
  17 -12  -3 22.9750 10.8373   2
  -5  17  -3 18.1877 11.0503   1
 -12  -5  -3 36.4583 11.6595   2
   5 -17   3 7.88414 8.04342   1
  -4  16  -3 15.2834 11.8896   2
  16 -12  -3 15.3037 9.91374   2
  -4  16  -3 21.5228 10.5027   1
 -12  -4  -3 5.53201 9.68585   2
   4 -16   3 13.4064 7.78120   1
  15 -12  -3 22.9525 9.38143   2
  -3  15  -3 28.7051 9.98512   1
  -3  15  -3 22.7431 11.1111   2
 -12  -3  -3 28.8079 10.1994   2
   3 -15   3 29.4570 8.13168   1
 -12  -2  -3 23.5552 9.75505   2
  -2  14  -3 18.7182 9.04257   1
  14 -12  -3 8.75874 8.60451   2
  -2  14  -3 11.9495 10.0199   2
   2 -14   3 24.4455 7.51306   1
  -1  13  -3 23.9875 8.63699   1
  13 -12  -3 24.8112 8.22977   2
  -1  13  -3 44.7896 10.7056   2
 -12  -1  -3 6.12404 8.19146   2
   1 -13   3 20.2691 6.82562   1
 -12   0  -3 13.8426 8.18186   2
 -12   0  -3 15.6938 8.44156   1
  12 -12  -3 14.1647 7.82821   2
   0  12  -3 7.41800 8.64647   2
   0  12  -3 8.87631 7.35572   1
   0 -12   3 14.4272 6.53379   1
  12   0   3 9.04593 5.14823   1
  11 -12  -3 59.7352 9.31894   2
   1  11  -3 91.0122 10.9179   2
 -12   1  -3 78.7500 10.2450   2
   1  11  -3 73.8176 9.29062   1
 -12   1  -3 89.0574 10.2348   1
  12  -1   3 82.6430 7.49125   1
  -1 -11   3 79.4146 8.67004   1
  10 -12  -3 88.6273 9.98817   2
 -12   2  -3 104.996 10.5558   1
   2  10  -3 74.3920 8.66000   1
 -12   2  -3 95.5100 10.5970   2
   2  10  -3 92.6215 10.0061   2
  -2 -10   3 61.9663 8.05511   1
 -10  12   3 100.803 14.6735   7
  12  -2   3 82.9050 7.53033   1
   3   9  -3 13.3969 6.16542   1
   3   9  -3 14.4343 6.61920   2
 -12   3  -3 29.8373 7.63649   2
   9 -12  -3 34.8142 7.39905   2
 -12   3  -3 26.9047 7.81267   1
  -3  -9   3 14.6480 5.70192   1
  -9  12   3 20.8376 9.77041   7
  12  -3   3 14.1384 5.28272   1
   4   8  -3 30.7593 6.62305   1
   8 -12  -3 18.5048 6.70458   2
 -12   4  -3 26.4165 7.44963   1
 -12   4  -3 22.4348 7.76825   2
   4   8  -3 19.6586 6.71086   2
  -8  12   3 30.1109 10.2467   7
  -4  -8   3 17.3321 5.27582   1
  12  -4   3 25.1610 5.42244   1
   5   7  -3 58.2495 8.13147   2
   5   7  -3 51.5816 6.84104   1
 -12   5  -3 46.9904 8.35887   1
 -12   5  -3 44.6832 8.34427   2
   7 -12  -3 31.5442 7.10345   2
  -5  -7   3 29.8738 6.10803   1
  -7  12   3 37.8480 11.0746   7
  12  -5   3 35.1502 5.93890   1
 -12   6  -3 265.480 17.3987   1
 -12   6  -3 248.408 17.5318   2
   6   6  -3 252.589 15.5807   1
   6 -12  -3 246.333 16.5607   2
   6   6  -3 268.527 16.6868   2
  -6  -6   3 239.323 14.8809   1
  -6  12   3 223.070 22.6541   6
  -6  12   3 241.205 20.6657   7
  12  -6   3 242.502 14.9885   1
   5 -12  -3 57.0384 8.24300   2
 -12   7  -3 67.7361 9.15105   1
 -12   7  -3 66.1481 9.43222   2
   7   5  -3 52.9452 7.05954   1
   7   5  -3 52.5664 8.20036   2
  -5  12   3 65.3190 13.9484   6
  -7  -5   3 86.5136 7.41008   1
  12  -7   3 63.7828 7.21067   1
  -5  12   3 63.1765 11.8685   7
   8   4  -3 86.6587 9.49233   2
   8   4  -3 119.304 9.36925   1
   4 -12  -3 75.5403 9.14997   2
 -12   8  -3 95.7484 10.1988   1
 -12   8  -3 86.4644 10.7231   2
  -4  12   3 99.7361 15.6626   6
  -8  -4   3 96.0026 8.20935   1
  -4  12   3 88.2811 13.9600   7
  12  -8   3 92.8907 8.60693   1
   9   3  -3 28.4221 6.95889   2
 -12   9  -3 11.0955 7.69596   2
 -12   9  -3 11.9616 7.65557   1
   9   3  -3 14.6865 5.99587   1
   3 -12  -3 17.0395 6.38692   2
  -9  -3   3 14.6961 5.05925   1
  -3  12   3 11.4920 8.62203   7
  12  -9   3 7.07174 5.76684   1
  -3  12   3 8.06003 13.3559   6
  10   2  -3 140.479 12.3708   2
 -12  10  -3 126.730 12.2831   1
  10   2  -3 138.100 11.1020   1
 -12  10  -3 131.272 13.0346   2
   2 -12  -3 138.263 12.0050   2
  12 -10   3 147.489 12.1420   1
 -10  -2   3 150.878 11.4081   1
  -2  12   3 132.864 15.1065   7
 -12  11  -3 24.3460 8.85300   2
 -12  11  -3 35.6303 9.05600   1
  11   1  -3 39.8649 7.91749   2
   1 -12  -3 25.2635 7.53716   2
  11   1  -3 39.7585 10.1521   1
  12 -11   3 30.1775 6.92086   1
 -11  -1   3 26.0553 5.70575   1
 -12  12  -3 9.78554 9.05122   2
 -12  12  -3 18.9910 9.04760   1
  12   0  -3 12.2879 7.20698   2
   0 -12  -3 8.37679 6.93227   2
  12 -12   3 10.9569 6.76333   1
 -12  13  -3 9.39681 9.37395   2
  13  -1  -3 8.76347 7.76705   2
  -1 -12  -3 -0.3443 7.08057   2
 -12  13  -3 8.30725 9.03040   1
  12 -13   3 16.4322 6.82832   1
 -12  14  -3 14.6996 9.84904   1
  14  -2  -3 22.3262 8.56348   2
 -12  14  -3 14.8521 10.3470   2
  -2 -12  -3 9.36214 8.32442   2
  12 -14   3 18.1931 7.33890   1
  -3 -12  -3 -2.0700 8.71164   2
 -12  15  -3 5.89785 10.3739   1
  15  -3  -3 5.17783 8.44869   2
 -12  15  -3 10.5273 10.9859   2
  12 -15   3 11.2584 7.54418   1
 -12  16  -3 -0.1934 10.7216   2
  16  -4  -3 13.2038 9.40532   2
 -12  16  -3 3.15687 10.3048   1
  -4 -12  -3 13.9945 9.35412   2
  12 -16   3 7.19340 7.73693   1
  -5 -12  -3 31.5949 11.2919   2
 -12  17  -3 27.2427 11.5295   1
  17  -5  -3 44.5310 11.2580   2
  12 -17   3 30.7112 9.12990   1
  18  -6  -3 -4.4255 10.0552   2
 -12  18  -3 27.2504 12.1817   1
  -6 -12  -3 33.7602 11.5401   2
  12 -18   3 36.0509 9.50689   1
  -4  17  -3 8.64838 10.6468   1
 -13  -4  -3 4.43879 10.3771   2
  17 -13  -3 -0.5453 9.93544   2
   4 -17   3 4.03913 8.26960   1
 -13  -3  -3 6.16166 9.83333   2
  16 -13  -3 15.1678 10.2508   2
  -3  16  -3 31.7539 11.3595   1
  -3  16  -3 6.16231 11.6958   2
   3 -16   3 0.17623 7.91005   1
  -2  15  -3 7.69804 10.8152   2
  15 -13  -3 -16.164 8.09210   2
 -13  -2  -3 -9.3149 9.35574   2
  -2  15  -3 5.58409 9.41085   1
   2 -15   3 -9.3199 6.88994   1
  -1  14  -3 19.5774 9.14890   1
  -1  14  -3 5.24242 10.2677   2
  14 -13  -3 13.2812 8.66211   2
 -13  -1  -3 3.31970 9.13148   2
 -13  -1  -3 15.8609 9.97701   1
   1 -14   3 20.7683 7.23263   1
 -13   0  -3 42.7210 10.1974   1
   0  13  -3 41.8299 9.35636   1
   0  13  -3 34.7110 11.0379   2
  13 -13  -3 36.2626 9.01451   2
 -13   0  -3 41.0110 9.73520   2
   0 -13   3 31.5130 7.73644   1
   1  12  -3 28.2295 10.0901   2
   1  12  -3 13.7890 8.27764   1
 -13   1  -3 12.9588 8.54332   2
  12 -13  -3 25.7556 8.61641   2
 -13   1  -3 22.1591 9.29624   1
  13  -1   3 27.9419 6.18305   1
  -1 -12   3 36.9926 7.41799   1
   2  11  -3 252.524 17.9853   1
 -13   2  -3 257.948 19.1051   2
 -13   2  -3 244.749 19.4391   1
  11 -13  -3 252.868 18.1646   2
  13  -2   3 253.773 15.3988   1
  -2 -11   3 250.342 16.7275   1
 -13   3  -3 63.4201 9.88088   1
   3  10  -3 63.0035 9.34662   2
   3  10  -3 61.0665 8.56199   1
 -13   3  -3 43.6969 9.37928   2
  10 -13  -3 69.5787 9.50718   2
  -3 -10   3 40.3656 7.23796   1
  13  -3   3 50.9120 7.07268   1
   4   9  -3 19.6838 6.81248   1
   4   9  -3 25.8065 7.30182   2
 -13   4  -3 6.45393 7.94495   2
   9 -13  -3 0.76499 6.73537   2
 -13   4  -3 9.36804 7.92106   1
  13  -4   3 15.5634 5.74999   1
  -4  -9   3 13.5874 5.59235   1
  -9  13   3 1.62999 9.19062   7
 -13   5  -3 27.3241 8.40606   1
 -13   5  -3 43.4513 9.06676   2
   8 -13  -3 37.2798 7.70996   2
   5   8  -3 36.7909 7.90471   2
   5   8  -3 34.6408 7.33718   1
  -8  13   3 35.9287 11.5476   7
  -5  -8   3 43.4848 6.61388   1
  13  -5   3 38.5421 6.54327   1
 -13   6  -3 240.074 17.9589   2
   6   7  -3 246.419 17.0960   2
 -13   6  -3 258.228 18.1693   1
   7 -13  -3 224.534 16.6598   2
   6   7  -3 215.747 15.9412   1
  -7  13   3 245.548 23.3470   6
  -6  -7   3 253.515 15.3291   1
  -7  13   3 226.713 21.2647   7
  13  -6   3 247.941 15.0563   1
   7   6  -3 54.4014 8.67934   2
   7   6  -3 50.6263 7.62865   1
 -13   7  -3 74.0920 9.81032   1
 -13   7  -3 50.9616 9.67765   2
   6 -13  -3 49.8001 8.63113   2
  -7  -6   3 64.6599 7.25129   1
  13  -7   3 60.2734 7.50280   1
  -6  13   3 55.2565 13.8943   6
  -6  13   3 49.3858 11.3159   7
   8   5  -3 27.3152 7.58838   2
 -13   8  -3 31.9436 9.12248   2
   8   5  -3 25.7373 6.64366   1
   5 -13  -3 36.3230 7.82077   2
 -13   8  -3 35.8647 8.86881   1
  -5  13   3 38.7019 11.4668   7
  -8  -5   3 40.9903 6.71979   1
  13  -8   3 33.2511 6.61181   1
 -13   9  -3 23.4641 9.31823   2
   9   4  -3 35.4410 7.08586   1
 -13   9  -3 35.8809 8.84859   1
   4 -13  -3 27.0898 7.53325   2
   9   4  -3 22.5610 7.29270   2
  -9  -4   3 25.2179 5.84671   1
  -4  13   3 8.91605 10.3320   7
  13  -9   3 31.8114 6.55652   1
 -13  10  -3 29.5470 8.89451   1
  10   3  -3 34.9353 7.54135   1
  10   3  -3 33.6724 8.21254   2
   3 -13  -3 35.0213 8.21420   2
 -13  10  -3 14.8746 8.69431   2
 -10  -3   3 44.7044 6.59626   1
  13 -10   3 36.9072 7.19029   1
  11   2  -3 51.1326 9.29378   2
 -13  11  -3 49.6893 9.92837   1
  11   2  -3 43.3347 7.82275   1
   2 -13  -3 46.7486 8.57482   2
 -13  11  -3 28.6139 9.96798   2
  13 -11   3 40.0781 7.71181   1
 -11  -2   3 39.6091 6.93622   1
 -13  12  -3 107.578 12.0737   1
   1 -13  -3 71.0173 10.4127   2
 -13  12  -3 90.3146 12.4473   2
  12   1  -3 96.7044 10.0972   1
  12   1  -3 83.7921 10.5221   2
  13 -12   3 69.0750 9.10873   1
 -12  -1   3 65.3714 7.91668   1
  13   0  -3 13.6207 8.22730   2
 -13  13  -3 13.6131 10.5331   2
   0 -13  -3 13.5987 7.99771   2
 -13  13  -3 33.2575 10.4333   1
  13 -13   3 5.50668 7.33848   1
  -1 -13  -3 39.2960 9.24269   2
  14  -1  -3 40.4607 9.75952   2
 -13  14  -3 55.0294 11.4275   1
 -13  14  -3 50.2963 12.3069   2
  13 -14   3 55.0316 8.83270   1
  15  -2  -3 20.5848 9.36099   2
 -13  15  -3 -1.9248 10.9105   2
 -13  15  -3 13.4923 10.7595   1
  -2 -13  -3 16.9673 9.13077   2
  13 -15   3 -3.7999 7.27441   1
  16  -3  -3 15.2353 9.34676   2
 -13  16  -3 18.2129 14.1516   2
  -3 -13  -3 26.1449 9.98910   2
 -13  16  -3 5.23329 10.7270   1
  13 -16   3 12.4503 8.19769   1
 -13  17  -3 19.0182 11.3098   1
  -4 -13  -3 14.6137 10.7835   2
  17  -4  -3 26.7285 10.3234   2
  13 -17   3 24.3978 8.86836   1
  17 -14  -3 25.1091 11.4563   2
  -3  17  -3 -0.7642 10.9059   1
 -14  -3  -3 11.0636 9.25581   1
 -14  -3  -3 9.07854 11.1301   2
   3 -17   3 -9.7906 7.97889   1
 -14  -2  -3 4.36060 10.7660   2
 -14  -2  -3 0.06322 10.4595   1
  16 -14  -3 11.2560 9.82965   2
  -2  16  -3 23.8084 10.9469   1
   2 -16   3 4.33517 7.95485   1
 -14  -1  -3 2.74637 10.1672   1
  15 -14  -3 5.31410 9.36231   2
  -1  15  -3 12.7995 11.4330   2
  -1  15  -3 22.3726 10.3822   1
 -14  -1  -3 9.67347 10.3756   2
   1 -15   3 0.72636 7.33441   1
   0  14  -3 8.11759 9.38854   1
 -14   0  -3 -11.729 9.44630   1
 -14   0  -3 0.71837 9.33413   2
  14 -14  -3 8.01148 8.89543   2
   0  14  -3 9.11386 10.8166   2
   0 -14   3 -2.5936 6.87951   1
   1  13  -3 28.7574 11.6258   2
 -14   1  -3 30.3214 10.0645   2
  13 -14  -3 41.7495 9.96450   2
 -14   1  -3 45.8124 10.8300   1
   1  13  -3 41.2482 9.53044   1
  -1 -13   3 37.9393 7.91353   1
  14  -1   3 31.8343 6.74722   1
 -14   2  -3 30.9645 10.1901   2
   2  12  -3 29.0100 10.1391   2
 -14   2  -3 16.7620 9.69708   1
  12 -14  -3 21.0138 8.40698   2
   2  12  -3 20.8035 9.17480   1
  14  -2   3 32.3867 6.57643   1
  -2 -12   3 22.6393 7.28285   1
   3  11  -3 135.525 13.0175   2
 -14   3  -3 114.352 12.8968   1
   3  11  -3 113.727 11.6028   1
  11 -14  -3 104.014 11.8263   2
 -14   3  -3 118.447 13.2337   2
  14  -3   3 98.1677 9.33276   1
  -3 -11   3 88.0724 9.83414   1
   4  10  -3 91.7386 10.4606   1
 -14   4  -3 110.039 12.7043   2
   4  10  -3 93.0137 11.0429   2
  10 -14  -3 78.5019 10.6250   2
 -14   4  -3 71.5416 11.3306   1
  -4 -10   3 75.8063 8.78930   1
  14  -4   3 68.7658 8.24065   1
   9 -14  -3 135.104 12.9238   2
 -14   5  -3 155.007 13.7055   1
   5   9  -3 151.029 12.3830   1
 -14   5  -3 141.765 13.9101   2
   5   9  -3 158.454 13.4349   2
  14  -5   3 124.042 10.4281   1
  -5  -9   3 119.074 10.7197   1
   8 -14  -3 15.8255 7.62001   2
   6   8  -3 15.6746 7.35149   1
   6   8  -3 21.5473 7.93209   2
 -14   6  -3 24.8921 8.99510   1
 -14   6  -3 22.4331 9.00041   2
  -6  -8   3 10.7909 5.99667   1
  14  -6   3 4.62718 5.78187   1
   7   7  -3 14.9134 7.60165   2
   7   7  -3 15.5232 6.96775   1
 -14   7  -3 7.81480 8.34677   1
 -14   7  -3 16.0315 9.01954   2
   7 -14  -3 5.12375 7.27702   2
  14  -7   3 8.95607 6.00629   1
  -7  -7   3 8.24460 5.70794   1
   6 -14  -3 98.1731 10.9739   2
 -14   8  -3 88.1376 12.1734   2
   8   6  -3 101.259 10.0716   1
 -14   8  -3 100.868 11.8831   1
   8   6  -3 90.6385 10.8863   2
  14  -8   3 76.2963 8.81191   1
  -8  -6   3 76.6158 8.39440   1
 -14   9  -3 45.0076 10.0886   2
   5 -14  -3 44.3812 8.87864   2
 -14   9  -3 54.3381 10.2690   1
   9   5  -3 58.7597 9.37064   2
   9   5  -3 40.6438 7.92247   1
  -9  -5   3 39.6882 7.04841   1
  14  -9   3 27.6879 7.09597   1
   4 -14  -3 74.0179 10.3818   2
  10   4  -3 77.0652 10.2481   2
 -14  10  -3 67.9145 11.9001   2
  10   4  -3 83.9734 9.55298   1
 -14  10  -3 60.5931 10.9355   1
 -10  -4   3 57.7416 7.82581   1
  14 -10   3 57.7906 8.34588   1
   3 -14  -3 20.0739 8.40837   2
  11   3  -3 16.9575 7.88887   2
  11   3  -3 24.8667 7.95304   1
 -14  11  -3 24.1864 10.5246   2
 -14  11  -3 10.5999 9.47492   1
  14 -11   3 19.5061 7.19441   1
 -11  -3   3 22.4578 6.45352   1
 -14  12  -3 21.8019 10.2856   2
 -14  12  -3 29.2861 10.6885   1
  12   2  -3 21.9153 8.08308   1
   2 -14  -3 23.8911 8.56526   2
  12   2  -3 4.21023 8.38680   2
 -12  -2   3 36.6931 7.17190   1
  14 -12   3 32.9295 7.92099   1
 -14  13  -3 112.665 14.4827   2
 -14  13  -3 105.340 13.0559   1
  13   1  -3 96.4042 12.1297   2
  13   1  -3 111.367 11.6441   1
   1 -14  -3 87.9181 11.7126   2
  14 -13   3 80.4224 10.1795   1
  14   0  -3 5.19290 8.61309   2
  14   0  -3 10.1784 8.27369   1
 -14  14  -3 12.8822 10.9131   2
   0 -14  -3 1.35268 8.56617   2
 -14  14  -3 9.08255 10.3908   1
  14 -14   3 -1.1179 7.69871   1
  15  -1  -3 27.2753 9.65776   2
 -14  15  -3 24.7857 11.1678   1
  15  -1  -3 16.9288 15.7914   1
 -14  15  -3 37.5785 13.0724   2
  -1 -14  -3 16.1527 9.56192   2
  14 -15   3 24.2077 8.63723   1
  16  -2  -3 -6.4794 8.71520   2
  -2 -14  -3 27.7806 9.98674   2
 -14  16  -3 -0.7686 10.7355   1
  14 -16   3 2.62028 7.99032   1
  17  -3  -3 18.0751 10.6965   2
 -14  17  -3 35.9132 12.1112   1
  -3 -14  -3 23.2153 11.0543   2
  14 -17   3 19.6083 8.88325   1
 -15  -1  -3 22.7914 11.5687   2
  16 -15  -3 5.07644 10.2508   2
  -1  16  -3 -0.2730 10.5615   1
 -15  -1  -3 4.34340 11.8563   1
   1 -16   3 -12.711 7.55987   1
   0  15  -3 5.40656 10.1283   1
 -15   0  -3 12.8978 11.8617   1
   0  15  -3 23.9680 12.3113   2
  15 -15  -3 8.76227 9.63398   2
 -15   0  -3 2.69653 10.5550   2
   0 -15   3 -3.8187 7.33564   1
  14 -15  -3 -9.0434 8.52924   2
   1  14  -3 -1.7018 11.3461   2
 -15   1  -3 3.21659 10.0193   2
   1  14  -3 7.06711 9.79514   1
 -15   1  -3 -5.2032 10.6011   1
  15  -1   3 13.9150 6.31180   1
  -1 -14   3 0.49570 7.21923   1
 -15   2  -3 25.6068 10.2163   2
   2  13  -3 23.1511 9.92799   1
   2  13  -3 18.6162 10.6172   2
 -15   2  -3 25.7724 11.2801   1
  13 -15  -3 13.2568 9.19629   2
  -2 -13   3 22.3138 7.59978   1
  15  -2   3 15.0282 6.63370   1
  12 -15  -3 44.5794 9.94868   2
 -15   3  -3 41.8162 11.0163   2
 -15   3  -3 59.0133 11.7547   1
   3  12  -3 53.6501 10.7404   1
  15  -3   3 40.6773 7.41019   1
  -3 -12   3 40.5753 8.12982   1
   4  11  -3 46.0628 9.75028   1
 -15   4  -3 37.3455 10.4565   2
 -15   4  -3 35.4640 10.5774   1
  11 -15  -3 45.0177 9.90978   2
   4  11  -3 44.6521 9.74498   2
  -4 -11   3 33.4281 7.51374   1
  15  -4   3 39.4899 7.47452   1
 -15   5  -3 50.8160 11.0539   1
   5  10  -3 50.2473 9.78698   1
   5  10  -3 26.6606 8.97939   2
  10 -15  -3 37.9062 9.65226   2
 -15   5  -3 40.9132 10.8811   2
  15  -5   3 52.1786 7.90820   1
  -5 -10   3 31.2375 7.20484   1
   6   9  -3 21.4776 8.67575   1
 -15   6  -3 11.5396 9.55260   1
   6   9  -3 24.7158 8.74287   2
 -15   6  -3 35.6147 10.5516   2
   9 -15  -3 4.17430 8.13473   2
  -6  -9   3 36.1156 6.94159   1
  15  -6   3 23.4933 6.82160   1
   7   8  -3 49.9759 10.1662   2
   7   8  -3 56.2242 9.23327   1
 -15   7  -3 54.6797 10.9232   2
 -15   7  -3 56.1793 10.8934   1
   8 -15  -3 41.9294 9.60985   2
  15  -7   3 42.8837 7.77202   1
  -7  -8   3 49.7526 7.74734   1
   8   7  -3 27.9763 8.76893   2
   7 -15  -3 17.3667 8.93527   2
 -15   8  -3 32.0865 10.5249   2
 -15   8  -3 21.5060 9.82556   1
   8   7  -3 35.5792 8.61931   1
  -8  -7   3 33.5461 6.87832   1
  15  -8   3 21.9132 7.23055   1
   9   6  -3 6.96539 8.21166   2
   9   6  -3 11.4038 7.84130   1
 -15   9  -3 36.3256 10.2527   1
   6 -15  -3 12.2288 8.49828   2
 -15   9  -3 17.3100 9.85962   2
  -9  -6   3 5.63558 6.03379   1
  15  -9   3 13.0979 6.90636   1
 -15  10  -3 18.7706 10.2689   1
  10   5  -3 24.5766 8.32068   1
  10   5  -3 28.1170 9.06107   2
 -15  10  -3 22.8611 10.6317   2
   5 -15  -3 25.0699 9.09568   2
 -10  -5   3 23.3288 6.82507   1
  15 -10   3 24.2439 7.36326   1
 -15  11  -3 5.77263 10.3423   2
   4 -15  -3 10.6018 8.52137   2
  11   4  -3 6.96522 8.30689   2
 -15  11  -3 19.5391 10.0822   1
  11   4  -3 18.2807 8.05758   1
  15 -11   3 15.4982 7.24940   1
 -11  -4   3 25.9530 6.76012   1
  12   3  -3 79.1285 10.4185   1
 -15  12  -3 67.7179 13.0532   2
   3 -15  -3 58.6998 10.8306   2
  12   3  -3 55.4999 10.5229   2
 -15  12  -3 77.8516 12.4660   1
 -12  -3   3 53.2331 8.09865   1
  15 -12   3 64.2332 9.09628   1
  13   2  -3 28.3709 9.44706   2
 -15  13  -3 8.44665 10.4327   1
   2 -15  -3 17.4314 9.27067   2
  13   2  -3 20.5187 9.27487   1
 -15  13  -3 15.4632 11.2015   2
 -13  -2   3 14.4322 6.45312   1
  15 -13   3 9.61803 7.71046   1
  14   1  -3 29.4415 9.89221   1
 -15  14  -3 28.7413 11.3991   1
   1 -15  -3 34.3385 9.82417   2
  14   1  -3 24.9578 10.1125   2
 -15  14  -3 12.6435 11.6951   2
  15 -14   3 30.4764 8.67043   1
 -15  15  -3 10.1993 11.2779   1
  15   0  -3 19.8955 10.1305   1
   0 -15  -3 18.7990 10.0380   2
 -15  15  -3 25.4833 13.0589   2
  15   0  -3 17.6034 9.96814   2
  15 -15   3 21.6846 8.79427   1
 -15  16  -3 45.1371 12.6103   1
  -1 -15  -3 32.3995 11.2655   2
  16  -1  -3 24.8991 10.8820   2
  16  -1  -3 70.7183 11.8801   1
  15 -16   3 34.1409 9.87086   1
 -16   0  -3 9.89439 12.3937   1
  16 -16  -3 7.81336 10.7278   2
   0  16  -3 24.1583 11.2789   1
 -16   0  -3 4.47969 11.6973   2
   0 -16   3 -8.3160 7.84829   1
  15 -16  -3 5.02333 10.0305   2
 -16   1  -3 11.6398 11.8651   1
   1  15  -3 34.9023 11.1900   1
   1  15  -3 39.8404 21.6324   2
 -16   1  -3 20.2850 11.4553   2
  -1 -15   3 14.3235 8.05076   1
   2  14  -3 -13.208 11.3340   2
   2  14  -3 -3.6111 10.1682   1
 -16   2  -3 -15.347 10.3721   2
 -16   2  -3 2.69387 11.6743   1
  14 -16  -3 -8.0471 9.20021   2
  -2 -14   3 5.94337 7.46821   1
  16  -2   3 3.07709 6.67294   1
   3  13  -3 31.9442 10.8618   1
 -16   3  -3 15.9861 12.0561   1
 -16   3  -3 -10.565 9.96441   2
  13 -16  -3 11.3194 9.03489   2
   3  13  -3 9.87180 11.2399   2
  -3 -13   3 -0.0933 7.28664   1
  16  -3   3 16.3021 6.76554   1
   4  12  -3 15.7992 10.1098   1
  12 -16  -3 16.8276 9.60984   2
 -16   4  -3 29.3937 10.9242   2
   4  12  -3 5.58366 9.57300   2
 -16   4  -3 11.8539 11.1096   1
  -4 -12   3 12.1467 7.17700   1
  16  -4   3 8.68351 6.90699   1
   5  11  -3 6.66998 9.27092   1
 -16   5  -3 11.3863 11.0067   1
 -16   5  -3 18.8983 10.5594   2
  11 -16  -3 25.9388 9.40006   2
   5  11  -3 5.53117 8.82287   2
  16  -5   3 9.23454 6.89589   1
  -5 -11   3 11.0965 7.09016   1
  10 -16  -3 25.5959 9.39536   2
   6  10  -3 13.7780 8.86625   2
   6  10  -3 1.52117 9.07999   1
 -16   6  -3 9.30585 10.7105   1
 -16   6  -3 -0.6898 9.87519   2
  -6 -10   3 7.40642 6.40997   1
  16  -6   3 14.7911 7.02711   1
   7   9  -3 19.9164 9.48558   1
 -16   7  -3 33.0175 11.2937   1
   9 -16  -3 20.9721 9.35586   2
   7   9  -3 36.6381 9.74319   2
 -16   7  -3 20.5925 10.7397   2
  -7  -9   3 19.6825 6.93055   1
  16  -7   3 32.6624 7.46909   1
 -16   8  -3 4.98839 9.80556   1
 -16   8  -3 -9.8900 9.32682   2
   8   8  -3 1.17847 8.95403   2
   8 -16  -3 -7.9278 8.48284   2
   8   8  -3 -10.709 8.23597   1
  -8  -8   3 0.87584 6.21702   1
  16  -8   3 5.74858 6.81001   1
   9   7  -3 2.57822 8.61225   2
   9   7  -3 -5.0154 8.49507   1
   7 -16  -3 -1.6784 8.64657   2
 -16   9  -3 -1.9857 10.2993   1
 -16   9  -3 -2.6024 10.2408   2
  -9  -7   3 8.14819 6.57312   1
  16  -9   3 0.42892 6.74703   1
 -16  10  -3 16.9857 11.6859   2
 -16  10  -3 9.43991 10.2521   1
   6 -16  -3 21.5554 9.28740   2
  10   6  -3 6.00771 8.79364   2
  10   6  -3 23.6331 9.31858   1
  16 -10   3 17.2413 7.84693   1
 -10  -6   3 4.26109 6.48067   1
 -16  11  -3 -9.8919 10.3557   2
   5 -16  -3 2.21973 9.03313   2
  11   5  -3 0.24068 8.16537   1
 -16  11  -3 5.27433 10.5030   1
  11   5  -3 21.7918 9.37888   2
 -11  -5   3 -6.6479 6.45006   1
  16 -11   3 6.24631 7.31227   1
 -16  12  -3 12.3050 11.0481   1
 -16  12  -3 -20.926 10.6797   2
   4 -16  -3 -13.827 8.59409   2
  12   4  -3 2.05832 8.98447   1
  12   4  -3 -3.0637 8.47884   2
  16 -12   3 -1.8051 7.47746   1
 -12  -4   3 0.20668 6.82252   1
  13   3  -3 61.1190 11.2721   1
   3 -16  -3 33.3560 10.2285   2
 -16  13  -3 46.8262 12.1134   1
 -16  13  -3 35.9521 13.0831   2
  13   3  -3 47.7681 10.7882   2
  16 -13   3 28.7090 8.51856   1
 -13  -3   3 37.9588 7.72275   1
 -16  14  -3 10.0333 12.1691   2
  14   2  -3 20.5985 10.1217   2
 -16  14  -3 13.2157 11.2342   1
  14   2  -3 -7.9486 9.74991   1
   2 -16  -3 32.4930 10.3513   2
  16 -14   3 2.34264 8.20836   1
 -16  15  -3 -16.246 10.9144   1
  15   1  -3 -7.0212 10.0778   1
  15   1  -3 -11.100 9.45435   2
   1 -16  -3 1.53321 9.52393   2
  16 -15   3 10.0839 8.64740   1
   0 -16  -3 14.7604 10.5469   2
  16   0  -3 -2.9438 10.6677   1
 -16  16  -3 16.1570 11.9221   1
  16   0  -3 19.6210 10.6847   2
  16 -16   3 16.9837 8.91174   1
 -17   3  -3 -7.5746 11.9305   1
   3  14  -3 0.18348 12.1061   2
 -17   3  -3 25.9388 12.1300   2
   3  14  -3 17.7405 10.7474   1
  14 -17  -3 11.4501 10.1542   2
  -3 -14   3 14.6934 8.08131   1
  17  -3   3 2.51658 7.03102   1
 -17   4  -3 -9.9174 11.8762   1
   4  13  -3 -5.3906 10.4033   1
  13 -17  -3 -4.3660 9.13384   2
 -17   4  -3 -5.7605 10.4873   2
  17  -4   3 -3.5911 6.75325   1
  -4 -13   3 5.56652 7.55173   1
 -17   5  -3 -1.3237 10.8630   2
   5  12  -3 4.20086 9.99123   1
   5  12  -3 -1.1631 9.19664   2
  12 -17  -3 5.19347 9.79235   2
 -17   5  -3 8.81492 11.5561   1
  17  -5   3 -2.2261 6.82145   1
  -5 -12   3 5.35035 7.26787   1
   6  11  -3 -2.5440 9.54785   1
 -17   6  -3 27.3280 11.5272   2
  11 -17  -3 -7.0295 9.09634   2
 -17   6  -3 3.18069 11.6080   1
   6  11  -3 16.9662 9.60077   2
  -6 -11   3 9.61885 7.36421   1
  17  -6   3 6.22747 7.28747   1
  10 -17  -3 12.5825 9.61628   2
 -17   7  -3 -9.0112 10.5611   1
   7  10  -3 11.0604 10.2590   1
   7  10  -3 15.1712 9.64052   2
 -17   7  -3 20.0559 11.7501   2
  -7 -10   3 -2.2782 6.49166   1
  17  -7   3 -11.300 6.74858   1
   9 -17  -3 -3.6473 9.01175   2
   8   9  -3 -7.4656 9.45735   1
 -17   8  -3 14.7230 11.4811   1
 -17   8  -3 16.2300 11.3558   2
   8   9  -3 0.69343 9.05210   2
  -8  -9   3 9.97744 7.20423   1
  17  -8   3 6.34315 7.19875   1
   9   8  -3 27.6488 10.5552   2
 -17   9  -3 31.2253 11.5047   2
 -17   9  -3 25.5913 11.5655   1
   8 -17  -3 41.6159 10.7974   2
   9   8  -3 54.6278 11.3376   1
  -9  -8   3 28.1169 7.64797   1
  17  -9   3 33.3958 8.29374   1
  10   7  -3 21.4583 10.3251   2
 -17  10  -3 29.5574 11.5401   1
 -17  10  -3 23.2496 11.8171   2
  10   7  -3 38.0412 10.3344   1
   7 -17  -3 9.69750 9.82304   2
  17 -10   3 41.6531 8.52407   1
 -10  -7   3 30.8228 7.62224   1
 -17  11  -3 -3.7120 11.2474   2
  11   6  -3 17.1761 10.1041   1
   6 -17  -3 13.9568 9.76069   2
  11   6  -3 -0.9119 8.99035   2
 -17  11  -3 14.1557 11.6004   1
 -11  -6   3 1.94449 6.82123   1
  17 -11   3 -9.5281 7.63340   1
  12   5  -3 6.99878 9.72741   2
 -17  12  -3 4.13885 11.2165   1
   5 -17  -3 13.5143 9.84442   2
 -17  12  -3 25.1829 12.6809   2
  12   5  -3 2.15762 9.59157   1
  17 -12   3 -7.2991 7.57846   1
 -12  -5   3 -2.8684 6.60860   1
 -17  13  -3 11.0455 11.9319   2
  13   4  -3 -5.2120 10.0493   1
  13   4  -3 -3.4118 9.65551   2
   4 -17  -3 4.27454 10.1677   2
 -17  13  -3 8.09542 11.1527   1
  17 -13   3 3.97913 7.71750   1
 -13  -4   3 0.44319 6.59590   1
  14   3  -3 3.25243 10.0580   2
 -17  14  -3 1.68522 11.4058   1
  14   3  -3 20.3127 10.6106   1
   3 -17  -3 7.76111 10.3055   2
  17 -14   3 12.7192 8.34448   1
   6  12  -3 -18.240 9.28599   2
  12 -18  -3 -8.2905 9.89176   2
 -18   6  -3 17.0956 12.4544   1
   6  12  -3 33.1388 11.1624   1
 -18   6  -3 0.02145 11.8326   2
  18  -6   3 6.62840 7.60790   1
  -6 -12   3 2.99847 7.25861   1
  11 -18  -3 7.51445 10.3053   2
   7  11  -3 -9.8848 9.49020   2
   7  11  -3 5.91121 10.5795   1
 -18   7  -3 14.5433 12.1985   1
 -18   7  -3 8.87057 12.1074   2
  -7 -11   3 -7.2750 7.09491   1
  18  -7   3 6.71041 7.83372   1
   8  10  -3 4.88174 10.6966   1
   8  10  -3 -5.7525 9.04735   2
 -18   8  -3 -2.0290 11.2939   1
  10 -18  -3 10.1003 10.1393   2
 -18   8  -3 -24.069 10.8409   2
  -8 -10   3 -0.1938 7.00487   1
  18  -8   3 9.63554 7.51218   1
 -18   9  -3 29.0535 13.1105   2
   9   9  -3 21.4055 10.4465   2
 -18   9  -3 12.3114 12.2246   1
   9 -18  -3 23.3519 10.5784   2
   9   9  -3 45.5761 11.8067   1
  18  -9   3 34.6119 8.19244   1
  -9  -9   3 22.0770 7.58964   1
  10   8  -3 21.5517 10.7815   2
   8 -18  -3 5.45005 10.2807   2
 -18  10  -3 -0.9509 11.4912   2
 -18  10  -3 11.5747 11.7564   1
  10   8  -3 11.2088 10.9365   1
  18 -10   3 17.0259 8.26561   1
 -10  -8   3 1.28186 7.15422   1
  11   7  -3 6.50707 10.3776   1
 -18  11  -3 6.40294 12.3908   2
 -18  11  -3 9.95603 11.5207   1
   7 -18  -3 13.3087 11.0012   2
  11   7  -3 5.31412 10.1047   2
  18 -11   3 13.0140 8.17567   1
 -11  -7   3 23.3614 7.75855   1
 -18  12  -3 7.68305 12.7592   2
 -18  12  -3 9.15122 11.7954   1
  12   6  -3 9.05158 10.6083   1
  12   6  -3 -3.1031 9.74454   2
   6 -18  -3 11.3450 10.6034   2
 -12  -6   3 4.29405 7.02615   1
  18 -12   3 1.91800 8.29612   1
   0   0  -4 74.3343 7.60950   3
   0   0   4 40.5539 6.32734   3
   0   0   4 43.0256 5.88417   8
   0   0   4 56.3004 7.10600   5
   0   1  -4 27.9847 5.44261   3
   1  -1  -4 23.6710 5.77305   3
   0   1  -4 24.2266 2.76241   2
  -1   0  -4 24.4733 5.64385   3
  -1   1   4 21.5121 4.91623   8
   0  -1   4 13.1286 5.29939   5
  -1   1   4 20.4312 5.70355   3
   0  -1   4 12.4612 4.36640   3
   0  -1   4 21.3162 3.51516   7
  -1   1   4 16.8337 5.15225   5
   0  -1   4 17.7306 4.64934   8
   1   0   4 16.2358 4.38274   8
   1   0  -4 2.67852 4.51043   3
  -1   1  -4 6.69554 2.08773   2
  -1   1  -4 4.71130 4.32307   3
   0  -1  -4 9.08723 5.03835   3
  -1   0   4 3.21418 4.07157   8
   1  -1   4 5.23567 3.04260   7
  -1   0   4 6.40855 4.63284   3
   0   1   4 7.53925 4.09265   8
   1  -1   4 5.90402 4.08047   8
   1  -1   4 2.19399 4.47746   5
  -1   0   4 3.34996 4.61603   5
   2  -1  -4 101.803 10.4285   3
  -1   2  -4 100.856 8.99393   3
  -1   2  -4 95.9686 6.33890   2
  -1  -1  -4 101.654 10.3389   3
   1  -2   4 97.8674 8.90198   5
   1   1   4 105.173 8.54946   8
   1  -2   4 97.5971 8.01245   8
  -2   1   4 111.139 9.21891   5
  -2   1   4 105.090 8.59146   8
  -2   1   4 90.7387 9.99376   3
   1  -2   4 94.1819 7.88160   7
  -1   3  -4 422.144 18.4982   2
  -2  -1  -4 398.867 17.8135   2
  -2  -1  -4 403.129 22.2735   3
   3  -2  -4 420.161 22.4998   3
  -1   3  -4 414.426 20.1303   3
   1  -3   4 365.327 20.7510   5
   1  -3   4 331.922 19.6612   7
   2   1   4 340.862 19.7954   8
  -3   2   4 336.207 21.6528   3
   2   1   4 340.121 18.7607   7
  -3   2   4 358.285 20.1809   5
   1  -3   4 339.397 19.3294   8
  -3   2   4 332.964 19.7999   8
   2  -2  -4 16.0954 5.84177   3
   0   2  -4 16.9529 3.01211   2
   0   2  -4 15.1483 4.70887   3
  -2   0  -4 19.4994 5.53954   3
  -2   0  -4 15.3839 2.55017   2
  -2   2   4 22.1214 5.10354   8
   0  -2   4 32.3847 4.77990   7
   2   0   4 27.2683 4.07843   7
  -2   2   4 24.1127 6.29549   3
   0  -2   4 25.6811 4.92993   8
   0  -2   4 38.4184 5.32595   3
   0  -2   4 38.8700 6.27100   5
  -2   2   4 43.8445 5.87196   5
   2   0   4 33.5479 5.25437   8
  -2   1  -4 11.7199 2.56609   2
   1   1  -4 9.53906 4.58320   3
  -2   1  -4 6.27538 4.79098   3
   1   1  -4 7.28872 2.27659   2
   1  -2  -4 12.9704 5.58326   3
   2  -1   4 8.84339 3.50068   7
  -1  -1   4 8.14063 4.99738   5
  -1  -1   4 8.30445 4.34218   8
   2  -1   4 11.3590 4.43406   8
  -1  -1   4 4.20426 3.09492   7
  -1   2   4 3.45531 4.98044   3
  -1  -1   4 11.0503 4.47262   3
  -1   2   4 15.0882 4.74791   8
   0  -2  -4 939.855 47.1868   3
  -2   2  -4 934.290 45.9428   3
  -2   2  -4 975.323 43.8328   2
   2   0  -4 932.285 43.3418   2
   2   0  -4 941.431 46.6293   3
   2  -2   4 940.185 44.9652   7
  -2   0   4 911.087 45.6607   5
   0   2   4 915.766 45.1562   8
  -2   0   4 959.206 44.2812   7
  -2   0   4 920.374 46.3780   3
   2  -2   4 953.492 45.2585   8
  -2   0   4 961.232 45.2646   8
   2  -2   4 964.834 45.9278   5
   3  -1  -4 289.212 14.6437   2
  -1  -2  -4 337.035 15.0014   2
  -2   3  -4 302.149 15.4240   2
  -2   3  -4 313.303 17.2043   3
  -1  -2  -4 323.060 20.2245   3
   3  -1  -4 338.344 19.2451   3
   2  -3   4 291.630 17.8843   5
   2  -3   4 295.268 17.0206   7
   2  -3   4 281.516 16.8542   8
  -3   1   4 297.768 17.5042   5
  -3   1   4 314.830 17.3524   8
   1   2   4 294.900 16.7491   8
  -3   1   4 285.012 18.4905   3
  -3   1   4 294.995 15.6765   7
   4  -2  -4 869.921 39.3954   2
  -2  -2  -4 845.868 39.3809   9
  -2  -2  -4 865.815 39.5201   2
  -2   4  -4 848.735 40.8513   3
  -2   4  -4 849.701 40.1471   2
  -4   2   4 864.074 43.7068   3
   2  -4   4 856.956 41.8856   7
  -4   2   4 829.248 40.2537   7
   2   2   4 823.979 41.2957   8
  -4   2   4 853.742 41.7364   5
   2  -4   4 832.460 42.0078   5
   2   2   4 861.334 40.4984   7
  -4   2   4 828.124 41.4883   8
   2  -4   4 880.370 41.1392   8
   5  -3  -4 363.561 17.4844   2
  -2   5  -4 373.637 18.5630   2
  -3  -2  -4 359.709 18.0557   9
  -3  -2  -4 372.131 17.8460   2
  -5   3   4 343.246 18.8288   7
   3   2   4 347.364 19.8309   8
   2  -5   4 348.977 20.5574   7
   2  -5   4 357.851 19.0923   8
  -5   3   4 327.837 20.1084   8
   3   2   4 353.379 19.3300   7
   2  -5   4 361.114 20.7434   5
  -5   3   4 376.384 22.9085   3
  -1   4  -4 912.051 46.5424   3
  -1   4  -4 916.145 46.0856   2
  -3  -1  -4 917.751 45.7427   9
   4  -3  -4 959.626 45.2415   2
  -3  -1  -4 929.414 45.6104   2
  -4   3   4 1054.30 47.5060   5
   1  -4   4 974.128 46.8201   8
  -4   3   4 1002.96 47.5289   8
  -4   3   4 1076.22 50.0518   3
   1  -4   4 980.046 47.7684   7
  -4   3   4 1024.94 46.0626   7
   1  -4   4 1019.96 48.1809   5
   3   1   4 1040.94 47.6624   8
   3   1   4 1018.22 46.9739   7
  -3   0  -4 817.122 38.6304   9
  -3   0  -4 832.249 38.5664   2
   0   3  -4 827.025 40.1640   3
   0  -3   4 812.921 40.3698   7
   3   0   4 799.950 40.2995   8
   0  -3   4 819.814 40.9768   5
   3   0   4 827.286 39.8754   7
   0  -3   4 853.441 40.4032   7
  -3   3   4 818.229 40.3066   8
  -3   3   4 845.736 42.5691   3
   0  -3   4 844.157 39.7536   8
  -3   3   4 818.638 40.2113   5
   0  -3   4 828.625 39.8151   3
  -3   1  -4 965.230 43.1024   2
   1   2  -4 941.586 43.0747   2
   2  -3  -4 943.685 49.4039   3
  -3   1  -4 926.532 43.1395   9
  -1  -2   4 951.024 44.3578   8
  -2   3   4 901.357 44.5444   8
  -1  -2   4 961.783 45.4979   5
  -2   3   4 909.450 46.6690   3
   3  -1   4 940.085 44.5727   7
  -1  -2   4 892.137 44.6207   3
  -1  -2   4 909.555 44.1647   7
  -1  -2   4 915.038 44.4591   7
   3  -1   4 910.858 44.6953   8
  -2   3   4 898.045 44.6935   5
  -3   2  -4 148.556 9.20269   2
  -3   2  -4 144.640 11.8616   3
   2   1  -4 154.891 8.78865   2
  -2  -1   4 163.738 10.7357   8
  -1   3   4 158.044 10.9601   8
  -2  -1   4 166.535 10.5099   7
   3  -2   4 166.544 11.2431   7
   3  -2   4 167.535 11.2101   8
  -2  -1   4 171.011 11.7306   3
  -1   3   4 168.343 13.4203   3
  -2  -1   4 161.757 12.0114   5
  -3   3  -4 437.374 20.5724   2
  -3   3  -4 412.450 22.4030   3
   3   0  -4 418.810 19.8485   2
  -3   0   4 404.551 23.2031   3
   3  -3   4 410.913 21.8062   8
   3  -3   4 411.340 22.4569   5
   0   3   4 401.991 21.6262   8
  -3   0   4 425.078 21.8399   8
  -3   0   4 394.768 21.0877   7
   3  -3   4 410.287 22.1515   7
  -3   0   4 404.057 22.4630   5
   4  -1  -4 2272.24 106.068   2
  -3   4  -4 2374.63 106.799   2
  -1  -3  -4 2294.10 105.906   2
  -3   4  -4 2325.06 107.735   3
   1   3   4 2373.39 107.750   8
   3  -4   4 2376.87 107.765   8
  -4   1   4 2345.64 107.984   8
   3  -4   4 2362.22 108.546   7
  -4   1   4 2315.25 109.762   3
   3  -4   4 2365.81 108.385   5
   1   3   4 2252.20 106.620   7
  -4   1   4 2288.35 107.206   7
  -3   5  -4 468.672 23.7641   3
  -2  -3  -4 477.385 22.6932   2
  -3   5  -4 475.079 23.5413   2
  -2  -3  -4 455.919 22.6117   9
   5  -2  -4 492.444 22.6941   2
   3  -5   4 432.977 25.3490   7
   3  -5   4 459.547 25.4296   5
   2   3   4 454.891 24.4809   8
  -5   2   4 476.170 24.1340   7
   3  -5   4 468.910 24.3303   8
  -5   2   4 497.174 27.4487   3
  -5   2   4 477.124 25.1820   8
   2   3   4 479.405 24.0207   7
  -3   6  -4 52.8378 5.93857   2
  -3  -3  -4 69.8456 6.04685   9
   6  -3  -4 69.4081 5.27700   2
  -3  -3  -4 60.1820 5.25386   2
  -6   3   4 49.6234 7.64229   8
  -6   3   4 49.7904 9.45890   3
   3   3   4 54.1346 6.85738   7
   3  -6   4 39.3860 7.31404   5
   3  -6   4 52.8034 6.65020   8
   3   3   4 49.1784 7.01527   8
  -6   3   4 54.8041 6.87963   7
  -3   7  -4 306.614 17.4937   2
  -4  -3  -4 310.304 17.4587   9
  -4  -3  -4 301.188 16.6101   2
   7  -4  -4 308.129 16.4002   2
   4   3   4 296.574 18.1127   8
   3  -7   4 313.984 17.3458   8
  -7   4   4 338.028 22.6330   3
  -7   4   4 336.089 18.9318   7
   4   3   4 316.757 18.7550   7
   6  -4  -4 31.6921 3.98151   2
  -4  -2  -4 47.5585 5.44863   9
  -2   6  -4 32.1732 4.88432   2
  -4  -2  -4 38.1807 4.49361   2
  -6   4   4 25.3719 5.40323   7
   2  -6   4 22.5336 7.06365   7
   2  -6   4 22.7227 4.97616   8
  -6   4   4 19.5726 6.69581   8
  -6   4   4 28.9051 8.49440   3
   4   2   4 26.4548 6.25595   8
   4   2   4 29.8415 5.87959   7
   5  -4  -4 423.494 21.5366   2
  -4  -1  -4 421.722 22.4856   9
  -4  -1  -4 438.182 22.1770   2
  -1   5  -4 451.304 22.6171   2
  -5   4   4 468.291 23.0059   7
   1  -5   4 456.098 24.7057   7
   4   1   4 457.114 23.7928   7
  -5   4   4 472.480 24.4788   8
  -5   4   4 488.830 27.3882   3
   1  -5   4 462.053 24.9704   7
   4   1   4 444.251 23.7940   8
   1  -5   4 463.256 23.0898   8
  -5   4   4 420.798 23.5106   5
   4  -4  -4 948.052 45.3317   2
  -4   0  -4 929.399 46.2597   9
  -4   0  -4 975.106 45.9586   2
   0  -4   4 1008.82 46.5627   3
  -4   4   4 985.862 47.6003   8
   0  -4   4 1012.24 46.9481   8
   4   0   4 1000.48 47.5694   7
  -4   4   4 989.553 47.3769   5
  -4   4   4 1005.39 50.2601   3
   0  -4   4 993.694 48.1968   7
   0  -4   4 986.305 48.0384   7
   4   0   4 999.967 47.7321   8
   1   3  -4 433.050 20.1866   2
   3  -4  -4 426.117 19.2215   2
  -4   1  -4 420.720 20.1308   2
  -4   1  -4 415.949 20.7046   9
  -1  -3   4 409.990 21.9146   7
  -1  -3   4 398.286 21.2399   8
  -3   4   4 391.219 21.7042   8
  -3   4   4 399.162 24.4272   3
  -1  -3   4 396.472 21.2441   3
  -1  -3   4 412.885 22.2695   7
   4  -1   4 378.661 21.8443   8
  -3   4   4 382.325 21.6604   5
   4  -1   4 404.614 22.0003   7
  -4   2  -4 191.037 11.1986   2
   2   2  -4 206.386 11.0543   2
  -4   2  -4 189.889 11.8841   9
  -2  -2   4 203.587 13.0748   7
   4  -2   4 196.187 13.5346   7
   4  -2   4 212.180 13.2675   8
  -2   4   4 207.927 15.9320   3
  -2  -2   4 202.120 12.4733   8
  -2  -2   4 226.343 13.4617   3
  -2   4   4 188.114 12.6438   8
   1  -4  -4 3615.61 164.971   2
  -4   3  -4 3724.27 165.989   2
  -4   3  -4 3516.49 166.169   9
   3   1  -4 3603.73 165.553   2
  -3  -1   4 3789.82 167.046   8
  -1   4   4 3668.71 169.290   3
  -3  -1   4 3684.35 168.193   3
  -3  -1   4 3777.18 167.166   7
   4  -3   4 3471.36 167.110   8
  -1   4   4 3556.45 166.849   8
   4  -3   4 3632.84 167.679   7
   4   0  -4 266.109 13.1108   2
  -4   4  -4 252.532 14.5911   9
  -4   4  -4 270.058 14.0179   2
   0  -4  -4 234.729 12.5470   2
  -4   0   4 255.398 15.3041   8
   0   4   4 232.940 14.6229   8
   4  -4   4 250.964 16.0586   5
  -4   0   4 255.263 16.8594   3
   4  -4   4 252.005 15.1741   8
   4  -4   4 262.409 16.2838   7
  -4   0   4 259.659 14.9537   7
   0   4   4 241.586 13.5475   7
  -4   5  -4 42.5636 5.13683   2
  -1  -4  -4 36.3227 3.90824   9
   5  -1  -4 30.2934 3.93858   2
  -1  -4  -4 37.5171 3.83768   2
  -5   1   4 39.8681 7.79291   3
   4  -5   4 39.3818 7.08666   7
  -5   1   4 42.4591 6.59675   8
   1   4   4 55.9892 6.64250   8
  -5   1   4 43.8811 5.82011   7
   4  -5   4 32.6743 6.03459   8
   1   4   4 34.2658 5.16800   7
   4  -5   4 48.2570 7.06588   5
  -2  -4  -4 8.67687 3.69315   9
  -4   6  -4 14.2542 4.31367   2
   6  -2  -4 16.1475 3.53425   2
  -2  -4  -4 14.6088 3.23264   2
  -6   2   4 10.0663 6.89126   3
   4  -6   4 24.9959 5.65353   8
   4  -6   4 14.9442 5.86325   5
   2   4   4 14.6791 5.12903   8
  -6   2   4 13.8000 5.09216   7
  -6   2   4 18.8833 6.36237   8
   2   4   4 18.2020 5.03203   7
  -4   7  -4 442.025 22.3894   2
  -3  -4  -4 434.973 21.4209   2
   7  -3  -4 435.379 21.4147   2
   4  -7   4 415.320 22.5435   8
  -7   3   4 408.601 23.6166   7
   4  -7   4 417.350 23.7346   5
   3   4   4 433.133 23.0337   8
  -7   3   4 413.688 26.7165   3
   3   4   4 413.617 23.3517   7
   8  -4  -4 181.800 11.8963   2
  -4   8  -4 187.448 13.0633   2
  -4   8  -4 175.294 12.0349   1
  -4  -4  -4 172.936 11.9596   2
   4   4   4 203.027 14.0203   8
   4  -8   4 214.777 11.0811   1
  -8   4   4 219.472 15.2719   7
   4  -8   4 205.274 13.0234   8
  -4   9  -4 345.429 19.3043   2
  -5  -4  -4 351.172 18.4326   2
  -4   9  -4 355.559 18.3803   1
   9  -5  -4 328.703 17.9793   2
   4  -9   4 298.010 17.0290   1
   5   4   4 307.617 19.4241   8
  -9   5   4 300.445 20.9851   7
   8  -5  -4 17.7604 4.32812   2
  -5  -3  -4 23.6514 4.91868   2
  -3   8  -4 15.9364 4.85574   1
  -3   8  -4 18.2359 5.26404   2
   3  -8   4 8.62682 7.31537   7
   3  -8   4 16.0162 3.76830   1
   5   3   4 18.3963 6.54783   8
  -8   5   4 9.71901 6.43408   7
   3  -8   4 18.1785 4.99679   8
  -5  -2  -4 179.853 13.1217   9
   7  -5  -4 206.254 11.7581   2
  -2   7  -4 192.927 12.7161   2
  -5  -2  -4 186.689 11.9747   2
   2  -7   4 218.038 12.7028   8
   2  -7   4 210.885 15.9547   7
  -7   5   4 209.737 18.3536   3
   5   2   4 217.922 14.6596   8
  -7   5   4 210.090 14.3517   7
  -5  -1  -4 342.598 18.9448   9
   6  -5  -4 376.092 17.8066   2
  -1   6  -4 368.201 18.8207   2
  -5  -1  -4 353.030 18.3250   2
   5   1   4 352.647 20.4578   7
   1  -6   4 326.638 21.2104   7
  -6   5   4 351.125 19.5313   7
   5   1   4 320.410 20.0043   8
  -6   5   4 373.870 20.8621   8
   1  -6   4 334.772 18.5297   8
  -6   5   4 367.354 23.6980   3
  -5   0  -4 381.792 20.3778   2
   5  -5  -4 408.717 19.7766   2
  -5   0  -4 370.877 21.1059   9
  -5   5   4 410.516 21.2461   7
  -5   5   4 399.268 25.1408   3
   0  -5   4 416.379 23.3176   7
  -5   5   4 428.136 21.6117   5
  -5   5   4 441.915 22.9489   8
   0  -5   4 428.489 21.2433   8
   5   0   4 389.420 22.3739   7
   5   0   4 399.522 22.4191   8
  -5   1  -4 579.390 28.4657   9
   4  -5  -4 592.218 27.0356   2
   1   4  -4 584.095 27.9224   2
  -5   1  -4 599.524 27.8809   2
  -1  -4   4 573.977 28.6152   8
  -4   5   4 538.498 28.7034   5
  -1  -4   4 581.434 28.3854   3
  -1  -4   4 565.051 29.8568   7
  -4   5   4 558.585 29.2683   8
  -1  -4   4 556.234 30.0819   7
   5  -1   4 580.355 29.7332   8
   5  -1   4 563.515 29.7959   7
  -4   5   4 581.639 32.2985   3
  -4   5   4 562.331 28.0859   7
  -5   2  -4 131.883 11.0285   9
   3  -5  -4 151.407 8.86607   2
  -5   2  -4 150.439 9.91878   2
   2   3  -4 153.788 10.0093   2
  -3   5   4 167.589 11.6305   8
  -2  -3   4 196.750 12.7653   7
   5  -2   4 172.514 12.7989   7
   5  -2   4 178.932 12.3383   8
  -2  -3   4 200.160 12.3519   7
  -2  -3   4 176.678 11.6431   3
  -3   5   4 160.717 14.9632   3
  -2  -3   4 180.036 11.3637   8
  -5   3  -4 148.645 11.0665   9
   2  -5  -4 150.506 8.36185   2
   3   2  -4 156.927 9.42771   2
  -5   3  -4 148.959 9.93738   2
  -3  -2   4 152.560 11.9936   3
   5  -3   4 172.834 11.9569   8
  -3  -2   4 162.795 12.0517   7
   5  -3   4 173.986 12.8356   7
  -2   5   4 162.972 14.5847   3
  -2   5   4 161.984 11.3945   8
  -3  -2   4 161.242 11.1614   8
   1  -5  -4 18.8300 2.98887   2
  -5   4  -4 19.5608 5.22613   9
  -5   4  -4 26.2529 4.35700   2
   4   1  -4 23.9576 3.76257   2
   5  -4   4 17.8122 5.71977   8
  -1   5   4 19.0461 4.24404   7
  -4  -1   4 21.0167 5.45388   8
  -1   5   4 16.5521 4.12508   7
  -1   5   4 12.1812 5.10719   8
   5  -4   4 21.1337 5.74013   7
  -4  -1   4 18.6216 6.09314   3
  -4  -1   4 18.5806 5.27976   7
  -5   5  -4 609.058 30.6641   9
   0  -5  -4 604.330 28.8219   2
  -5   5  -4 618.530 29.9952   2
   5   0  -4 613.825 29.2475   2
  -5   0   4 611.078 31.0721   8
   0   5   4 605.773 30.3127   8
   5  -5   4 625.075 31.5278   5
  -5   0   4 609.243 31.1087   7
   0   5   4 623.442 30.1267   7
  -5   0   4 588.200 32.9002   3
   0   5   4 579.793 29.9877   7
   5  -5   4 600.866 31.1538   8
   6  -1  -4 123.052 8.11930   2
  -5   6  -4 118.492 10.7226   9
  -1  -5  -4 114.886 7.66111   2
  -5   6  -4 123.335 9.57357   2
   1   5   4 117.497 9.95641   8
   1   5   4 123.836 10.1482   7
  -6   1   4 109.995 10.6030   7
  -6   1   4 105.504 11.9498   3
   5  -6   4 119.507 10.7004   5
  -6   1   4 143.324 11.6474   8
   5  -6   4 114.712 10.2768   8
  -2  -5  -4 31.4244 4.51427   2
  -5   7  -4 26.2060 6.28484   9
   7  -2  -4 34.8347 4.73626   2
  -5   7  -4 28.7008 5.57614   2
  -7   2   4 26.2939 8.35972   3
   5  -7   4 33.0374 6.86219   5
   2   5   4 29.4310 6.18290   7
   5  -7   4 21.2595 6.23232   8
  -7   2   4 21.4323 6.10386   7
   2   5   4 39.6397 6.18616   8
   8  -3  -4 45.4366 5.76004   2
  -5   8  -4 46.2854 5.95626   1
  -5   8  -4 44.8494 6.76465   2
  -3  -5  -4 37.9511 5.43173   2
  -5   8  -4 33.8832 7.16496   9
   5  -8   4 56.5588 7.26804   8
   5  -8   4 53.1372 4.93664   1
   5  -8   4 57.0780 8.27382   5
   3   5   4 62.5416 7.47139   8
  -8   3   4 52.9003 8.56190   7
  -5   9  -4 74.3298 9.55055   9
  -4  -5  -4 101.109 8.21827   2
   9  -4  -4 102.398 8.26645   2
  -5   9  -4 95.6503 9.16923   2
  -5   9  -4 96.7335 8.14619   1
   5  -9   4 90.1984 9.02100   8
  -9   4   4 80.3312 10.4859   7
   4   5   4 74.3787 9.21242   8
   5  -9   4 73.7760 6.62408   1
  10  -5  -4 143.758 11.5373   2
  -5  10  -4 148.808 13.0960   2
  -5  -5  -4 141.911 11.1711   2
  -5  10  -4 146.837 12.0936   1
   5 -10   4 142.539 10.5473   1
   5   5   4 150.687 12.5729   8
 -10   5   4 154.056 15.5202   7
  11  -6  -4 28.2661 6.77649   2
  -6  -5  -4 42.8486 7.22955   2
  -5  11  -4 45.5265 7.69663   1
  -5  11  -4 30.6592 7.89561   2
 -11   6   4 40.7703 10.2219   7
   5 -11   4 38.3563 6.01149   1
   6   5   4 49.0551 8.89401   8
  -4  10  -4 118.577 9.58928   1
  -6  -4  -4 109.835 9.81938   2
  -4  10  -4 113.579 10.6590   2
  10  -6  -4 124.823 10.4195   2
   6   4   4 120.399 11.4241   8
 -10   6   4 100.967 12.0831   7
   4 -10   4 93.5574 8.23186   1
  -6  -3  -4 178.342 11.8847   2
  -3   9  -4 203.614 13.1701   2
   9  -6  -4 165.574 11.4991   2
  -3   9  -4 163.725 12.1152   1
   6   3   4 163.735 14.1937   8
  -9   6   4 162.546 15.0700   7
   3  -9   4 152.167 10.6326   1
  -2   8  -4 433.544 21.7356   1
  -6  -2  -4 442.865 22.1441   2
  -2   8  -4 446.939 22.7793   2
   8  -6  -4 428.762 21.5828   2
  -6  -2  -4 453.222 23.3040   9
   6   2   4 414.942 24.0600   8
   2  -8   4 395.130 25.6388   7
   2  -8   4 389.510 20.7286   1
  -8   6   4 387.001 24.1432   7
  -6  -1  -4 172.681 13.0341   9
   7  -6  -4 188.956 11.1933   2
  -1   7  -4 181.144 12.3756   2
  -6  -1  -4 194.728 11.9995   2
   1  -7   4 190.825 11.7062   8
  -7   6   4 188.646 13.8577   7
  -7   6   4 157.201 20.2128   3
   1  -7   4 177.698 15.1844   7
   6   1   4 197.081 14.6503   8
  -6   0  -4 84.0765 7.45708   2
   6  -6  -4 76.7658 6.75424   9
   6  -6  -4 77.3382 6.57943   2
  -6   0  -4 90.7236 8.36441   9
  -6   6   4 76.7369 9.51999   8
  -6   6   4 81.8782 11.4335   3
   6   0   4 82.8585 9.55143   8
   0  -6   4 94.9700 7.76114   8
  -6   6   4 76.2720 8.22684   7
  -6   6   4 69.8313 7.68449   5
   0  -6   4 110.022 11.6031   7
   5  -6  -4 145.422 8.32913   9
  -6   1  -4 156.079 9.54195   2
   1   5  -4 124.421 9.21556   2
  -6   1  -4 147.857 10.9652   9
   5  -6  -4 150.809 8.49330   2
  -5   6   4 118.896 13.4605   3
  -1  -5   4 136.412 9.90951   8
  -5   6   4 125.670 11.2405   8
  -5   6   4 113.328 10.0455   5
  -1  -5   4 127.829 12.2322   7
  -5   6   4 132.447 10.5697   7
   6  -1   4 117.926 11.1877   8
   2   4  -4 236.624 12.0496   2
   4  -6  -4 219.341 11.0386   2
  -6   2  -4 224.720 12.3964   2
  -6   2  -4 210.724 13.4403   9
   4  -6  -4 212.691 10.8515   9
  -4   6   4 200.545 16.9230   3
  -2  -4   4 211.844 13.0680   3
   6  -2   4 173.866 14.5619   7
  -4   6   4 165.977 12.8548   5
   6  -2   4 192.334 14.2553   8
  -4   6   4 189.218 12.8318   7
  -4   6   4 180.700 13.6388   8
  -2  -4   4 203.345 14.8709   7
  -2  -4   4 196.523 12.6032   8
   3  -6  -4 173.589 9.39396   2
  -6   3  -4 176.759 10.6402   2
   3   3  -4 164.469 10.3657   2
  -6   3  -4 157.667 11.9316   9
   3  -6  -4 168.255 9.13135   9
   6  -3   4 141.189 12.4510   8
  -3   6   4 161.825 15.3199   3
  -3  -3   4 171.794 12.4423   3
  -3  -3   4 186.622 13.4494   7
   6  -3   4 157.481 15.4674   7
  -3   6   4 144.318 11.5177   8
  -3   6   4 178.691 11.5720   7
  -3  -3   4 172.945 11.7095   8
   2  -6  -4 369.697 17.7210   9
  -6   4  -4 366.097 18.9941   2
  -6   4  -4 394.017 20.3096   9
   4   2  -4 381.847 18.5032   2
   2  -6  -4 382.978 17.8178   2
  -2   6   4 353.224 19.7370   8
  -2   6   4 361.009 19.3656   7
  -4  -2   4 331.398 20.7330   7
  -2   6   4 341.750 23.0056   3
  -2   6   4 335.274 19.2965   7
  -4  -2   4 345.881 21.2715   3
  -4  -2   4 342.178 19.8986   8
   6  -4   4 350.168 20.6619   8
   5   1  -4 243.201 14.1942   2
  -6   5  -4 227.200 16.0687   9
   1  -6  -4 230.678 13.5725   2
  -6   5  -4 225.101 14.6862   2
   6  -5   4 280.697 16.6735   8
  -1   6   4 280.679 15.6831   8
  -5  -1   4 277.118 16.9038   7
  -5  -1   4 291.005 18.3144   3
  -5  -1   4 292.526 16.5959   8
  -1   6   4 282.824 15.6801   7
  -1   6   4 273.888 15.4413   7
   6   0  -4 71.7919 5.96478   2
  -6   6  -4 69.8000 8.28834   9
   0  -6  -4 58.4486 5.43032   2
  -6   6  -4 76.0205 7.11638   2
   0   6   4 49.0223 6.82350   7
   0   6   4 50.7337 6.79576   7
   6  -6   4 44.0597 7.73548   5
  -6   0   4 47.7760 9.12209   3
  -6   0   4 54.9539 7.70495   7
   6  -6   4 48.8066 7.80082   8
  -6   0   4 66.9802 8.38187   8
   0   6   4 50.3716 6.87369   8
  -6   7  -4 8.15755 4.88926   2
  -1  -6  -4 6.68388 3.69139   2
   7  -1  -4 2.71743 3.72541   2
  -6   7  -4 12.5017 6.67528   9
   6  -7   4 8.55635 5.78264   5
  -7   1   4 11.6764 7.56275   3
  -7   1   4 4.29539 5.44902   7
   1   6   4 1.61488 5.16739   8
   6  -7   4 3.41540 5.53274   8
   1   6   4 4.27317 5.13592   7
   8  -2  -4 27.8980 5.04996   2
  -6   8  -4 20.5031 6.01394   2
  -6   8  -4 23.2482 5.43027   1
  -2  -6  -4 26.4011 4.87326   2
  -6   8  -4 25.3860 7.92035   9
   6  -8   4 23.8507 6.80811   8
   6  -8   4 40.6231 7.31301   5
   2   6   4 31.5607 6.38616   8
  -8   2   4 24.5484 7.68091   7
  -8   2   4 21.9834 11.4009   3
   6  -8   4 30.0292 4.23516   1
  -6   9  -4 98.4724 10.9608   9
  -3  -6  -4 91.8312 7.87250   2
  -6   9  -4 80.3909 9.01974   2
   9  -3  -4 85.0094 7.75255   2
  -6   9  -4 68.8803 7.82371   1
   3   6   4 71.8025 8.43359   8
   6  -9   4 73.1523 9.08424   8
  -9   3   4 86.4922 11.0349   7
   6  -9   4 76.2516 6.51885   1
   6  -9   4 68.2049 9.41823   5
  10  -4  -4 348.722 20.7709   2
  -4  -6  -4 335.822 20.6741   2
  -6  10  -4 362.103 21.0829   1
  -6  10  -4 368.757 22.1457   2
   6 -10   4 412.630 19.8491   1
 -10   4   4 384.640 24.6760   7
   4   6   4 445.333 23.0829   8
  11  -5  -4 124.940 10.7492   2
  -6  11  -4 135.362 12.1953   2
  -6  11  -4 129.017 10.8993   1
  -5  -6  -4 132.098 11.0237   2
   6 -11   4 104.846 9.12862   1
 -11   5   4 128.648 15.0308   7
  -6  12  -4 8.27947 7.19058   1
  -6  -6  -4 3.02358 6.51861   2
  12  -6  -4 15.1118 6.88621   2
  -6  12  -4 6.84082 7.68894   2
   6 -12   4 7.40702 5.51376   1
 -12   6   4 -6.1115 9.35550   7
  -7  -6  -4 26.1033 8.21877   2
  -6  13  -4 30.8137 9.65034   2
  -6  13  -4 21.6223 8.64781   1
  13  -7  -4 23.0464 7.81603   2
   6 -13   4 19.7291 6.39049   1
  -7  -5  -4 143.615 12.4225   2
  -5  12  -4 149.106 13.3997   2
  12  -7  -4 161.894 13.5947   2
  -5  12  -4 141.987 12.0305   1
 -12   7   4 134.901 15.3095   7
   5 -12   4 148.644 12.0263   1
  11  -7  -4 176.941 13.5069   2
  -4  11  -4 184.805 14.0377   1
  -4  11  -4 156.094 13.7049   2
  -7  -4  -4 167.069 13.5040   2
   7   4   4 201.678 15.6072   8
   4 -11   4 172.537 12.1850   1
 -11   7   4 174.646 17.3546   7
  10  -7  -4 70.8416 8.17681   2
  -3  10  -4 82.5167 8.35201   1
  -7  -3  -4 91.4203 9.12008   2
  -3  10  -4 82.3346 9.25220   2
 -10   7   4 75.2329 10.8828   7
   3 -10   4 88.3498 7.42391   1
   7   3   4 77.3216 10.6778   8
   9  -7  -4 322.532 18.1273   2
  -2   9  -4 319.422 18.3481   1
  -2   9  -4 299.034 19.2182   2
  -7  -2  -4 318.139 18.8739   2
  -9   7   4 366.147 21.9039   7
   7   2   4 360.770 21.2405   8
   2  -9   4 335.149 17.2838   1
   8  -7  -4 29.9036 5.02583   2
  -1   8  -4 6.98194 5.45016   2
  -7  -1  -4 13.2636 6.53049   9
  -7  -1  -4 22.9400 5.44127   2
  -1   8  -4 17.9690 4.81021   1
   7   1   4 12.5516 7.25082   8
  -8   7   4 11.6619 6.82086   7
   1  -8   4 18.7844 6.84924   7
   1  -8   4 12.5033 3.73899   1
   7  -7  -4 606.005 29.8208   2
  -7   0  -4 606.943 31.5738   9
  -7   0  -4 592.308 30.3807   2
   0   7  -4 604.082 30.5690   2
   7   0   4 626.508 32.5284   8
  -7   7   4 606.603 32.1126   7
   0  -7   4 632.914 34.0540   7
   6  -7  -4 141.070 9.47002   2
  -7   1  -4 142.317 10.1920   2
  -7   1  -4 130.715 11.8386   9
   1   6  -4 154.231 10.4513   2
  -1  -6   4 143.616 10.3984   8
  -6   7   4 140.816 12.1503   7
  -1  -6   4 137.489 13.4951   7
  -6   7   4 161.693 17.2807   3
  -6   7   4 160.254 12.6933   8
   5  -7  -4 95.0349 7.45183   2
  -7   2  -4 98.0930 8.10733   2
   2   5  -4 106.723 8.37399   2
  -7   2  -4 93.1489 9.77215   9
   5  -7  -4 89.6210 7.48164   9
  -5   7   4 114.871 10.2870   8
  -2  -5   4 114.732 8.91345   8
  -5   7   4 101.193 10.3319   7
  -2  -5   4 95.7112 10.6714   7
  -5   7   4 110.677 9.25422   5
  -5   7   4 99.6673 12.3725   3
  -7   3  -4 133.984 10.1008   2
   4  -7  -4 114.850 8.44326   2
  -7   3  -4 136.558 11.3225   9
   3   4  -4 127.914 9.39917   2
   4  -7  -4 121.651 8.51520   9
  -3  -4   4 125.660 12.5281   7
  -3  -4   4 159.348 10.6330   8
  -4   7   4 164.693 11.8543   7
  -4   7   4 134.654 11.0039   8
  -4   7   4 161.579 15.8969   3
  -3  -4   4 136.477 11.1563   3
   3  -7  -4 71.8349 6.54014   9
  -7   4  -4 82.6226 8.84916   9
  -7   4  -4 77.7859 7.26164   2
   3  -7  -4 74.1406 6.21191   2
   4   3  -4 74.5551 6.70917   2
  -4  -3   4 75.2321 8.19409   8
  -3   7   4 75.6657 8.01173   7
  -3   7   4 71.0729 7.87363   8
  -4  -3   4 89.7601 10.2429   7
  -4  -3   4 75.4197 8.90329   3
  -3   7   4 78.5061 11.4430   3
  -3   7   4 78.7688 8.11346   7
   5   2  -4 61.1363 6.16422   2
  -7   5  -4 62.1848 6.82096   2
  -7   5  -4 64.6678 8.30105   9
   2  -7  -4 51.7745 6.03887   9
   2  -7  -4 68.7203 5.58616   2
  -2   7   4 58.8387 7.52165   7
  -5  -2   4 64.6506 8.80330   7
  -2   7   4 60.7019 7.47023   7
  -5  -2   4 67.7723 8.10032   8
  -2   7   4 54.5621 7.29419   8
  -5  -2   4 63.7617 9.30059   3
   6   1  -4 31.7649 5.04140   2
  -7   6  -4 26.0353 5.57408   2
   1  -7  -4 31.3743 4.31855   2
  -7   6  -4 33.2852 7.29761   9
  -1   7   4 27.4809 6.34801   7
  -6  -1   4 16.4047 7.59998   3
  -1   7   4 19.1770 5.68019   8
  -1   7   4 31.8852 6.47698   7
  -6  -1   4 21.3164 6.52320   7
  -7   7  -4 343.879 19.9441   2
   7   0  -4 350.223 18.9170   2
  -7   7  -4 358.390 21.4990   9
   0  -7  -4 339.391 18.5782   2
  -7   0   4 369.352 21.9488   7
   0   7   4 371.396 19.8674   8
   7  -7   4 339.311 20.6701   5
   7  -7   4 368.768 17.6008   1
   7  -7   4 370.523 21.1562   8
   0   7   4 350.335 21.3214   7
  -7   0   4 354.515 23.8933   3
  -7   8  -4 94.7472 10.8272   9
  -7   8  -4 85.3448 7.94840   1
  -1  -7  -4 96.1528 7.82238   2
  -7   8  -4 111.222 9.47793   2
   8  -1  -4 92.6803 7.63993   2
   7  -8   4 65.6977 9.54701   8
   1   7   4 81.1286 8.23574   8
   7  -8   4 75.2715 6.39984   1
  -8   1   4 68.8828 9.57669   7
   7  -8   4 71.2611 9.15455   5
  -7   9  -4 661.504 34.9856   9
  -7   9  -4 655.138 33.5302   2
  -2  -7  -4 648.532 32.2304   2
  -7   9  -4 681.360 32.6171   1
   9  -2  -4 687.489 32.3462   2
   2   7   4 595.591 37.2509   6
   7  -9   4 629.919 33.7708   8
  -9   2   4 627.719 35.4860   7
   7  -9   4 621.326 31.3065   1
   7  -9   4 654.566 33.8088   5
  -7  10  -4 92.9850 10.5528   2
  10  -3  -4 114.641 9.55473   2
  -3  -7  -4 103.555 9.60069   2
  -7  10  -4 97.0956 9.62727   1
   7 -10   4 118.056 11.2908   8
   7 -10   4 114.099 9.35477   1
 -10   3   4 133.310 13.7419   7
   3   7   4 103.713 14.5164   6
  -7  11  -4 42.0431 8.63161   2
  11  -4  -4 39.7425 7.18090   2
  -4  -7  -4 52.9984 7.73186   2
  -7  11  -4 40.8200 7.61755   1
 -11   4   4 35.0488 9.56570   7
   4   7   4 28.4510 10.9228   6
   7 -11   4 35.2032 6.00194   1
  -7  12  -4 87.6642 11.1633   2
  -5  -7  -4 98.0315 9.82648   2
  -7  12  -4 83.4557 9.90754   1
  12  -5  -4 96.1233 9.92927   2
 -12   5   4 64.8256 12.0568   7
   5   7   4 77.2870 14.0444   6
   7 -12   4 64.6063 7.83245   1
  -7  13  -4 -10.258 8.14821   2
  -7  13  -4 6.13118 8.12110   1
  13  -6  -4 13.9487 7.63661   2
  -6  -7  -4 5.38593 7.12632   2
   7 -13   4 2.88310 5.94537   1
   6   7   4 -6.1908 12.4493   6
  -7  -7  -4 5.54277 7.74781   2
  -7  14  -4 19.6548 9.17562   1
  14  -7  -4 14.5650 7.93036   2
  -7  14  -4 9.50889 9.94702   2
   7 -14   4 -0.7289 6.44870   1
  -7  15  -4 25.4942 11.0773   1
  15  -8  -4 42.2330 9.84649   2
  -7  15  -4 52.1609 12.7683   2
  -8  -7  -4 31.3402 9.89674   2
   7 -15   4 41.5109 8.22075   1
  14  -8  -4 -4.7558 7.32693   2
  -6  14  -4 -4.1756 9.41323   2
  -6  14  -4 1.44746 8.73227   1
  -8  -6  -4 5.95558 8.30755   2
   6 -14   4 3.22179 6.65569   1
  -5  13  -4 12.7023 8.43494   2
  -8  -5  -4 1.87401 7.17771   2
  13  -8  -4 -1.8126 7.15436   2
  -5  13  -4 18.3945 8.08754   1
   5 -13   4 -6.9353 5.63305   1
  12  -8  -4 34.9666 7.60138   2
  -4  12  -4 23.9576 7.39345   1
  -8  -4  -4 41.7496 8.31775   2
  -4  12  -4 15.7594 8.26156   2
   8   4   4 42.4062 10.2114   8
 -12   8   4 44.7114 10.6929   7
   4 -12   4 29.8404 6.11833   1
  -3  11  -4 67.2029 9.30257   2
  -8  -3  -4 57.1968 8.54292   2
  11  -8  -4 72.6969 8.49530   2
  -3  11  -4 68.1033 8.11794   1
   3 -11   4 58.1474 6.98038   1
 -11   8   4 51.7013 10.6066   7
   8   3   4 60.3201 10.2683   8
  -2  10  -4 148.196 12.2763   2
  -8  -2  -4 153.615 12.6455   2
  -2  10  -4 153.985 12.0788   1
  10  -8  -4 163.742 11.7442   2
 -10   8   4 121.415 13.7080   7
   2 -10   4 133.682 10.5166   1
   8   2   4 147.966 13.8188   8
  -1   9  -4 497.079 26.4619   2
  -8  -1  -4 474.316 25.6819   2
  -1   9  -4 462.903 25.1670   1
  -8  -1  -4 489.588 27.4562   9
   9  -8  -4 470.879 25.3297   2
   8   1   4 525.466 28.6781   8
   1  -9   4 505.551 24.4116   1
  -9   8   4 490.208 28.7165   7
   0   8  -4 58.3815 6.94625   1
  -8   0  -4 72.8104 7.81738   2
   8  -8  -4 80.0572 7.24966   2
  -8   0  -4 61.6789 9.20670   9
   0   8  -4 76.8456 8.11951   2
  -8   8   4 83.7464 10.5513   7
   0  -8   4 71.9502 6.03272   1
   1   7  -4 26.8297 5.62349   2
  -8   1  -4 40.7824 6.34407   2
  -8   1  -4 52.3270 7.96750   9
   7  -8  -4 37.2398 5.35606   2
  -7   8   4 36.1494 7.70363   7
  -1  -7   4 38.0472 4.30842   1
  -1  -7   4 31.2900 8.28500   7
  -8   2  -4 49.9073 8.07068   9
  -8   2  -4 42.9672 6.32034   2
   2   6  -4 63.9308 6.73568   2
   6  -8  -4 41.4731 5.41329   2
  -2  -6   4 63.0571 9.99288   7
  -6   8   4 65.3622 8.66384   7
  -6   8   4 48.1978 8.48105   8
  -8   3  -4 184.146 12.2938   2
   3   5  -4 177.346 11.9848   2
   5  -8  -4 175.588 11.0476   2
  -8   3  -4 178.214 14.2113   9
  -5   8   4 180.018 13.4341   8
  -3  -5   4 191.687 12.6975   8
  -3  -5   4 199.915 15.4606   7
  -5   8   4 191.870 14.6446   7
  -8   4  -4 78.4312 9.30830   9
   4   4  -4 58.6092 6.42391   2
   4  -8  -4 71.1393 5.88381   2
  -8   4  -4 64.3591 6.96356   2
  -4   8   4 53.3822 7.70132   8
  -4  -4   4 55.8102 7.55209   8
  -4  -4   4 53.3917 8.91061   7
  -4  -4   4 32.7379 11.2652   3
  -4   8   4 51.9660 8.10000   7
  -8   5  -4 84.1100 9.77064   9
   5   3  -4 73.4686 7.25097   2
  -8   5  -4 94.1020 8.27992   2
   3  -8  -4 74.0203 6.71788   2
  -5  -3   4 85.2328 10.6009   7
  -3   8   4 81.1322 9.16981   7
  -3   8   4 84.2536 9.49509   7
  -3   8   4 76.8085 8.37182   8
   2  -8  -4 214.117 12.7564   2
   6   2  -4 213.318 13.3145   2
  -8   6  -4 228.197 16.1811   9
  -8   6  -4 218.607 14.3524   2
  -2   8   4 234.219 14.5191   8
  -2   8   4 217.859 16.1401   7
  -2   8   4 219.667 15.8041   7
  -6  -2   4 219.050 16.6058   7
   7   1  -4 231.943 14.4958   2
  -8   7  -4 228.565 15.5940   2
   1  -8  -4 232.008 14.0745   2
  -8   7  -4 248.192 17.7949   9
   8  -7   4 261.667 13.2575   1
  -1   8   4 271.312 17.4354   7
  -7  -1   4 261.844 18.2200   7
  -1   8   4 248.636 15.1909   8
   0  -8  -4 142.618 11.1830   2
  -8   8  -4 162.638 12.8815   2
  -8   8  -4 154.368 14.7697   9
  -8   8  -4 156.203 12.3639   1
   8   0  -4 169.257 11.4121   2
   8  -8   4 165.544 10.2799   1
   8  -8   4 171.325 13.8955   5
   0   8   4 171.008 17.7158   6
  -8   0   4 172.348 15.2995   7
  -1  -8  -4 185.535 12.6314   2
  -8   9  -4 182.117 13.7935   1
  -8   9  -4 173.529 14.4198   2
   9  -1  -4 185.758 12.8340   2
   8  -9   4 191.457 11.7381   1
  -9   1   4 186.209 16.7714   7
   1   8   4 178.024 18.7480   6
  10  -2  -4 55.2967 7.35289   2
  -8  10  -4 74.4994 8.45551   1
  -8  10  -4 69.1060 9.33520   2
  -2  -8  -4 57.5488 7.52188   2
 -10   2   4 44.0371 10.1049   7
   2   8   4 49.0450 12.4524   6
   8 -10   4 46.2732 6.39811   1
   8 -10   4 60.7532 9.65555   8
  -8  11  -4 391.406 22.8558   1
  -8  11  -4 371.833 23.8510   2
  -3  -8  -4 359.279 21.9370   2
  11  -3  -4 369.796 22.1005   2
   3   8   4 451.558 29.8901   6
 -11   3   4 403.321 26.4083   7
   8 -11   4 404.000 20.9384   1
  -8  12  -4 63.9536 9.83355   1
  -4  -8  -4 76.4804 9.41755   2
  12  -4  -4 85.5144 9.28600   2
  -8  12  -4 62.2870 10.4270   2
   4   8   4 94.2434 16.3278   6
   8 -12   4 83.5109 8.04757   1
  -8  13  -4 3.43703 9.02100   2
  -8  13  -4 10.4450 8.32554   1
  13  -5  -4 6.46389 7.00506   2
  -5  -8  -4 -0.8236 7.01162   2
   8 -13   4 1.64756 5.93156   1
  -6  -8  -4 7.11732 8.10528   2
  14  -6  -4 7.21044 7.65746   2
  -8  14  -4 1.33169 9.21852   1
  -8  14  -4 7.58727 10.4672   2
   8 -14   4 11.6258 6.73930   1
  -8  15  -4 10.9428 10.3773   1
  -7  -8  -4 27.9736 9.89427   2
  -8  15  -4 21.4405 12.0826   2
  15  -7  -4 28.9265 9.22731   2
   8 -15   4 23.8660 7.52272   1
  -8  -8  -4 2.13951 9.57926   2
  -8  16  -4 37.4364 13.1950   2
  16  -8  -4 0.61309 9.02325   2
  -8  16  -4 10.8261 11.0286   1
   8 -16   4 3.71027 7.43874   1
  17  -9  -4 6.09484 10.0964   2
  -8  17  -4 26.1598 14.1042   2
  -8  17  -4 12.6375 12.4843   1
  -9  -8  -4 -4.8488 9.89156   2
   8 -17   4 14.8615 8.03961   1
  16  -9  -4 17.6119 9.77389   2
  -9  -7  -4 41.2952 10.9754   2
  -7  16  -4 27.4850 12.9570   2
  -7  16  -4 25.7031 11.7560   1
   7 -16   4 23.4334 8.17440   1
  15  -9  -4 0.56829 8.43483   2
  -6  15  -4 -15.052 9.52775   1
  -9  -6  -4 3.31567 8.72230   2
  -6  15  -4 -11.042 10.5388   2
   6 -15   4 -1.2553 6.98199   1
  14  -9  -4 198.081 16.8729   2
  -5  14  -4 182.202 15.3701   1
  -5  14  -4 167.732 16.3784   2
  -9  -5  -4 166.129 15.0580   2
   5 -14   4 191.685 14.2646   1
  -9  -4  -4 50.5358 9.21646   2
  -4  13  -4 41.9899 8.99773   1
  -4  13  -4 23.3259 9.88942   2
  13  -9  -4 48.2175 8.92959   2
   4 -13   4 43.7524 7.20583   1
  12  -9  -4 -2.9493 6.52872   2
  -3  12  -4 1.70376 7.57602   2
  -9  -3  -4 -2.8798 6.74000   2
  -3  12  -4 0.85399 6.94393   1
   3 -12   4 4.72332 5.56220   1
 -12   9   4 3.10283 9.81350   7
   9   3   4 20.1477 9.36253   8
  -2  11  -4 37.9968 7.35205   1
  11  -9  -4 54.2918 7.69640   2
  -9  -2  -4 50.4143 8.13896   2
  -2  11  -4 30.2507 8.01702   2
 -11   9   4 28.0056 10.1690   7
   9   2   4 55.2975 10.9037   8
   2 -11   4 34.8435 6.19986   1
  -1  10  -4 42.2225 8.26274   2
  -9  -1  -4 35.7451 7.35829   2
  10  -9  -4 39.9163 7.01191   2
  -1  10  -4 44.3767 6.97056   1
   1 -10   4 57.6194 6.49249   1
 -10   9   4 63.7682 11.3627   7
  -9   0  -4 10.3908 5.85619   2
   0   9  -4 2.17299 4.96639   1
  -9   0  -4 7.33864 7.58666   9
   9  -9  -4 -0.8007 5.01932   2
   0   9  -4 1.78666 5.74605   2
   0  -9   4 -6.6344 4.16669   1
  -9   9   4 3.71674 7.68696   7
  -9   1  -4 299.921 20.0798   9
   1   8  -4 295.193 17.1009   1
   8  -9  -4 290.732 16.9848   2
   1   8  -4 328.206 18.3275   2
  -9   1  -4 334.103 18.5692   2
  -1  -8   4 297.111 16.0350   1
  -8   9   4 261.582 20.3217   7
   7  -9  -4 59.3347 6.64035   2
  -9   2  -4 70.0338 9.48102   9
   2   7  -4 73.1401 7.75361   2
  -9   2  -4 57.1199 7.58464   2
  -7   9   4 70.3740 9.93904   7
  -2  -7   4 68.1349 5.75939   1
   6  -9  -4 159.785 11.0922   2
   3   6  -4 169.954 12.0841   2
  -9   3  -4 159.766 12.2795   2
  -9   3  -4 188.022 14.8748   9
  -6   9   4 171.171 15.2584   7
  -3  -6   4 170.658 15.6640   7
  -9   4  -4 399.544 22.8055   2
  -9   4  -4 435.888 24.6216   9
   5  -9  -4 402.217 21.7439   2
   4   5  -4 409.280 22.6294   2
  -5   9   4 430.123 23.7842   8
  -5   9   4 422.982 24.8677   7
  -4  -5   4 459.423 26.3254   7
  -9   5  -4 141.998 12.4751   9
  -9   5  -4 123.734 10.5152   2
   4  -9  -4 126.217 9.61985   2
   5   4  -4 140.606 10.7304   2
  -5  -4   4 116.641 12.9169   7
  -4   9   4 136.200 11.3669   8
  -4   9   4 123.231 12.3954   7
   6   3  -4 101.813 8.59548   2
  -9   6  -4 99.5691 11.7815   9
   3  -9  -4 92.0825 8.03259   2
  -9   6  -4 108.091 9.66081   2
  -3   9   4 98.9467 11.1508   7
  -6  -3   4 97.0321 12.1915   7
  -3   9   4 99.5934 9.50548   8
   7   2  -4 190.087 13.5810   2
  -9   7  -4 226.280 18.1517   1
  -9   7  -4 229.301 16.8485   9
  -9   7  -4 198.390 14.2738   2
   2  -9  -4 189.940 13.0709   2
   9  -7   4 227.474 12.0634   1
  -7  -2   4 217.309 17.2600   7
  -2   9   4 211.717 16.8394   7
  -9   8  -4 50.0037 9.82795   9
   8   1  -4 42.5136 6.46992   2
  -9   8  -4 36.7583 6.79864   1
  -9   8  -4 28.5390 7.19933   2
   1  -9  -4 30.1585 5.80693   2
  -8  -1   4 34.2765 8.54622   7
  -1   9   4 27.6758 8.27895   7
   9  -8   4 41.7801 8.49455   5
   9  -8   4 34.5604 5.00705   1
  -1   9   4 48.5572 12.1375   6
   0  -9  -4 60.9959 7.51893   2
  -9   9  -4 49.8706 8.46534   2
   9   0  -4 68.8626 7.73810   2
  -9   9  -4 53.5974 8.05413   1
  -9   0   4 63.7184 11.1820   7
   0   9   4 88.3645 14.2459   6
   9  -9   4 56.0936 6.35000   1
  -9  10  -4 138.333 11.6158   1
  -1  -9  -4 116.259 10.4497   2
  10  -1  -4 122.208 10.6582   2
  -9  10  -4 130.803 12.0656   2
   1   9   4 129.265 17.3990   6
 -10   1   4 162.052 16.3791   7
   9 -10   4 116.171 10.3287   1
  11  -2  -4 62.9020 7.88540   2
  -2  -9  -4 51.1062 8.15179   2
  -9  11  -4 42.9622 9.38920   2
  -9  11  -4 46.4684 8.81389   1
   2   9   4 36.1929 13.9403   6
   9 -11   4 41.8566 9.70686   8
   9 -11   4 27.9489 6.35320   1
  -3  -9  -4 32.4413 7.92563   2
  -9  12  -4 33.5516 8.91481   1
  12  -3  -4 36.3880 7.50652   2
  -9  12  -4 31.6240 9.44569   2
   9 -12   4 41.8608 6.83422   1
  13  -4  -4 25.9306 7.81397   2
  -9  13  -4 9.39637 8.51455   1
  -9  13  -4 20.5096 9.93693   2
  -4  -9  -4 12.6738 7.78435   2
   9 -13   4 14.6597 6.35253   1
  -5  -9  -4 17.0818 8.32002   2
  14  -5  -4 8.26138 7.83383   2
  -9  14  -4 3.15218 9.94815   2
  -9  14  -4 29.7050 10.3502   1
   9 -14   4 24.0444 6.93225   1
  -9  15  -4 -10.072 10.2355   1
  -6  -9  -4 8.04453 8.49456   2
  15  -6  -4 4.59248 8.20259   2
  -9  15  -4 5.07758 11.1638   2
   9 -15   4 19.3323 7.31055   1
  -9  16  -4 36.9192 13.0146   2
  -7  -9  -4 -2.3859 8.89456   2
  -9  16  -4 43.4509 12.0980   1
  16  -7  -4 35.3712 10.3924   2
   9 -16   4 29.3376 8.15710   1
  17  -8  -4 27.0424 10.4699   2
  -9  17  -4 15.1283 13.1016   2
  -9  17  -4 17.1750 12.3451   1
  -8  -9  -4 2.96654 9.97565   2
   9 -17   4 11.7467 8.15266   1
 -10  -7  -4 5.13741 10.3080   2
  -7  17  -4 -6.0299 11.1278   1
  -7  17  -4 -1.8120 12.2312   2
  17 -10  -4 20.6544 10.5332   2
   7 -17   4 7.10764 8.03409   1
  16 -10  -4 40.9672 10.5669   2
  -6  16  -4 34.9456 12.9212   2
 -10  -6  -4 47.3216 11.6819   2
  -6  16  -4 41.0113 11.3501   1
   6 -16   4 24.8235 8.32675   1
  -5  15  -4 -12.422 10.3407   2
 -10  -5  -4 2.30690 8.40943   2
  -5  15  -4 -5.0156 9.71423   1
  15 -10  -4 0.14248 8.51000   2
   5 -15   4 0.40257 6.76281   1
  -4  14  -4 2.76198 9.89955   2
  14 -10  -4 14.4985 8.53978   2
  -4  14  -4 -4.2946 8.70936   1
 -10  -4  -4 3.77490 8.29146   2
   4 -14   4 3.07705 6.23933   1
 -10  -3  -4 122.144 12.7069   2
  -3  13  -4 123.552 12.2089   1
  13 -10  -4 116.887 12.1976   2
  -3  13  -4 138.265 14.1432   2
   3 -13   4 110.646 10.3881   1
  10   3   4 143.566 15.3579   8
  12 -10  -4 54.9487 8.53778   2
  -2  12  -4 54.5227 9.59006   2
 -10  -2  -4 59.6269 9.30513   2
  -2  12  -4 63.1066 8.74511   1
   2 -12   4 30.1634 7.03195   1
  10   2   4 64.8920 12.2137   8
 -12  10   4 36.8206 11.1510   7
  -1  11  -4 28.6271 7.57687   1
  11 -10  -4 30.9247 7.46889   2
  -1  11  -4 31.3902 8.53930   2
 -10  -1  -4 32.5891 8.04592   2
 -11  10   4 42.6002 10.9912   7
   1 -11   4 45.5014 6.79102   1
 -10   0  -4 107.204 10.3720   2
   0  10  -4 96.0290 10.4754   2
   0  10  -4 81.8686 8.92101   1
  10 -10  -4 108.285 9.79446   2
   0 -10   4 99.1043 8.27565   1
 -10  10   4 75.0576 11.9183   7
   9 -10  -4 50.0031 7.05237   2
   1   9  -4 40.2889 6.84216   1
 -10   1  -4 39.9489 7.74427   2
 -10   1  -4 43.3002 10.2393   9
  -9  10   4 43.3107 9.90251   7
  -1  -9   4 37.0325 5.88343   1
   8 -10  -4 542.310 27.6638   2
 -10   2  -4 533.379 30.4703   9
   2   8  -4 530.332 28.3246   2
   2   8  -4 563.401 27.4787   1
 -10   2  -4 547.733 28.5655   2
  -8  10   4 513.025 30.8014   7
  -2  -8   4 504.531 26.2809   1
 -10   3  -4 59.7561 9.92418   9
   7 -10  -4 70.7659 7.29894   2
   3   7  -4 62.5079 7.75507   2
 -10   3  -4 56.5754 8.22844   2
  -7  10   4 63.5968 10.4122   7
   4   6  -4 74.0692 8.11168   2
 -10   4  -4 52.0861 7.89282   2
   6 -10  -4 72.2918 7.37859   2
 -10   4  -4 72.6296 10.6259   9
  -6  10   4 69.8715 10.6619   7
   5   5  -4 32.7939 6.49417   2
 -10   5  -4 31.2447 9.27327   9
 -10   5  -4 34.8276 7.15554   2
   5 -10  -4 40.9779 6.13695   2
  -5  10   4 44.4760 8.09430   8
  -5  10   4 34.2508 8.61732   7
 -10   6  -4 568.904 30.1900   2
   6   4  -4 581.397 29.6024   2
   4 -10  -4 565.987 29.0123   2
  -4  10   4 578.680 32.1693   7
 -10   7  -4 59.8215 9.26481   1
   3 -10  -4 49.1760 6.79553   2
   7   3  -4 60.8618 7.31561   2
 -10   7  -4 43.8720 7.89556   2
 -10   7  -4 48.8567 10.3102   9
  10  -7   4 45.6657 5.55062   1
  -3  10   4 70.2318 10.5535   7
   2 -10  -4 114.489 9.67082   2
 -10   8  -4 113.356 11.0724   2
 -10   8  -4 114.674 10.5446   1
   8   2  -4 140.489 11.5108   2
  -2  10   4 99.5664 15.6976   6
  10  -8   4 107.149 9.16015   1
  -2  10   4 112.696 12.6967   7
 -10   9  -4 207.422 15.2343   1
   1 -10  -4 173.842 12.8589   2
 -10   9  -4 195.069 15.2981   2
   9   1  -4 206.576 13.7542   2
  -1  10   4 171.901 19.4872   6
  -1  10   4 174.526 16.7654   7
  10  -9   4 175.326 12.0566   1
  10   0  -4 120.449 10.6660   2
   0 -10  -4 112.966 10.3083   2
 -10  10  -4 124.772 11.3883   1
 -10  10  -4 113.138 11.7377   2
  10 -10   4 104.008 9.00510   1
   0  10   4 156.186 27.5851   6
  -1 -10  -4 22.5689 7.13966   2
  11  -1  -4 34.1987 7.25170   2
 -10  11  -4 26.5506 8.66350   2
 -10  11  -4 20.5215 7.91441   1
  10 -11   4 23.6669 6.08919   1
 -10  12  -4 67.7654 10.1553   1
  12  -2  -4 77.2727 9.32815   2
  -2 -10  -4 82.9243 9.78746   2
 -10  12  -4 72.9289 11.1377   2
  10 -12   4 54.4181 7.72543   1
 -10  13  -4 6.55974 8.91133   1
  -3 -10  -4 2.40613 7.23092   2
 -10  13  -4 6.89473 9.09202   2
  13  -3  -4 12.9313 7.21969   2
  10 -13   4 7.36134 6.17009   1
 -10  14  -4 43.3334 10.9973   1
  14  -4  -4 50.0793 9.48282   2
  -4 -10  -4 46.1904 9.79178   2
 -10  14  -4 34.6904 11.3488   2
  10 -14   4 33.7022 7.43482   1
 -10  15  -4 11.2934 10.9166   1
  -5 -10  -4 26.2071 9.28782   2
 -10  15  -4 8.23503 11.2516   2
  15  -5  -4 9.41903 8.77047   2
  10 -15   4 14.9141 7.22930   1
  -6 -10  -4 -0.8266 9.21746   2
 -10  16  -4 -15.219 10.6776   1
  16  -6  -4 1.64166 9.11790   2
 -10  16  -4 -18.753 11.5211   2
  10 -16   4 10.0983 7.51460   1
  17  -7  -4 3.31340 9.82025   2
 -10  17  -4 -6.5511 12.4752   2
 -10  17  -4 7.91862 11.9852   1
  -7 -10  -4 -3.8363 9.93308   2
  10 -17   4 11.0599 8.03030   1
  -6  17  -4 -2.3692 12.6679   2
 -11  -6  -4 13.4407 10.6905   2
  17 -11  -4 -0.1226 9.98833   2
  -6  17  -4 9.81581 11.3927   1
   6 -17   4 -8.1549 7.70539   1
  -5  16  -4 4.16505 11.4558   2
  -5  16  -4 2.01007 10.9436   1
 -11  -5  -4 8.22103 9.63367   2
  16 -11  -4 -0.4305 9.44285   2
   5 -16   4 -0.0046 7.22622   1
  15 -11  -4 117.413 13.4655   2
  -4  15  -4 133.137 14.1658   1
 -11  -4  -4 111.555 13.3574   2
  -4  15  -4 111.948 15.0716   2
   4 -15   4 114.229 11.0843   1
 -11  -3  -4 4.20548 8.84619   2
  -3  14  -4 1.64381 9.07465   1
  14 -11  -4 0.25844 8.06173   2
  -3  14  -4 19.1035 10.2225   2
   3 -14   4 15.4356 6.80477   1
  13 -11  -4 0.53463 7.22874   2
  -2  13  -4 -8.6686 7.85802   1
  -2  13  -4 14.6936 8.77934   2
 -11  -2  -4 -2.4116 7.88359   2
  11   2   4 -3.7530 9.81430   8
   2 -13   4 7.95257 6.44544   1
  -1  12  -4 -6.5988 7.98465   2
 -11  -1  -4 8.03233 7.72515   2
  12 -11  -4 -0.5293 7.22336   2
  -1  12  -4 -3.1537 7.14681   1
   1 -12   4 5.89637 6.04260   1
 -12  11   4 1.77822 9.65585   7
   0  11  -4 4.70300 6.63796   1
   0  11  -4 12.8119 7.53552   2
 -11   0  -4 8.17567 7.19508   2
  11 -11  -4 9.36553 6.84212   2
 -11  11   4 -9.6162 8.80535   7
   0 -11   4 9.80943 5.73771   1
   1  10  -4 1.82875 5.76392   1
  10 -11  -4 -0.4615 5.86275   2
   1  10  -4 2.09073 6.63626   2
 -11   1  -4 -7.9545 6.31069   2
 -10  11   4 -1.8517 8.83399   7
  -1 -10   4 5.03234 5.20768   1
   2   9  -4 139.558 12.2163   2
 -11   2  -4 137.115 12.5911   2
 -11   2  -4 156.991 17.8412   9
   9 -11  -4 157.102 12.4051   2
   2   9  -4 160.374 12.6265   1
  -9  11   4 139.147 15.2669   7
  -2  -9   4 138.796 10.9555   1
   3   8  -4 98.1464 9.02260   1
 -11   3  -4 94.1796 10.5177   2
 -11   3  -4 97.3273 12.5126   9
   8 -11  -4 89.1095 9.20570   2
   3   8  -4 87.3039 9.62374   2
  -8  11   4 123.034 14.1131   7
  -3  -8   4 98.5706 7.88018   1
   4   7  -4 146.063 12.8132   2
 -11   4  -4 145.794 12.7431   2
 -11   4  -4 158.042 17.2715   9
   7 -11  -4 160.064 12.0616   2
  -7  11   4 159.284 15.8932   7
  -4  -7   4 172.821 10.5570   1
 -11   5  -4 132.390 12.0853   2
   6 -11  -4 160.867 11.9151   2
   5   6  -4 137.297 11.6511   2
  -6  11   4 145.988 14.7908   7
   6   5  -4 50.2743 7.82286   2
 -11   6  -4 58.8315 8.83176   2
   5 -11  -4 51.4430 7.27834   2
  -5  11   4 64.7046 10.8464   7
   4 -11  -4 63.8272 7.75927   2
   7   4  -4 56.1364 7.98826   2
 -11   7  -4 65.2499 9.32472   2
 -11   7  -4 69.8435 9.12857   1
  -4  11   4 61.5593 10.8483   7
  11  -7   4 67.9499 6.50640   1
 -11   8  -4 290.442 19.2299   2
 -11   8  -4 296.822 18.9784   1
   8   3  -4 294.928 18.0372   2
   3 -11  -4 304.196 17.6180   2
  -3  11   4 263.106 21.7006   7
  -3  11   4 306.956 25.6072   6
  11  -8   4 282.127 16.2129   1
   9   2  -4 65.8806 8.25508   2
 -11   9  -4 61.2259 9.11523   1
   2 -11  -4 50.1527 7.88751   2
 -11   9  -4 50.9691 9.08468   2
  11  -9   4 51.7673 6.66676   1
  -2  11   4 57.8149 11.3077   7
 -11  10  -4 -4.9390 7.45880   1
  10   1  -4 12.3962 6.20936   2
   1 -11  -4 2.73958 6.04871   2
 -11  10  -4 6.92439 7.91796   2
  11 -10   4 12.5113 5.46253   1
  11   0  -4 -1.1180 6.53476   2
   0 -11  -4 9.74834 6.64091   2
 -11  11  -4 5.76067 8.24086   2
 -11  11  -4 0.33339 8.03895   1
  11 -11   4 10.1142 5.87650   1
  12  -1  -4 13.2316 7.33165   2
  -1 -11  -4 13.7293 7.38007   2
 -11  12  -4 14.0881 9.07175   1
 -11  12  -4 3.27938 8.70673   2
  11 -12   4 10.6138 6.35679   1
 -11  13  -4 58.8732 11.4271   2
  13  -2  -4 58.4493 9.58146   2
 -11  13  -4 63.1887 11.5766   1
  -2 -11  -4 91.8438 10.6287   2
  11 -13   4 58.8747 8.42526   1
  -3 -11  -4 36.3314 9.45692   2
  14  -3  -4 38.4822 9.33774   2
 -11  14  -4 61.4538 11.8436   1
 -11  14  -4 61.5214 11.8510   2
  11 -14   4 38.6910 7.74063   1
 -11  15  -4 5.03237 10.9264   1
 -11  15  -4 3.76938 10.6458   2
  15  -4  -4 18.8252 8.96252   2
  -4 -11  -4 5.71975 8.95839   2
  11 -15   4 6.20364 7.11298   1
  -5 -11  -4 8.96932 9.49281   2
 -11  16  -4 6.24438 11.4800   1
 -11  16  -4 17.6876 12.3932   2
  16  -5  -4 27.4018 9.72813   2
  11 -16   4 11.4588 7.96700   1
 -11  17  -4 75.7139 13.5370   1
  -6 -11  -4 34.3520 11.7173   2
  17  -6  -4 49.2308 11.5929   2
 -11  17  -4 64.4997 15.1966   2
  11 -17   4 51.6414 9.32392   1
 -12  -5  -4 2.98020 10.6430   2
  -5  17  -4 16.3983 11.7242   1
  17 -12  -4 15.5321 10.6272   2
  -5  17  -4 -6.6186 12.2541   2
   5 -17   4 -1.9134 7.40534   1
  16 -12  -4 -4.1501 9.48780   2
  -4  16  -4 1.61648 11.7718   2
  -4  16  -4 5.58342 11.2731   1
 -12  -4  -4 5.96090 9.77301   2
   4 -16   4 5.04764 7.41344   1
  -3  15  -4 20.8946 10.6904   1
  -3  15  -4 14.8683 10.9353   2
 -12  -3  -4 12.1703 9.96758   2
  15 -12  -4 20.4772 9.43974   2
   3 -15   4 4.03740 7.25653   1
  -2  14  -4 16.8314 9.91965   1
  14 -12  -4 11.8552 8.39386   2
  -2  14  -4 25.4612 10.5887   2
 -12  -2  -4 24.5033 9.89062   2
  12   2   4 24.8805 12.5244   8
   2 -14   4 28.8532 7.84882   1
  13 -12  -4 10.8928 8.35721   2
 -12  -1  -4 16.8124 8.40831   2
  -1  13  -4 19.1022 9.57708   2
  -1  13  -4 12.2157 8.81050   1
   1 -13   4 16.4364 6.90403   1
 -12   0  -4 1.39198 7.73412   2
   0  12  -4 -3.9091 8.82077   2
  12 -12  -4 13.2128 7.97389   2
   0  12  -4 12.4391 7.94172   1
   0 -12   4 4.98841 6.13694   1
 -12  12   4 18.0201 12.2507   7
 -12   1  -4 26.6815 8.45339   2
   1  11  -4 23.7989 8.96174   2
   1  11  -4 38.0329 8.01514   1
  11 -12  -4 26.0291 7.68062   2
 -11  12   4 28.4386 11.3033   7
  -1 -11   4 18.8559 6.07208   1
   2  10  -4 9.39057 6.61251   1
 -12   2  -4 19.5973 7.93418   2
   2  10  -4 17.4362 7.75052   2
  10 -12  -4 19.4849 7.16289   2
  -2 -10   4 21.1440 5.86015   1
 -10  12   4 11.5024 9.68115   7
   3   9  -4 50.2910 7.58879   1
   3   9  -4 57.9969 8.58572   2
   9 -12  -4 42.0287 7.66899   2
 -12   3  -4 34.7365 8.41403   2
  -9  12   4 22.5956 9.90497   7
  -3  -9   4 40.1299 5.99527   1
   4   8  -4 71.2971 8.98107   2
   4   8  -4 63.9211 8.05471   1
   8 -12  -4 69.9041 8.52181   2
 -12   4  -4 61.5578 9.34727   2
  -8  12   4 46.5572 11.2947   7
  -4  -8   4 56.7019 6.57822   1
   5   7  -4 42.5680 11.3731   1
   5   7  -4 47.1792 7.94754   2
   7 -12  -4 30.2351 6.95597   2
 -12   5  -4 44.1133 8.33563   2
  -5  -7   4 49.1863 5.87096   1
  -7  12   4 30.7891 10.0562   7
 -12   6  -4 42.1421 8.83664   2
   6 -12  -4 43.9987 7.66532   2
   6   6  -4 42.3005 7.85113   2
  -6  12   4 25.5682 10.2517   7
   7   5  -4 170.935 14.0582   2
   5 -12  -4 173.443 13.5549   2
 -12   7  -4 188.927 15.6042   2
 -12   7  -4 192.841 15.6614   1
  -5  12   4 167.116 17.2732   7
  12  -7   4 171.732 11.7599   1
 -12   8  -4 6.66516 7.51170   1
   4 -12  -4 19.6669 6.63623   2
   8   4  -4 16.3101 6.64041   2
 -12   8  -4 7.03222 7.55264   2
  -4  12   4 20.4404 10.2041   7
  12  -8   4 11.3708 5.25948   1
 -12   9  -4 28.4856 8.47031   1
   3 -12  -4 31.1674 7.34817   2
   9   3  -4 19.0737 6.80360   2
 -12   9  -4 30.2556 8.80625   2
  -3  12   4 10.4207 9.63068   7
  12  -9   4 16.8150 5.52946   1
 -12  10  -4 -7.6581 7.77421   2
   2 -12  -4 -0.1723 6.35418   2
  10   2  -4 -2.1463 6.41788   2
 -12  10  -4 -2.7859 8.03034   1
  12 -10   4 8.61113 5.47517   1
  -2  12   4 -0.1875 8.88434   7
 -12  11  -4 31.8873 10.0825   2
  11   1  -4 18.5117 7.46568   2
 -12  11  -4 28.2019 9.42592   1
   1 -12  -4 40.1396 8.18563   2
  12 -11   4 27.4733 6.46265   1
   0 -12  -4 2.24542 7.08443   2
 -12  12  -4 -0.6865 8.91471   2
 -12  12  -4 -0.8288 9.27874   1
  12   0  -4 -15.930 6.58576   2
  12 -12   4 -1.9513 6.11007   1
  -1 -12  -4 17.0532 8.09865   2
 -12  13  -4 -15.602 9.23428   2
 -12  13  -4 1.81686 9.71083   1
  13  -1  -4 5.83374 7.42918   2
  12 -13   4 1.83839 6.52258   1
 -12  14  -4 47.4910 12.0900   2
 -12  14  -4 60.1185 12.0705   1
  -2 -12  -4 50.8911 9.94181   2
  14  -2  -4 41.9577 9.62235   2
  12 -14   4 31.4531 8.02529   1
 -12  15  -4 41.9386 11.8897   2
  15  -3  -4 19.1309 9.15854   2
  -3 -12  -4 23.9716 9.74272   2
 -12  15  -4 -1.0759 11.0595   1
  12 -15   4 10.3056 7.48989   1
 -12  16  -4 32.1210 12.1865   1
  16  -4  -4 29.1619 9.98962   2
 -12  16  -4 33.8629 12.9892   2
  -4 -12  -4 46.7451 11.0365   2
  12 -16   4 18.1196 7.94629   1
  -5 -12  -4 24.8411 10.7822   2
 -12  17  -4 -0.4417 12.7924   2
  17  -5  -4 21.5964 10.4633   2
 -12  17  -4 32.7735 12.6124   1
  12 -17   4 19.9745 8.36164   1
  -4  17  -4 35.2182 12.7594   1
 -13  -4  -4 -11.901 9.95870   2
  17 -13  -4 -3.0172 10.2459   2
  -4  17  -4 5.67475 12.7003   2
   4 -17   4 1.21029 7.80596   1
  -3  16  -4 35.5170 11.7745   1
  -3  16  -4 25.9088 12.3425   2
 -13  -3  -4 7.24000 10.0136   2
  16 -13  -4 29.7962 10.9898   2
   3 -16   4 23.1314 8.42217   1
  15 -13  -4 7.57671 9.14977   2
  -2  15  -4 13.4802 11.4214   2
  -2  15  -4 15.3008 10.7808   1
 -13  -2  -4 24.1133 10.3163   2
   2 -15   4 -9.2762 7.10499   1
  14 -13  -4 30.2659 9.72957   2
  -1  14  -4 46.5053 10.8552   1
 -13  -1  -4 27.7244 10.3583   2
  -1  14  -4 45.1340 11.8411   2
   1 -14   4 26.6345 7.81538   1
 -13   0  -4 24.8052 9.77995   2
  13 -13  -4 10.2369 8.13453   2
   0  13  -4 5.28163 9.19318   1
   0  13  -4 4.90489 9.88186   2
   0 -13   4 10.3212 7.02158   1
  12 -13  -4 33.0513 8.94664   2
   1  12  -4 15.6595 9.90269   2
 -13   1  -4 22.4906 8.88414   2
   1  12  -4 19.0201 8.77464   1
  -1 -12   4 15.4707 6.62369   1
  11 -13  -4 6.49736 7.64109   2
 -13   2  -4 18.5730 8.98337   2
   2  11  -4 10.9264 7.81194   1
 -11  13   4 22.1195 11.0828   7
  -2 -11   4 21.5411 6.20259   1
  10 -13  -4 57.2579 9.56199   2
   3  10  -4 78.1572 9.89947   1
 -13   3  -4 94.1486 11.5470   2
   3  10  -4 71.1121 10.2192   2
 -10  13   4 79.5276 13.3612   7
  -3 -10   4 74.5015 7.90911   1
 -13   4  -4 19.9201 8.36795   2
   4   9  -4 16.8365 7.19048   1
   9 -13  -4 4.73442 6.98442   2
   4   9  -4 29.7135 7.85609   2
  -9  13   4 29.1743 11.0325   7
  -4  -9   4 20.9467 5.71492   1
   5   8  -4 6.55153 6.40877   1
   8 -13  -4 -2.2490 6.53090   2
   5   8  -4 -1.9671 6.79179   2
 -13   5  -4 17.2607 8.17653   2
  -5  -8   4 4.12095 5.05222   1
  -8  13   4 -0.1846 9.44231   7
 -13   6  -4 4.78007 9.17446   1
   6   7  -4 -0.5775 7.00392   2
 -13   6  -4 -0.8160 7.43334   2
   7 -13  -4 10.0518 6.82801   2
   6   7  -4 3.06516 6.33824   1
  -7  13   4 8.51247 9.86679   7
  13  -6   4 0.98770 5.04413   1
 -13   7  -4 2.55750 7.96919   1
   7   6  -4 11.1481 7.01591   2
   6 -13  -4 -2.9674 6.53425   2
 -13   7  -4 6.51899 7.75548   2
  13  -7   4 10.6817 5.37952   1
  -6  13   4 -1.7132 9.48942   7
   5 -13  -4 5.04553 7.09059   2
 -13   8  -4 4.96178 8.19489   1
   8   5  -4 2.02106 6.89368   2
 -13   8  -4 7.33923 8.45294   2
  13  -8   4 3.44876 5.22821   1
  -5  13   4 -2.8207 9.45050   7
 -13   9  -4 48.4816 10.2300   2
 -13   9  -4 36.7219 9.46924   1
   9   4  -4 46.8563 8.52276   2
   4 -13  -4 41.6201 8.20285   2
  13  -9   4 36.0151 6.68479   1
  -4  13   4 31.8809 11.1831   7
   3 -13  -4 24.4325 8.16818   2
 -13  10  -4 10.8554 9.03844   1
  10   3  -4 9.42308 7.41037   2
 -13  10  -4 29.1042 9.28438   2
  13 -10   4 17.0424 6.14362   1
  -3  13   4 -3.0370 9.59155   7
 -13  11  -4 11.6496 9.30290   2
   2 -13  -4 17.2037 7.63973   2
 -13  11  -4 13.5937 9.30756   1
  11   2  -4 11.3252 7.57935   2
  13 -11   4 11.3791 6.14336   1
 -13  12  -4 25.3567 10.1022   2
   1 -13  -4 52.9668 9.60787   2
  12   1  -4 31.8449 9.05126   2
 -13  12  -4 42.8345 10.9240   1
  13 -12   4 50.9203 7.59737   1
 -13  13  -4 58.1761 11.9298   1
   0 -13  -4 46.4853 10.0484   2
  13   0  -4 60.2611 10.2285   2
 -13  13  -4 40.2704 11.4425   2
  13 -13   4 52.5593 8.47585   1
  -1 -13  -4 19.0767 8.67109   2
 -13  14  -4 -13.495 10.3331   2
 -13  14  -4 6.04564 10.7921   1
  14  -1  -4 -0.1826 8.34597   2
  13 -14   4 14.2078 7.38193   1
 -13  15  -4 -15.678 10.6067   1
 -13  15  -4 -2.3243 11.5544   2
  -2 -13  -4 11.8208 9.11083   2
  15  -2  -4 12.6016 8.96913   2
  13 -15   4 25.8279 8.08939   1
  16  -3  -4 9.02733 9.50538   2
  -3 -13  -4 14.0732 9.58918   2
 -13  16  -4 5.30591 11.9369   1
 -13  16  -4 19.7267 12.9827   2
  13 -16   4 11.0483 8.20560   1
 -13  17  -4 16.0688 13.4450   2
 -13  17  -4 28.1244 12.7287   1
  17  -4  -4 11.0944 10.0889   2
  -4 -13  -4 2.37920 10.3950   2
  13 -17   4 -5.6786 8.12080   1
  -2  16  -4 10.5483 12.3026   2
  -2  16  -4 25.3727 12.0363   1
 -14  -2  -4 5.91077 10.7216   2
  16 -14  -4 11.5829 10.2708   2
   2 -16   4 8.57024 7.96989   1
 -14  -1  -4 9.90150 10.3765   2
  -1  15  -4 30.1238 11.7078   2
  15 -14  -4 -8.9069 9.24924   2
  -1  15  -4 6.64583 10.4957   1
   1 -15   4 2.34029 7.34932   1
  14 -14  -4 10.5805 9.41534   2
 -14   0  -4 10.5578 9.85794   2
   0  14  -4 30.8219 11.9736   2
   0  14  -4 28.0541 10.7541   1
   0 -14   4 26.9313 7.76074   1
   1  13  -4 -12.009 9.74327   2
  13 -14  -4 9.17110 8.45145   2
 -14   1  -4 -5.9089 9.00468   2
   1  13  -4 0.64832 9.76252   1
  -1 -13   4 4.87443 7.04031   1
   2  12  -4 140.869 13.4133   1
   2  12  -4 150.103 14.8611   2
  12 -14  -4 110.537 12.3600   2
 -14   2  -4 118.214 13.6319   2
  -2 -12   4 88.6091 10.0723   1
   3  11  -4 -3.6789 7.79264   1
 -14   3  -4 7.24446 9.17410   2
   3  11  -4 16.7594 8.95814   2
  11 -14  -4 9.34621 7.75843   2
  -3 -11   4 9.46535 5.95888   1
 -14   4  -4 14.7199 9.27794   2
  10 -14  -4 15.0885 8.17146   2
   4  10  -4 10.5696 8.16343   1
   4  10  -4 5.72020 7.84629   2
  -4 -10   4 18.8274 6.11901   1
 -14   5  -4 45.8298 10.7651   2
   9 -14  -4 58.9713 9.66881   2
   5   9  -4 48.2657 9.46552   2
   5   9  -4 47.3438 9.24840   1
  -9  14   4 47.8438 13.2270   7
  -5  -9   4 61.6126 7.40335   1
   8 -14  -4 19.2120 7.90850   2
   6   8  -4 19.6980 8.08993   2
   6   8  -4 16.5179 7.67350   1
 -14   6  -4 27.5276 9.71914   1
 -14   6  -4 29.7211 9.48551   2
  -8  14   4 25.1576 11.0855   7
  -6  -8   4 24.6410 5.87014   1
   7 -14  -4 -4.5884 7.10686   2
 -14   7  -4 5.78054 8.54053   2
 -14   7  -4 1.39830 8.75048   1
   7   7  -4 2.65250 7.44704   2
   7   7  -4 -0.5633 6.89751   1
  14  -7   4 -2.8381 5.42396   1
  -7  14   4 3.26672 10.9231   7
   8   6  -4 27.6065 8.06669   2
 -14   8  -4 16.3334 9.49050   2
 -14   8  -4 25.4877 9.60942   1
   6 -14  -4 15.5044 8.11514   2
  14  -8   4 17.5862 5.96061   1
  -6  14   4 7.37028 10.5094   7
 -14   9  -4 54.8957 10.7120   1
   5 -14  -4 70.8007 10.1456   2
   9   5  -4 69.4066 10.2715   2
 -14   9  -4 52.6134 11.6588   2
  14  -9   4 48.4157 7.52572   1
  -5  14   4 68.3756 13.3613   7
 -14  10  -4 46.2021 10.6215   1
   4 -14  -4 41.7856 9.04187   2
 -14  10  -4 34.8772 11.2862   2
  10   4  -4 26.7460 8.66504   2
  14 -10   4 38.1983 7.24951   1
 -14  11  -4 13.7683 10.2106   1
   3 -14  -4 16.2981 8.43974   2
  11   3  -4 17.5783 8.15574   2
 -14  11  -4 10.4628 10.0064   2
  14 -11   4 18.5470 6.63661   1
   2 -14  -4 19.5824 8.74297   2
 -14  12  -4 32.5358 11.2158   2
  12   2  -4 25.8958 8.82009   2
 -14  12  -4 44.3308 11.4499   1
  14 -12   4 36.1031 7.35342   1
 -14  13  -4 1.60662 10.7336   1
 -14  13  -4 0.92934 10.8018   2
   1 -14  -4 4.45715 8.43751   2
  13   1  -4 11.3011 8.62623   2
  14 -13   4 7.23122 6.90918   1
 -14  14  -4 45.9325 12.2634   1
  14   0  -4 33.8029 9.87436   2
 -14  14  -4 33.2180 12.0799   2
   0 -14  -4 40.8059 10.5104   2
  14 -14   4 32.3454 8.15148   1
 -14  15  -4 -4.4868 11.1192   1
  15  -1  -4 -18.858 8.62931   2
  -1 -14  -4 -13.533 8.87337   2
 -14  15  -4 7.09077 12.6987   2
  14 -15   4 -1.0048 7.61659   1
  16  -2  -4 3.63702 9.35588   2
 -14  16  -4 -10.285 11.6333   2
 -14  16  -4 -2.8746 11.7068   1
  -2 -14  -4 2.37432 9.32747   2
  14 -16   4 3.79150 8.09021   1
  16 -15  -4 -4.8844 9.73444   2
 -15  -1  -4 5.58128 11.0649   2
  -1  16  -4 17.9544 11.7435   1
  -1  16  -4 -2.9084 12.0559   2
   1 -16   4 -5.2145 7.67334   1
   0  15  -4 25.2412 11.6197   1
 -15   0  -4 12.8542 10.9718   2
  15 -15  -4 19.6932 10.5382   2
   0  15  -4 19.8712 12.5525   2
   0 -15   4 15.2936 7.76223   1
   1  14  -4 7.22815 10.2794   1
 -15   1  -4 2.46387 9.79549   2
   1  14  -4 2.74223 11.9193   2
  14 -15  -4 21.0252 9.35455   2
  -1 -14   4 5.98288 7.41125   1
   2  13  -4 -9.4768 10.6983   2
  13 -15  -4 13.6118 8.92159   2
   2  13  -4 7.07322 10.3773   1
 -15   2  -4 2.65873 9.55340   2
  -2 -13   4 -0.8104 6.74998   1
   3  12  -4 11.5418 9.43671   1
   3  12  -4 6.19481 10.4734   2
 -15   3  -4 27.4131 10.3518   2
  12 -15  -4 12.0758 8.86289   2
  -3 -12   4 10.9678 6.71649   1
   4  11  -4 38.5479 10.1059   2
 -15   4  -4 35.7452 11.0591   2
   4  11  -4 47.5290 10.3847   1
  11 -15  -4 43.5071 9.85077   2
  -4 -11   4 49.2413 7.71542   1
   5  10  -4 -18.121 8.03077   1
 -15   5  -4 22.4065 10.0443   1
  10 -15  -4 2.22171 8.10711   2
   5  10  -4 1.91399 8.40658   2
 -15   5  -4 -7.2654 9.45595   2
  -5 -10   4 -0.3415 5.88498   1
   6   9  -4 12.1623 8.63561   1
   6   9  -4 6.76245 8.32369   2
   9 -15  -4 15.5025 8.57702   2
 -15   6  -4 26.4718 10.6590   2
 -15   6  -4 19.5754 10.3717   1
  -6  -9   4 14.4785 6.31801   1
 -15   7  -4 38.9130 10.5275   2
   8 -15  -4 17.6627 8.61022   2
   7   8  -4 37.1284 8.96952   1
   7   8  -4 37.9133 9.04808   2
 -15   7  -4 22.8703 10.5503   1
  15  -7   4 20.3691 6.49046   1
  -7  -8   4 37.9074 6.68708   1
   7 -15  -4 -16.461 7.66629   2
   8   7  -4 5.63361 8.39687   2
   8   7  -4 3.84720 7.75458   1
 -15   8  -4 14.9630 10.5510   1
 -15   8  -4 17.2434 10.1808   2
  15  -8   4 9.73903 6.17691   1
 -15   9  -4 70.1098 12.7647   2
   6 -15  -4 68.2301 11.1008   2
   9   6  -4 78.1015 11.2440   2
   9   6  -4 81.7484 10.3130   1
 -15   9  -4 74.6095 12.2665   1
  15  -9   4 62.9064 8.19228   1
 -15  10  -4 33.3981 10.8969   1
 -15  10  -4 35.7785 11.1606   2
  10   5  -4 12.3098 8.71711   2
   5 -15  -4 15.4299 9.15195   2
  15 -10   4 22.3511 6.98558   1
 -15  11  -4 17.9639 10.9767   2
 -15  11  -4 2.32115 10.1771   1
   4 -15  -4 27.0570 9.39938   2
  11   4  -4 8.36184 8.63646   2
  15 -11   4 18.7618 6.98275   1
   3 -15  -4 7.14152 8.69354   2
 -15  12  -4 -13.767 10.6305   1
  12   3  -4 -2.4546 8.23458   2
 -15  12  -4 -1.7174 11.0618   2
  15 -12   4 4.03083 6.80502   1
   2 -15  -4 69.3165 11.6920   2
 -15  13  -4 83.2436 13.6417   1
 -15  13  -4 66.1830 14.0382   2
  13   2  -4 75.5884 11.7189   2
  15 -13   4 62.4485 9.11330   1
   1 -15  -4 -1.7635 8.75376   2
 -15  14  -4 -3.9800 11.6730   2
 -15  14  -4 -5.2022 10.8919   1
  14   1  -4 -0.2233 9.10130   2
  15 -14   4 -10.715 6.86759   1
 -15  15  -4 -10.727 12.0527   2
   0 -15  -4 5.28092 9.90406   2
  15   0  -4 -0.5202 9.58005   2
 -15  15  -4 -4.8225 11.5357   1
  15 -15   4 5.23286 7.74641   1
  -1 -15  -4 12.0599 10.3974   2
  16  -1  -4 5.96293 9.92071   2
 -15  16  -4 -18.261 11.4022   1
  15 -16   4 2.43507 8.07912   1
   1  15  -4 24.4445 13.2167   2
   1  15  -4 19.1050 11.8331   1
  15 -16  -4 1.89250 10.0215   2
 -16   1  -4 1.04585 10.8857   2
  14 -16  -4 -4.5679 9.30987   2
   2  14  -4 28.5942 11.0624   1
 -16   2  -4 18.8051 11.4136   2
   2  14  -4 8.25415 12.5824   2
  -2 -14   4 9.83988 7.64971   1
   3  13  -4 22.1834 11.3144   1
 -16   3  -4 19.0768 18.0469   1
 -16   3  -4 38.4192 11.5421   2
  13 -16  -4 15.1952 9.82907   2
   3  13  -4 -4.6020 11.4782   2
  -3 -13   4 30.3154 7.76203   1
  12 -16  -4 3.09793 8.63849   2
   4  12  -4 -1.3175 10.0204   1
 -16   4  -4 44.9729 12.2292   1
 -16   4  -4 -0.2192 10.3417   2
  -4 -12   4 2.42791 6.73768   1
   5  11  -4 17.3991 9.54902   2
  11 -16  -4 3.05012 8.67688   2
 -16   5  -4 2.77532 9.78486   2
   5  11  -4 -1.6699 9.43717   1
 -16   5  -4 -8.4445 10.7486   1
  -5 -11   4 -5.2973 6.48129   1
  10 -16  -4 -4.2044 8.40029   2
 -16   6  -4 -23.972 9.96575   2
 -16   6  -4 0.44515 10.5873   1
   6  10  -4 5.84831 8.55915   2
   6  10  -4 15.4056 9.98199   1
  -6 -10   4 16.1740 6.77143   1
 -16   7  -4 34.0967 11.4076   2
   7   9  -4 4.48961 8.71351   2
   9 -16  -4 0.34545 8.83697   2
 -16   7  -4 -1.6203 10.7738   1
   7   9  -4 18.1630 9.76487   1
  -7  -9   4 18.5945 6.58753   1
   8   8  -4 4.98896 8.73038   2
   8   8  -4 3.60819 8.98374   1
 -16   8  -4 0.31590 10.1001   2
   8 -16  -4 -8.9727 8.37470   2
 -16   8  -4 12.2271 11.0848   1
  16  -8   4 -2.5919 6.39360   1
  -8  -8   4 2.82866 5.91132   1
   7 -16  -4 7.51410 9.23972   2
   9   7  -4 24.5865 10.0977   2
 -16   9  -4 22.9014 11.3825   1
 -16   9  -4 6.25412 10.7879   2
   9   7  -4 22.3041 9.41547   1
  16  -9   4 28.2607 7.29936   1
  10   6  -4 18.2438 9.68943   2
   6 -16  -4 3.86149 9.21404   2
  10   6  -4 30.0216 9.65569   1
 -16  10  -4 17.5318 11.8909   2
 -16  10  -4 22.3173 12.1119   1
  16 -10   4 21.2980 7.07333   1
 -16  11  -4 14.3960 11.7185   2
 -16  11  -4 -2.2522 11.4186   1
  11   5  -4 1.09381 8.93622   2
  11   5  -4 -10.538 9.06089   1
   5 -16  -4 10.8684 9.34676   2
  16 -11   4 -1.2819 6.79134   1
  12   4  -4 22.2909 9.70304   2
   4 -16  -4 24.8983 10.1206   2
 -16  12  -4 2.83279 12.0956   2
 -16  12  -4 23.2550 12.2093   1
  16 -12   4 -1.6464 6.99511   1
 -16  13  -4 -11.388 11.6411   2
   3 -16  -4 -6.6034 9.20424   2
  13   3  -4 0.71063 9.30179   2
 -16  13  -4 3.38284 11.7512   1
  16 -13   4 -6.8879 7.17733   1
 -16  14  -4 5.60899 12.1530   1
  14   2  -4 -7.1193 8.69900   2
 -16  14  -4 -9.1731 12.2322   2
   2 -16  -4 3.19568 9.92624   2
  16 -14   4 6.27712 7.71443   1
   1 -16  -4 54.0911 12.3692   2
  15   1  -4 43.8763 12.0116   2
 -16  15  -4 56.0560 13.5650   1
  16 -15   4 62.9070 9.62507   1
 -17   4  -4 24.8910 11.9904   2
 -17   4  -4 14.0526 12.2472   1
  13 -17  -4 9.68826 9.78826   2
   4  13  -4 9.87921 12.4219   2
   4  13  -4 22.0765 11.9345   1
  -4 -13   4 16.9000 7.56778   1
 -17   5  -4 -0.2408 12.0081   1
   5  12  -4 6.43654 10.7894   1
  12 -17  -4 1.71393 9.48839   2
   5  12  -4 -13.161 9.35049   2
 -17   5  -4 -6.4481 11.1151   2
  -5 -12   4 4.79915 6.80693   1
 -17   6  -4 5.16872 11.0922   2
   6  11  -4 17.7025 10.7139   1
   6  11  -4 1.15228 9.72035   2
 -17   6  -4 1.66956 12.0027   1
  11 -17  -4 16.8216 9.82605   2
  -6 -11   4 0.79208 6.68365   1
   7  10  -4 22.1328 9.97183   2
  10 -17  -4 -2.8735 9.22761   2
   7  10  -4 14.5125 10.6220   1
 -17   7  -4 19.2873 12.4710   1
 -17   7  -4 12.6036 11.9662   2
  -7 -10   4 12.5315 7.00375   1
   8   9  -4 58.5457 12.2415   1
   8   9  -4 53.2038 11.5591   2
 -17   8  -4 29.0278 12.0453   1
 -17   8  -4 39.5796 12.5663   2
   9 -17  -4 42.0465 10.7598   2
  17  -8   4 32.9443 7.51534   1
   9   8  -4 13.1495 10.0126   2
 -17   9  -4 16.4590 11.9614   1
   9   8  -4 19.7775 10.3161   1
 -17   9  -4 18.0877 11.1300   2
   8 -17  -4 0.71543 9.39677   2
  17  -9   4 15.1700 7.09337   1
   7 -17  -4 14.6717 9.82635   2
  10   7  -4 -13.258 9.10268   1
 -17  10  -4 21.7915 12.1611   1
  10   7  -4 6.49594 9.77642   2
 -17  10  -4 -24.459 11.0197   2
  17 -10   4 18.4069 7.17924   1
  11   6  -4 7.67395 9.78342   2
   6 -17  -4 1.82017 9.64467   2
  11   6  -4 18.4387 10.8543   1
 -17  11  -4 32.8454 12.3945   1
 -17  11  -4 24.9864 12.2852   2
  17 -11   4 6.14127 7.11103   1
  12   5  -4 20.0318 10.3855   2
  12   5  -4 2.37057 9.95728   1
 -17  12  -4 -6.8449 12.3113   2
 -17  12  -4 -0.7549 11.9803   1
   5 -17  -4 3.63870 9.62437   2
  17 -12   4 3.87499 7.24722   1
 -17  13  -4 -13.602 12.5225   2
  13   4  -4 0.14481 10.3570   1
   4 -17  -4 -2.0260 9.88354   2
  13   4  -4 1.43000 9.88973   2
 -17  13  -4 -2.1412 11.9744   1
  17 -13   4 -0.7865 7.55904   1
   0   0  -5 1996.90 99.9602   3
   0   0  -5 2066.14 96.1432   2
   0   0   5 2195.34 98.7198   8
   0   0   5 2214.57 99.3292   5
   0   1  -5 47.5863 7.22556   3
   0   1  -5 55.2515 4.05682   2
  -1   0  -5 48.8573 3.75056   2
  -1   1   5 41.6571 6.98658   8
   0  -1   5 46.9587 5.26957   7
  -1   1   5 42.6094 7.36108   5
   0  -1   5 47.4828 6.78857   8
  -1   1   5 36.6971 7.33973   3
   1   0   5 49.9491 7.18631   8
   0  -1   5 35.5945 7.11993   5
   1   0  -5 13.8987 6.14458   3
  -1   1  -5 21.4850 3.09182   2
  -1   1  -5 15.3307 5.87367   3
  -1   0   5 39.8311 6.52066   8
   1  -1   5 34.4376 7.07874   5
   0   1   5 33.9478 6.51292   8
   1  -1   5 25.7652 4.49299   7
  -1   0   5 27.6020 6.46845   3
   0   1   5 33.0012 6.92506   5
   1  -1   5 31.4206 6.25694   8
  -1   0   5 32.1949 6.95789   5
  -1  -1  -5 9.38958 2.12015   2
  -1   2  -5 8.58856 5.28336   3
  -1   2  -5 4.63137 2.91982   2
   2  -1  -5 8.02984 1.94202   2
   1  -2   5 0.01549 5.94393   5
   1   1   5 4.22625 5.24821   8
  -2   1   5 5.54804 5.45798   8
  -2   1   5 -1.2291 5.31666   3
  -2   1   5 5.23295 5.65910   5
   1  -2   5 2.89804 5.04398   8
   1  -2   5 5.75557 4.12203   7
  -2  -1  -5 897.449 41.6972   2
  -1   3  -5 902.242 44.5667   3
   3  -2  -5 875.705 41.3396   2
  -1   3  -5 870.064 42.2899   2
  -3   2   5 969.537 44.9892   5
   1  -3   5 912.282 45.2379   5
   1  -3   5 886.251 43.8906   7
  -3   2   5 926.439 46.4790   3
   2   1   5 885.779 44.2464   8
   2   1   5 908.510 42.8315   7
  -3   2   5 886.800 44.3371   8
   1  -3   5 918.323 44.0862   8
   0   2  -5 143.246 8.42090   2
   0   2  -5 144.768 11.7720   3
  -2   0  -5 140.906 7.71745   2
   0  -2   5 133.070 11.7793   5
  -2   2   5 121.593 13.2317   3
  -2   2   5 132.020 11.0293   8
   2   0   5 130.949 11.1086   8
   0  -2   5 134.047 10.0499   7
   2   0   5 132.585 9.66239   7
  -2   2   5 137.271 11.7838   5
   0  -2   5 125.149 10.7631   8
  -2   1  -5 29.7979 6.87354   3
   1   1  -5 21.7791 3.05470   2
  -2   1  -5 22.5417 3.20221   2
   1   1  -5 21.2527 6.05972   3
  -1   2   5 16.2783 6.46537   3
   2  -1   5 13.1122 5.41506   8
  -1   2   5 13.4658 6.21461   5
  -1   2   5 -1.4368 5.26699   8
   2  -1   5 11.8241 4.35290   7
  -1  -1   5 11.2382 5.40786   3
  -1  -1   5 10.0253 5.29552   8
  -1  -1   5 13.5851 4.02204   7
  -1  -1   5 8.26264 3.86039   7
  -1  -1   5 13.9532 6.33907   5
   2   0  -5 47.7922 8.01957   3
  -2   2  -5 55.3302 7.58438   3
  -2   2  -5 52.8072 4.82636   2
   2   0  -5 49.8055 4.10194   2
  -2   0   5 60.2761 7.38982   8
   0   2   5 59.1502 7.29069   8
  -2   0   5 48.9716 8.00251   5
   2  -2   5 60.0092 8.32790   5
   2  -2   5 46.5017 7.09994   8
  -2   0   5 55.4186 7.94720   3
  -2   0   5 48.0686 5.41702   7
   2  -2   5 53.6095 6.44208   7
  -2   3  -5 84.2517 6.52470   2
   3  -1  -5 65.5115 5.02729   2
  -2   3  -5 90.6923 8.91076   3
  -1  -2  -5 88.4567 4.89710   2
  -3   1   5 47.7391 7.45697   8
   2  -3   5 59.6332 7.37608   7
   1   2   5 66.9721 8.13836   8
   2  -3   5 54.9676 7.58371   8
  -3   1   5 62.4954 9.03954   3
   2  -3   5 79.2634 9.39318   5
  -3   1   5 55.3949 8.38176   5
  -2  -2  -5 142.842 8.82285   2
  -2   4  -5 151.838 10.0665   2
  -2   4  -5 146.945 11.8265   3
   4  -2  -5 140.584 8.52792   2
  -4   2   5 166.448 10.2002   7
  -4   2   5 174.317 12.6129   8
   2  -4   5 170.088 11.9922   8
  -4   2   5 180.199 15.0436   3
   2  -4   5 150.118 12.2771   7
   2   2   5 166.422 10.4644   7
  -4   2   5 194.980 13.7712   5
   2  -4   5 181.386 14.0067   5
   2   2   5 177.401 12.8294   8
   5  -3  -5 34.7817 3.48493   2
  -3  -2  -5 29.6449 4.01468   2
  -2   5  -5 38.7730 5.08905   2
  -3  -2  -5 38.1266 4.54185   9
  -5   3   5 20.2175 7.96173   3
  -5   3   5 14.8659 4.54832   7
   2  -5   5 13.8393 6.78769   5
  -5   3   5 7.78473 6.64685   8
  -5   3   5 10.6692 6.55953   5
   2  -5   5 16.7596 5.83545   8
   3   2   5 23.6040 6.71259   8
   3   2   5 16.2399 5.13357   7
  -3  -1  -5 127.760 8.12641   9
   4  -3  -5 128.777 6.78800   2
  -1   4  -5 110.630 8.42278   2
  -3  -1  -5 133.278 7.65759   2
   1  -4   5 104.229 10.7746   7
   3   1   5 99.0256 9.25437   7
   3   1   5 110.132 10.6868   8
  -4   3   5 125.692 10.9779   5
  -4   3   5 108.754 12.4931   3
   1  -4   5 98.6634 10.8767   5
   1  -4   5 113.219 9.97786   8
  -4   3   5 127.264 11.0779   8
   0   3  -5 206.261 14.4524   3
  -3   0  -5 209.835 11.6521   9
   0   3  -5 218.590 12.0967   2
  -3   0  -5 197.763 11.4508   2
   3   0   5 223.083 13.6084   7
  -3   3   5 233.436 17.4886   3
  -3   3   5 209.813 14.8124   5
   0  -3   5 216.846 14.1734   7
   0  -3   5 213.699 16.0515   5
   0  -3   5 222.145 13.7605   8
   3   0   5 215.556 14.6067   8
   0  -3   5 223.901 14.0320   7
  -3   3   5 207.776 14.4418   8
  -3   1  -5 80.7174 6.00351   2
   1   2  -5 95.1639 9.39030   3
   1   2  -5 76.4461 6.06066   2
  -2   3   5 70.6613 10.2964   3
  -1  -2   5 68.2207 8.15872   3
   3  -1   5 65.5955 7.29931   7
  -1  -2   5 74.5336 7.60916   7
  -1  -2   5 69.5352 9.10835   5
  -1  -2   5 69.0558 7.22153   7
  -2   3   5 74.6123 8.73106   5
  -2   3   5 70.7615 8.48741   8
   3  -1   5 62.5250 8.32156   8
  -1  -2   5 81.0718 8.05600   8
   2   1  -5 68.5490 5.38196   2
  -3   2  -5 66.0271 5.34617   2
  -3   2  -5 61.2111 8.22328   3
  -1   3   5 53.3947 9.04711   3
   3  -2   5 37.8016 7.22955   8
  -2  -1   5 56.9089 6.47631   7
  -2  -1   5 48.5376 7.05495   8
  -1   3   5 56.7567 7.70182   8
   3  -2   5 50.0147 6.90232   7
  -2  -1   5 49.0227 8.21284   5
  -2  -1   5 58.7764 7.97391   3
  -3   3  -5 17.5291 5.95529   3
   3   0  -5 22.2869 3.21841   2
  -3   3  -5 19.6375 3.90261   2
   0   3   5 21.1344 6.11760   8
   3  -3   5 19.9469 5.86689   8
  -3   0   5 23.8542 5.98745   8
   3  -3   5 8.16126 5.17012   7
  -3   0   5 23.2881 7.04119   5
  -3   0   5 15.4947 6.48099   3
  -3   0   5 15.0169 4.72654   7
   3  -3   5 10.1512 6.30905   5
  -3   4  -5 64.8496 8.03661   3
  -3   4  -5 89.0221 7.57312   2
  -1  -3  -5 81.3876 5.42924   2
   4  -1  -5 67.3041 5.77368   2
  -4   1   5 85.3479 8.11059   7
   3  -4   5 89.8622 10.1504   5
   3  -4   5 79.8052 9.09975   7
   1   3   5 90.9877 8.96583   8
  -4   1   5 81.1697 10.3234   3
   3  -4   5 95.1908 9.07947   8
  -4   1   5 95.4722 9.44044   8
  -2  -3  -5 88.2813 6.44194   9
  -3   5  -5 95.0090 8.04215   2
   5  -2  -5 87.5096 6.26054   2
  -2  -3  -5 80.9455 6.28622   2
  -5   2   5 82.0918 8.56518   7
   3  -5   5 84.6387 10.2088   5
  -5   2   5 91.9859 9.94679   8
   2   3   5 87.5882 9.13611   8
  -5   2   5 86.1366 11.3595   3
   3  -5   5 67.3833 8.46050   8
   2   3   5 73.7009 7.84068   7
  -3   6  -5 66.1395 7.27814   2
  -3  -3  -5 84.4810 6.81468   2
   6  -3  -5 76.4375 6.47763   2
  -3  -3  -5 76.9710 6.83066   9
  -6   3   5 81.0855 8.10229   7
   3  -6   5 94.3441 9.12086   8
  -6   3   5 88.5774 10.0938   8
  -6   3   5 78.5685 11.4839   3
   3   3   5 96.9184 9.42130   7
   3   3   5 81.6617 9.21482   8
   3  -6   5 88.4471 10.5833   5
  -4  -3  -5 65.6420 7.13051   9
   7  -4  -5 60.9081 5.72458   2
  -3   7  -5 61.4810 7.13097   2
  -4  -3  -5 55.9010 5.89664   2
  -7   4   5 39.0182 7.32742   7
   3  -7   5 58.1192 7.48215   8
  -7   4   5 44.4544 9.13100   8
   3  -7   5 55.5252 9.14736   5
   4   3   5 39.4956 8.26440   8
  -4  -2  -5 87.2029 7.69775   9
  -4  -2  -5 84.8795 7.53405   2
  -2   6  -5 87.3243 7.73660   2
   6  -4  -5 91.6648 6.75453   2
   4   2   5 101.782 10.3652   8
   2  -6   5 93.0108 10.7662   5
  -6   4   5 97.3031 10.6396   8
   2  -6   5 74.7956 9.93355   7
   2  -6   5 88.1844 8.84856   8
  -6   4   5 93.3221 9.45486   7
   4   2   5 84.8779 8.89391   7
  -1   5  -5 59.3570 6.21619   2
  -4  -1  -5 57.4055 5.51958   2
   5  -4  -5 56.2965 4.46223   2
  -4  -1  -5 52.1588 6.09660   9
   1  -5   5 50.2040 7.90938   7
  -5   4   5 55.5233 5.97135   7
  -5   4   5 47.2969 9.82532   3
   1  -5   5 49.3756 8.69536   5
   4   1   5 55.0467 8.33103   8
  -5   4   5 63.8080 8.29907   5
  -5   4   5 59.7651 8.56710   8
   1  -5   5 73.4008 7.70451   8
   4   1   5 46.6468 6.80520   7
   0   4  -5 385.518 19.8665   2
   4  -4  -5 378.141 18.4367   2
  -4   0  -5 387.213 20.0930   9
  -4   0  -5 374.180 19.3971   2
  -4   4   5 381.399 21.9373   8
   4   0   5 390.548 22.1036   8
   0  -4   5 395.960 23.0837   5
  -4   4   5 386.936 24.9408   3
   0  -4   5 388.400 22.2496   7
   0  -4   5 415.635 21.4971   8
  -4   4   5 387.275 22.0958   5
   4   0   5 385.871 21.4665   7
   0  -4   5 405.893 22.2665   7
  -4   1  -5 327.887 17.0403   9
  -4   1  -5 317.474 16.2589   2
   1   3  -5 315.765 16.3245   2
  -3   4   5 331.115 21.9369   3
  -3   4   5 313.879 19.0189   5
  -3   4   5 324.711 19.1998   8
  -1  -3   5 309.192 18.3753   7
  -1  -3   5 308.427 18.7269   7
  -1  -3   5 309.552 18.2602   3
  -1  -3   5 307.761 18.2688   8
   4  -1   5 314.171 18.9570   8
  -1  -3   5 310.376 19.8481   5
   4  -1   5 310.625 18.6040   7
  -4   2  -5 311.560 15.9859   9
  -4   2  -5 302.136 15.3695   2
   2   2  -5 309.674 15.1368   2
  -2   4   5 285.814 17.4821   8
   4  -2   5 268.827 17.8736   7
  -2   4   5 264.557 20.1708   3
  -2  -2   5 288.372 17.0663   8
  -2  -2   5 275.863 17.5793   3
   4  -2   5 288.084 17.7850   8
  -2  -2   5 275.585 17.1868   7
  -4   3  -5 171.437 10.2905   2
  -4   3  -5 172.124 11.2153   9
  -4   3  -5 167.040 13.7659   3
   3   1  -5 169.659 9.77211   2
  -3  -1   5 159.458 12.1686   7
  -3  -1   5 142.734 13.0042   3
   4  -3   5 165.762 12.9972   7
   4  -3   5 156.121 12.9984   8
  -1   4   5 168.767 12.8995   8
  -3  -1   5 178.554 12.7754   8
   4   0  -5 325.927 16.3547   2
  -4   4  -5 285.167 19.2973   3
   0  -4  -5 300.797 15.5489   2
  -4   4  -5 305.100 17.2753   2
   0   4   5 329.529 18.7453   8
   4  -4   5 346.690 19.1973   8
   4  -4   5 341.074 20.0815   5
  -4   0   5 365.259 19.5645   8
  -4   0   5 334.625 18.4912   7
  -4   0   5 315.074 20.6859   3
   4  -4   5 329.622 20.0241   7
  -4   5  -5 15.2434 4.73360   2
   5  -1  -5 16.4157 3.71580   2
  -1  -4  -5 13.2295 3.17087   2
  -5   1   5 23.0684 5.50710   7
  -5   1   5 25.0766 7.08548   8
   1   4   5 25.0923 4.74984   7
   4  -5   5 17.4671 6.31497   8
  -5   1   5 26.0785 7.63201   3
   4  -5   5 28.4879 7.46502   5
   1   4   5 20.1091 6.36130   8
  -4   6  -5 23.4594 5.26275   2
  -2  -4  -5 21.8711 3.73573   2
   6  -2  -5 22.5902 3.95310   2
  -2  -4  -5 21.2586 4.19801   9
   2   4   5 20.8064 6.35564   8
  -6   2   5 19.1555 5.89240   7
   4  -6   5 29.7728 6.50854   8
  -6   2   5 27.2383 7.53111   8
   2   4   5 20.4656 5.30526   7
   4  -6   5 21.1403 7.44552   5
  -6   2   5 22.8781 8.38362   3
  -4   7  -5 272.498 15.7882   2
  -3  -4  -5 241.657 14.2801   2
  -3  -4  -5 261.754 14.9543   9
   7  -3  -5 249.377 14.1058   2
  -7   3   5 269.354 18.7856   8
  -7   3   5 267.501 16.9690   7
   3   4   5 252.190 16.6823   7
   4  -7   5 270.332 18.0686   5
   4  -7   5 253.203 16.5450   8
   3   4   5 241.853 16.9167   8
  -4  -4  -5 42.1465 6.12803   2
  -4   8  -5 48.6720 7.07223   2
   8  -4  -5 42.5431 5.79206   2
   4   4   5 60.2071 9.02288   8
   4  -8   5 79.8211 10.3961   5
   4  -8   5 53.0277 7.97873   8
  -8   4   5 62.9133 8.93060   7
   9  -5  -5 16.1782 5.22463   2
  -5  -4  -5 17.5082 5.68228   2
  -4   9  -5 21.3697 6.55131   2
  -9   5   5 11.0667 7.36998   7
   5   4   5 26.9717 8.07296   8
  -5  -3  -5 47.2238 7.41589   9
  -3   8  -5 48.4012 7.13837   2
  -5  -3  -5 51.1428 6.37816   2
   8  -5  -5 48.7836 5.71279   2
   5   3   5 46.6815 8.76915   8
   3  -8   5 50.3836 7.33917   8
   3  -8   5 49.9052 10.1929   7
  -8   5   5 37.9630 7.99156   7
  -2   7  -5 67.3491 7.39142   2
  -5  -2  -5 77.8731 8.05494   9
   7  -5  -5 60.1215 5.89908   2
  -5  -2  -5 67.5973 6.72929   2
   2  -7   5 58.3242 7.78519   8
  -7   5   5 61.2804 8.21034   7
   5   2   5 68.8081 9.27039   8
  -7   5   5 90.4773 10.7514   8
   2  -7   5 54.5865 10.1427   7
  -5  -1  -5 143.740 11.5632   9
  -5  -1  -5 143.740 10.6944   2
   6  -5  -5 151.862 9.57677   2
  -1   6  -5 161.774 11.4392   2
   1  -6   5 187.102 14.8126   7
  -6   5   5 181.073 12.2404   7
   5   1   5 171.347 13.6204   8
  -6   5   5 181.216 13.2332   5
   1  -6   5 176.432 12.2568   8
  -6   5   5 176.160 14.2548   8
   0   5  -5 8.16116 4.42486   2
   5  -5  -5 16.1910 2.89994   2
  -5   0  -5 9.77554 3.99959   2
  -5   0  -5 11.1266 5.13489   9
  -5   5   5 11.9920 6.15419   5
   0  -5   5 10.7185 5.99898   7
  -5   5   5 19.1378 7.31632   8
   5   0   5 8.69616 5.37435   7
   5   0   5 8.14326 6.50306   8
   0  -5   5 22.1037 5.64461   8
  -5   5   5 17.7373 4.61448   7
  -5   1  -5 7.96405 4.85214   9
  -5   1  -5 12.2782 3.82081   2
   1   4  -5 4.74096 3.80972   2
   4  -5  -5 6.97360 2.55398   2
   5  -1   5 9.09042 5.28137   7
   5  -1   5 1.86298 5.88200   8
  -4   5   5 4.44893 7.42267   3
  -4   5   5 6.09296 6.00778   5
  -1  -4   5 9.54260 5.87871   7
  -4   5   5 14.8181 6.41330   8
  -1  -4   5 11.0371 5.42873   8
   3  -5  -5 64.7605 4.59545   2
  -5   2  -5 68.1529 6.11602   2
  -5   2  -5 70.2988 7.66207   9
   2   3  -5 64.4743 5.88324   2
  -3   5   5 50.8366 7.99944   5
  -3   5   5 49.9974 7.97427   8
  -2  -3   5 58.3871 7.86438   7
  -2  -3   5 60.8154 8.30183   7
   5  -2   5 67.7114 8.53159   7
  -2  -3   5 51.5854 7.26963   3
  -2  -3   5 59.0757 7.57536   8
   5  -2   5 59.7437 8.53253   8
  -3   5   5 57.2248 10.3009   3
  -5   3  -5 19.6675 5.55464   9
  -5   3  -5 8.85507 4.13667   2
   2  -5  -5 15.6089 2.50483   2
   3   2  -5 11.4306 3.71804   2
  -3  -2   5 15.3410 6.14154   7
  -3  -2   5 18.9581 5.98863   3
  -3  -2   5 13.2606 5.89570   8
  -2   5   5 21.9057 7.92898   3
   5  -3   5 16.3789 7.64701   7
   5  -3   5 29.7286 7.04965   8
  -2   5   5 22.3065 6.51225   8
   1  -5  -5 62.9370 4.94632   2
  -5   4  -5 66.4963 6.53265   2
  -5   4  -5 64.7309 7.66901   9
   4   1  -5 67.6179 5.77443   2
  -4  -1   5 69.1200 8.43554   8
  -1   5   5 76.4923 8.51616   8
  -4  -1   5 44.3850 8.34603   3
  -4  -1   5 66.3444 7.99652   7
   5  -4   5 73.3401 8.82724   8
   0  -5  -5 23.9426 3.57077   2
  -5   5  -5 15.9898 6.00929   9
  -5   5  -5 28.0573 5.38133   2
   5   0  -5 27.4021 4.27849   2
  -5   0   5 18.0384 7.42471   3
   5  -5   5 27.1577 6.65690   8
   5  -5   5 7.06586 6.84930   5
  -5   0   5 31.7581 6.43336   7
  -5   0   5 25.5140 6.84727   8
   0   5   5 23.0876 6.57592   8
   0   5   5 19.6087 4.71419   7
  -1  -5  -5 24.2549 4.04106   2
  -5   6  -5 21.3212 6.52535   9
  -5   6  -5 25.1090 5.58074   2
   6  -1  -5 28.8516 4.52976   2
   1   5   5 30.0180 5.71574   7
  -6   1   5 40.9847 9.20131   3
  -6   1   5 37.6633 6.84618   7
   1   5   5 38.2639 7.31681   8
   5  -6   5 32.8289 7.84376   5
   5  -6   5 32.0934 7.60390   8
  -6   1   5 34.7189 7.91020   8
  -5   7  -5 37.3367 7.67207   9
   7  -2  -5 45.1771 5.36267   2
  -2  -5  -5 48.6068 5.37895   2
  -5   7  -5 37.6565 6.60971   2
  -7   2   5 45.2968 9.01814   8
   2   5   5 38.2770 6.86518   7
   2   5   5 46.5887 8.11508   8
  -7   2   5 48.5600 7.84811   7
   5  -7   5 44.0850 7.79961   8
   5  -7   5 50.3291 9.00056   5
  -3  -5  -5 106.040 8.76535   2
   8  -3  -5 102.207 8.59087   2
  -5   8  -5 89.2777 9.32574   2
  -5   8  -5 96.4779 11.0803   9
  -8   3   5 110.217 11.3485   7
   5  -8   5 98.4733 10.2276   8
   3   5   5 95.1544 10.2206   8
   5  -8   5 83.2500 11.0424   5
  -5   9  -5 56.6208 7.89898   2
  -5   9  -5 40.4546 9.18893   9
   9  -4  -5 53.0529 6.38157   2
  -4  -5  -5 46.4590 6.37197   2
   4   5   5 22.6908 7.72944   8
  -9   4   5 31.8215 8.37760   7
   5  -9   5 36.5013 7.90665   8
  -5  10  -5 45.4416 8.39771   2
  -5  10  -5 31.1609 10.2084   9
  10  -5  -5 67.6820 7.48366   2
  -5  -5  -5 49.7302 7.60620   2
 -10   5   5 53.8356 10.2221   7
   5   5   5 45.5005 9.36983   8
  -6  -5  -5 113.120 10.9195   2
  -5  11  -5 125.478 12.4735   2
  11  -6  -5 113.618 10.5148   2
 -11   6   5 131.820 14.5019   7
   6   5   5 146.779 13.5099   8
  -4  10  -5 63.1075 9.14900   2
  10  -6  -5 78.1030 7.85830   2
  -6  -4  -5 60.2624 8.12933   2
   6   4   5 59.5148 10.2519   8
 -10   6   5 57.6601 10.4432   7
  -3   9  -5 50.4129 7.80048   2
   9  -6  -5 42.3052 6.33754   2
  -6  -3  -5 43.7103 6.82138   2
  -9   6   5 47.8521 9.19052   7
   6   3   5 67.9952 10.1344   8
   8  -6  -5 104.679 9.06009   2
  -6  -2  -5 116.055 10.9086   9
  -2   8  -5 100.520 9.53517   2
  -6  -2  -5 106.496 9.47290   2
   2  -8   5 100.771 12.0264   7
  -8   6   5 124.374 12.4974   7
   6   2   5 121.573 12.0629   8
  -6  -1  -5 512.046 26.7573   2
   7  -6  -5 515.248 25.8679   2
  -1   7  -5 553.089 27.4525   2
  -6  -1  -5 537.286 27.6654   9
   1  -7   5 526.202 27.4580   8
  -7   6   5 509.463 28.1181   7
  -7   6   5 518.973 29.5142   8
   1  -7   5 518.238 30.4382   7
   6   1   5 562.587 29.5048   8
  -6   0  -5 111.143 9.38474   2
   6  -6  -5 100.964 7.61877   2
  -6   0  -5 124.216 10.1631   9
   6  -6  -5 116.530 8.15152   9
   0   6  -5 112.018 9.67625   2
   6   0   5 77.7716 10.5948   8
  -6   6   5 101.618 10.2213   7
  -6   6   5 117.075 11.6608   8
   0  -6   5 88.6799 10.7508   7
   0  -6   5 121.785 9.85896   8
  -6   6   5 101.870 10.0961   5
   5  -6  -5 148.062 8.29685   2
  -6   1  -5 148.343 11.5430   9
   1   5  -5 124.914 9.97113   2
  -6   1  -5 128.638 9.59529   2
  -5   6   5 122.871 11.6407   8
  -5   6   5 134.264 12.1256   5
   6  -1   5 121.987 12.1845   8
  -1  -5   5 122.926 12.8332   7
  -1  -5   5 125.202 10.7239   8
  -5   6   5 133.218 10.6969   7
   2   4  -5 23.1055 4.76114   2
   4  -6  -5 29.5678 3.69245   2
  -6   2  -5 22.5944 5.04876   2
  -6   2  -5 19.9795 6.21848   9
  -4   6   5 54.8034 7.57703   5
  -2  -4   5 57.3813 8.09310   7
  -4   6   5 49.0247 7.91811   8
  -2  -4   5 54.6477 7.11537   8
   6  -2   5 44.5492 8.49904   8
   3   3  -5 7.62991 4.04921   2
   3  -6  -5 7.25141 2.94500   2
  -6   3  -5 11.7353 5.87234   9
  -6   3  -5 0.55878 4.01398   2
  -3  -3   5 15.5333 5.66939   3
   6  -3   5 2.41976 6.82022   8
  -3   6   5 -1.0256 6.13768   8
  -3  -3   5 14.7844 6.42092   7
  -3  -3   5 13.1781 5.84749   8
  -6   4  -5 0.00065 5.86422   9
   2  -6  -5 6.85269 2.77875   2
   4   2  -5 6.64251 3.71371   2
  -6   4  -5 3.52721 4.43565   2
  -4  -2   5 9.02381 6.01910   7
  -4  -2   5 4.86847 5.78278   8
  -4  -2   5 -1.7279 5.68729   3
  -2   6   5 2.90688 6.09524   8
   6  -4   5 16.5756 7.13253   8
   1  -6  -5 1.37828 2.92459   2
  -6   5  -5 5.30413 5.82571   9
   5   1  -5 4.79317 3.90739   2
  -6   5  -5 5.16538 4.63526   2
   1  -6  -5 2.97793 3.00875   9
  -5  -1   5 5.52443 6.38391   3
  -1   6   5 1.69973 5.77556   8
  -1   6   5 3.36486 4.53899   7
  -1   6   5 1.84624 4.46110   7
  -5  -1   5 3.99078 6.34516   8
  -5  -1   5 1.56372 5.66994   7
   6  -5   5 5.15734 6.45874   8
   6   0  -5 20.3215 4.56941   2
   0  -6  -5 20.8570 4.16796   2
  -6   6  -5 29.9176 5.85478   2
  -6   6  -5 11.0697 6.89228   9
  -6   0   5 18.4867 7.79965   3
  -6   0   5 18.7879 6.62525   7
   6  -6   5 -0.2628 6.77610   8
  -6   0   5 15.3322 7.58565   8
   0   6   5 26.4309 6.97906   8
   6  -6   5 26.8721 7.48034   5
   0   6   5 28.0507 5.83615   7
  -6   7  -5 128.398 12.8042   9
  -1  -6  -5 108.054 9.16239   2
   7  -1  -5 119.654 9.89957   2
  -6   7  -5 139.157 12.1611   2
   1   6   5 154.274 12.3098   7
  -7   1   5 174.999 14.1546   8
   1   6   5 152.999 12.5830   8
   6  -7   5 153.889 12.7238   8
   6  -7   5 171.277 14.3070   5
  -7   1   5 155.209 13.6109   7
   8  -2  -5 33.1261 5.48942   2
  -2  -6  -5 34.6987 5.55611   2
  -6   8  -5 40.7658 7.34747   2
  -6   8  -5 36.4103 8.54447   9
   6  -8   5 43.6935 9.00325   5
  -8   2   5 45.9070 8.65296   7
   2   6   5 38.3850 7.91439   8
   6  -8   5 36.4358 8.23836   8
  -3  -6  -5 19.7918 5.60723   2
   9  -3  -5 21.6414 5.49164   2
  -6   9  -5 24.7784 9.11064   9
  -6   9  -5 24.3980 7.12959   2
   3   6   5 24.4724 7.46882   8
  -9   3   5 37.0575 8.87859   7
   6  -9   5 13.9773 7.71703   8
   6  -9   5 35.0260 8.80954   5
  10  -4  -5 34.8198 6.47445   2
  -4  -6  -5 31.5336 6.54837   2
  -6  10  -5 26.9908 7.83662   2
   4   6   5 29.9339 7.89722   8
 -10   4   5 31.3247 9.42822   7
  -5  -6  -5 19.6740 6.76730   2
  -6  11  -5 13.0071 7.78427   2
  11  -5  -5 17.3940 6.24551   2
 -11   5   5 4.52010 8.66002   7
  -6  -6  -5 33.7807 8.36804   2
  -6  12  -5 21.9616 9.15666   2
  12  -6  -5 43.3427 8.13303   2
   6 -12   5 44.9495 5.88427   1
 -12   6   5 39.6893 11.3233   7
  13  -7  -5 -6.2785 7.19055   2
  -7  -6  -5 6.32205 7.93372   2
  -6  13  -5 12.5369 9.55362   2
  -6  13  -5 24.4076 8.77350   1
 -13   7   5 5.79473 10.2001   7
   6 -13   5 8.87538 5.40744   1
  12  -7  -5 8.62139 6.91262   2
  -7  -5  -5 4.25160 7.02849   2
  -5  12  -5 11.7366 8.61379   2
 -12   7   5 6.50968 9.58578   7
  -7  -4  -5 26.4032 7.42310   2
  11  -7  -5 30.5667 6.76674   2
  -4  11  -5 27.3749 8.09737   2
   7   4   5 32.0797 9.52447   8
 -11   7   5 26.3890 10.1303   7
  -7  -3  -5 51.4392 7.98193   2
  10  -7  -5 46.6294 7.18479   2
  -3  10  -5 66.4811 8.95803   2
   7   3   5 46.5170 10.1031   8
 -10   7   5 65.0333 10.6443   7
   9  -7  -5 34.5929 5.95559   2
  -2   9  -5 30.3504 6.88682   2
  -7  -2  -5 32.4213 6.54914   2
  -7  -2  -5 33.0867 8.10438   9
  -9   7   5 16.3656 7.71758   7
   7   2   5 22.3098 8.61408   8
  -1   8  -5 42.6034 7.17136   2
   8  -7  -5 48.4470 5.77781   2
  -7  -1  -5 51.3968 6.85848   2
  -7  -1  -5 43.6375 8.18408   9
   1  -8   5 25.9706 9.10968   7
  -8   7   5 34.3004 8.10663   7
   7   1   5 29.4535 9.19976   8
  -7   0  -5 62.1739 8.64724   9
  -7   0  -5 67.6889 7.55588   2
   7  -7  -5 67.2151 6.20381   2
   0   7  -5 60.0628 7.43655   2
   7   0   5 61.3778 10.2309   8
  -7   7   5 72.8633 9.26484   7
   0  -7   5 54.9974 9.90724   7
  -7   7   5 66.2887 10.3429   8
   6  -7  -5 38.3679 4.58066   2
  -7   1  -5 35.2940 7.43467   9
   1   6  -5 39.1947 6.12976   2
  -7   1  -5 25.3195 5.56606   2
  -6   7   5 34.5981 8.36787   8
   7  -1   5 40.8063 9.06778   8
  -1  -6   5 31.3411 8.93453   7
  -1  -6   5 15.7063 6.01220   8
  -6   7   5 24.3085 6.54041   7
  -7   2  -5 214.717 15.1093   9
   5  -7  -5 212.382 11.9171   2
   2   5  -5 209.663 13.1214   2
   5  -7  -5 204.769 11.8456   9
  -7   2  -5 238.431 13.6294   2
  -5   7   5 223.949 15.7483   8
  -5   7   5 216.986 14.7141   7
  -5   7   5 211.731 14.8408   5
   7  -2   5 220.595 17.1231   8
  -2  -5   5 204.715 14.5734   8
  -2  -5   5 206.925 16.8599   7
  -7   3  -5 -5.8346 5.85504   9
  -7   3  -5 3.01666 4.72881   2
   4  -7  -5 3.94596 3.18967   9
   4  -7  -5 6.08494 3.29817   2
   3   4  -5 3.25413 4.15497   2
  -4   7   5 11.9647 5.61289   7
   7  -3   5 3.16506 6.95093   8
  -4   7   5 10.7658 6.49502   8
  -3  -4   5 13.0977 6.16716   8
  -4   7   5 11.2865 6.41541   5
  -3  -4   5 4.49570 6.55400   7
   3  -7  -5 75.1920 6.75737   2
  -7   4  -5 80.0190 8.02373   2
  -7   4  -5 105.825 10.5185   9
   4   3  -5 88.7773 7.61500   2
   3  -7  -5 74.7178 6.70620   9
  -3   7   5 101.620 9.65392   7
   7  -4   5 97.9108 11.0983   8
  -4  -3   5 95.7793 9.85815   8
  -3   7   5 87.7540 9.60501   8
  -4  -3   5 95.5857 10.9423   7
   2  -7  -5 15.8236 4.06126   9
   2  -7  -5 16.9503 3.60260   2
  -7   5  -5 15.3582 5.36897   2
  -7   5  -5 26.6300 7.52749   9
   5   2  -5 18.3483 4.59035   2
   7  -5   5 15.1955 7.75884   8
  -5  -2   5 15.0757 6.57832   8
  -5  -2   5 14.6603 7.09554   3
  -2   7   5 12.5835 5.64099   7
  -2   7   5 13.5613 5.63319   7
  -2   7   5 5.77638 6.61652   8
  -5  -2   5 18.0534 6.97813   7
  -7   6  -5 549.468 27.8712   2
   6   1  -5 564.130 26.9874   2
  -7   6  -5 538.301 29.2388   9
   1  -7  -5 548.904 26.1676   2
   7  -6   5 539.012 30.0669   5
  -1   7   5 498.158 28.4082   8
  -6  -1   5 534.015 29.4835   8
   7  -6   5 548.300 30.0516   8
  -1   7   5 533.502 28.1385   7
  -6  -1   5 543.583 29.8755   7
  -6  -1   5 504.258 31.0991   3
  -1   7   5 505.586 27.9789   7
   7   0  -5 128.976 9.70290   2
  -7   7  -5 101.534 11.4494   9
   0  -7  -5 116.671 9.02225   2
  -7   7  -5 106.106 10.2742   2
  -7   0   5 135.761 13.4679   7
  -7   0   5 101.652 15.2922   3
   7  -7   5 137.273 12.7674   5
   7  -7   5 123.092 12.4325   8
   0   7   5 133.309 11.4267   8
  -7   8  -5 50.1690 10.2777   9
   8  -1  -5 44.6751 6.40771   2
  -7   8  -5 50.1583 7.98109   2
  -1  -7  -5 58.2382 6.60541   2
   1   7   5 64.5846 8.67021   8
   7  -8   5 54.6817 9.37686   8
  -8   1   5 56.0578 9.95101   7
   7  -8   5 50.7231 9.21441   5
  -2  -7  -5 2.79037 4.84418   2
   9  -2  -5 3.77712 4.87332   2
  -7   9  -5 -6.7765 7.69094   9
  -7   9  -5 7.35305 6.73102   2
   2   7   5 -3.8513 6.65249   8
   7  -9   5 -1.0249 7.28424   5
   7  -9   5 6.25894 7.43119   8
  -9   2   5 -0.6417 7.14986   7
  -7  10  -5 79.8321 10.6220   2
  10  -3  -5 92.0746 8.89234   2
  -3  -7  -5 87.3829 8.92942   2
 -10   3   5 92.2409 12.5212   7
   7 -10   5 97.5580 11.3773   8
  -7  11  -5 53.3262 9.50611   2
  11  -4  -5 51.3000 7.91171   2
  -4  -7  -5 59.3590 8.41453   2
 -11   4   5 60.5462 12.0338   7
  -5  -7  -5 12.2546 7.28000   2
  -7  12  -5 11.1453 8.73375   2
  12  -5  -5 23.9874 7.13432   2
   7 -12   5 16.5255 5.25532   1
 -12   5   5 7.92455 9.30932   7
  13  -6  -5 10.6926 7.36632   2
  -7  13  -5 -1.0399 8.38640   1
  -6  -7  -5 4.46834 7.52841   2
  -7  13  -5 0.92946 9.05410   2
   7 -13   5 -2.0873 5.08035   1
  -7  14  -5 2.32391 9.53269   1
  14  -7  -5 8.24415 8.10634   2
  -7  14  -5 -7.4441 9.50996   2
  -7  -7  -5 20.2694 8.73768   2
   7 -14   5 26.5991 6.40018   1
  -7  15  -5 3.30119 10.4766   1
  15  -8  -5 7.25291 8.77983   2
  -7  15  -5 8.49136 11.1937   2
  -8  -7  -5 4.86896 9.23087   2
   7 -15   5 -8.6645 5.92595   1
  -6  14  -5 4.77554 10.4387   2
  -6  14  -5 11.7368 9.66099   1
  -8  -6  -5 -8.7707 8.18496   2
  14  -8  -5 -0.0162 8.04042   2
   6 -14   5 1.25684 5.64619   1
  13  -8  -5 14.9790 7.70110   2
  -5  13  -5 1.84935 8.87738   2
  -8  -5  -5 4.48104 7.79757   2
  -5  13  -5 3.68346 8.10093   1
 -13   8   5 -3.0875 9.81268   7
   5 -13   5 7.17112 5.38852   1
  -4  12  -5 29.0307 9.07905   2
  -8  -4  -5 42.4589 8.93034   2
  12  -8  -5 32.2699 7.89790   2
   8   4   5 21.6099 9.81254   8
 -12   8   5 37.1226 11.1931   7
  11  -8  -5 31.8414 7.26495   2
  -8  -3  -5 28.8884 7.64324   2
  -3  11  -5 29.5426 7.98636   2
 -11   8   5 24.9174 10.2696   7
   8   3   5 16.5472 9.47226   8
  10  -8  -5 54.0862 7.49072   2
  -2  10  -5 65.2885 8.76447   2
  -8  -2  -5 46.6544 7.97396   2
 -10   8   5 55.4810 10.4836   7
   8   2   5 79.4250 11.8683   8
  -8  -1  -5 7.34590 7.54065   9
  -1   9  -5 3.57794 6.18758   2
  -8  -1  -5 0.69597 5.51723   2
   9  -8  -5 -5.0930 4.60973   2
  -9   8   5 4.15586 7.44303   7
   8   1   5 4.19459 8.86615   8
   8  -8  -5 50.0667 6.16225   2
  -8   0  -5 49.0220 7.28721   2
   0   8  -5 37.2427 7.17827   2
  -8   0  -5 39.6886 9.08986   9
  -8   8   5 55.4892 9.67015   7
   8   0   5 71.1981 11.1938   8
   7  -8  -5 75.3650 6.63399   2
  -8   1  -5 66.1706 7.76234   2
  -8   1  -5 46.2765 8.96877   9
  -1  -7   5 50.4703 9.47539   7
   8  -1   5 54.7552 10.8427   8
  -7   8   5 63.0901 10.0918   8
  -7   8   5 59.8222 9.08450   7
   2   6  -5 22.8436 5.51703   2
   6  -8  -5 19.3523 4.56042   2
  -8   2  -5 25.5071 7.79902   9
  -8   2  -5 21.2597 5.79927   2
  -6   8   5 15.2370 7.85315   8
  -6   8   5 33.5889 7.57121   7
  -2  -6   5 28.1430 8.18913   7
   8  -2   5 23.1863 8.97712   8
  -8   3  -5 129.578 10.6091   2
   5  -8  -5 132.738 9.46737   2
  -8   3  -5 152.983 12.9858   9
   3   5  -5 148.100 11.0622   2
   8  -3   5 129.355 13.7676   8
  -5   8   5 130.076 12.5555   8
  -3  -5   5 147.529 11.6697   8
  -3  -5   5 124.017 13.7131   7
  -5   8   5 123.978 13.0191   7
   4   4  -5 357.248 19.2834   2
  -8   4  -5 359.346 21.6982   9
  -8   4  -5 351.413 19.9389   2
   4  -8  -5 372.603 18.2143   2
  -4   8   5 346.880 21.1379   8
  -4  -4   5 347.410 20.8217   8
   8  -4   5 312.230 22.2564   8
  -4   8   5 354.265 20.7386   7
  -4  -4   5 323.522 22.6939   7
  -8   5  -5 83.9787 10.2530   9
  -8   5  -5 74.4749 8.53327   2
   5   3  -5 88.4841 8.16330   2
   3  -8  -5 70.2158 6.74803   2
  -3   8   5 101.454 9.88361   7
   8  -5   5 98.2453 12.0943   8
  -3   8   5 100.888 9.89507   7
  -5  -3   5 111.439 10.9082   8
  -5  -3   5 115.826 12.6100   7
  -3   8   5 111.769 10.5746   8
   6   2  -5 19.0514 5.06510   2
   2  -8  -5 17.0409 4.26621   2
  -8   6  -5 19.5469 6.14270   2
  -8   6  -5 12.0403 7.61821   9
  -6  -2   5 7.13780 7.12686   8
  -2   8   5 13.7314 7.09898   8
   8  -6   5 11.6375 8.30022   8
  -6  -2   5 13.5874 7.33485   7
  -6  -2   5 13.1915 7.87925   3
  -2   8   5 11.5556 6.28533   7
  -2   8   5 8.37428 9.48069   7
   7   1  -5 75.9645 7.72080   2
  -8   7  -5 66.0284 8.42979   2
  -8   7  -5 56.7464 9.54063   9
   1  -8  -5 83.9255 7.02163   2
  -7  -1   5 71.4827 11.1564   7
   8  -7   5 62.2549 10.4178   8
  -1   8   5 70.3315 9.03342   8
  -1   8   5 74.0972 9.14657   7
  -7  -1   5 67.6548 12.0563   3
   8  -7   5 93.7117 11.2271   5
  -8   8  -5 99.8085 12.7737   9
   0  -8  -5 78.3454 7.80016   2
   8   0  -5 77.4248 7.94947   2
  -8   8  -5 77.1789 9.37069   2
  -8   0   5 86.1218 11.8957   7
   8  -8   5 86.1362 11.7325   8
   0   8   5 100.809 10.1741   8
   8  -8   5 89.0104 10.8844   5
  -8   9  -5 24.6075 9.47105   9
   9  -1  -5 37.3057 6.63702   2
  -8   9  -5 35.9436 8.04118   2
  -1  -8  -5 43.9088 6.65538   2
   8  -9   5 35.1758 9.63906   5
   8  -9   5 54.4976 10.3857   8
  -9   1   5 40.3200 9.17814   7
  10  -2  -5 77.1569 8.26747   2
  -8  10  -5 47.0925 9.48604   2
  -2  -8  -5 84.6335 8.69103   2
 -10   2   5 72.3185 11.4608   7
   8 -10   5 63.0442 10.7504   8
  11  -3  -5 -0.8053 5.75018   2
  -3  -8  -5 7.99481 6.56939   2
  -8  11  -5 3.98675 8.18397   2
 -11   3   5 8.95640 9.22173   7
  12  -4  -5 47.8661 8.36261   2
  -8  12  -5 73.7578 14.2157   1
  -8  12  -5 42.0733 10.0177   2
  -4  -8  -5 55.2511 8.89727   2
   8 -12   5 47.5328 6.37107   1
 -12   4   5 60.1449 12.4328   7
  -8  13  -5 15.4451 10.1604   2
  -5  -8  -5 30.8783 8.59871   2
  13  -5  -5 24.6243 7.95666   2
  -8  13  -5 31.3821 9.28158   1
   8 -13   5 23.9762 6.06969   1
  -8  14  -5 -8.3163 10.2016   2
  -8  14  -5 7.06925 9.69830   1
  14  -6  -5 1.10195 7.74122   2
  -6  -8  -5 16.3521 8.80654   2
   8 -14   5 5.39665 5.82266   1
  -7  -8  -5 -16.531 8.49694   2
  -8  15  -5 14.2870 11.6271   2
  15  -7  -5 16.0951 8.80303   2
  -8  15  -5 13.3261 10.6537   1
   8 -15   5 14.5461 6.53919   1
  -8  -8  -5 9.97902 9.99899   2
  -8  16  -5 0.52439 12.2435   2
  16  -8  -5 -10.731 8.86536   2
  -8  16  -5 -4.2042 11.6109   1
   8 -16   5 -4.0546 6.53201   1
  -8  17  -5 -6.5141 13.1107   2
  17  -9  -5 22.8924 10.3126   2
  -8  17  -5 6.66409 12.4395   1
  -9  -8  -5 -13.591 10.0286   2
   8 -17   5 21.3309 7.39102   1
  -7  16  -5 18.8682 11.8314   1
  -9  -7  -5 16.6709 9.90403   2
  -7  16  -5 9.13958 12.4233   2
  16  -9  -5 1.25513 9.31940   2
   7 -16   5 0.16094 6.58902   1
  -9  -6  -5 15.3241 9.36302   2
  -6  15  -5 9.85616 11.0181   1
  15  -9  -5 11.6309 9.23118   2
  -6  15  -5 24.0062 11.9477   2
   6 -15   5 4.90288 6.41378   1
  -5  14  -5 21.3812 10.9599   2
  -9  -5  -5 13.6531 8.80654   2
  14  -9  -5 10.0450 8.19547   2
  -5  14  -5 22.5581 9.99978   1
   5 -14   5 16.6094 6.22436   1
  -4  13  -5 2.07007 9.09710   2
  13  -9  -5 3.66126 7.50757   2
  -9  -4  -5 10.3615 8.37087   2
  -4  13  -5 7.01278 7.95911   1
 -13   9   5 19.7990 10.9217   7
  -3  12  -5 5.26705 10.9442   1
  12  -9  -5 21.2317 7.46920   2
  -9  -3  -5 3.63554 7.38044   2
  -3  12  -5 -1.0331 8.05039   2
 -12   9   5 11.9161 10.0384   7
   9   3   5 4.41860 9.60727   8
  11  -9  -5 22.8647 7.07029   2
  -2  11  -5 22.4046 7.85647   2
  -9  -2  -5 18.7642 7.49046   2
   9   2   5 30.1119 11.0398   8
 -11   9   5 8.26852 9.46732   7
  10  -9  -5 39.8616 7.17099   2
  -9  -1  -5 50.3982 7.99233   2
  -1  10  -5 49.6998 8.73544   2
   9   1   5 56.0712 11.7330   8
 -10   9   5 39.8718 10.3481   7
  -9   0  -5 25.4882 9.16070   9
   9  -9  -5 7.17290 5.46228   2
  -9   0  -5 10.4234 6.53559   2
   0   9  -5 6.59804 6.71393   2
  -9   9   5 22.0634 8.60634   7
   9   0   5 6.71795 8.86123   8
   8  -9  -5 9.13349 5.04399   2
  -9   1  -5 3.01141 6.17917   2
  -9   1  -5 2.39618 7.74402   9
   9  -1   5 2.37481 9.11646   8
  -8   9   5 7.64074 7.77355   7
   2   7  -5 28.4163 6.24008   2
   7  -9  -5 19.4053 5.28719   2
  -9   2  -5 21.7302 6.27216   2
  -9   2  -5 19.4547 7.97292   9
   9  -2   5 4.33964 8.80955   8
  -7   9   5 34.9001 8.72285   7
  -7   9   5 15.3919 8.90988   8
  -9   3  -5 10.9515 5.98895   2
   3   6  -5 17.2622 5.58109   2
  -9   3  -5 13.9476 8.06197   9
   6  -9  -5 19.8670 4.84223   2
  -6   9   5 22.0311 8.58228   8
  -3  -6   5 31.0836 8.93168   7
   9  -3   5 19.5102 9.93134   8
  -6   9   5 32.4221 8.32307   7
   4   5  -5 53.5299 6.99426   2
  -9   4  -5 35.2787 9.25723   9
  -9   4  -5 39.1624 7.14537   2
   5  -9  -5 36.3078 5.47425   2
   9  -4   5 41.1380 10.5342   8
  -5   9   5 33.5447 7.98884   7
  -4  -5   5 37.4898 9.17043   7
  -5   9   5 42.0955 8.71927   8
   5   4  -5 41.1807 6.43309   2
   4  -9  -5 36.7031 5.43106   2
  -9   5  -5 43.6684 7.37618   2
  -9   5  -5 39.1593 8.86450   9
  -4   9   5 55.4884 8.94652   8
  -5  -4   5 24.7200 9.03966   7
  -4   9   5 49.0367 8.56746   7
  -5  -4   5 51.0128 8.46963   8
   9  -5   5 22.6327 9.95603   8
   6   3  -5 186.717 12.8138   2
  -9   6  -5 188.404 16.1372   9
  -9   6  -5 170.358 13.4893   2
   3  -9  -5 189.869 11.6450   2
   9  -6   5 167.428 15.9682   8
  -6  -3   5 181.896 16.6313   7
  -3   9   5 163.738 13.8185   8
  -3   9   5 151.404 14.8982   7
   7   2  -5 10.7498 5.36120   2
  -9   7  -5 19.3219 6.86547   2
   2  -9  -5 9.42139 4.75956   2
  -9   7  -5 1.04156 8.40301   9
  -2   9   5 18.3598 7.30913   8
   9  -7   5 4.03686 8.67567   8
  -2   9   5 13.7720 6.96591   7
  -7  -2   5 3.41520 7.54522   7
  -9   8  -5 31.2654 7.80746   2
   1  -9  -5 28.5057 5.79926   2
   8   1  -5 24.7880 6.13742   2
  -9   8  -5 32.8886 9.02039   9
   9  -8   5 16.7298 8.19205   5
  -1   9   5 19.6267 7.69986   7
   9  -8   5 21.7046 9.17634   8
  -8  -1   5 28.4852 8.83575   7
  -9   9  -5 -0.5276 6.82745   2
   0  -9  -5 -0.3455 5.09690   2
   9   0  -5 7.95766 5.45586   2
   9  -9   5 2.38585 8.50065   8
  -9   0   5 -0.4580 8.19448   7
  -9  10  -5 58.7039 9.61752   2
  10  -1  -5 71.7961 8.74978   2
  -1  -9  -5 80.6891 8.71257   2
   9 -10   5 60.3443 11.2461   8
 -10   1   5 80.5924 12.4486   7
  11  -2  -5 32.1400 7.55715   2
  -2  -9  -5 51.6261 8.19012   2
  -9  11  -5 56.4732 10.0166   2
   9 -11   5 26.5314 10.6403   8
 -11   2   5 56.7144 13.0696   7
  -3  -9  -5 -4.1430 7.07143   2
  -9  12  -5 14.5863 9.26661   2
  -9  12  -5 9.79736 9.14828   1
  12  -3  -5 4.71433 6.72028   2
   9 -12   5 5.77530 5.15828   1
  13  -4  -5 3.74921 7.15886   2
  -9  13  -5 1.14055 10.0484   2
  -4  -9  -5 -2.4430 7.54276   2
  -9  13  -5 6.76006 9.22980   1
   9 -13   5 2.74044 5.64469   1
  14  -5  -5 15.7672 8.21623   2
  -5  -9  -5 26.8764 8.99592   2
  -9  14  -5 9.80993 10.3096   1
  -9  14  -5 23.6882 11.5100   2
   9 -14   5 10.5062 6.50040   1
  -9  15  -5 -8.4442 11.5808   2
  -6  -9  -5 -5.9279 8.69545   2
  15  -6  -5 10.6505 8.80419   2
  -9  15  -5 7.71860 11.1372   1
   9 -15   5 -3.0252 6.24850   1
  -9  16  -5 -6.7210 11.5337   1
  -9  16  -5 -17.032 12.1470   2
  16  -7  -5 -5.8343 9.04724   2
  -7  -9  -5 -7.7959 9.25723   2
   9 -16   5 5.95747 6.65397   1
  -9  17  -5 17.5342 12.9214   1
  -9  17  -5 13.7790 13.6413   2
  -8  -9  -5 10.6250 10.4228   2
  17  -8  -5 15.1635 10.1585   2
   9 -17   5 -8.4050 6.81068   1
  -7  17  -5 -1.5968 13.2728   2
  17 -10  -5 -2.0037 9.90297   2
  -7  17  -5 14.4399 12.3254   1
 -10  -7  -5 -0.3967 10.4872   2
   7 -17   5 5.52893 7.06644   1
  -6  16  -5 18.8268 12.4219   2
 -10  -6  -5 4.48091 9.80535   2
  -6  16  -5 -17.452 11.1557   1
  16 -10  -5 0.19030 9.56577   2
   6 -16   5 -5.7007 6.58471   1
  15 -10  -5 18.7491 9.60450   2
  -5  15  -5 40.7038 11.5730   1
  -5  15  -5 22.7178 12.0675   2
 -10  -5  -5 14.9513 9.19368   2
   5 -15   5 9.88634 6.67273   1
 -10  -4  -5 11.3267 8.71276   2
  -4  14  -5 17.6902 9.65817   1
  -4  14  -5 19.4440 10.8053   2
  14 -10  -5 20.4943 8.94429   2
   4 -14   5 34.7692 6.79500   1
  -3  13  -5 4.33061 8.43301   1
  -3  13  -5 17.6221 9.33541   2
 -10  -3  -5 15.8613 8.63722   2
  13 -10  -5 15.9463 8.25136   2
 -13  10   5 15.4230 11.3292   7
   3 -13   5 29.5229 6.12792   1
  10   3   5 30.1805 11.6550   8
  -2  12  -5 -3.3831 9.77643   1
  -2  12  -5 -7.5599 7.80278   2
 -10  -2  -5 5.71806 7.51173   2
  12 -10  -5 -1.9971 6.95633   2
 -12  10   5 7.35279 10.1255   7
  10   2   5 -1.2974 10.6510   8
  -1  11  -5 78.2271 10.9217   2
  11 -10  -5 88.3885 9.65933   2
 -10  -1  -5 80.1510 10.4424   2
  10   1   5 83.4354 13.6186   8
 -11  10   5 80.8339 13.2634   7
 -10   0  -5 41.1358 10.7646   9
 -10   0  -5 28.3968 7.53970   2
  10 -10  -5 19.8917 6.77889   2
   0  10  -5 26.0609 8.50130   2
 -10  10   5 24.0173 9.56484   7
  10   0   5 52.8140 12.3423   8
   9 -10  -5 35.9751 6.89224   2
   1   9  -5 33.3914 7.71748   2
 -10   1  -5 30.0343 7.68365   2
 -10   1  -5 37.2105 10.2698   9
  10  -1   5 36.4830 11.6611   8
  -9  10   5 35.6726 10.0733   7
   2   8  -5 81.8508 9.40921   2
 -10   2  -5 79.4832 11.7725   9
 -10   2  -5 83.9135 9.83942   2
   8 -10  -5 88.3445 8.47723   2
  -8  10   5 90.5998 11.9560   7
  10  -2   5 115.359 14.3411   8
   7 -10  -5 72.3272 7.38370   2
   3   7  -5 56.1175 7.97029   2
 -10   3  -5 58.7088 8.53495   2
 -10   3  -5 67.2083 11.2614   9
  -7  10   5 59.8027 10.4436   7
  10  -3   5 67.6556 12.8868   8
 -10   4  -5 0.76743 8.28049   9
   4   6  -5 1.59486 5.52634   2
 -10   4  -5 -4.8538 5.94421   2
   6 -10  -5 -5.9323 4.54597   2
  -6  10   5 10.8729 8.28097   8
  -6  10   5 2.44798 7.53179   7
 -10   5  -5 9.17428 6.62209   2
   5   5  -5 5.62545 5.69506   2
   5 -10  -5 -1.0391 4.91563   2
 -10   5  -5 -3.1622 8.26185   9
  -5  10   5 9.95708 7.83739   8
  -5  10   5 7.25403 7.63625   7
 -10   6  -5 27.9815 7.24089   2
 -10   6  -5 16.5486 9.31851   9
   4 -10  -5 7.76093 5.13990   2
   6   4  -5 2.30226 5.61199   2
  -4  10   5 10.8968 7.93298   7
  -4  10   5 12.7679 8.35836   8
  -6  -4   5 19.8984 8.66606   7
 -10   7  -5 48.8647 10.4810   9
   7   3  -5 43.7691 7.34842   2
 -10   7  -5 62.8384 8.99326   2
   3 -10  -5 47.7669 6.54089   2
  -3  10   5 50.2561 9.80672   7
  -7  -3   5 64.0721 11.9579   7
   2 -10  -5 26.1520 6.04628   2
 -10   8  -5 50.8128 17.3695   9
 -10   8  -5 22.1455 7.73779   2
   8   2  -5 27.4382 6.65423   2
  -8  -2   5 32.9008 10.4488   7
  10  -8   5 16.7429 10.1469   8
  -2  10   5 13.1000 8.14496   7
 -10   9  -5 21.8335 8.09094   2
   9   1  -5 26.5181 6.70140   2
   1 -10  -5 27.9263 6.51785   2
  -9  -1   5 25.0696 14.7152   7
  10  -9   5 18.8227 10.1795   8
  10   0  -5 41.9951 7.59491   2
 -10  10  -5 25.1858 8.74579   2
   0 -10  -5 47.7473 7.58018   2
  10 -10   5 35.9254 10.6111   8
  11  -1  -5 13.6812 6.94123   2
 -10  11  -5 16.2375 8.59963   2
  -1 -10  -5 -8.2329 6.32818   2
  10 -11   5 16.0556 9.59700   8
 -10  12  -5 2.69758 8.49381   2
  -2 -10  -5 2.59893 7.09626   2
 -10  12  -5 -4.4060 8.70441   1
  12  -2  -5 3.34891 6.68669   2
 -10  13  -5 18.3633 10.0670   1
  13  -3  -5 21.8503 7.92558   2
  -3 -10  -5 28.2698 8.56578   2
 -10  13  -5 24.9085 10.5799   2
  10 -13   5 18.9104 6.13292   1
  14  -4  -5 20.3466 8.30558   2
  -4 -10  -5 5.92858 8.95222   2
 -10  14  -5 6.11070 10.2126   1
 -10  14  -5 7.13735 10.7069   2
  10 -14   5 6.00185 6.31600   1
  -5 -10  -5 -13.583 8.65336   2
 -10  15  -5 -1.5806 11.7355   2
 -10  15  -5 -11.114 10.6763   1
  15  -5  -5 6.39709 8.52713   2
  10 -15   5 -9.3796 6.34976   1
  16  -6  -5 -0.1560 9.10502   2
  -6 -10  -5 1.79621 9.63119   2
 -10  16  -5 -0.5168 12.5441   2
 -10  16  -5 -2.9979 12.0825   1
  10 -16   5 1.57510 6.96660   1
 -10  17  -5 0.98244 13.8446   2
  17  -7  -5 13.1582 10.2329   2
  -7 -10  -5 6.77389 10.6360   2
 -10  17  -5 26.1303 12.8537   1
  10 -17   5 8.28855 7.17166   1
  -5  16  -5 2.61009 11.7066   1
  -5  16  -5 36.0515 13.4681   2
  16 -11  -5 -2.6500 9.49271   2
 -11  -5  -5 6.90742 9.97898   2
   5 -16   5 8.34106 7.10255   1
 -11  -4  -5 11.5819 8.91234   2
  15 -11  -5 -0.4548 8.98251   2
  -4  15  -5 4.83893 10.7333   1
  -4  15  -5 9.14872 11.2481   2
   4 -15   5 10.4156 6.66004   1
 -11  -3  -5 -14.650 8.55384   2
  14 -11  -5 18.4073 8.93501   2
  -3  14  -5 0.87891 9.71701   2
  -3  14  -5 -2.3882 9.30845   1
   3 -14   5 8.46995 6.21055   1
  13 -11  -5 -2.3607 7.66549   2
  -2  13  -5 -8.8417 8.83805   2
 -11  -2  -5 7.95583 8.68197   2
  -2  13  -5 -0.7750 8.09119   1
  11   2   5 -2.8609 11.2669   8
 -13  11   5 5.37787 10.2800   7
   2 -13   5 7.43048 5.74393   1
  -1  12  -5 2.92012 8.24447   1
  -1  12  -5 -9.6973 7.90715   2
 -11  -1  -5 -3.6592 7.64453   2
  12 -11  -5 5.53154 7.10793   2
 -12  11   5 -2.8814 9.26642   7
  11   1   5 -0.5547 10.8785   8
   0  11  -5 16.5011 8.83420   2
  11 -11  -5 -2.3820 6.61171   2
 -11   0  -5 7.25665 7.51789   2
  11   0   5 10.1439 10.9633   8
 -11  11   5 10.0375 9.91850   7
  10 -11  -5 16.9131 6.75306   2
 -11   1  -5 3.31066 7.17402   2
   1  10  -5 2.60294 7.67624   2
 -11   1  -5 6.54811 9.36401   9
  11  -1   5 -0.8718 10.3303   8
 -10  11   5 10.6817 9.50241   7
   9 -11  -5 16.4912 6.39464   2
 -11   2  -5 34.5823 8.10514   2
 -11   2  -5 29.6945 10.4132   9
   2   9  -5 31.2948 7.97373   2
  -9  11   5 8.62611 9.33631   7
  11  -2   5 20.6775 11.3038   8
 -11   3  -5 30.2981 8.11963   2
   8 -11  -5 28.6100 6.76012   2
   3   8  -5 42.9149 7.96382   2
 -11   3  -5 39.8982 10.6947   9
  -8  11   5 53.5102 10.9288   7
 -11   4  -5 50.1753 8.43198   2
 -11   4  -5 23.6144 9.73662   9
   4   7  -5 37.8957 7.49858   2
   7 -11  -5 31.4220 6.67735   2
  -7  11   5 55.0088 10.4874   7
 -11   5  -5 -21.451 8.26651   9
 -11   5  -5 -2.3577 6.57566   2
   6 -11  -5 1.29122 5.51402   2
   5   6  -5 -4.3200 5.76085   2
  -6  11   5 23.7829 9.20281   7
   6   5  -5 88.9606 9.22024   2
   5 -11  -5 60.6053 7.85773   2
 -11   6  -5 59.3628 11.8100   9
 -11   6  -5 55.1923 9.22270   2
  -5  11   5 55.1156 10.6633   7
 -11   7  -5 31.6903 8.19408   2
   4 -11  -5 26.5351 6.56722   2
   7   4  -5 29.3720 6.94210   2
  -4  11   5 40.4193 9.75018   7
   8   3  -5 39.9913 7.31884   2
 -11   8  -5 43.8420 8.98057   2
   3 -11  -5 37.7468 7.02961   2
  -3  11   5 18.1340 9.01418   7
   2 -11  -5 20.9464 6.55260   2
   9   2  -5 15.0740 6.84202   2
 -11   9  -5 26.1528 8.21911   2
  -2  11   5 20.2138 9.20461   7
   1 -11  -5 54.7354 8.51495   2
  10   1  -5 59.9748 8.77389   2
 -11  10  -5 65.2636 10.5726   2
  11 -10   5 53.0545 12.4847   8
 -11  11  -5 22.0543 9.33349   2
   0 -11  -5 1.95655 6.56110   2
  11   0  -5 12.1369 7.01958   2
  11 -11   5 2.19090 10.7450   8
 -11  12  -5 -3.8095 8.84798   2
  12  -1  -5 0.12083 7.25050   2
  -1 -11  -5 1.60086 7.30803   2
 -11  12  -5 11.8313 9.51848   1
  11 -12   5 21.5061 17.4441   8
  13  -2  -5 3.71218 7.43752   2
 -11  13  -5 3.00880 9.73569   2
  -2 -11  -5 5.89465 8.05438   2
 -11  13  -5 16.7548 10.2853   1
  -3 -11  -5 50.4811 10.1622   2
  14  -3  -5 44.7665 9.75532   2
 -11  14  -5 26.1470 11.8226   1
 -11  14  -5 66.3482 12.8981   2
  11 -14   5 32.0997 7.01453   1
 -11  15  -5 13.2663 11.8474   1
  15  -4  -5 18.2777 8.67607   2
 -11  15  -5 3.81665 11.5991   2
  -4 -11  -5 10.4258 9.31157   2
  11 -15   5 5.98776 6.75953   1
  -5 -11  -5 20.4028 10.3083   2
 -11  16  -5 11.3685 12.4591   1
  16  -5  -5 21.2246 9.68218   2
 -11  16  -5 -2.9736 12.4806   2
  11 -16   5 12.8115 7.35305   1
  -4  16  -5 11.0962 12.1790   2
  -4  16  -5 6.37392 11.8842   1
  16 -12  -5 -1.9832 9.58552   2
 -12  -4  -5 -2.3904 10.0396   2
   4 -16   5 -1.0780 6.72562   1
  -3  15  -5 10.3129 11.2256   1
  -3  15  -5 13.2501 11.7958   2
  15 -12  -5 19.3645 9.64331   2
 -12  -3  -5 25.6998 10.1539   2
   3 -15   5 10.6472 6.71685   1
 -12  -2  -5 12.4485 9.51445   2
  14 -12  -5 10.1236 8.86522   2
  -2  14  -5 13.0078 10.8345   2
  -2  14  -5 -3.4598 9.44647   1
  12   2   5 13.7539 12.7386   8
  13 -12  -5 14.1485 8.36068   2
  -1  13  -5 12.6423 8.99075   1
  -1  13  -5 -8.7450 9.14718   2
 -12  -1  -5 14.7814 8.65848   2
 -13  12   5 -6.2923 11.4306   7
  12   1   5 2.62091 11.7802   8
   0  12  -5 12.2333 8.26557   1
  12 -12  -5 7.99590 7.97452   2
 -12   0  -5 3.77419 8.22834   2
   0  12  -5 3.22919 9.21786   2
  12   0   5 2.15544 11.7801   8
 -12  12   5 0.46272 10.0567   7
   1  11  -5 -3.2234 8.06600   2
  11 -12  -5 4.88359 6.90533   2
 -12   1  -5 -7.5281 7.48916   2
  12  -1   5 13.4815 11.9075   8
 -11  12   5 8.75921 10.0945   7
 -12   2  -5 10.5752 8.05322   2
  10 -12  -5 3.89730 6.74458   2
   2  10  -5 -2.8803 7.66687   2
 -10  12   5 8.76321 10.4067   7
   9 -12  -5 26.2844 7.05619   2
   3   9  -5 1.43086 6.88727   2
 -12   3  -5 11.3093 8.05300   2
  -9  12   5 13.0507 9.75611   7
   8 -12  -5 16.9464 6.52960   2
 -12   4  -5 30.8235 8.45459   2
   4   8  -5 20.3524 7.39754   2
  -8  12   5 35.4518 10.3633   7
   7 -12  -5 -4.3857 5.85469   2
   5   7  -5 6.58271 6.94544   2
 -12   5  -5 -4.7524 6.94029   2
  -7  12   5 0.96866 8.88912   7
 -12   6  -5 1.54141 7.63166   2
   6 -12  -5 0.72013 6.04400   2
   6   6  -5 2.01647 6.85978   2
  -6  12   5 1.66084 9.09126   7
   7   5  -5 25.6126 7.58530   2
 -12   7  -5 46.1950 9.58435   2
   5 -12  -5 40.4774 7.70621   2
  -5  12   5 40.8436 10.7267   7
   4 -12  -5 16.6604 6.96149   2
   8   4  -5 12.3888 7.13505   2
 -12   8  -5 7.65245 8.01919   2
  -4  12   5 4.19996 9.30742   7
 -12   9  -5 -5.5936 7.70500   2
   9   3  -5 0.87944 6.23733   2
   3 -12  -5 3.36676 6.57399   2
  -3  12   5 6.35118 9.42616   7
  10   2  -5 11.9246 6.97183   2
   2 -12  -5 11.1258 6.95840   2
 -12  10  -5 5.35549 8.43704   2
   1 -12  -5 7.89273 7.61595   2
 -12  11  -5 6.74745 9.38552   2
  11   1  -5 13.9760 7.79157   2
  12 -11   5 1.25201 10.5384   8
 -12  12  -5 19.2416 10.2378   1
 -12  12  -5 -3.8995 10.0139   2
   0 -12  -5 2.20171 7.56593   2
  12   0  -5 -0.1099 7.29960   2
  12 -12   5 -2.0368 11.0199   8
  13  -1  -5 20.6045 8.43660   2
  -1 -12  -5 32.6597 8.56981   2
 -12  13  -5 8.21591 10.0805   2
 -12  13  -5 6.14521 10.4686   1
  12 -13   5 14.9496 6.05552   1
  14  -2  -5 0.61025 8.05164   2
  -2 -12  -5 3.02860 8.59594   2
 -12  14  -5 -2.4822 10.7190   2
 -12  14  -5 17.7923 11.4623   1
  12 -14   5 12.8015 6.43361   1
 -12  15  -5 20.7429 12.4207   1
 -12  15  -5 14.6936 11.6086   2
  -3 -12  -5 -8.2272 8.97103   2
  15  -3  -5 0.26862 8.55438   2
  12 -15   5 -5.5767 6.52747   1
 -12  16  -5 -7.0945 11.9534   1
  -4 -12  -5 4.01044 9.91151   2
  16  -4  -5 -7.9924 8.86689   2
 -12  16  -5 4.51751 12.6705   2
  12 -16   5 -4.8570 6.82377   1
  16 -13  -5 -4.5054 9.84750   2
  -3  16  -5 -15.343 12.0528   2
  -3  16  -5 -6.9045 11.6091   1
 -13  -3  -5 4.32037 10.1548   2
   3 -16   5 0.67087 7.05761   1
 -13  -2  -5 12.0456 10.2103   2
  15 -13  -5 -4.3691 9.01293   2
  -2  15  -5 -6.4509 11.1823   2
  -2  15  -5 -11.128 10.6457   1
  -1  14  -5 15.2843 10.8894   1
 -13  -1  -5 8.13048 9.75864   2
  14 -13  -5 0.99018 8.52895   2
  -1  14  -5 12.3220 11.0083   2
  13   1   5 14.8341 12.6329   8
   0  13  -5 20.0470 10.7099   2
   0  13  -5 -4.7703 9.42713   1
 -13   0  -5 6.55585 9.33964   2
  13 -13  -5 4.51109 8.47208   2
  13   0   5 -12.170 11.4562   8
  12 -13  -5 1.34681 7.88985   2
   1  12  -5 7.30817 9.65455   2
 -13   1  -5 7.34717 8.59056   2
   1  12  -5 16.2301 8.74673   1
 -12  13   5 17.9305 11.4162   7
  13  -1   5 19.5623 13.4814   8
 -13   2  -5 21.3634 9.27222   2
   2  11  -5 27.4436 9.44809   2
  11 -13  -5 10.7556 7.81794   2
 -11  13   5 33.6297 12.2409   7
  10 -13  -5 11.8158 7.32195   2
   3  10  -5 4.99903 8.11531   2
 -13   3  -5 -7.2506 8.35768   2
 -10  13   5 5.26031 10.2883   7
 -13   4  -5 12.5431 8.68165   2
   9 -13  -5 1.69967 7.05382   2
   4   9  -5 5.65201 7.62761   2
  -9  13   5 8.30630 10.2932   7
   8 -13  -5 4.34541 7.06751   2
   5   8  -5 6.46569 7.29001   2
 -13   5  -5 17.0506 8.31151   2
  -8  13   5 3.35409 9.83303   7
   7 -13  -5 13.0759 6.94402   2
   6   7  -5 24.0729 8.04556   2
 -13   6  -5 11.3378 8.44618   2
  -7  13   5 11.8403 10.3450   7
   6 -13  -5 15.0815 7.29275   2
 -13   7  -5 -5.0558 8.16008   2
   7   6  -5 6.71830 7.43968   2
  -6  13   5 17.7842 10.8977   7
   5 -13  -5 3.15879 7.03548   2
 -13   8  -5 20.3955 9.35424   2
   8   5  -5 4.02516 7.26004   2
  -5  13   5 4.35013 10.2431   7
 -13   9  -5 7.36502 9.21156   2
   4 -13  -5 5.87974 7.50400   2
   9   4  -5 16.5683 7.55679   2
  -4  13   5 -2.2424 9.69078   7
   3 -13  -5 4.89473 7.41009   2
 -13  10  -5 6.08436 9.09701   2
  10   3  -5 4.17036 7.19085   2
  -3  13   5 -4.3450 9.85442   7
 -13  11  -5 -1.5305 11.0732   1
  11   2  -5 4.69101 7.49258   2
   2 -13  -5 -2.3894 7.42042   2
 -13  11  -5 2.55147 9.58355   2
  12   1  -5 13.3841 8.42444   2
 -13  12  -5 -1.9793 9.53309   2
 -13  12  -5 28.1621 10.7287   1
   1 -13  -5 5.75820 7.99658   2
   0 -13  -5 7.86745 8.78370   2
  13   0  -5 18.0499 8.68500   2
 -13  13  -5 -7.5031 10.7936   1
 -13  13  -5 6.92229 10.9155   2
  13 -13   5 -2.7783 5.88877   1
 -13  14  -5 21.9282 12.6850   2
 -13  14  -5 5.35476 11.3151   1
  14  -1  -5 20.0913 8.92986   2
  -1 -13  -5 27.2003 9.35327   2
  13 -14   5 16.0664 6.69004   1
  15  -2  -5 11.6306 9.32340   2
 -13  15  -5 -12.283 11.7071   1
 -13  15  -5 -3.7927 12.1179   2
  -2 -13  -5 -7.8725 8.87011   2
  13 -15   5 3.16467 6.72485   1
  -3 -13  -5 -5.3990 9.57062   2
  16  -3  -5 6.07857 9.47733   2
 -13  16  -5 0.07735 12.5188   1
 -13  16  -5 -5.1681 12.5763   2
  13 -16   5 -1.7154 7.22052   1
 -14  -1  -5 5.43657 10.2345   2
  15 -14  -5 30.8173 10.6405   2
  -1  15  -5 43.0999 12.5849   1
  -1  15  -5 38.1225 12.9050   2
  14   1   5 61.7432 16.1502   8
   1 -15   5 19.2964 8.23635   1
 -14   0  -5 -13.966 8.99612   2
   0  14  -5 -0.1770 11.0204   2
  14 -14  -5 -7.6496 8.89438   2
   0  14  -5 -0.9525 10.2309   1
  14   0   5 -14.862 13.2788   8
   1  13  -5 1.88666 10.0686   1
   1  13  -5 -9.3927 10.6609   2
  13 -14  -5 5.26808 8.82425   2
 -14   1  -5 6.77303 9.64428   2
  14  -1   5 19.2149 14.3175   8
   2  12  -5 -6.3067 8.73953   1
  12 -14  -5 -2.4373 7.99986   2
 -14   2  -5 5.46365 9.59930   2
   2  12  -5 -5.7380 9.84652   2
 -14   3  -5 65.2883 11.2920   2
  11 -14  -5 49.5597 9.61311   2
  10 -14  -5 0.75201 7.81262   2
   4  10  -5 11.0868 8.64805   2
 -14   4  -5 31.9402 10.0343   2
 -10  14   5 9.42868 11.1233   7
 -14   5  -5 16.6519 9.72821   2
   9 -14  -5 17.8681 8.18934   2
   5   9  -5 15.2280 8.37481   2
  -9  14   5 22.2199 11.8225   7
 -14   6  -5 19.1392 9.29213   2
   8 -14  -5 20.4501 7.92720   2
   6   8  -5 15.6305 8.58536   2
  -8  14   5 25.5227 11.7591   7
   7   7  -5 0.11305 7.66211   2
 -14   7  -5 -9.1482 8.34966   2
   7 -14  -5 7.69598 7.44405   2
  -7  14   5 20.5261 11.4252   7
 -14   8  -5 5.05100 8.97399   2
   6 -14  -5 -10.071 7.38257   2
   8   6  -5 2.55246 7.86561   2
  -6  14   5 4.11342 10.7412   7
 -14   9  -5 11.4195 10.2642   2
   5 -14  -5 6.62737 7.75367   2
   9   5  -5 26.0348 8.58171   2
  -5  14   5 9.69941 11.0208   7
   4 -14  -5 2.55263 8.05576   2
 -14  10  -5 23.4649 10.7697   2
  10   4  -5 14.9869 8.07212   2
  -4  14   5 10.1575 10.7038   7
 -14  11  -5 3.87096 10.2264   2
 -14  11  -5 12.1703 10.5511   1
   3 -14  -5 17.2484 8.49330   2
  11   3  -5 17.3038 8.41211   2
   2 -14  -5 -0.5436 8.08383   2
  12   2  -5 -3.6123 7.77730   2
 -14  12  -5 -12.535 10.4462   1
 -14  12  -5 26.1344 11.3113   2
   1 -14  -5 -5.7358 8.26276   2
 -14  13  -5 14.0089 11.6089   2
  13   1  -5 4.30745 8.56734   2
 -14  13  -5 27.8226 11.9357   1
 -14  14  -5 20.1011 12.1089   2
 -14  14  -5 12.2563 11.7933   1
   0 -14  -5 20.9766 9.75020   2
  14   0  -5 18.1346 9.39939   2
  14 -14   5 3.71978 6.60608   1
 -14  15  -5 15.0723 12.5820   1
  15  -1  -5 5.50016 9.39121   2
  -1 -14  -5 6.50304 9.83759   2
 -14  15  -5 19.8735 12.8213   2
  14 -15   5 6.53219 7.03892   1
 -15   1  -5 19.9691 10.7752   2
   1  14  -5 12.0794 12.2467   2
   1  14  -5 -1.5472 11.1376   1
  14 -15  -5 -0.6130 9.50616   2
  15  -1   5 2.87469 14.7918   8
  13 -15  -5 0.97227 8.97181   2
   2  13  -5 10.3985 11.5309   2
   2  13  -5 -1.8824 10.1931   1
 -15   2  -5 5.44905 9.58650   2
   3  12  -5 18.1704 10.0437   1
 -15   3  -5 14.3958 10.0732   2
  12 -15  -5 13.7246 8.73342   2
   3  12  -5 8.15067 10.7430   2
   4  11  -5 10.3343 9.57368   2
  11 -15  -5 8.08105 8.57362   2
 -15   4  -5 -6.2059 9.38745   2
   4  11  -5 5.60893 9.52486   1
 -15   5  -5 12.3746 10.3218   2
  10 -15  -5 -2.6298 7.96857   2
   5  10  -5 14.4668 9.12256   2
 -15   6  -5 29.0686 11.0550   2
   9 -15  -5 44.0260 9.66208   2
   6   9  -5 37.6794 9.84687   2
   8 -15  -5 1.69501 7.83849   2
 -15   7  -5 0.20897 9.67941   2
   7   8  -5 -5.7242 8.23422   2
   7 -15  -5 7.36803 8.22489   2
 -15   8  -5 3.91120 9.94630   2
   8   7  -5 -4.5500 8.19150   2
   6 -15  -5 24.1821 9.35787   2
   9   6  -5 16.6826 9.17135   2
 -15   9  -5 18.0286 10.8267   2
 -15  10  -5 26.3581 13.4366   1
   5 -15  -5 66.2628 10.7005   2
  10   5  -5 64.7176 10.8812   2
 -15  10  -5 64.1179 12.8076   2
  11   4  -5 11.3908 8.94976   2
 -15  11  -5 27.5497 11.7673   1
   4 -15  -5 6.42555 9.00465   2
 -15  11  -5 -10.748 10.7345   2
  12   3  -5 16.3927 8.99145   2
 -15  12  -5 2.51411 11.6171   1
 -15  12  -5 5.46724 11.5579   2
   3 -15  -5 9.18110 8.98294   2
 -15  13  -5 24.6013 12.2639   1
 -15  13  -5 -15.998 10.8648   2
   2 -15  -5 9.08961 9.63782   2
  13   2  -5 9.40425 8.95907   2
  14   1  -5 20.4135 9.92035   2
   1 -15  -5 -2.5756 9.17260   2
 -15  14  -5 30.0375 12.4369   2
 -15  14  -5 20.1473 12.4991   1
 -16   3  -5 3.39949 10.5666   2
  13 -16  -5 -16.821 8.90862   2
   3  13  -5 1.49808 11.7191   2
   3  13  -5 5.05550 11.1138   1
  12 -16  -5 2.89496 8.98150   2
   4  12  -5 5.84731 11.3786   2
   4  12  -5 -1.8292 10.5682   1
 -16   4  -5 -7.4849 10.0591   2
   5  11  -5 7.50074 10.6889   1
  11 -16  -5 5.36408 9.15554   2
 -16   5  -5 7.67779 10.6432   2
   5  11  -5 33.5510 10.9635   2
 -16   6  -5 -9.9624 10.3225   2
   6  10  -5 6.55050 17.1579   1
   6  10  -5 9.02000 9.37845   2
  10 -16  -5 -21.361 7.92281   2
   9 -16  -5 -4.2103 8.62300   2
 -16   7  -5 -6.6287 10.5707   2
   7   9  -5 13.7286 9.29202   2
 -16   8  -5 -3.4020 10.4633   2
   8 -16  -5 9.46513 8.94206   2
   8   8  -5 10.1873 8.97000   2
   9   7  -5 3.31424 9.61157   2
 -16   9  -5 1.34329 10.8687   2
   7 -16  -5 11.9044 9.39531   2
 -16  10  -5 1.84565 11.5770   1
  10   6  -5 16.4139 9.55740   2
   6 -16  -5 7.23602 9.31149   2
 -16  10  -5 10.7683 11.4504   2
   5 -16  -5 14.1306 9.34755   2
  11   5  -5 -1.1515 9.05374   2
 -16  11  -5 -3.6668 11.6105   1
 -16  11  -5 2.72141 11.5214   2
 -16  12  -5 -23.156 11.2221   2
 -16  12  -5 -19.524 11.7522   1
  12   4  -5 8.89518 9.45433   2
   4 -16  -5 12.3996 9.91553   2
 -16  13  -5 1.83174 12.1577   1
   3 -16  -5 14.3532 10.1069   2
 -16  13  -5 8.76124 12.8800   2
  13   3  -5 8.10297 9.45451   2
   7  10  -5 7.71580 9.72768   2
  10 -17  -5 -0.0505 9.04498   2
 -17   7  -5 4.50991 11.9120   2
   7  10  -5 25.7694 11.4927   1
   8   9  -5 13.6551 10.0811   2
 -17   8  -5 36.6197 12.8471   2
   9 -17  -5 -4.9481 9.30060   2
 -17   9  -5 -16.772 11.5225   1
   8 -17  -5 3.56632 9.40534   2
   9   8  -5 17.5609 10.1947   2
 -17   9  -5 5.06446 11.4245   2
 -17  10  -5 12.7065 12.1698   2
  10   7  -5 0.65991 9.84891   2
 -17  10  -5 -0.1603 12.0700   1
   7 -17  -5 5.66130 9.86992   2
   0   0  -6 66.2535 5.13108   2
   0   0   6 86.7649 9.31855   8
   0   0   6 77.0751 9.81725   5
   0   1  -6 14.8276 3.25771   2
  -1   0  -6 17.3431 2.87914   2
   0  -1   6 15.1737 6.71410   8
  -1   1   6 23.9965 7.46615   3
   0  -1   6 31.8715 5.26350   7
  -1   1   6 28.1983 7.25968   8
   0  -1   6 24.1159 7.58075   5
  -1   1   6 27.4661 8.06442   5
   1   0   6 12.7999 7.10525   8
   1   0   6 16.5862 7.50506   5
  -1   1  -6 50.6936 4.34113   2
   1   0  -6 47.7116 3.74285   2
   0   1   6 30.0297 8.58458   5
   1  -1   6 30.0390 5.49893   7
   1  -1   6 37.4155 8.05214   5
  -1   0   6 35.6553 7.47497   8
   0   1   6 21.4407 7.12124   8
   1  -1   6 34.5335 7.81811   8
  -1   0   6 24.0859 7.35490   3
  -1   0   6 33.4587 8.26053   5
  -1  -1  -6 275.463 14.1968   2
  -1   2  -6 273.520 15.1587   2
   1  -2   6 283.458 19.6737   5
   1   1   6 305.175 18.8980   8
  -2   1   6 303.155 20.7321   3
  -2   1   6 334.626 18.9551   8
  -2   1   6 298.320 20.2174   5
   1  -2   6 301.258 18.5106   8
   1  -2   6 300.257 17.1456   7
  -2  -1  -6 74.9915 5.86292   2
  -1   3  -6 85.0928 6.83571   2
  -3   2   6 78.6090 11.1198   3
   1  -3   6 72.6242 8.49675   7
   2   1   6 88.1531 10.1520   8
  -3   2   6 84.1032 10.3853   5
   1  -3   6 83.3739 10.8842   5
   1  -3   6 90.0497 10.0515   8
  -3   2   6 91.9264 10.3228   8
  -2   0  -6 102.655 6.27506   2
   0   2  -6 93.9230 6.98432   2
   0  -2   6 74.4528 8.16483   7
   2   0   6 95.3732 10.3889   8
  -2   2   6 81.7362 10.4015   5
   2   0   6 74.1383 7.57374   7
  -2   2   6 83.1045 11.1845   3
   0  -2   6 67.9101 10.2826   5
  -2   2   6 84.4203 9.92295   8
   0  -2   6 79.7368 9.70834   8
   1   1  -6 101.823 6.61557   2
  -2   1  -6 110.358 6.58386   2
  -1  -1   6 83.3345 9.41561   8
  -1  -1   6 74.5949 7.51817   7
  -1   2   6 70.9218 10.0165   5
  -1  -1   6 72.6166 7.43240   7
  -1  -1   6 85.5872 10.8709   5
   2  -1   6 62.9873 7.55962   7
   2  -1   6 80.7957 9.92822   8
   2  -1   6 69.5854 10.1811   5
  -1   2   6 81.8277 9.68255   8
  -1  -1   6 68.4586 9.34369   3
   2   0  -6 158.459 9.49132   2
  -2   2  -6 161.944 10.3225   2
   0   2   6 180.551 13.9613   8
  -2   0   6 187.113 15.4097   3
   2  -2   6 176.643 15.7452   5
   2  -2   6 190.727 14.1764   8
   2  -2   6 173.665 12.8782   7
  -2   0   6 164.348 13.6492   8
  -2   0   6 182.016 11.5945   7
  -2   0   6 200.469 15.4583   5
  -2   3  -6 183.166 11.1967   2
  -1  -2  -6 183.002 9.56500   2
   3  -1  -6 188.901 9.96594   2
  -3   1   6 193.333 15.5118   5
  -3   1   6 190.007 16.3813   3
   1   2   6 174.452 14.7017   8
  -3   1   6 188.088 14.4563   8
   2  -3   6 195.237 14.3996   8
   2  -3   6 182.692 15.7106   5
   2  -3   6 180.969 13.6292   7
  -2  -2  -6 229.869 11.9125   2
   4  -2  -6 221.672 11.7155   2
  -2   4  -6 220.939 13.2836   2
  -4   2   6 223.238 19.4056   3
  -4   2   6 208.208 17.3073   5
  -4   2   6 238.937 16.4685   8
   2   2   6 232.053 16.4303   8
   2  -4   6 236.100 15.8671   8
   2  -4   6 239.765 18.0031   5
  -3  -2  -6 276.129 14.6465   2
   5  -3  -6 282.546 14.0771   2
  -2   5  -6 270.158 15.9390   2
  -3  -2  -6 279.503 14.8899   9
   2  -5   6 258.070 19.7481   5
   2  -5   6 282.449 18.2052   8
  -5   3   6 276.532 18.8353   8
   3   2   6 266.825 18.3210   8
   3   2   6 263.583 16.5140   7
  -5   3   6 287.100 19.6918   5
  -5   3   6 284.928 16.0637   7
   4  -3  -6 339.231 18.0453   2
  -1   4  -6 367.036 19.8425   2
  -3  -1  -6 396.319 19.4124   9
  -3  -1  -6 384.794 19.0181   2
   3   1   6 383.718 22.7482   8
  -4   3   6 406.721 23.3091   8
   1  -4   6 400.526 22.4002   8
   1  -4   6 408.025 24.1421   5
  -4   3   6 379.615 23.3379   5
   3   1   6 384.638 20.7221   7
  -3   0  -6 55.8964 5.54427   9
   0   3  -6 53.7502 5.82066   2
  -3   0  -6 57.6564 5.20262   2
   3   0   6 61.5026 9.12665   8
   3   0   6 64.4927 7.46985   7
  -3   3   6 62.2000 9.43075   5
   0  -3   6 63.1987 8.64315   8
  -3   3   6 45.0036 8.56076   8
   0  -3   6 54.5041 7.85729   7
   0  -3   6 62.3227 10.0166   5
   0  -3   6 65.0917 8.02198   7
   1   2  -6 177.574 10.3977   2
  -3   1  -6 199.959 10.2176   2
  -1  -2   6 140.491 13.3987   3
   3  -1   6 171.300 13.9003   8
  -1  -2   6 168.472 12.8286   7
   3  -1   6 182.165 13.1780   7
  -2   3   6 166.708 14.0832   8
  -1  -2   6 163.765 13.4506   8
  -1  -2   6 155.599 12.6650   7
  -2   3   6 166.355 15.2370   5
  -1  -2   6 146.839 14.0091   5
  -3   2  -6 91.2479 7.79980   2
   2   1  -6 106.772 7.49520   2
   3  -2   6 115.405 11.2549   7
   3  -2   6 127.680 12.6345   5
  -1   3   6 105.806 11.7474   5
  -2  -1   6 109.351 9.56346   7
  -2  -1   6 109.066 10.9462   8
  -2  -1   6 100.589 10.0202   7
  -2  -1   6 96.1817 11.0604   3
   3  -2   6 108.942 10.9368   8
  -1   3   6 110.149 11.3185   8
  -2  -1   6 99.8184 11.6464   5
   3   0  -6 636.557 31.2950   2
  -3   3  -6 646.451 32.1361   2
  -3   0   6 670.117 34.5559   8
   0   3   6 661.046 34.5708   8
   3  -3   6 670.017 34.3996   7
   3  -3   6 659.945 35.9325   5
  -3   0   6 667.208 33.0998   7
   3  -3   6 681.189 34.5662   8
  -3   0   6 676.059 36.1194   3
  -3   0   6 637.517 35.4751   5
  -3   4  -6 236.824 13.8947   2
  -1  -3  -6 225.011 11.7004   2
   4  -1  -6 221.151 12.2989   2
   3  -4   6 252.801 18.1317   5
  -4   1   6 248.628 14.6778   7
   3  -4   6 217.359 15.9923   8
  -4   1   6 231.993 18.4509   3
  -4   1   6 231.339 16.5321   8
  -4   1   6 231.371 17.4849   5
   1   3   6 229.871 17.2860   8
  -2  -3  -6 50.8081 4.86637   2
   5  -2  -6 55.5927 4.93139   2
  -2  -3  -6 59.0258 5.11439   9
  -3   5  -6 56.1391 6.57262   2
   3  -5   6 46.3999 9.82174   5
   2   3   6 51.8815 9.25682   8
   3  -5   6 53.0599 8.55686   8
  -5   2   6 55.5779 9.53790   8
  -5   2   6 45.6592 6.74323   7
   2   3   6 49.2169 6.34735   7
  -3  -3  -6 133.311 9.15326   2
  -3   6  -6 141.560 11.0966   2
   6  -3  -6 134.401 8.74067   2
  -3  -3  -6 130.336 9.70537   9
  -6   3   6 149.075 13.5123   8
   3  -6   6 143.357 14.3194   5
   3   3   6 117.331 11.1400   7
  -6   3   6 131.213 11.5854   7
   3   3   6 144.303 13.0277   8
   3  -6   6 149.104 12.6126   8
   7  -4  -6 32.8549 4.90846   2
  -4  -3  -6 37.8910 6.44641   9
  -3   7  -6 33.3158 6.67027   2
  -4  -3  -6 40.6934 5.60689   2
  -7   4   6 33.4549 9.35597   8
   3  -7   6 45.9139 10.7385   5
   3  -7   6 27.6585 7.89485   8
  -7   4   6 28.4201 7.35725   7
   4   3   6 21.9237 8.71746   8
  -4  -2  -6 17.4586 5.24016   9
  -4  -2  -6 21.7846 4.68798   2
   6  -4  -6 24.2553 3.90141   2
  -2   6  -6 30.0308 5.92272   2
   4   2   6 18.1152 8.22657   8
   2  -6   6 22.9247 8.11220   7
  -6   4   6 24.2448 6.27983   7
  -6   4   6 22.5357 8.84286   8
   2  -6   6 26.7876 9.44094   5
   2  -6   6 25.7573 7.23933   8
  -1   5  -6 -2.9107 4.43830   2
  -4  -1  -6 1.81450 4.26117   9
   5  -4  -6 -1.2185 2.59144   2
  -4  -1  -6 2.14228 4.00127   2
   4   1   6 7.57833 7.49627   8
   4   1   6 3.98882 5.21828   7
   1  -5   6 -7.5686 7.81945   5
  -5   4   6 0.55283 7.62249   8
   1  -5   6 -1.2956 6.05048   8
  -5   4   6 -0.9608 7.08988   5
   1  -5   6 2.74114 6.79069   7
  -4   0  -6 197.922 12.9197   9
  -4   0  -6 203.340 12.0040   2
   0   4  -6 220.463 13.0251   2
  -4   4   6 212.901 15.9779   8
  -4   4   6 203.602 16.4011   5
   0  -4   6 188.240 16.9380   5
   4   0   6 219.794 16.7352   8
   0  -4   6 213.666 15.7680   7
   0  -4   6 197.623 14.7177   8
   4   0   6 197.702 14.3140   7
  -4   1  -6 420.093 22.1103   2
  -4   1  -6 450.119 22.9696   9
   1   3  -6 433.990 22.3426   2
   4  -1   6 457.242 26.0082   8
  -1  -3   6 473.929 27.1905   5
  -1  -3   6 461.727 25.2530   7
  -3   4   6 429.420 25.8049   5
  -1  -3   6 422.332 24.8454   8
   4  -1   6 447.146 24.7876   7
  -3   4   6 446.542 25.8017   8
  -4   2  -6 473.437 23.9954   2
  -4   2  -6 485.543 24.5555   9
   2   2  -6 484.289 23.7750   2
  -2   4   6 510.352 27.7798   5
  -2  -2   6 474.299 25.8735   7
  -2  -2   6 452.689 27.0302   3
   4  -2   6 468.383 26.7389   7
  -2  -2   6 495.945 26.5772   8
  -2  -2   6 496.917 28.1792   5
  -2  -2   6 460.813 26.0672   7
   4  -2   6 507.725 27.4883   8
  -2   4   6 472.557 26.8503   8
  -4   3  -6 213.241 13.6650   9
  -4   3  -6 218.225 12.8662   2
   3   1  -6 210.658 12.0393   2
   4  -3   6 208.816 17.1573   5
   4  -3   6 215.777 16.0308   8
  -3  -1   6 211.837 14.9638   7
  -3  -1   6 195.780 16.2712   3
  -1   4   6 225.568 16.0358   8
  -3  -1   6 212.093 15.5328   8
  -4   4  -6 46.2681 6.43016   2
   4   0  -6 42.5838 5.14770   2
  -4   0   6 78.3701 9.64001   8
   4  -4   6 58.7502 9.93493   5
  -4   0   6 59.9313 7.72672   7
   4  -4   6 69.3991 9.74947   8
   0   4   6 69.2282 9.45164   8
  -4   0   6 66.7567 10.2673   3
  -4   5  -6 94.2697 8.48059   2
  -1  -4  -6 96.5040 6.44247   2
   5  -1  -6 83.4174 7.35508   2
   4  -5   6 93.6289 11.6094   5
  -5   1   6 77.6328 13.1143   3
  -5   1   6 83.5108 10.7890   8
  -5   1   6 89.3059 9.09798   7
   1   4   6 95.7460 10.8872   8
   4  -5   6 86.5653 10.3382   8
  -4   6  -6 13.9213 5.72837   2
   6  -2  -6 24.2730 4.45832   2
  -2  -4  -6 21.2097 4.47570   9
  -2  -4  -6 24.9129 4.23150   2
   4  -6   6 25.6302 7.81135   8
   2   4   6 48.2162 8.86428   8
   4  -6   6 29.0762 9.10227   5
  -6   2   6 13.8073 6.18550   7
  -6   2   6 23.5307 8.73494   8
   2   4   6 24.8149 5.92302   7
   7  -3  -6 39.2808 5.16112   2
  -3  -4  -6 38.6212 5.28906   2
  -4   7  -6 50.0091 7.39328   2
  -3  -4  -6 34.1087 6.13541   9
   3   4   6 51.5196 9.23125   8
  -7   3   6 32.4793 9.26995   8
  -7   3   6 39.0181 7.78619   7
   4  -7   6 49.9347 8.52935   8
   4  -7   6 39.0587 10.3654   5
   8  -4  -6 76.1277 7.09409   2
  -4  -4  -6 88.9372 9.13313   9
  -4   8  -6 81.3231 9.33793   2
  -4  -4  -6 84.2043 7.88773   2
   4  -8   6 69.1265 12.0158   5
   4  -8   6 61.6393 9.68451   8
   4   4   6 96.9897 11.0668   8
  -8   4   6 90.0174 10.5559   7
  -8   4   6 97.9411 12.5733   8
  -4   9  -6 7.58526 6.61271   2
  -5  -4  -6 12.8336 5.83701   2
   9  -5  -6 2.94987 4.76499   2
  -9   5   6 -1.3313 7.42904   7
   5   4   6 5.67088 8.22878   8
  -5  -3  -6 51.6480 8.09193   9
   8  -5  -6 43.5663 5.76537   2
  -5  -3  -6 50.4646 6.64198   2
  -3   8  -6 45.2273 7.60170   2
  -8   5   6 50.8961 8.73133   7
  -8   5   6 23.1528 9.80282   8
   5   3   6 45.0335 9.78581   8
   3  -8   6 43.0839 8.63406   8
   3  -8   6 34.8272 9.22193   7
  -5  -2  -6 166.151 11.7120   2
  -2   7  -6 155.873 12.9717   2
  -5  -2  -6 166.605 12.7333   9
   7  -5  -6 171.206 10.7641   2
  -7   5   6 193.789 14.2892   7
   2  -7   6 168.382 14.0211   8
  -7   5   6 170.143 15.2481   8
   2  -7   6 199.904 17.0471   7
   5   2   6 183.569 15.5373   8
  -1   6  -6 92.9884 8.49068   2
  -5  -1  -6 93.2587 7.96260   2
   6  -5  -6 91.0007 6.99334   2
  -5  -1  -6 94.1160 9.04089   9
  -6   5   6 87.2622 8.68615   7
   1  -6   6 91.0987 11.3312   7
  -6   5   6 71.1761 11.2221   8
  -6   5   6 99.5422 11.1288   5
   1  -6   6 99.2508 10.4481   8
   5   1   6 84.3744 11.1413   8
   5  -5  -6 45.7676 4.27899   2
  -5   0  -6 54.3213 5.97012   2
  -5   0  -6 42.6577 6.70159   9
   0   5  -6 51.0600 6.63272   2
  -5   5   6 47.8833 8.62175   5
  -5   5   6 38.7671 9.17773   8
   0  -5   6 57.2500 8.47829   8
   0  -5   6 39.6013 8.50051   7
   5   0   6 53.0346 9.41874   8
  -5   1  -6 11.1709 5.85471   9
   1   4  -6 16.5695 4.84730   2
  -5   1  -6 10.3837 4.28075   2
  -1  -4   6 -0.4492 6.36003   8
  -4   5   6 19.2427 7.60720   8
  -4   5   6 12.6574 7.05574   5
  -1  -4   6 12.0345 6.83930   7
   5  -1   6 7.11813 7.70853   8
  -5   2  -6 123.150 10.6555   9
  -5   2  -6 143.425 9.86296   2
   2   3  -6 116.452 9.61984   2
  -2  -3   6 136.147 12.0123   8
   5  -2   6 124.180 12.6587   8
  -2  -3   6 129.893 13.1065   7
  -3   5   6 137.475 12.7418   5
  -3   5   6 143.270 12.9200   8
   3   2  -6 19.3750 4.76348   2
  -5   3  -6 28.1450 6.53788   9
  -5   3  -6 34.6005 5.32803   2
  -3  -2   6 27.8763 7.51495   8
  -3  -2   6 31.6677 7.54996   7
  -2   5   6 11.1450 7.38283   8
   5  -3   6 19.6971 8.11150   8
  -5   4  -6 321.033 17.8989   2
  -5   4  -6 325.371 19.0009   9
   4   1  -6 325.340 17.0948   2
  -4  -1   6 339.660 20.5046   8
   5  -4   6 306.209 20.7086   8
  -1   5   6 321.760 20.8371   8
  -4  -1   6 298.615 21.3691   3
   5  -4   6 308.636 21.6833   5
  -4  -1   6 321.228 19.8523   7
  -5   5  -6 120.420 10.5122   9
   0  -5  -6 99.5123 6.82084   2
   5   0  -6 109.158 8.10959   2
  -5   5  -6 102.290 9.00714   2
   0   5   6 90.8554 10.9014   8
   5  -5   6 90.1486 11.1119   8
  -5   0   6 89.3277 11.8024   3
   5  -5   6 108.213 12.5673   5
  -5   0   6 91.6213 10.0810   7
  -5   0   6 93.7105 11.3366   8
  -5   6  -6 11.3971 5.89261   2
  -1  -5  -6 5.99348 3.61076   2
   6  -1  -6 13.9499 4.46705   2
  -1  -5  -6 3.47056 3.86775   9
  -5   6  -6 5.33495 6.68145   9
   5  -6   6 -2.2598 7.24022   8
   1   5   6 4.16578 4.96868   7
  -6   1   6 8.75782 6.24580   7
   5  -6   6 13.9280 8.64382   5
   1   5   6 5.31554 7.16410   8
  -6   1   6 9.59107 7.79928   8
  -2  -5  -6 12.7284 4.44933   2
  -5   7  -6 31.4621 8.30158   9
  -5   7  -6 19.1703 6.50727   2
   7  -2  -6 27.3344 5.07922   2
   5  -7   6 13.7431 8.87436   5
  -7   2   6 21.2126 7.53733   7
  -7   2   6 26.3493 9.50264   8
   2   5   6 22.7224 8.51982   8
   5  -7   6 26.2764 8.00559   8
  -5   8  -6 45.0891 9.09606   9
   8  -3  -6 30.8615 5.53332   2
  -5   8  -6 56.6657 8.24271   2
  -3  -5  -6 56.7123 6.49615   2
   5  -8   6 61.6333 11.2525   5
   5  -8   6 43.6129 9.10586   8
  -8   3   6 44.0121 9.00041   7
   3   5   6 37.9289 8.82020   8
  -8   3   6 22.1896 9.73216   8
   9  -4  -6 36.9997 6.14982   2
  -5   9  -6 46.1438 10.7624   9
  -4  -5  -6 27.3455 6.43490   2
  -5   9  -6 49.9614 8.48944   2
  -9   4   6 50.2431 9.81026   7
   5  -9   6 50.2828 10.8923   8
   4   5   6 37.3944 9.43466   8
  10  -5  -6 11.6179 6.04338   2
  -5  -5  -6 14.6796 6.32672   2
  -5  10  -6 24.7679 9.01283   9
  -5  10  -6 11.7264 7.74145   2
   5   5   6 21.3542 9.13339   8
 -10   5   6 36.9930 9.92176   7
  11  -6  -6 86.4589 9.36930   2
  -5  11  -6 95.4489 11.5454   2
  -6  -5  -6 86.0521 9.91236   2
   6   5   6 76.7041 12.0198   8
 -11   6   6 104.368 13.6859   7
  10  -6  -6 112.901 9.92861   2
  -4  10  -6 101.154 11.3659   2
  -6  -4  -6 117.804 10.6954   2
 -10   6   6 111.407 13.3223   7
   6   4   6 115.134 13.5786   8
  -6  -3  -6 87.7602 9.01260   2
   9  -6  -6 79.4117 7.95395   2
  -3   9  -6 108.554 10.5191   2
  -6  -3  -6 74.7604 10.0683   9
  -9   6   6 85.9117 11.2813   7
   6   3   6 87.9540 11.8156   8
  -2   8  -6 22.4594 6.82803   2
   8  -6  -6 40.2687 5.60662   2
  -6  -2  -6 22.5505 7.33978   9
  -6  -2  -6 28.7065 6.18012   2
   2  -8   6 39.6738 9.57277   7
  -8   6   6 36.0799 10.2244   8
  -8   6   6 34.0917 8.17972   7
   6   2   6 30.3019 9.36341   8
  -6  -1  -6 11.9270 6.31944   9
  -1   7  -6 17.2942 6.01968   2
   7  -6  -6 19.5404 4.32444   2
  -6  -1  -6 7.59616 5.24459   2
  -7   6   6 5.39181 8.59878   8
   6   1   6 23.3336 8.68098   8
   1  -7   6 22.2244 9.03617   7
   1  -7   6 14.7896 6.82639   8
  -7   6   6 11.2879 6.60416   7
  -6   0  -6 88.3339 8.44412   2
   0   6  -6 81.0941 8.72367   2
  -6   0  -6 109.122 10.1081   9
   6  -6  -6 95.8942 7.25111   2
  -6   6   6 102.281 9.40380   7
   6   0   6 93.4339 12.2052   8
  -6   6   6 91.8190 11.9184   8
   0  -6   6 96.7072 10.4234   8
   0  -6   6 103.183 12.4619   7
  -6   6   6 92.5244 10.7863   5
  -6   1  -6 49.5647 7.66532   9
   1   5  -6 45.0149 6.52055   2
   5  -6  -6 45.0969 5.71117   2
  -6   1  -6 51.9431 6.25604   2
  -5   6   6 39.8452 9.09080   8
  -1  -5   6 43.8475 8.03251   8
   6  -1   6 35.8734 9.30842   8
  -1  -5   6 43.1002 9.07550   7
  -5   6   6 36.1971 8.53288   5
  -6   2  -6 -0.9452 4.69275   2
   2   4  -6 5.30650 4.82083   2
  -6   2  -6 -0.2302 5.99005   9
  -4   6   6 7.69158 7.76235   8
  -2  -4   6 5.85599 6.81272   8
  -2  -4   6 -0.3402 6.35013   7
  -4   6   6 -2.8490 7.02234   5
   6  -2   6 1.10089 7.88521   8
  -6   3  -6 123.691 10.4423   2
  -6   3  -6 113.192 11.4603   9
   3   3  -6 112.574 10.0866   2
   6  -3   6 125.668 13.0237   8
  -3   6   6 156.387 13.2666   5
  -3  -3   6 143.264 14.1717   7
  -3  -3   6 151.757 12.6316   8
  -3   6   6 150.784 13.4513   8
  -6   4  -6 4.45564 6.74558   9
   4   2  -6 5.48271 4.68080   2
  -6   4  -6 2.24757 4.87245   2
  -4  -2   6 7.64743 6.67418   7
  -4  -2   6 11.0274 7.22639   8
   6  -4   6 17.1134 8.43996   8
  -2   6   6 6.44662 7.51906   8
   5   1  -6 1.73076 4.35509   2
  -6   5  -6 4.87205 5.16516   2
  -6   5  -6 7.10464 6.87437   9
   1  -6  -6 6.80650 3.25436   2
   6  -5   6 2.29060 7.55069   8
  -1   6   6 7.79622 7.72093   8
   6  -5   6 -4.6711 8.21599   5
  -5  -1   6 3.04096 6.52222   7
  -5  -1   6 5.72760 7.47821   8
  -5  -1   6 15.2796 7.53250   3
   6   0  -6 0.37246 4.40627   2
   0  -6  -6 8.67593 3.73990   2
  -6   6  -6 21.3577 7.54905   9
  -6   6  -6 11.6318 5.81080   2
   6  -6   6 -9.2372 7.31274   8
   0   6   6 6.47074 7.70047   8
   0   6   6 17.6563 5.48741   7
   6  -6   6 7.16130 8.26870   5
  -6   0   6 9.14219 6.73107   7
  -6   0   6 17.7997 7.70306   8
  -1  -6  -6 44.4748 5.63587   2
  -6   7  -6 49.5868 7.95783   2
  -6   7  -6 37.9793 9.23435   9
   7  -1  -6 46.8710 6.26693   2
  -7   1   6 54.2481 9.14265   7
   6  -7   6 43.4311 9.67707   8
   1   6   6 58.5965 9.89339   8
   6  -7   6 57.7100 11.1969   5
  -7   1   6 56.0953 10.0399   8
  -6   8  -6 45.2968 9.83796   9
  -2  -6  -6 31.6269 5.67821   2
   8  -2  -6 32.4300 6.01870   2
  -6   8  -6 29.9278 7.57630   2
   6  -8   6 30.3787 9.95834   5
   2   6   6 42.8528 9.20801   8
   6  -8   6 58.1928 9.48058   8
  -8   2   6 21.6642 8.05424   7
  -6   9  -6 122.546 14.1278   9
  -6   9  -6 117.752 11.7841   2
  -3  -6  -6 107.703 9.44656   2
   9  -3  -6 130.688 10.5862   2
   6  -9   6 110.417 14.1748   5
  -9   3   6 123.503 13.4749   7
   3   6   6 102.901 12.3153   8
   6  -9   6 126.502 13.2914   8
  10  -4  -6 67.8469 7.94931   2
  -6  10  -6 66.3626 10.0603   2
  -6  10  -6 41.5629 10.4270   9
  -4  -6  -6 67.2161 8.26190   2
 -10   4   6 58.0405 11.1763   7
   4   6   6 49.9512 10.2820   8
  -6  11  -6 19.5593 8.94995   2
  -5  -6  -6 41.3985 7.98419   2
  11  -5  -6 33.3795 7.40754   2
 -11   5   6 41.3246 10.9022   7
  -6  12  -6 -4.1983 8.52103   2
  12  -6  -6 7.57930 6.88525   2
  -6  -6  -6 7.83513 7.43386   2
 -12   6   6 16.3452 10.6639   7
  13  -7  -6 -0.4096 7.47025   2
  -6  13  -6 -6.4479 9.36221   2
  -7  -6  -6 -3.0834 7.82273   2
 -13   7   6 12.0695 11.1418   7
  -5  12  -6 17.6706 9.36946   2
  12  -7  -6 35.2607 8.12712   2
  -7  -5  -6 19.1125 8.06468   2
 -12   7   6 28.5091 11.5394   7
  11  -7  -6 31.4192 7.08000   2
  -7  -4  -6 33.5279 8.06773   2
  -4  11  -6 39.6921 9.09030   2
 -11   7   6 22.2957 10.3209   7
   7   4   6 17.6715 9.69753   8
  10  -7  -6 60.2481 7.55822   2
  -7  -3  -6 55.9564 8.58668   2
  -3  10  -6 64.0883 9.38338   2
 -10   7   6 51.4973 10.7822   7
   7   3   6 43.8831 11.1436   8
   9  -7  -6 19.4014 5.60241   2
  -7  -2  -6 32.5379 8.47013   9
  -7  -2  -6 23.3707 6.68354   2
  -2   9  -6 9.97115 7.01234   2
  -9   7   6 16.6983 8.12651   7
   7   2   6 37.8222 10.5444   8
  -7  -1  -6 236.083 15.1997   2
  -7  -1  -6 232.878 17.0897   9
   8  -7  -6 225.220 13.9540   2
  -1   8  -6 232.181 16.2789   2
  -8   7   6 226.558 17.4944   7
   7   1   6 257.487 19.8206   8
  -8   7   6 228.407 19.8574   8
   1  -8   6 230.336 19.9997   7
   0   7  -6 209.011 14.4292   2
  -7   0  -6 180.268 14.9741   9
  -7   0  -6 167.196 13.2283   2
   7  -7  -6 191.752 11.8255   2
   7   0   6 206.009 17.0678   8
  -7   7   6 174.875 16.2277   8
   0  -7   6 181.629 18.0567   7
  -7   7   6 224.960 15.6732   7
   6  -7  -6 13.2598 4.01357   2
  -7   1  -6 15.6405 7.20992   9
  -7   1  -6 23.0019 5.74297   2
   1   6  -6 16.5132 5.99906   2
  -1  -6   6 28.6127 9.37510   7
   7  -1   6 31.7044 9.30312   8
  -6   7   6 19.3002 6.86769   7
  -1  -6   6 14.3484 7.17642   8
  -6   7   6 14.2621 8.84083   8
  -7   2  -6 68.9516 9.52346   9
  -7   2  -6 83.4846 7.96493   2
   2   5  -6 71.2571 7.81338   2
   5  -7  -6 69.2264 5.75236   2
  -2  -5   6 77.7247 11.1068   7
  -5   7   6 80.1588 14.3224   5
  -2  -5   6 78.6690 9.70690   8
  -5   7   6 73.6495 10.5999   8
   7  -2   6 63.7020 10.7516   8
  -7   3  -6 176.793 12.7148   2
   3   4  -6 174.950 11.9013   2
  -7   3  -6 162.467 14.2449   9
  -3  -4   6 174.714 14.1819   8
  -4   7   6 140.684 13.5524   8
  -3  -4   6 155.779 15.8636   7
   7  -3   6 158.856 15.0000   8
  -4   7   6 169.047 14.2300   5
  -7   4  -6 81.2564 8.69635   2
  -7   4  -6 93.0404 10.9578   9
   4   3  -6 83.3090 8.38125   2
  -3   7   6 108.553 11.5370   8
   7  -4   6 110.583 12.6710   8
  -4  -3   6 89.9319 11.4533   7
  -4  -3   6 108.728 11.4555   8
  -7   5  -6 26.6214 8.34618   9
   2  -7  -6 22.2460 3.94557   2
  -7   5  -6 30.5404 6.41108   2
   5   2  -6 23.6110 5.55860   2
  -2   7   6 40.7403 8.54497   8
  -5  -2   6 26.6628 8.59263   8
   7  -5   6 29.9029 8.73724   8
  -5  -2   6 31.2385 8.41188   7
  -2   7   6 27.2476 6.11370   7
  -7   6  -6 225.330 14.9117   2
   1  -7  -6 211.727 11.9757   2
  -7   6  -6 205.792 17.0878   9
   6   1  -6 187.897 13.2647   2
   7  -6   6 224.110 19.1959   5
  -1   7   6 234.047 17.0534   8
  -1   7   6 198.425 14.4407   7
   7  -6   6 193.738 16.8123   8
  -6  -1   6 201.711 16.7982   7
  -6  -1   6 196.946 17.1816   8
  -7   7  -6 258.502 16.8486   2
   0  -7  -6 241.504 14.2728   2
  -7   7  -6 229.983 18.8333   9
   7   0  -6 233.091 15.1006   2
   0   7   6 282.707 18.6093   8
   7  -7   6 290.863 20.8424   5
  -7   0   6 228.194 18.5515   8
  -7   0   6 224.236 18.5902   7
   7  -7   6 280.796 19.6001   8
  -7   8  -6 6.80707 7.99862   9
   8  -1  -6 8.55378 5.35920   2
  -1  -7  -6 4.86640 4.92750   2
  -7   8  -6 16.4785 7.11901   2
  -8   1   6 -4.3553 7.23953   7
   7  -8   6 19.7666 8.95514   8
   7  -8   6 2.98189 9.27301   5
   1   7   6 0.11415 7.73670   8
  -7   9  -6 66.9749 9.82379   2
   9  -2  -6 71.6242 8.05157   2
  -2  -7  -6 79.9293 8.06961   2
  -7   9  -6 56.0294 10.8650   9
   2   7   6 54.7394 10.0166   8
   7  -9   6 66.8700 11.6615   5
  -9   2   6 67.2192 11.2548   7
   7  -9   6 71.0258 11.0633   8
  -7  10  -6 36.2290 8.94667   2
  -7  10  -6 14.9288 11.0653   9
  -3  -7  -6 20.8004 6.68654   2
  10  -3  -6 17.5635 6.38402   2
   7 -10   6 13.6972 12.2802   8
 -10   3   6 12.3145 9.58097   7
  -4  -7  -6 108.958 10.8381   2
  11  -4  -6 104.033 10.1789   2
  -7  11  -6 112.998 12.8137   2
 -11   4   6 112.937 14.5145   7
  -5  -7  -6 14.0538 7.76562   2
  -7  12  -6 30.1622 10.1546   2
  12  -5  -6 20.6497 7.38001   2
 -12   5   6 17.7976 10.4393   7
  -6  -7  -6 -10.828 7.61427   2
  -7  13  -6 -6.5918 9.75735   2
  13  -6  -6 -11.689 7.14596   2
 -13   6   6 -3.7672 10.0492   7
  14  -7  -6 7.47272 8.27197   2
  -7  -7  -6 -1.1561 8.41309   2
  -7  14  -6 3.11853 10.8115   2
  -8  -7  -6 11.6101 9.70334   2
  15  -8  -6 10.0969 8.74026   2
  -7  15  -6 -3.3773 11.0568   2
  14  -8  -6 -3.4281 8.14617   2
  -6  14  -6 13.3167 10.9720   2
  -8  -6  -6 15.4562 9.19873   2
  -5  13  -6 -7.7544 9.28302   2
  -8  -5  -6 17.5682 8.50422   2
  13  -8  -6 9.72749 8.13417   2
 -13   8   6 8.78906 11.6712   7
  -8  -4  -6 29.2313 8.99418   2
  12  -8  -6 38.2969 8.14574   2
  -4  12  -6 30.8688 9.52396   2
   8   4   6 32.7754 11.1861   8
 -12   8   6 40.9068 11.6306   7
  -3  11  -6 8.57570 8.14436   2
  11  -8  -6 13.9381 6.54328   2
  -8  -3  -6 31.7616 8.09539   2
   8   3   6 4.77580 9.64388   8
 -11   8   6 26.9391 10.1686   7
  10  -8  -6 3.48213 5.60071   2
  -2  10  -6 16.9433 7.54820   2
  -8  -2  -6 7.12817 6.49126   2
   8   2   6 -8.4900 8.82011   8
 -10   8   6 1.15938 8.34641   7
  -8  -1  -6 35.8336 9.40855   9
   9  -8  -6 43.8608 6.53607   2
  -8  -1  -6 39.8224 7.61530   2
  -1   9  -6 27.2882 7.75068   2
   8   1   6 28.8944 10.7720   8
  -9   8   6 38.5602 9.27545   7
  -8   0  -6 15.6875 6.51410   2
   0   8  -6 13.3357 6.96045   2
   8  -8  -6 12.5131 5.07202   2
  -8   0  -6 26.3402 8.41646   9
  -8   8   6 18.8106 8.49827   7
  -8   8   6 -0.9612 9.09830   8
   8   0   6 6.62939 9.44469   8
   7  -8  -6 127.402 9.66240   2
  -8   1  -6 137.545 13.0598   9
  -8   1  -6 130.341 11.0964   2
   1   7  -6 126.774 11.0227   2
   8  -1   6 132.857 14.1519   8
  -1  -7   6 127.141 14.0174   7
  -7   8   6 110.098 13.5317   8
  -7   8   6 137.692 13.9099   7
   6  -8  -6 52.3555 5.52060   2
  -8   2  -6 39.2198 6.88092   2
  -8   2  -6 36.5900 8.82936   9
   2   6  -6 42.2699 7.26806   2
   8  -2   6 33.8880 10.1947   8
  -6   8   6 37.8955 9.48258   8
  -6   8   6 47.2818 8.80638   7
  -2  -6   6 30.8972 9.96933   7
   5  -8  -6 18.7270 4.33402   2
  -8   3  -6 10.0372 5.89696   2
  -8   3  -6 18.0554 8.15252   9
   3   5  -6 15.4861 5.86684   2
  -5   8   6 30.2121 7.54889   7
   8  -3   6 10.5655 8.94892   8
  -3  -5   6 26.6213 9.13178   7
  -5   8   6 12.2339 8.65241   8
  -3  -5   6 22.2355 7.80968   8
   4  -8  -6 59.3798 5.84236   2
   4   4  -6 55.4101 7.49602   2
  -8   4  -6 64.0986 8.13684   2
  -8   4  -6 76.5617 10.6140   9
  -4   8   6 62.9234 9.98835   8
  -4  -4   6 66.4678 10.7558   7
  -4   8   6 69.4425 8.57563   7
  -4  -4   6 78.6295 10.3070   8
   8  -4   6 80.3755 11.7467   8
   3  -8  -6 61.1456 5.88649   2
   5   3  -6 62.2948 7.57388   2
  -8   5  -6 80.6885 8.71485   2
  -8   5  -6 48.3091 9.78761   9
   8  -5   6 62.7857 11.2676   8
  -5  -3   6 55.7649 9.70094   8
  -3   8   6 65.0958 8.43992   7
  -5  -3   6 67.9544 10.7673   7
  -3   8   6 57.0127 10.0127   8
  -8   6  -6 65.4434 8.56438   2
   2  -8  -6 63.2530 6.24931   2
  -8   6  -6 61.1377 11.1928   9
   6   2  -6 71.9631 7.95428   2
  -6  -2   6 81.4743 11.3150   8
  -2   8   6 51.7781 8.15788   7
  -2   8   6 62.9781 10.3382   8
   8  -6   6 73.2540 12.3232   5
   8  -6   6 62.6797 11.0775   8
  -6  -2   6 51.1025 10.1505   7
  -8   7  -6 28.1241 9.12851   9
  -8   7  -6 37.4393 7.98458   2
   7   1  -6 30.5371 6.34351   2
   1  -8  -6 30.4696 5.48131   2
  -7  -1   6 38.0271 10.0484   8
  -1   8   6 26.5043 8.51066   8
   8  -7   6 25.8246 10.0215   8
  -7  -1   6 42.6794 9.82366   7
   8  -7   6 46.7875 11.1364   5
  -8   8  -6 42.0211 10.8320   9
   0  -8  -6 45.0335 6.24510   2
   8   0  -6 43.8251 7.12711   2
  -8   8  -6 26.8551 7.75547   2
   8  -8   6 57.7144 10.3468   8
   0   8   6 46.4757 9.79777   8
  -8   0   6 40.7713 9.92208   7
   8  -8   6 52.1992 10.8915   5
   9  -1  -6 44.5854 7.35481   2
  -1  -8  -6 44.3889 6.96119   2
  -8   9  -6 40.7110 8.66386   2
  -8   9  -6 41.2867 11.4365   9
   8  -9   6 33.9845 10.7055   5
  -9   1   6 44.4939 10.2758   7
   8  -9   6 54.6672 10.5821   8
  -2  -8  -6 153.696 12.7484   2
  10  -2  -6 142.243 12.5755   2
  -8  10  -6 138.226 13.6970   2
 -10   2   6 129.239 14.8446   7
   8 -10   6 154.664 15.5816   8
  -8  11  -6 91.8518 12.7306   2
  -3  -8  -6 121.588 11.2718   2
  11  -3  -6 117.456 11.0404   2
 -11   3   6 140.900 16.0524   7
  -8  12  -6 2.43964 9.38773   2
  -4  -8  -6 2.68478 7.30382   2
  12  -4  -6 -1.5248 6.76261   2
 -12   4   6 -15.985 9.63215   7
  -5  -8  -6 5.24312 7.86117   2
  -8  13  -6 10.0363 10.2451   2
  13  -5  -6 2.16576 7.34280   2
  -8  14  -6 9.27420 10.8205   2
  -6  -8  -6 -3.9543 8.60056   2
  14  -6  -6 6.06474 8.18528   2
  -7  -8  -6 12.2175 9.67379   2
  -8  15  -6 1.91990 11.6428   2
  15  -7  -6 -7.5956 8.29692   2
  -8  16  -6 23.4806 12.7163   1
  -8  16  -6 22.6549 13.8312   2
  -8  -8  -6 12.3199 10.5438   2
  16  -8  -6 11.7364 9.42598   2
  -7  16  -6 6.60639 12.6211   2
  -9  -7  -6 1.24709 10.0904   2
  16  -9  -6 4.71738 9.79615   2
  -7  16  -6 4.05882 12.3251   1
  -6  15  -6 8.69400 11.4618   2
  15  -9  -6 23.5125 9.90508   2
  -9  -6  -6 2.36312 9.26704   2
  -5  14  -6 -6.2465 10.2828   2
  14  -9  -6 5.63558 8.59666   2
  -9  -5  -6 16.7487 9.32889   2
  -9  -4  -6 11.0124 8.54459   2
  -4  13  -6 15.4911 9.68727   2
  13  -9  -6 19.2053 8.42909   2
  12  -9  -6 13.7066 7.54446   2
  -9  -3  -6 10.0486 8.06892   2
  -3  12  -6 12.1692 8.90492   2
   9   3   6 3.15216 10.6190   8
 -12   9   6 14.4915 10.3745   7
  -9  -2  -6 28.1719 8.18024   2
  -2  11  -6 15.7616 8.40090   2
  11  -9  -6 14.4201 7.22972   2
 -11   9   6 14.3882 10.1232   7
   9   2   6 41.5877 11.2816   8
  -1  10  -6 15.9922 7.72473   2
  -9  -1  -6 9.13100 6.95417   2
  -9  -1  -6 1.69985 9.31210   9
  10  -9  -6 1.82118 5.96748   2
   9   1   6 29.9119 10.9178   8
 -10   9   6 18.0710 10.0303   7
   0   9  -6 57.4778 9.38743   2
  -9   0  -6 58.8191 8.69385   2
   9  -9  -6 46.7637 6.98834   2
  -9   0  -6 50.9890 10.5218   9
   9   0   6 67.4082 12.7056   8
  -9   9   6 46.3621 10.2643   7
  -9   1  -6 27.2503 7.45989   2
   8  -9  -6 24.4210 5.62984   2
   1   8  -6 19.9870 7.31796   2
  -9   1  -6 13.4626 8.81327   9
   9  -1   6 19.8673 10.3084   8
  -8   9   6 16.7788 8.68944   7
  -9   2  -6 76.1385 8.79601   2
  -9   2  -6 67.4654 10.7656   9
   7  -9  -6 74.2195 7.26764   2
  -7   9   6 68.5383 10.7041   7
   9  -2   6 58.1294 12.2775   8
  -7   9   6 74.7452 12.0222   8
   6  -9  -6 3.45796 4.41913   2
  -9   3  -6 15.4744 6.61423   2
   3   6  -6 -2.2083 5.57037   2
  -9   3  -6 -4.2898 8.07540   9
  -6   9   6 1.73355 8.57800   8
   9  -3   6 -14.910 9.05298   8
  -6   9   6 13.1893 8.01820   7
  -3  -6   6 4.92766 8.55784   7
  -9   4  -6 33.3730 7.28878   2
   4   5  -6 40.9837 7.05821   2
   5  -9  -6 37.1220 5.30126   2
  -9   4  -6 13.4907 9.43500   9
  -4  -5   6 28.3289 10.1575   7
   9  -4   6 37.0154 10.7522   8
  -5   9   6 32.9880 9.66634   8
  -5   9   6 23.5809 7.63113   7
  -9   5  -6 24.6906 7.22196   2
   4  -9  -6 23.1970 4.95501   2
   5   4  -6 28.3043 6.95601   2
  -9   5  -6 11.5253 9.12851   9
   9  -5   6 35.4297 10.4259   8
  -5  -4   6 32.8955 9.38535   7
  -4   9   6 25.4182 8.47681   8
  -4   9   6 28.3451 7.78129   7
  -5  -4   6 26.0920 8.91795   8
   3  -9  -6 40.6860 5.77388   2
  -9   6  -6 36.7138 9.65037   9
   6   3  -6 26.1474 6.68016   2
  -9   6  -6 37.7813 7.92159   2
  -3   9   6 39.2520 8.25952   7
   9  -6   6 34.1327 10.8232   8
  -6  -3   6 18.8708 9.03285   7
  -6  -3   6 41.0212 9.68641   8
  -3   9   6 51.2426 9.36748   8
  -9   7  -6 18.8392 9.51677   9
   7   2  -6 22.4678 6.41684   2
  -9   7  -6 20.2125 7.44735   2
   2  -9  -6 22.2409 5.47204   2
   9  -7   6 19.3563 10.0208   8
  -2   9   6 31.9329 9.07344   8
   9  -7   6 19.0843 10.4508   5
  -7  -2   6 33.7304 9.61049   7
  -2   9   6 31.4658 8.11738   7
  -9   8  -6 50.3196 11.3805   9
   1  -9  -6 64.2876 7.44653   2
  -9   8  -6 70.3942 9.84909   2
   8   1  -6 59.3225 8.11990   2
   9  -8   6 68.0048 12.5086   8
   9  -8   6 78.5909 12.5222   5
  -8  -1   6 73.0727 11.9587   7
  -9   9  -6 17.3277 9.62076   9
   0  -9  -6 18.0145 6.05401   2
  -9   9  -6 44.0425 8.83698   2
   9   0  -6 30.0786 7.23497   2
  -9   0   6 33.9391 10.6279   7
   9  -9   6 -0.1748 9.70228   8
  -9  10  -6 43.8179 9.42035   2
  10  -1  -6 23.7584 7.20605   2
  -1  -9  -6 33.4936 7.41899   2
   9 -10   6 22.6292 10.5322   8
 -10   1   6 33.5622 10.8929   7
  -9  11  -6 20.3675 9.20834   2
  -2  -9  -6 9.60458 7.11918   2
  11  -2  -6 16.7389 7.19647   2
 -11   2   6 10.2019 10.4568   7
  -9  12  -6 34.7878 10.4348   2
  -3  -9  -6 21.4756 8.43293   2
  12  -3  -6 15.2097 7.66840   2
 -12   3   6 32.3576 17.5175   7
  13  -4  -6 3.65685 7.45927   2
  -4  -9  -6 -2.7960 7.92425   2
  -9  13  -6 -7.2272 9.80277   2
  -5  -9  -6 21.3978 9.48050   2
  -9  14  -6 6.23658 11.3841   2
  14  -5  -6 2.29258 8.14793   2
  15  -6  -6 -2.0635 8.38738   2
  -9  15  -6 -12.370 11.2969   2
  -6  -9  -6 11.0526 9.72704   2
  -9  16  -6 20.2724 13.1464   1
  -7  -9  -6 5.51667 10.3401   2
  16  -7  -6 20.9567 10.0507   2
  -9  16  -6 10.8566 13.3332   2
 -10  -6  -6 0.41432 10.1708   2
  -6  16  -6 16.1434 12.7514   1
  16 -10  -6 -16.948 9.03257   2
  -6  16  -6 18.2624 13.1127   2
  -5  15  -6 -8.4687 10.9644   2
  15 -10  -6 -1.0842 9.44539   2
 -10  -5  -6 23.0865 10.2126   2
  -4  14  -6 50.6193 11.9268   2
  14 -10  -6 46.2542 9.99074   2
 -10  -4  -6 65.9084 11.0159   2
 -10  -3  -6 5.35745 8.75599   2
  13 -10  -6 9.35305 7.97278   2
  -3  13  -6 4.26526 9.67321   2
  10   3   6 -3.0950 10.9954   8
  -2  12  -6 11.8050 8.87770   2
 -10  -2  -6 15.5737 8.49292   2
  12 -10  -6 28.3084 8.07434   2
  10   2   6 26.1862 11.9933   8
 -12  10   6 -0.6427 10.5024   7
  11 -10  -6 11.6279 7.32215   2
 -10  -1  -6 20.7555 8.34825   2
  -1  11  -6 14.9422 8.17385   2
  10   1   6 10.8812 10.6609   8
 -11  10   6 -0.2463 9.43993   7
  10 -10  -6 15.2866 6.47129   2
 -10   0  -6 16.5247 9.91048   9
   0  10  -6 2.79298 7.96257   2
 -10   0  -6 12.2566 7.43669   2
  10   0   6 -9.6132 10.7779   8
 -10  10   6 10.3857 9.65867   7
 -10   1  -6 106.701 11.4300   2
   9 -10  -6 121.065 10.0060   2
 -10   1  -6 101.405 13.4889   9
   1   9  -6 115.115 11.8312   2
  10  -1   6 110.115 15.3323   8
  -9  10   6 90.1140 13.0258   7
 -10   2  -6 -2.1844 9.28801   9
 -10   2  -6 25.4392 7.83058   2
   8 -10  -6 17.6480 5.91108   2
  -8  10   6 19.0354 9.19668   7
  10  -2   6 8.88347 10.4696   8
 -10   3  -6 23.2567 10.1489   9
   7 -10  -6 31.0408 5.96965   2
   3   7  -6 30.2001 7.46569   2
 -10   3  -6 27.8367 7.73288   2
  -7  10   6 36.3016 9.95994   7
  10  -3   6 36.7758 11.6517   8
  -7  10   6 34.7083 10.9521   8
 -10   4  -6 30.4408 7.94146   2
   6 -10  -6 32.7009 6.00696   2
 -10   4  -6 41.5500 10.6438   9
   4   6  -6 35.6439 7.41761   2
  10  -4   6 49.5722 12.0496   8
  -6  10   6 24.1836 9.93952   8
  -6  10   6 21.3120 8.42766   7
   5   5  -6 11.7631 6.47379   2
 -10   5  -6 19.8356 7.79606   2
 -10   5  -6 1.52787 9.16949   9
   5 -10  -6 18.5337 5.31896   2
  -5  -5   6 15.4265 12.8906   7
  -5  10   6 14.6160 8.99483   8
  -5  10   6 15.6435 8.20336   7
  10  -5   6 34.4244 11.2547   8
   6   4  -6 49.7557 8.41026   2
 -10   6  -6 79.9201 13.2708   9
   4 -10  -6 71.5339 7.54607   2
 -10   6  -6 59.8607 9.40211   2
  10  -6   6 67.7037 12.8464   8
  -4  10   6 88.0138 11.0022   7
  -6  -4   6 68.2377 12.3564   7
  -4  10   6 67.1530 10.7757   8
 -10   7  -6 -7.2626 8.63954   9
 -10   7  -6 3.01359 6.98098   2
   3 -10  -6 3.09638 5.12629   2
   7   3  -6 0.47675 6.17891   2
  -7  -3   6 11.9643 9.23572   7
  10  -7   6 -5.0402 9.96908   8
  -3  10   6 5.88999 7.77836   7
 -10   8  -6 82.8065 13.6127   9
   2 -10  -6 68.3751 7.68210   2
   8   2  -6 56.3956 8.21931   2
 -10   8  -6 44.5868 9.09453   2
  10  -8   6 77.7072 13.5781   8
  -8  -2   6 70.4543 12.5850   7
  10  -8   6 64.3155 13.0355   5
  -2  10   6 50.3024 9.83595   7
   1 -10  -6 2.04231 6.01384   2
   9   1  -6 0.44650 6.33444   2
 -10   9  -6 -1.2721 8.03302   2
  10  -9   6 3.93768 10.4646   8
  -9  -1   6 -5.3758 8.57482   7
 -10  10  -6 26.2497 9.20197   2
   0 -10  -6 15.7897 6.84647   2
  10   0  -6 11.2211 7.12557   2
 -10   0   6 17.6801 12.5825   7
  10 -10   6 29.9053 11.8286   8
 -10  11  -6 5.16657 8.77509   2
  11  -1  -6 18.7960 7.55491   2
  -1 -10  -6 12.4312 7.00236   2
  10 -11   6 20.6455 10.7052   8
 -10  12  -6 20.9026 10.1092   2
  -2 -10  -6 28.0174 8.54419   2
  12  -2  -6 30.4945 8.32366   2
  13  -3  -6 18.6787 8.29578   2
 -10  13  -6 -1.7776 9.90165   2
  -3 -10  -6 22.5533 8.65276   2
  14  -4  -6 1.59165 8.21867   2
 -10  14  -6 3.31525 10.8810   2
  -4 -10  -6 7.65091 8.99271   2
 -10  15  -6 10.4579 12.0972   2
  -5 -10  -6 10.8336 10.0992   2
  15  -5  -6 8.81546 8.73326   2
  -6 -10  -6 6.97044 10.3450   2
 -10  16  -6 2.57702 12.9843   1
 -10  16  -6 15.2294 13.5356   2
  16  -6  -6 13.1318 9.79754   2
  15 -11  -6 8.84070 9.32777   2
 -11  -4  -6 14.8945 9.70685   2
  -4  15  -6 29.9845 12.2039   2
  -3  14  -6 -5.7471 10.3643   2
 -11  -3  -6 18.1608 9.79896   2
  14 -11  -6 23.3508 9.20332   2
 -11  -2  -6 -6.5742 8.70782   2
  -2  13  -6 -5.7242 9.25859   2
  13 -11  -6 1.19752 8.08066   2
  11   2   6 7.42206 12.4083   8
  12 -11  -6 15.1609 7.95401   2
  -1  12  -6 19.1559 9.14019   2
 -11  -1  -6 19.8241 8.91705   2
  11   1   6 15.8324 12.4831   8
  11 -11  -6 -0.4762 6.74419   2
 -11   0  -6 -2.8057 7.37396   2
   0  11  -6 10.1312 8.62081   2
  11   0   6 7.94179 12.0168   8
 -11  11   6 3.62069 10.6197   7
  10 -11  -6 18.7078 6.85565   2
 -11   1  -6 -4.2098 9.73408   9
   1  10  -6 12.5052 8.43241   2
 -11   1  -6 7.86233 7.88651   2
 -10  11   6 14.0676 10.0762   7
  11  -1   6 -3.8918 11.3095   8
   2   9  -6 14.2147 8.02748   2
 -11   2  -6 35.7196 8.98545   2
 -11   2  -6 16.2838 10.3003   9
   9 -11  -6 25.6971 6.97181   2
  -9  11   6 29.4660 10.8119   7
  11  -2   6 39.4031 12.9117   8
   8 -11  -6 114.795 10.0506   2
 -11   3  -6 131.903 15.4289   9
   3   8  -6 105.813 11.5832   2
 -11   3  -6 115.304 12.1100   2
  -8  11   6 126.331 14.7860   7
  11  -3   6 121.598 16.1264   8
   4   7  -6 7.60361 6.71598   2
 -11   4  -6 23.2947 8.17786   2
   7 -11  -6 7.09642 5.85394   2
 -11   4  -6 -3.6070 9.54979   9
  11  -4   6 17.0945 12.1393   8
  -7  11   6 7.83058 8.58144   7
   5   6  -6 79.5020 9.68025   2
 -11   5  -6 56.6259 9.77903   2
   6 -11  -6 86.9322 8.37549   2
 -11   5  -6 75.0010 12.8644   9
  11  -5   6 100.338 14.9500   8
  -6  11   6 73.7334 12.1509   8
  -6  11   6 71.5181 11.5622   7
   5 -11  -6 13.4612 5.80512   2
 -11   6  -6 11.1324 7.90890   2
   6   5  -6 6.85671 7.00681   2
 -11   6  -6 -8.7347 10.0686   9
  11  -6   6 12.3875 11.3034   8
  -5  11   6 6.83075 8.95736   7
 -11   7  -6 273.133 20.0798   2
 -11   7  -6 298.380 23.5157   9
   4 -11  -6 299.660 17.4320   2
   7   4  -6 299.450 18.7265   2
  11  -7   6 228.669 22.2014   8
  -4  11   6 283.065 21.7901   7
   8   3  -6 18.2149 7.35076   2
   3 -11  -6 5.72649 6.09989   2
 -11   8  -6 16.5999 7.93969   2
  -3  11   6 10.6490 8.94067   7
  11  -8   6 31.0512 12.2773   8
 -11   9  -6 7.23893 8.04969   2
   9   2  -6 4.09555 6.86272   2
   2 -11  -6 9.56870 6.57945   2
  11  -9   6 15.7508 11.1048   8
  10   1  -6 60.9388 9.22341   2
   1 -11  -6 66.7523 8.84888   2
 -11  10  -6 48.3420 10.5951   2
  11 -10   6 69.5937 14.0518   8
  11   0  -6 -6.7374 7.18388   2
 -11  11  -6 -3.5835 8.87028   2
   0 -11  -6 11.5272 7.42966   2
  11 -11   6 10.7195 11.5489   8
 -11  12  -6 11.1166 9.62626   2
  -1 -11  -6 -3.9284 7.45991   2
  12  -1  -6 6.76845 7.78362   2
  13  -2  -6 3.47206 8.03436   2
 -11  13  -6 -10.668 9.38805   2
  -2 -11  -6 2.16890 8.07522   2
  14  -3  -6 3.11893 8.53246   2
 -11  14  -6 23.2350 11.4204   2
  -3 -11  -6 6.65819 9.35161   2
 -11  15  -6 7.72830 11.5339   2
  15  -4  -6 14.9052 9.20390   2
  -4 -11  -6 24.3464 10.2313   2
  -3  15  -6 -8.2950 11.1819   2
  15 -12  -6 0.38744 9.19821   2
 -12  -3  -6 19.0023 10.6235   2
 -12  -2  -6 3.82247 9.96875   2
  14 -12  -6 -12.756 8.51240   2
  -2  14  -6 13.5038 10.8463   2
  12   2   6 0.54109 12.8869   8
 -12  -1  -6 8.86133 8.82937   2
  -1  13  -6 -1.1128 9.43891   2
  13 -12  -6 5.25615 8.25315   2
  12   1   6 16.3515 13.6726   8
 -12   0  -6 10.7324 8.96419   2
   0  12  -6 -1.3658 8.86096   2
  12 -12  -6 -4.2639 7.63211   2
  12   0   6 -8.7209 12.6259   8
 -12   1  -6 16.7714 8.93820   2
  11 -12  -6 17.4460 8.01425   2
   1  11  -6 -4.8386 8.79567   2
  12  -1   6 9.67320 13.6058   8
 -12   2  -6 25.9454 20.8369   9
  10 -12  -6 4.98044 7.07693   2
   2  10  -6 6.60809 8.28841   2
 -12   2  -6 8.75820 8.17115   2
  12  -2   6 20.1527 13.1610   8
 -12   3  -6 24.9195 9.23682   2
   9 -12  -6 37.5528 7.82861   2
 -12   3  -6 20.1165 13.8480   9
  12  -3   6 57.4421 14.2041   8
  -9  12   6 33.3544 11.4393   7
   4   8  -6 5.14823 7.53494   2
   8 -12  -6 8.25325 6.47970   2
 -12   4  -6 17.1895 8.29870   2
  -8  12   6 9.80392 9.47362   7
  12  -4   6 15.2031 13.1085   8
 -12   5  -6 -0.4559 7.41357   2
   5   7  -6 10.1418 7.21897   2
   7 -12  -6 6.15943 6.52354   2
  -7  12   6 -0.5530 9.25778   7
  12  -5   6 -0.6244 12.1478   8
   6   6  -6 56.7604 9.28635   2
   6 -12  -6 50.9661 7.84475   2
 -12   6  -6 45.5433 9.91263   2
  -6  12   6 55.1096 11.5063   7
  12  -6   6 64.2964 14.0388   8
   5 -12  -6 36.8243 7.51809   2
 -12   7  -6 41.3901 9.99565   2
   7   5  -6 38.4909 8.77873   2
  -5  12   6 37.5666 10.9464   7
  12  -7   6 29.2505 13.3255   8
   4 -12  -6 26.8471 7.11094   2
   8   4  -6 12.2871 7.33001   2
 -12   8  -6 18.6334 9.23143   2
  -4  12   6 18.6079 9.84802   7
  12  -8   6 22.3030 12.3447   8
   9   3  -6 -6.3433 6.55640   2
 -12   9  -6 -14.109 7.92242   2
   3 -12  -6 -7.0229 6.27703   2
  -3  12   6 1.05801 9.54337   7
  12  -9   6 8.81604 12.3230   8
   2 -12  -6 41.5394 8.46617   2
  10   2  -6 17.8542 7.57428   2
 -12  10  -6 32.6572 10.1881   2
  12 -10   6 4.41167 11.7399   8
   1 -12  -6 1.37645 7.31659   2
 -12  11  -6 16.7094 10.0425   2
  11   1  -6 15.0411 7.77716   2
  12 -11   6 -5.6018 10.8202   8
   0 -12  -6 5.05243 8.15438   2
  12   0  -6 11.0399 8.24279   2
 -12  12  -6 13.6767 10.3013   2
  12 -12   6 -12.416 11.1269   8
  13  -1  -6 10.9338 8.44305   2
  -1 -12  -6 7.98734 8.20013   2
 -12  13  -6 2.06916 10.6514   2
 -12  14  -6 64.5378 13.5935   2
  14  -2  -6 39.4989 10.0428   2
  -2 -12  -6 59.4997 10.6072   2
 -12  15  -6 -3.0155 13.6656   1
 -12  15  -6 7.34329 12.0092   2
  15  -3  -6 -4.0205 9.00346   2
  -3 -12  -6 -0.6194 9.46551   2
  14 -13  -6 20.7962 9.52878   2
  -1  14  -6 -14.343 10.3617   2
 -13  -1  -6 2.06653 9.91966   2
  13   1   6 -6.8168 13.6186   8
  13 -13  -6 1.30917 8.52893   2
 -13   0  -6 4.57770 9.42195   2
   0  13  -6 -6.9155 9.95774   2
  13   0   6 -7.1431 13.0285   8
   1  12  -6 27.5139 10.7995   2
  12 -13  -6 5.80593 8.37744   2
 -13   1  -6 18.3765 9.02903   2
  13  -1   6 -2.3408 13.4471   8
   2  11  -6 50.0986 11.0242   2
 -13   2  -6 48.6424 10.6087   2
  11 -13  -6 41.9112 8.92296   2
  13  -2   6 39.8015 15.0121   8
 -13   3  -6 15.0616 9.29927   2
   3  10  -6 32.3155 9.62840   2
  10 -13  -6 19.2525 7.86276   2
  13  -3   6 17.8781 13.2244   8
   9 -13  -6 15.4770 7.47821   2
   4   9  -6 27.7129 8.92043   2
 -13   4  -6 23.3056 9.41709   2
  13  -4   6 9.26967 13.1291   8
 -13   5  -6 1.72689 8.48065   2
   5   8  -6 -4.1888 7.58712   2
   8 -13  -6 11.9630 7.17192   2
  13  -5   6 5.07628 12.5326   8
 -13   6  -6 16.2595 9.02641   2
   7 -13  -6 4.99845 6.87850   2
   6   7  -6 -5.7858 7.19353   2
  13  -6   6 -3.4136 12.4773   8
 -13   7  -6 -3.9382 8.63557   2
   7   6  -6 6.35037 7.49932   2
   6 -13  -6 -4.9080 6.83548   2
  13  -7   6 -1.0065 12.3148   8
 -13   8  -6 10.1833 9.66133   2
   5 -13  -6 9.50060 7.65430   2
   8   5  -6 8.81862 7.84750   2
  13  -8   6 -7.7774 11.9446   8
   4 -13  -6 13.2409 7.59357   2
 -13   9  -6 11.0475 9.93179   2
   9   4  -6 7.28972 7.92322   2
  13  -9   6 10.9115 13.1286   8
   3 -13  -6 13.7330 7.77825   2
 -13  10  -6 26.7975 10.5282   2
  10   3  -6 23.9977 8.44879   2
  13 -10   6 17.0531 12.9277   8
 -13  11  -6 -6.9313 9.28337   2
   2 -13  -6 4.16939 8.18837   2
  11   2  -6 -0.4780 7.72565   2
  13 -11   6 -9.8230 12.4074   8
  12   1  -6 6.56981 7.91397   2
 -13  12  -6 2.64843 10.2316   2
   1 -13  -6 12.3017 8.19967   2
  13 -12   6 29.8927 13.2367   8
   0 -13  -6 -8.9275 8.59569   2
 -13  13  -6 18.7567 11.6251   2
  13   0  -6 1.47021 8.41860   2
  14  -1  -6 -8.4883 8.47747   2
  -1 -13  -6 -15.674 8.98303   2
 -13  14  -6 12.4306 12.3258   2
 -14   0  -6 8.15693 10.1955   2
  14 -14  -6 14.5769 9.88416   2
   0  14  -6 10.8964 11.3589   2
  14   0   6 7.83439 15.0658   8
   1  13  -6 7.09138 10.9069   2
 -14   1  -6 -5.1417 9.57193   2
  13 -14  -6 9.65317 9.31476   2
  14  -1   6 31.6486 16.0512   8
 -14   2  -6 21.4524 10.2528   2
  12 -14  -6 20.1863 9.19831   2
   2  12  -6 19.7367 11.0209   2
  14  -2   6 27.4049 15.2087   8
  11 -14  -6 4.13928 8.14357   2
 -14   3  -6 4.09842 9.98369   2
   3  11  -6 12.9997 9.66405   2
  14  -3   6 28.6848 15.2284   8
  10 -14  -6 2.92303 7.82245   2
 -14   4  -6 20.4895 10.0510   2
  14  -4   6 -1.0491 14.1911   8
 -14   5  -6 22.6466 10.2829   2
   9 -14  -6 26.2592 8.20117   2
   5   9  -6 20.5903 9.20544   2
  14  -5   6 23.7651 14.4639   8
 -14   6  -6 -5.3717 8.81659   2
   8 -14  -6 2.05336 7.33627   2
   6   8  -6 1.02501 7.85870   2
  14  -6   6 -23.200 11.5035   8
   7 -14  -6 -0.8780 7.49677   2
 -14   7  -6 2.08348 9.23014   2
   7   7  -6 -9.1499 7.81912   2
  14  -7   6 5.18009 12.7791   8
   6 -14  -6 3.03901 7.64214   2
   8   6  -6 2.66493 8.16537   2
 -14   8  -6 10.6635 9.85873   2
  14  -8   6 -31.048 12.1735   8
   5 -14  -6 21.0816 8.27448   2
 -14   9  -6 5.50967 9.94939   2
   9   5  -6 23.4872 9.19991   2
  14  -9   6 13.8320 14.3291   8
 -14  10  -6 16.5159 10.6564   2
   4 -14  -6 17.4928 8.15006   2
  10   4  -6 0.47697 8.19852   2
  14 -10   6 7.61013 13.2968   8
   3 -14  -6 23.5177 9.23017   2
  11   3  -6 20.0536 9.09052   2
 -14  11  -6 15.4877 11.2058   2
  14 -11   6 2.10735 13.3074   8
  12   2  -6 1.05776 8.16415   2
   2 -14  -6 6.13693 8.74600   2
 -14  12  -6 11.2899 10.7837   2
  14 -12   6 3.29738 12.7286   8
  13   1  -6 16.0674 9.18325   2
   1 -14  -6 10.6673 9.35835   2
 -14  13  -6 5.49563 11.5334   2
  14 -13   6 34.4494 18.9391   8
   0 -14  -6 11.8546 9.64238   2
  14   0  -6 11.3917 9.21101   2
 -14  14  -6 12.7958 12.1056   2
   3  12  -6 -0.8280 10.7946   2
  12 -15  -6 32.1474 9.40322   2
 -15   3  -6 8.09439 10.2776   2
  15  -3   6 12.6255 15.5001   8
   4  11  -6 8.28554 9.92043   2
 -15   4  -6 19.0927 10.5481   2
  11 -15  -6 9.07369 8.12222   2
  15  -4   6 -8.8336 14.5894   8
  10 -15  -6 6.45874 8.21996   2
 -15   5  -6 11.9104 10.5328   2
   5  10  -6 -1.7491 9.20480   2
  15  -5   6 1.48310 14.5942   8
   9 -15  -6 -5.8585 7.77822   2
 -15   6  -6 5.41101 10.4370   2
   6   9  -6 5.83139 9.29600   2
  15  -6   6 2.86970 14.9477   8
 -15   7  -6 6.32137 9.90578   2
   7   8  -6 6.50613 8.64999   2
   8 -15  -6 10.1204 8.22899   2
  15  -7   6 1.76153 14.3638   8
   7 -15  -6 11.0179 8.32493   2
 -15   8  -6 -6.9687 9.56796   2
   8   7  -6 -3.9022 8.63160   2
  15  -8   6 5.99772 13.7448   8
   6 -15  -6 -6.4610 8.04600   2
   9   6  -6 -0.0189 9.04683   2
 -15   9  -6 16.9512 10.8974   2
  15  -9   6 4.83301 13.7377   8
  10   5  -6 12.3968 9.37406   2
   5 -15  -6 17.3629 8.95022   2
 -15  10  -6 28.4988 11.4377   2
  15 -10   6 20.2963 14.1167   8
   4 -15  -6 25.3763 9.30870   2
  11   4  -6 24.0510 9.92603   2
 -15  11  -6 27.8335 12.2426   2
  15 -11   6 26.4633 15.1885   8
   3 -15  -6 12.7810 9.25197   2
  12   3  -6 1.44482 8.95972   2
 -15  12  -6 6.97126 11.4858   2
  15 -12   6 29.3773 15.6737   8
  10 -16  -6 8.88219 9.02060   2
 -16   6  -6 18.9298 11.7708   2
   6  10  -6 0.40973 9.28818   2
  16  -6   6 7.02981 16.4010   8
 -16   7  -6 12.6518 11.2307   2
   9 -16  -6 9.23288 8.77023   2
   7   9  -6 -1.5897 9.14541   2
  16  -7   6 6.50151 15.5558   8
   8   8  -6 20.2162 10.1499   2
   8 -16  -6 -3.1647 8.48036   2
 -16   8  -6 7.56259 11.0672   2
  16  -8   6 5.86516 15.0176   8
   9   7  -6 2.45534 9.21452   2
 -16   9  -6 -4.7523 10.6759   2
   7 -16  -6 -11.086 8.09142   2
  16  -9   6 -19.517 14.1238   8
  10   6  -6 6.75505 10.2024   2
   6 -16  -6 -1.2196 8.82173   2
 -16  10  -6 1.79542 11.3465   2
  16 -10   6 12.2804 15.0161   8
   0   0   7 128.895 13.0368   8
   0   0   7 119.833 13.7427   5
   0   1  -7 234.305 12.3787   2
  -1   0  -7 236.127 12.7184   2
   1   0   7 209.853 18.8244   5
   1   0   7 216.674 16.9104   8
  -1   1   7 211.834 17.1875   8
  -1   1   7 219.563 19.1927   5
   0  -1   7 222.614 17.3037   8
   0  -1   7 219.630 14.5442   7
   0  -1   7 241.024 20.0299   5
  -1   1  -7 41.9528 4.63050   2
   1  -1   7 25.9741 6.14297   7
   0   1   7 18.0045 7.98041   8
  -1   0   7 21.2305 9.34992   5
   1  -1   7 30.4440 8.33439   8
   0   1   7 30.2575 9.77093   5
   1  -1   7 32.5121 9.98749   5
  -1   0   7 21.5985 8.28462   8
  -1   2  -7 206.153 12.5979   2
   1  -2   7 231.213 16.7538   8
   1   1   7 224.340 17.5760   8
   1  -2   7 218.353 15.1580   7
  -2   1   7 238.549 18.8429   5
  -2   1   7 208.256 16.8878   8
   1   1   7 202.730 18.5817   5
   1  -2   7 255.664 19.2507   5
  -1   3  -7 388.512 21.3303   2
   1  -3   7 418.082 24.5306   8
   2   1   7 425.268 25.3837   8
  -3   2   7 447.054 26.9528   5
   1  -3   7 407.844 26.4581   5
   0   2  -7 31.1852 4.93696   2
  -2   0  -7 31.5509 4.14012   2
   2   0   7 34.1623 10.3684   5
   0  -2   7 30.1651 6.70701   7
   0  -2   7 42.5719 9.20925   8
  -2   2   7 31.3904 9.93567   5
  -2   2   7 23.8988 8.56380   8
   2   0   7 42.7718 9.86523   8
   0  -2   7 45.2535 10.4673   5
   1   1  -7 49.6131 4.93905   2
  -2   1  -7 54.3412 5.21733   2
  -1  -1   7 35.5329 9.96417   5
   2  -1   7 48.1897 7.41826   7
   2  -1   7 45.8538 9.80079   8
  -1   2   7 33.6137 9.67288   5
  -1  -1   7 60.2779 7.52346   7
   2  -1   7 51.2851 10.4590   5
  -1  -1   7 38.5844 8.74943   8
  -1   2   7 50.1939 9.53009   8
  -1  -1   7 49.7712 6.99193   7
   2   0  -7 84.7813 6.55445   2
  -2   2  -7 75.8670 6.82237   2
   0   2   7 89.5313 12.4502   5
   2  -2   7 74.2640 9.27140   7
   0   2   7 72.3474 11.0468   8
   2  -2   7 93.9130 12.6186   5
  -2   0   7 92.3608 12.1740   5
  -2   0   7 82.7649 10.9994   8
   2  -2   7 79.4127 11.4297   8
  -2   3  -7 78.6912 7.22335   2
   2  -3   7 66.7070 10.5677   8
   2  -3   7 72.2646 12.0500   5
  -3   1   7 85.1208 11.9572   5
  -3   1   7 73.3565 11.0223   8
   1   2   7 66.4089 10.6941   8
  -2   4  -7 127.518 10.6262   2
   2   2   7 128.940 13.7568   8
   2  -4   7 129.573 14.2641   5
   2  -4   7 151.144 13.8312   8
  -4   2   7 153.151 14.8681   5
  -4   2   7 128.327 13.3990   8
  -3  -2  -7 153.736 10.4301   9
  -3  -2  -7 152.301 9.72423   2
  -2   5  -7 167.910 11.9954   2
  -5   3   7 141.321 14.2326   8
  -5   3   7 151.808 15.2722   5
   3   2   7 148.894 14.5628   8
   3   2   7 127.827 11.8121   7
   2  -5   7 153.362 14.1319   8
   2  -5   7 140.995 15.6754   5
  -3  -1  -7 31.9340 4.78397   2
  -1   4  -7 30.6483 5.88305   2
  -3  -1  -7 29.0516 5.49204   9
   3   1   7 24.8993 5.88974   7
   1  -4   7 19.3074 8.21305   8
   1  -4   7 36.2173 10.4000   5
   1  -4   7 19.8345 7.80651   7
  -4   3   7 18.4853 8.93975   8
   3   1   7 27.6718 9.29278   8
  -4   3   7 37.8858 9.94245   5
   0   3  -7 87.6231 7.52097   2
  -3   0  -7 93.1686 7.56017   9
  -3   0  -7 81.7992 7.30719   2
   3   0   7 97.8639 12.0054   8
   0  -3   7 101.908 11.5352   8
   3   0   7 78.0144 8.83961   7
  -3   3   7 88.9258 11.4897   8
  -3   3   7 112.522 12.9177   5
   0  -3   7 88.0218 10.1183   7
   0  -3   7 77.9842 12.1789   5
  -3   1  -7 219.437 12.7566   2
   1   2  -7 212.591 13.0176   2
  -2   3   7 239.727 19.8282   5
  -1  -2   7 238.058 17.7730   8
   3  -1   7 224.971 17.7210   8
   3  -1   7 239.000 20.2396   5
  -2   3   7 237.914 17.7454   8
  -1  -2   7 210.615 15.8469   7
  -1  -2   7 244.003 19.5060   5
   3  -1   7 222.645 15.9354   7
   2   1  -7 280.975 15.3574   2
  -3   2  -7 282.318 15.8431   2
  -2  -1   7 293.415 21.5183   5
  -1   3   7 279.280 21.9032   5
  -2  -1   7 287.393 17.5141   7
  -2  -1   7 299.322 19.9466   8
   3  -2   7 314.108 21.8348   5
   3  -2   7 302.748 20.1165   8
  -2  -1   7 288.367 18.1679   7
  -1   3   7 285.733 20.1744   8
   3   0  -7 13.6487 3.97955   2
  -3   3  -7 25.5203 5.23965   2
   0   3   7 14.0917 8.40448   8
  -3   0   7 13.2355 9.20680   5
  -3   0   7 17.3968 6.21424   7
  -3   0   7 13.6525 8.15957   8
   3  -3   7 11.5361 8.69280   8
   3  -3   7 12.9712 9.52713   5
   4  -1  -7 10.0659 3.78312   2
  -3   4  -7 12.7065 5.14051   2
   3  -4   7 2.77331 7.69016   8
  -4   1   7 14.5630 5.90284   7
   3  -4   7 17.0251 9.92980   5
   1   3   7 11.9762 8.00018   8
  -4   1   7 2.25356 8.73377   5
  -4   1   7 7.42645 7.80376   8
   5  -2  -7 39.9586 5.02886   2
  -3   5  -7 49.9197 7.18232   2
  -5   2   7 49.0446 10.3924   8
   3  -5   7 65.6786 11.6905   5
   2   3   7 56.3292 10.4737   8
  -5   2   7 56.7563 7.49391   7
   3  -5   7 47.2580 9.73497   8
   6  -3  -7 10.2765 4.03901   2
  -3  -3  -7 8.64918 4.28020   2
  -3   6  -7 -11.033 5.35143   2
  -3  -3  -7 17.4609 4.91375   9
  -6   3   7 10.6111 6.18290   7
   3  -6   7 11.1636 10.2503   5
   3   3   7 4.81617 8.58190   8
   3  -6   7 0.55025 7.34424   8
  -6   3   7 20.5195 9.33763   8
   7  -4  -7 93.1199 8.30471   2
  -4  -3  -7 103.486 8.44216   2
  -3   7  -7 98.3905 10.2602   2
  -4  -3  -7 94.6866 9.16990   9
   4   3   7 105.974 12.5917   8
   3  -7   7 97.6295 15.0064   5
   3  -7   7 99.7941 13.1482   7
   3  -7   7 110.199 12.4177   8
  -7   4   7 85.2397 12.2985   8
  -7   4   7 103.846 10.8599   7
  -4  -2  -7 9.24565 4.50248   2
  -2   6  -7 -2.7118 5.51897   2
  -4  -2  -7 7.49857 5.56177   9
   2  -6   7 -5.1975 7.33261   7
  -6   4   7 -7.5635 8.38996   8
   2  -6   7 13.0538 10.1995   5
   2  -6   7 11.7332 7.49802   8
   4   2   7 11.2331 8.55001   8
  -6   4   7 -1.5513 6.04612   7
  -4  -1  -7 105.343 8.95325   2
  -4  -1  -7 103.645 8.93013   9
  -1   5  -7 98.9498 8.99631   2
  -5   4   7 102.050 12.7837   5
   4   1   7 95.9499 12.1731   8
   1  -5   7 66.6767 12.9006   5
  -5   4   7 110.170 12.8792   8
   1  -5   7 121.614 12.5058   8
   1  -5   7 89.9556 11.6662   7
  -4   0  -7 380.757 20.4806   9
   0   4  -7 357.494 20.0118   2
  -4   0  -7 367.825 19.3208   2
  -4   4   7 364.431 23.8187   8
   0  -4   7 375.990 25.3384   5
   4   0   7 393.140 23.8380   8
   0  -4   7 402.231 23.5226   7
  -4   4   7 357.330 24.5930   5
   0  -4   7 343.743 22.6451   8
   1   3  -7 111.072 9.89506   2
  -4   1  -7 102.935 9.39122   2
  -4   1  -7 124.483 10.7641   9
  -3   4   7 118.457 13.2866   5
  -1  -3   7 127.383 12.8845   8
  -1  -3   7 130.310 13.1888   7
  -1  -3   7 108.747 13.6441   5
  -3   4   7 98.4773 12.3038   8
   4  -1   7 124.502 13.1337   8
  -4   2  -7 6.96354 5.46866   9
   2   2  -7 6.43630 4.42718   2
  -4   2  -7 11.7530 4.51850   2
  -2   4   7 11.3420 8.44711   8
  -2  -2   7 9.85948 6.66723   7
  -2  -2   7 24.2524 9.65675   5
  -2   4   7 1.07540 9.01469   5
   4  -2   7 -0.3884 9.40466   5
  -2  -2   7 16.6487 8.12537   8
   4  -2   7 25.6468 8.74629   8
   3   1  -7 31.6313 5.13795   2
  -4   3  -7 27.7919 6.94029   9
  -4   3  -7 29.6457 5.71708   2
   4  -3   7 45.0005 9.41485   8
   4  -3   7 28.5672 10.0698   5
  -1   4   7 35.1040 10.7124   5
  -3  -1   7 44.2081 9.31539   8
  -1   4   7 29.0035 9.55518   8
  -3  -1   7 27.1823 7.36944   7
  -4   4  -7 286.804 17.1486   2
   4   0  -7 289.505 15.8591   2
   4  -4   7 304.316 23.2886   5
  -4   0   7 298.318 18.7427   7
   4  -4   7 297.428 20.2315   8
  -4   0   7 286.135 20.7021   8
   0   4   7 305.584 20.7031   8
  -4   5  -7 40.8635 7.18674   2
   5  -1  -7 33.4661 5.33277   2
  -5   1   7 54.5006 8.02456   7
   1   4   7 52.5308 10.0713   8
   4  -5   7 47.4640 9.63556   8
  -5   1   7 36.3173 9.90661   8
   4  -5   7 56.1135 11.7884   5
  -2  -4  -7 162.777 10.7778   9
  -4   6  -7 157.432 13.6588   2
   6  -2  -7 169.414 10.9444   2
  -6   2   7 168.781 16.0659   8
   2   4   7 156.134 12.8036   7
  -6   2   7 174.400 14.0835   7
   2   4   7 173.363 15.6108   8
   4  -6   7 180.477 15.5069   8
   4  -6   7 174.394 17.0736   5
  -3  -4  -7 43.5551 6.73103   9
   7  -3  -7 41.2799 5.82580   2
  -4   7  -7 45.0524 7.97657   2
  -3  -4  -7 37.8203 5.63203   2
   4  -7   7 57.9948 10.5275   8
  -7   3   7 50.5641 10.9410   8
   3   4   7 55.7676 10.8240   8
  -7   3   7 36.4761 8.43309   7
   4  -7   7 45.4471 12.4521   5
  -4  -4  -7 31.8790 7.27323   9
  -4  -4  -7 29.7104 6.05146   2
  -4   8  -7 37.3262 8.15706   2
   8  -4  -7 35.2590 5.86946   2
  -8   4   7 25.9882 10.7623   8
   4  -8   7 29.6981 11.9977   5
   4  -8   7 16.9124 8.92200   8
  -8   4   7 29.1151 8.89464   7
   4  -8   7 36.4331 10.8393   7
   4   4   7 30.0219 9.86902   8
  -4   9  -7 124.272 12.9004   2
   9  -5  -7 167.574 11.5942   2
  -5  -4  -7 143.335 12.2772   2
   5   4   7 138.564 14.8283   8
  -9   5   7 153.500 14.7740   7
  -3   8  -7 26.8267 7.40907   2
  -5  -3  -7 8.16093 5.92617   2
   8  -5  -7 19.6359 5.09328   2
  -5  -3  -7 23.1842 7.25201   9
   3  -8   7 11.7523 10.0288   7
  -8   5   7 21.8217 10.7406   8
   5   3   7 7.47942 9.03162   8
  -8   5   7 14.3685 8.17581   7
  -2   7  -7 22.0320 6.93222   2
  -5  -2  -7 23.6142 5.64157   2
  -5  -2  -7 11.4913 6.18146   9
   5   2   7 6.86485 9.45483   8
   2  -7   7 11.2391 8.26348   8
  -7   5   7 25.5942 7.57053   7
   2  -7   7 26.2151 9.28217   7
  -7   5   7 32.9919 10.7547   8
  -5  -1  -7 56.7154 8.21035   9
  -5  -1  -7 55.1022 6.83454   2
  -1   6  -7 54.6194 7.88853   2
  -6   5   7 57.8207 11.0121   8
   1  -6   7 68.6656 10.3629   8
  -6   5   7 39.5608 10.4480   5
   1  -6   7 76.5133 11.8767   7
   5   1   7 56.4473 11.0198   8
   0   5  -7 120.473 9.79107   2
  -5   0  -7 118.930 9.17470   2
  -5   0  -7 104.891 9.92764   9
  -5   5   7 106.736 13.4910   8
   0  -5   7 108.379 12.7788   7
   0  -5   7 123.181 12.6877   8
   5   0   7 108.489 13.2941   8
  -5   5   7 125.552 13.1788   5
  -5   1  -7 78.2917 7.34612   2
  -5   1  -7 67.8169 8.84493   9
   1   4  -7 62.5132 7.69006   2
   5  -1   7 80.4112 11.7796   8
  -1  -4   7 75.4815 10.5676   7
  -4   5   7 62.6135 11.2285   8
  -4   5   7 65.6489 11.2941   5
  -1  -4   7 88.4186 10.8050   8
   2   3  -7 287.643 16.2184   2
  -5   2  -7 281.614 18.0065   9
  -5   2  -7 293.044 16.4621   2
  -3   5   7 270.280 20.9836   8
  -3   5   7 283.343 21.3175   5
  -2  -3   7 275.894 19.5770   7
   5  -2   7 287.164 20.5092   8
  -2  -3   7 277.958 19.3248   8
  -5   3  -7 50.3885 8.16995   9
  -5   3  -7 42.7043 6.25932   2
   3   2  -7 50.2144 6.39127   2
  -3  -2   7 46.5101 9.46191   8
   5  -3   7 20.9882 9.47220   8
  -2   5   7 31.3739 10.6788   5
  -3  -2   7 54.4272 9.30830   7
  -2   5   7 42.4070 9.63224   8
   5  -3   7 39.7828 11.5917   5
  -5   4  -7 -2.6980 5.24480   2
   4   1  -7 9.32910 4.91203   2
  -5   4  -7 12.7711 6.84852   9
  -1   5   7 -1.9192 8.49985   8
   5  -4   7 -4.2320 9.41851   5
  -4  -1   7 3.52469 7.64317   8
  -4  -1   7 6.21781 6.88228   7
   5  -4   7 -7.7164 7.80105   8
  -5   5  -7 76.5788 9.90614   9
  -5   5  -7 71.9301 8.20365   2
   5   0  -7 74.8141 7.00447   2
   5  -5   7 47.1053 12.6388   5
  -5   0   7 82.5391 11.4262   8
   0   5   7 50.0232 10.8315   8
  -5   0   7 62.0533 9.35828   7
   5  -5   7 82.1936 11.8242   8
  -5   6  -7 2.34839 6.25251   2
   6  -1  -7 6.40817 4.66629   2
  -5   6  -7 1.06312 7.62340   9
  -6   1   7 15.9524 7.27200   7
   5  -6   7 11.3490 10.3447   5
  -6   1   7 11.3828 8.89500   8
   5  -6   7 3.70743 8.31385   8
   1   5   7 -1.8621 8.29639   8
   7  -2  -7 8.02825 5.28853   2
  -5   7  -7 21.8549 7.27408   2
  -2  -5  -7 22.3037 5.53793   9
  -2  -5  -7 15.0381 6.05505   2
  -5   7  -7 15.8157 8.74184   9
  -7   2   7 21.5754 7.95893   7
  -7   2   7 17.6246 9.26934   8
   5  -7   7 11.0598 8.69082   8
   5  -7   7 38.1255 11.6956   5
   2   5   7 22.7849 8.99827   8
  -5   8  -7 181.337 17.2033   9
  -3  -5  -7 202.936 12.8966   2
  -5   8  -7 181.233 15.8804   2
   8  -3  -7 184.833 12.6937   2
   5  -8   7 189.043 16.2226   8
  -8   3   7 166.182 17.1598   8
   5  -8   7 200.508 19.1657   5
   3   5   7 208.499 17.3641   8
  -8   3   7 188.486 17.1451   7
   9  -4  -7 34.6905 6.44120   2
  -5   9  -7 27.9865 10.0975   9
  -5   9  -7 21.3329 8.57437   2
  -4  -5  -7 31.0220 6.71059   2
  -9   4   7 28.8510 9.39638   7
   5  -9   7 29.8475 12.2334   5
   4   5   7 25.1260 9.88259   8
  -5  10  -7 33.2963 12.2322   9
  10  -5  -7 30.4629 6.93659   2
  -5  10  -7 20.2765 8.79897   2
  -5  -5  -7 21.6221 7.28219   2
   5   5   7 24.7016 10.1474   8
 -10   5   7 22.3657 9.98757   7
  11  -6  -7 64.5995 8.71791   2
  -6  -5  -7 76.2164 9.90249   2
  -5  11  -7 76.8257 11.5680   2
   6   5   7 71.4246 12.6636   8
 -11   6   7 81.1923 20.5978   7
  10  -6  -7 17.4231 6.31848   2
  -6  -4  -7 13.3348 7.17037   2
  -4  10  -7 19.4864 8.77325   2
   6   4   7 28.5055 10.5689   8
 -10   6   7 14.8223 9.51662   7
  -6  -3  -7 34.7391 8.55920   9
  -6  -3  -7 41.3013 7.43483   2
  -3   9  -7 26.5946 8.12307   2
   9  -6  -7 19.4363 5.88773   2
  -9   6   7 29.2071 9.26777   7
   6   3   7 35.3033 11.1147   8
  -6  -2  -7 16.9442 7.48038   9
   8  -6  -7 17.2604 6.56035   2
  -2   8  -7 34.5009 7.87761   2
  -6  -2  -7 27.7915 6.59690   2
  -8   6   7 22.2416 10.8739   8
   6   2   7 31.1967 10.3617   8
  -8   6   7 35.1108 8.76030   7
   2  -8   7 17.6423 9.27158   7
  -6  -1  -7 77.4392 8.42961   2
  -1   7  -7 90.5396 9.63023   2
  -6  -1  -7 93.9029 10.1729   9
   1  -7   7 81.8209 12.7556   7
  -7   6   7 85.8390 12.6227   8
   6   1   7 57.9480 12.4554   8
  -7   6   7 85.2514 10.0608   7
   1  -7   7 84.5762 16.9571   8
   0   6  -7 42.5810 7.43881   2
  -6   0  -7 38.6861 7.95877   9
  -6   0  -7 37.6646 6.85931   2
   6   0   7 60.1244 11.2692   8
   0  -6   7 53.3685 9.56857   8
  -6   6   7 33.2067 10.3715   8
   0  -6   7 39.0629 10.2521   7
  -6   1  -7 95.7394 9.85776   9
   1   5  -7 91.8506 9.04966   2
  -6   1  -7 86.7038 8.35503   2
  -1  -5   7 67.6979 10.8750   8
  -1  -5   7 81.4752 11.6454   7
   6  -1   7 95.5696 12.5462   8
  -5   6   7 87.9531 11.6649   5
  -5   6   7 90.5768 12.5421   8
  -6   2  -7 10.1089 7.10570   9
   2   4  -7 7.42196 5.39128   2
  -6   2  -7 4.36881 5.10468   2
  -2  -4   7 2.67755 7.30424   8
  -4   6   7 6.05038 8.52534   8
   6  -2   7 16.8483 9.42822   8
  -2  -4   7 8.01957 7.92578   7
  -4   6   7 16.2449 8.73365   5
  -6   3  -7 -3.1407 6.67012   9
   3   3  -7 5.09773 5.43717   2
  -6   3  -7 -0.6137 5.14181   2
  -3  -3   7 9.59716 8.02963   8
   6  -3   7 -3.0136 8.43329   8
  -3   6   7 5.38925 8.92112   8
  -3   6   7 8.81493 9.04168   5
  -3  -3   7 3.59710 7.56195   7
  -6   4  -7 111.827 12.1576   9
  -6   4  -7 108.752 9.65140   2
   4   2  -7 100.257 9.04983   2
  -2   6   7 118.271 13.2953   8
   6  -4   7 109.489 13.3272   8
  -4  -2   7 100.300 12.4478   8
   6  -4   7 138.114 15.5511   5
  -2   6   7 126.206 14.2981   5
  -4  -2   7 121.254 12.7187   7
   5   1  -7 76.5617 7.81173   2
  -6   5  -7 62.8024 8.28935   2
  -6   5  -7 69.0999 10.4875   9
  -1   6   7 64.3122 11.2487   8
  -5  -1   7 60.8692 10.8015   8
   6  -5   7 53.8775 10.8565   8
  -5  -1   7 75.5959 10.5339   7
   6  -5   7 53.5862 13.0918   5
  -6   6  -7 128.483 11.4008   2
   6   0  -7 133.532 10.9564   2
  -6   6  -7 137.087 13.8529   9
   0   6   7 139.670 14.2802   8
   6  -6   7 128.395 14.3462   8
   6  -6   7 159.919 16.6717   5
  -6   0   7 137.428 13.4314   7
  -6   0   7 123.181 14.2930   8
   7  -1  -7 150.881 10.8594   2
  -6   7  -7 111.067 11.3974   2
  -6   7  -7 112.553 13.2349   9
   6  -7   7 121.167 15.8964   5
   6  -7   7 126.365 14.3915   8
  -7   1   7 116.828 14.2522   8
  -7   1   7 124.515 13.1267   7
   1   6   7 144.479 14.6688   8
  -6   8  -7 27.5832 8.26749   2
  -2  -6  -7 5.55754 5.11818   2
   8  -2  -7 17.8108 5.73478   2
  -6   8  -7 23.8541 10.3390   9
   2   6   7 18.7278 9.18569   8
  -8   2   7 34.9285 11.2470   8
   6  -8   7 10.2285 9.27557   8
  -8   2   7 7.69198 8.21847   7
   6  -8   7 -5.5942 10.7478   5
   9  -3  -7 14.8148 6.12991   2
  -6   9  -7 1.91061 9.09040   9
  -3  -6  -7 0.37309 5.89599   2
  -6   9  -7 0.28731 7.86439   2
  -9   3   7 8.04982 9.08054   7
   6  -9   7 13.4859 9.31966   8
   3   6   7 6.26774 9.50581   8
   6  -9   7 2.79071 11.1067   5
  -6  10  -7 33.0761 9.74485   2
  10  -4  -7 35.4203 7.22113   2
  -6  10  -7 46.1548 11.2369   9
  -4  -6  -7 28.5167 7.44212   2
   4   6   7 36.9247 11.1579   8
 -10   4   7 48.5423 11.4099   7
  11  -5  -7 28.6306 7.38043   2
  -6  11  -7 39.0746 10.4022   2
  -5  -6  -7 30.3274 8.18185   2
 -11   5   7 32.4137 11.5388   7
  -6  -6  -7 1.78246 8.05425   2
  12  -6  -7 22.0990 7.72608   2
  -6  12  -7 6.00145 9.67387   2
  -6  13  -7 3.91128 10.3172   2
  13  -7  -7 20.6970 8.37371   2
  -7  -6  -7 19.7809 8.98966   2
  -7  -5  -7 21.4139 8.69692   2
  12  -7  -7 17.2361 7.51381   2
  -5  12  -7 14.4830 9.84140   2
  -7  -4  -7 88.5050 10.4623   2
  -4  11  -7 91.2503 12.0022   2
  11  -7  -7 81.9647 9.25264   2
   7   4   7 66.3140 13.2132   8
  -7  -3  -7 90.0677 10.3378   2
  -3  10  -7 87.8106 11.2495   2
  10  -7  -7 93.9035 9.12080   2
 -10   7   7 107.127 13.2194   7
   7   3   7 84.1134 14.1427   8
  -7  -2  -7 31.0925 7.39393   2
  -7  -2  -7 33.3887 9.16107   9
  -2   9  -7 26.3283 8.42688   2
   9  -7  -7 23.4834 5.93862   2
  -9   7   7 15.6383 8.63269   7
   7   2   7 41.8520 11.2956   8
  -7  -1  -7 26.4027 6.86810   2
  -1   8  -7 42.0408 8.26038   2
  -7  -1  -7 29.4297 8.43523   9
   1  -8   7 37.8363 11.5123   7
  -8   7   7 25.7120 8.55196   7
  -8   7   7 32.9311 11.0810   8
   7   1   7 31.8217 10.9556   8
  -7   0  -7 37.0218 7.16820   2
   0   7  -7 39.1311 7.78498   2
  -7   0  -7 27.6869 8.53439   9
   0  -7   7 41.2760 10.8719   7
  -7   7   7 31.1113 10.4179   8
   7   0   7 43.3256 10.7602   8
   1   6  -7 36.9158 7.53822   2
  -7   1  -7 28.9253 8.46864   9
  -7   1  -7 26.2327 6.67565   2
   7  -1   7 54.0715 11.3092   8
  -1  -6   7 34.4308 9.97516   8
  -1  -6   7 33.2745 10.4112   7
  -6   7   7 45.9366 11.1507   8
  -7   2  -7 7.35026 5.83494   2
   2   5  -7 8.55061 5.98108   2
  -7   2  -7 6.79478 7.44709   9
   7  -2   7 3.82868 8.95502   8
  -5   7   7 -10.459 8.49952   8
  -2  -5   7 2.50231 7.54090   8
  -2  -5   7 10.6907 8.66314   7
   3   4  -7 93.4449 8.68585   2
  -7   3  -7 66.0954 10.2061   9
  -7   3  -7 64.8811 8.47859   2
  -4   7   7 56.2388 10.9423   8
  -4   7   7 75.0664 12.0180   5
  -3  -4   7 76.5776 11.5987   7
   7  -3   7 50.3170 11.6671   8
  -3  -4   7 78.5493 10.8223   8
  -7   4  -7 36.7443 9.29200   9
  -7   4  -7 26.6834 6.75564   2
   4   3  -7 19.8931 6.21360   2
  -4  -3   7 28.8904 9.10265   8
  -3   7   7 42.4452 10.1722   8
  -4  -3   7 27.9049 9.38207   7
   7  -4   7 43.1056 10.5194   8
  -3   7   7 49.6512 11.1583   5
   5   2  -7 -0.3568 5.69372   2
  -7   5  -7 -2.2958 5.99530   2
  -7   5  -7 -4.4302 8.16020   9
   7  -5   7 3.20513 10.6420   5
   7  -5   7 -4.1819 8.92461   8
  -5  -2   7 4.80017 8.19182   7
  -2   7   7 5.02350 9.02454   8
  -5  -2   7 5.68762 8.62569   8
   6   1  -7 182.587 13.0969   2
  -7   6  -7 175.655 15.9835   9
  -7   6  -7 166.819 14.5473   2
  -6  -1   7 202.617 17.3671   7
   7  -6   7 166.456 16.3581   8
  -1   7   7 173.230 16.3646   8
   7  -6   7 190.467 18.6172   5
  -6  -1   7 192.916 16.4899   8
  -7   7  -7 30.7830 7.79714   2
  -7   7  -7 15.1077 9.34628   9
   7   0  -7 25.3169 6.26123   2
   0   7   7 28.0347 10.2520   8
   7  -7   7 33.5624 11.7082   5
  -7   0   7 34.4050 10.2451   8
  -7   0   7 22.6974 9.42095   7
   7  -7   7 43.9502 10.7025   8
  -7   8  -7 47.2072 11.9442   9
  -7   8  -7 40.3164 8.97284   2
   8  -1  -7 48.1914 7.27519   2
   7  -8   7 43.2305 11.5148   8
  -8   1   7 43.0666 11.3476   8
   7  -8   7 60.7915 13.1095   5
  -8   1   7 55.7549 10.7838   7
   1   7   7 60.5457 11.0499   8
  -7   9  -7 39.4816 9.36320   2
  -2  -7  -7 18.3860 6.45795   2
  -7   9  -7 32.2667 10.5323   9
   9  -2  -7 6.60711 6.67217   2
   7  -9   7 14.7302 11.3879   5
   7  -9   7 25.6849 10.4989   8
  -9   2   7 16.3805 9.48002   7
   2   7   7 8.05840 9.87561   8
  -7  10  -7 42.3222 10.2661   2
  10  -3  -7 52.7865 8.10081   2
  -7  10  -7 30.1179 11.1163   9
  -3  -7  -7 59.7270 8.48840   2
 -10   3   7 51.1752 12.0741   7
   7 -10   7 52.5985 14.1243   5
  11  -4  -7 25.8697 7.49439   2
  -4  -7  -7 8.95970 7.42051   2
  -7  11  -7 -0.7339 9.25459   2
 -11   4   7 7.31054 10.3317   7
  12  -5  -7 1.09273 6.91423   2
  -7  12  -7 13.7015 10.1490   2
  -5  -7  -7 6.50025 8.21521   2
  13  -6  -7 16.9039 8.29724   2
  -6  -7  -7 5.39620 8.70516   2
  -7  13  -7 14.6665 10.8379   2
  14  -7  -7 -8.1328 7.91624   2
  -7  14  -7 26.6357 11.9247   2
  -7  -7  -7 6.48848 9.36915   2
  -6  14  -7 3.68611 11.0243   2
  -8  -6  -7 21.0229 9.88964   2
  14  -8  -7 20.7029 8.95496   2
  -8  -5  -7 3.81293 8.58089   2
  13  -8  -7 -3.7672 7.48150   2
  -5  13  -7 19.9443 10.5274   2
  -8  -4  -7 27.7588 8.75353   2
  12  -8  -7 26.9228 8.02271   2
  -4  12  -7 26.6932 10.0686   2
   8   4   7 25.2501 12.0072   8
  -8  -3  -7 9.22502 8.09482   2
  11  -8  -7 -7.1661 6.43815   2
  -3  11  -7 17.0543 8.95072   2
   8   3   7 10.9387 10.9278   8
  -8  -2  -7 -0.7853 8.88856   9
  -8  -2  -7 6.45750 7.12089   2
  -2  10  -7 11.3321 8.14057   2
  10  -8  -7 11.7230 6.07982   2
 -10   8   7 10.1617 10.6148   7
   8   2   7 6.33612 10.8023   8
   9  -8  -7 3.20377 6.93938   2
  -1   9  -7 19.5849 8.06728   2
  -8  -1  -7 12.3764 7.05255   2
  -8  -1  -7 19.6189 9.35333   9
   8   1   7 18.4092 10.9438   8
  -9   8   7 20.8299 9.36874   7
   0   8  -7 40.0525 8.61121   2
  -8   0  -7 50.0523 8.39231   2
  -8   0  -7 42.0015 10.0698   9
  -8   8   7 63.7284 12.6688   8
   8   0   7 69.5417 12.7947   8
  -8   8   7 71.2919 11.0361   7
   1   7  -7 -11.582 6.55297   2
  -8   1  -7 6.71441 6.83322   2
  -8   1  -7 10.8227 8.24392   9
  -7   8   7 7.92875 10.3027   8
  -7   8   7 16.0549 8.30600   7
  -1  -7   7 3.36176 9.65860   7
   8  -1   7 12.3282 10.2643   8
  -8   2  -7 69.1180 8.72868   2
   2   6  -7 44.0508 8.03872   2
  -8   2  -7 53.0783 10.2420   9
  -6   8   7 74.6335 12.0519   8
   8  -2   7 49.4720 11.4634   8
  -2  -6   7 48.9035 10.9692   7
  -8   3  -7 22.5809 8.93973   9
   3   5  -7 41.3315 7.43492   2
  -8   3  -7 29.4811 7.12937   2
   8  -3   7 5.79637 10.2339   8
  -3  -5   7 19.6638 9.84212   7
  -3  -5   7 14.9417 8.73359   8
  -5   8   7 20.9674 10.2267   8
  -8   4  -7 -8.4866 7.98044   9
  -8   4  -7 -2.0577 6.56896   2
   4   4  -7 9.88326 6.19127   2
  -4   8   7 13.5068 9.26823   8
   8  -4   7 -0.5807 9.21477   8
  -4  -4   7 -2.9551 8.53593   7
  -4  -4   7 -4.5882 7.85382   8
   5   3  -7 56.3450 8.17296   2
  -8   5  -7 70.6369 11.1473   9
  -8   5  -7 51.2088 8.36263   2
  -5  -3   7 73.1758 11.1348   8
  -5  -3   7 72.4885 12.2873   7
  -3   8   7 81.9896 12.2117   8
   8  -5   7 43.1019 11.4029   8
  -8   6  -7 10.4180 9.52714   9
   6   2  -7 25.2794 6.96944   2
  -8   6  -7 17.0054 7.33185   2
   8  -6   7 22.9168 10.3738   8
  -6  -2   7 25.5945 10.0127   8
  -6  -2   7 34.6065 9.88880   7
  -2   8   7 45.0816 10.7318   8
   8  -6   7 12.4578 12.0509   5
  -8   7  -7 68.2428 9.93095   2
   7   1  -7 65.3764 8.39086   2
  -8   7  -7 76.4380 12.4709   9
  -7  -1   7 74.8065 12.0619   7
  -1   8   7 62.8173 11.5816   8
   8  -7   7 71.6377 12.6671   8
  -7  -1   7 49.1693 11.4540   8
   8  -7   7 69.5476 13.8460   5
  -8   8  -7 87.6320 13.7032   9
   8   0  -7 84.2297 9.24192   2
  -8   8  -7 77.8586 10.5146   2
   8  -8   7 75.8865 13.1900   8
  -8   0   7 90.0020 12.9145   7
   8  -8   7 73.2069 14.2565   5
   0   8   7 96.8356 13.0070   8
  -1  -8  -7 65.4641 7.81748   2
  -8   9  -7 62.6243 10.2455   2
   9  -1  -7 54.7767 8.44807   2
  -8   9  -7 60.9620 12.2475   9
   8  -9   7 43.9403 11.8100   8
  -9   1   7 56.2616 11.6563   7
   8  -9   7 98.5858 14.6372   5
  -2  -8  -7 25.8528 7.19995   2
  -8  10  -7 13.5497 9.13627   2
  10  -2  -7 21.2504 7.48713   2
  -8  10  -7 41.3300 20.2340   9
   8 -10   7 14.0894 10.7381   8
 -10   2   7 13.8013 9.97714   7
  -3  -8  -7 1.58026 7.53882   2
  11  -3  -7 14.9304 7.43549   2
  -8  11  -7 2.61951 9.56917   2
 -11   3   7 13.5520 10.6641   7
  -4  -8  -7 17.1031 8.40533   2
  12  -4  -7 20.1286 8.02967   2
  -8  12  -7 19.6573 10.7598   2
  -8  13  -7 8.34393 10.6648   2
  13  -5  -7 19.7208 8.53293   2
  -5  -8  -7 4.33821 8.82519   2
  -8  14  -7 29.0225 12.1711   2
  -6  -8  -7 31.5081 9.92467   2
  14  -6  -7 22.8539 9.09999   2
  -5  14  -7 15.8501 11.2345   2
  14  -9  -7 4.00336 8.17492   2
  -9  -5  -7 -6.8760 9.10037   2
  13  -9  -7 28.4764 8.76773   2
  -4  13  -7 17.2872 10.7399   2
  -9  -4  -7 34.9796 9.54943   2
  -9  -3  -7 3.51551 8.34595   2
  -3  12  -7 10.4498 9.92480   2
  12  -9  -7 17.4719 7.87068   2
   9   3   7 14.3028 12.0721   8
  11  -9  -7 33.6033 7.84668   2
  -9  -2  -7 29.5648 8.61947   2
  -2  11  -7 27.9735 9.45309   2
   9   2   7 56.4755 13.5383   8
  10  -9  -7 1.94298 6.11287   2
  -9  -1  -7 3.08132 7.57278   2
  -1  10  -7 3.21550 7.96735   2
  -9  -1  -7 -4.3521 9.64046   9
   9   1   7 0.79619 10.9571   8
   0   9  -7 8.07757 7.94082   2
  -9   0  -7 22.7291 10.2677   9
  -9   0  -7 4.27139 7.30641   2
  -9   9   7 15.7498 9.62523   7
   9   0   7 22.9690 11.7425   8
   1   8  -7 98.9737 11.4075   2
  -9   1  -7 84.1435 12.8232   9
  -9   1  -7 101.725 10.9019   2
  -8   9   7 86.6512 13.5647   8
  -8   9   7 103.916 12.7711   7
   9  -1   7 91.8289 14.7524   8
  -9   2  -7 24.3793 10.1339   9
  -9   2  -7 23.4480 7.99314   2
   2   7  -7 30.4356 8.16938   2
   9  -2   7 12.0351 11.0595   8
  -7   9   7 29.0938 11.2277   8
  -7   9   7 23.0059 9.29744   7
   3   6  -7 45.9597 8.39168   2
  -9   3  -7 38.2221 10.8871   9
  -9   3  -7 27.0622 7.78029   2
  -3  -6   7 25.6071 10.8645   7
   9  -3   7 26.4657 11.2418   8
  -6   9   7 24.2122 10.7823   8
  -6   9   7 16.0498 7.48308   7
  -9   4  -7 55.7391 11.1422   9
   4   5  -7 41.5285 8.04690   2
  -9   4  -7 38.1613 8.39281   2
  -5   9   7 56.5727 11.8115   8
   9  -4   7 36.6065 11.0918   8
  -4  -5   7 46.1921 11.5670   7
  -5   9   7 53.9639 8.94897   7
   5   4  -7 36.5341 7.87137   2
  -9   5  -7 44.3747 8.82967   2
  -9   5  -7 41.0630 11.2985   9
  -5  -4   7 63.2668 11.0604   8
  -4   9   7 54.9279 8.59379   7
   9  -5   7 34.3151 11.5915   8
  -4   9   7 25.5879 10.2810   8
  -5  -4   7 45.3545 11.5354   7
  -9   6  -7 101.870 13.6364   9
   6   3  -7 106.507 10.5924   2
  -9   6  -7 116.327 11.3392   2
  -3   9   7 104.755 10.9395   7
   9  -6   7 116.022 15.9877   5
  -6  -3   7 110.527 14.2366   7
  -3   9   7 94.7552 12.7386   8
   9  -6   7 88.5556 14.3140   8
  -6  -3   7 101.840 13.4636   8
  -9   7  -7 112.026 14.1977   9
   7   2  -7 101.416 10.1438   2
  -9   7  -7 96.3189 11.2584   2
  -2   9   7 97.4199 12.9715   8
   9  -7   7 96.9651 14.0406   8
   9  -7   7 117.906 16.1050   5
  -7  -2   7 88.9705 13.6641   7
  -7  -2   7 117.087 14.0521   8
   8   1  -7 48.4953 8.41806   2
  -9   8  -7 44.8297 9.60599   2
  -9   8  -7 79.5897 13.9533   9
  -8  -1   7 55.3868 11.7704   7
   9  -8   7 38.5094 13.1145   5
   9  -8   7 49.6333 12.6947   8
   9   0  -7 9.31708 6.95750   2
   0  -9  -7 -7.3392 5.91836   2
  -9   9  -7 2.20928 10.1424   9
  -9   9  -7 0.22286 8.11019   2
  -9   0   7 -1.7050 9.99483   7
   9  -9   7 -2.7295 10.7721   8
  10  -1  -7 9.78251 7.39170   2
  -1  -9  -7 8.63718 6.54340   2
  -9  10  -7 -2.1343 8.55653   2
   9 -10   7 21.9810 11.6859   8
 -10   1   7 10.3610 10.4296   7
  -9  11  -7 24.5922 9.69956   2
  11  -2  -7 0.39470 7.54717   2
  -2  -9  -7 -2.3911 7.11787   2
 -11   2   7 3.19341 11.0101   7
  -3  -9  -7 32.3330 8.77821   2
  12  -3  -7 9.96069 7.72660   2
  -9  12  -7 16.2674 10.1138   2
  13  -4  -7 29.4324 9.29274   2
  -4  -9  -7 24.5953 9.74653   2
  -9  13  -7 12.4501 11.2145   2
  -5  -9  -7 -3.9291 9.02562   2
  14  -5  -7 9.70010 8.80006   2
  -9  14  -7 -4.2774 11.1621   2
  14 -10  -7 -1.5336 8.34604   2
  -4  14  -7 -0.0145 10.5552   2
 -10  -4  -7 -8.0555 8.96803   2
  -3  13  -7 34.2592 11.0885   2
  13 -10  -7 12.7421 8.35305   2
 -10  -3  -7 2.50288 9.12626   2
  10   3   7 16.5548 12.9035   8
  12 -10  -7 -0.5271 7.33033   2
 -10  -2  -7 5.75410 8.70729   2
  -2  12  -7 -2.9908 9.06777   2
  10   2   7 9.61696 12.5319   8
  -1  11  -7 -4.1793 8.16301   2
  11 -10  -7 10.0350 7.20973   2
 -10  -1  -7 12.4310 8.67990   2
  10   1   7 5.38350 12.3003   8
 -10   0  -7 29.3871 8.73922   2
   0  10  -7 25.9699 9.23714   2
  10 -10  -7 14.5633 6.97686   2
 -10   0  -7 40.1112 11.7910   9
  10   0   7 7.92658 12.0729   8
   1   9  -7 25.5494 9.09251   2
 -10   1  -7 36.0143 8.83814   2
 -10   1  -7 34.4670 11.4890   9
  10  -1   7 31.6395 12.5990   8
   2   8  -7 43.4959 9.13395   2
 -10   2  -7 35.9192 9.21497   2
 -10   2  -7 43.7576 11.6527   9
  10  -2   7 45.9260 13.0442   8
  -8  10   7 19.2077 11.8751   8
 -10   3  -7 220.846 19.2519   9
 -10   3  -7 225.679 16.6266   2
  -7  10   7 214.923 18.0071   7
  -7  10   7 190.671 18.8379   8
  10  -3   7 197.879 20.1453   8
 -10   4  -7 33.0845 8.47873   2
   4   6  -7 37.8169 8.42447   2
 -10   4  -7 32.2989 11.7204   9
  -6  10   7 27.3098 8.74244   7
  10  -4   7 28.4588 11.4390   8
  -6  10   7 30.7709 11.0032   8
   5   5  -7 0.04300 6.88383   2
 -10   5  -7 2.02055 9.86919   9
 -10   5  -7 4.73844 7.56992   2
  -5  10   7 9.99347 8.13222   7
  -5  -5   7 -6.9489 10.1723   7
  10  -5   7 13.1570 10.9345   8
  -5  10   7 11.9576 9.96695   8
 -10   6  -7 -0.7046 7.87893   2
 -10   6  -7 -1.9025 10.3410   9
   6   4  -7 0.51820 6.80840   2
  -4  10   7 10.1394 8.21457   7
  -4  10   7 8.76329 9.83351   8
  -6  -4   7 13.5409 11.0559   7
  10  -6   7 -7.0204 9.89832   8
   7   3  -7 88.5706 10.3192   2
 -10   7  -7 77.1172 13.0171   9
 -10   7  -7 75.1621 10.7381   2
  10  -7   7 99.5831 15.6955   5
  -3  10   7 76.0740 10.9236   7
  -7  -3   7 84.9484 14.1407   7
  10  -7   7 71.8614 13.7317   8
 -10   8  -7 11.9022 10.7323   9
 -10   8  -7 0.49676 7.95349   2
   8   2  -7 -4.3579 6.94128   2
  10  -8   7 12.6541 11.6712   5
  10  -8   7 -16.255 10.2952   8
  -8  -2   7 4.61874 10.4140   7
 -10   9  -7 79.8762 11.6692   2
   9   1  -7 101.557 10.5995   2
  -9  -1   7 68.0076 13.5939   7
  10  -9   7 94.1046 14.5911   8
  10   0  -7 20.7771 7.62619   2
 -10  10  -7 10.5549 9.32997   2
   0 -10  -7 0.06863 6.67914   2
  10 -10   7 6.57222 12.2531   8
 -10   0   7 11.4749 10.7168   7
  -1 -10  -7 -4.5872 6.68399   2
 -10  11  -7 2.25005 9.19959   2
  11  -1  -7 6.16931 7.71041   2
  10 -11   7 9.03429 11.4586   8
  12  -2  -7 20.8328 8.63228   2
 -10  12  -7 4.89835 9.93272   2
  -2 -10  -7 6.70257 7.86122   2
  -3 -10  -7 -7.3829 8.11321   2
 -10  13  -7 11.6533 10.5746   2
  13  -3  -7 16.3593 8.74715   2
  -4 -10  -7 -4.0448 9.02182   2
  14  -4  -7 8.36334 9.16149   2
 -10  14  -7 2.61850 11.0873   2
  -3  14  -7 13.0046 11.2894   2
 -11  -3  -7 18.3406 10.3760   2
  14 -11  -7 24.0594 9.28423   2
  -2  13  -7 25.8128 10.5238   2
  13 -11  -7 7.41806 8.04636   2
 -11  -2  -7 12.9105 9.73573   2
  11   2   7 6.42988 13.3852   8
  -1  12  -7 13.4520 10.0309   2
 -11  -1  -7 36.5346 9.73518   2
  12 -11  -7 35.0944 8.61286   2
  11   1   7 1.81227 12.9839   8
 -11   0  -7 0.13438 8.34729   2
  11 -11  -7 7.81501 7.26802   2
 -11   0  -7 3.89763 11.5531   9
   0  11  -7 -4.6786 8.57513   2
  11   0   7 -3.9096 12.3960   8
   1  10  -7 12.3111 9.13831   2
 -11   1  -7 6.89154 11.3207   9
 -11   1  -7 -13.079 7.80859   2
  10 -11  -7 -2.6454 7.27062   2
  11  -1   7 28.4074 12.6189   8
   2   9  -7 36.2400 9.60481   2
 -11   2  -7 39.0900 9.55568   2
 -11   2  -7 38.2481 12.1046   9
  11  -2   7 31.4384 13.3323   8
   3   8  -7 26.4733 8.77529   2
 -11   3  -7 25.3918 8.95152   2
 -11   3  -7 34.4439 12.5450   9
  11  -3   7 33.5999 13.0574   8
 -11   4  -7 28.6760 12.2552   9
   4   7  -7 25.8453 8.45705   2
 -11   4  -7 34.2830 9.06948   2
  11  -4   7 13.2021 11.7707   8
  -7  11   7 44.3447 12.1895   8
   5   6  -7 23.1047 7.87963   2
 -11   5  -7 23.1363 8.77976   2
 -11   5  -7 27.3346 11.7479   9
  -6  11   7 32.1957 11.5091   8
  11  -5   7 12.2862 11.4097   8
   6   5  -7 15.2895 7.70142   2
 -11   6  -7 17.0896 8.68874   2
 -11   6  -7 26.3106 11.9810   9
  11  -6   7 7.78016 11.2090   8
   7   4  -7 5.11511 7.52045   2
 -11   7  -7 2.03506 8.74765   2
 -11   7  -7 10.8597 11.8976   9
  11  -7   7 -2.9883 11.2566   8
   8   3  -7 32.3689 8.42852   2
 -11   8  -7 29.9298 9.55591   2
  11  -8   7 31.6739 12.7260   8
   9   2  -7 2.90161 7.46481   2
 -11   9  -7 -10.326 8.28790   2
  11  -9   7 4.73089 11.0504   8
   1 -11  -7 24.0036 7.48935   2
 -11  10  -7 36.2123 10.2732   2
  10   1  -7 33.9185 8.59463   2
  11 -10   7 36.9739 13.0866   8
 -11  11  -7 20.5505 10.8619   2
  11   0  -7 31.0275 8.71410   2
   0 -11  -7 30.3453 8.18991   2
  11 -11   7 38.7151 13.3133   8
  -1 -11  -7 -6.5182 7.35100   2
  12  -1  -7 -7.3268 7.91609   2
 -11  12  -7 -3.0528 9.86148   2
  -2 -11  -7 -1.1128 8.13517   2
  13  -2  -7 0.38260 8.54412   2
 -11  13  -7 12.8043 11.1823   2
  -3 -11  -7 71.5357 11.2995   2
  14  -3  -7 64.9469 11.2384   2
 -11  14  -7 63.2151 13.6290   2
  -1  13  -7 9.83311 10.4778   2
  13 -12  -7 1.05416 8.31104   2
 -12  -1  -7 -6.1235 9.09273   2
  12   1   7 -16.251 13.4049   8
  12 -12  -7 6.58307 8.14625   2
 -12   0  -7 9.28693 9.54007   2
   0  12  -7 -0.2843 9.26717   2
  12   0   7 -1.8008 13.8523   8
 -12   1  -7 25.8040 9.80797   2
  11 -12  -7 26.2698 8.22611   2
 -12   1  -7 15.0705 12.9222   9
   1  11  -7 37.5607 11.0635   2
  12  -1   7 23.7132 14.4676   8
   2  10  -7 9.31674 9.41990   2
 -12   2  -7 11.9486 9.41116   2
 -12   2  -7 48.6531 13.5010   9
  10 -12  -7 -5.7804 8.25307   2
  12  -2   7 -1.8716 12.2151   8
   3   9  -7 23.2304 9.02332   2
 -12   3  -7 19.8515 12.3355   9
 -12   3  -7 29.8952 9.61587   2
  12  -3   7 26.9768 13.9392   8
 -12   4  -7 70.7574 11.2827   2
 -12   4  -7 81.8659 14.6047   9
   4   8  -7 64.5386 10.9279   2
  12  -4   7 70.0929 15.7392   8
 -12   5  -7 9.29819 12.1451   9
 -12   5  -7 3.49949 8.66702   2
   5   7  -7 8.10944 8.27243   2
  12  -5   7 3.23910 11.8550   8
 -12   6  -7 -3.0680 8.48448   2
   6   6  -7 15.6452 7.94432   2
  12  -6   7 -1.7800 11.7443   8
 -12   7  -7 -1.3036 8.62037   2
   7   5  -7 -3.7179 7.53736   2
  12  -7   7 10.0372 12.5498   8
   8   4  -7 13.3732 8.56009   2
 -12   8  -7 -10.399 9.01618   2
  12  -8   7 16.3715 12.8992   8
   9   3  -7 3.79008 7.95432   2
 -12   9  -7 11.1317 9.33294   2
  12  -9   7 -2.8108 12.2152   8
 -12  10  -7 14.4981 10.0382   2
  10   2  -7 12.5598 8.43634   2
   2 -12  -7 19.6674 7.55138   2
  12 -10   7 26.7972 13.1972   8
 -12  11  -7 30.8641 10.6204   2
  11   1  -7 8.02803 8.42207   2
   1 -12  -7 12.5542 7.81028   2
  12 -11   7 29.1754 13.4926   8
   0 -12  -7 -0.3997 8.08363   2
 -12  12  -7 19.4035 11.1722   2
  12   0  -7 3.12296 8.39403   2
  12 -12   7 2.45176 21.8375   8
  13  -1  -7 12.3491 8.89941   2
 -12  13  -7 -2.4188 11.3534   2
  -1 -12  -7 18.6152 8.87614   2
  12 -13  -7 3.37103 8.46686   2
 -13   1  -7 16.6149 9.61514   2
   1  12  -7 3.51308 10.3899   2
  13  -1   7 22.2397 15.5634   8
  11 -13  -7 -9.2026 7.62593   2
 -13   2  -7 5.43325 9.44228   2
   2  11  -7 25.8483 10.7428   2
  13  -2   7 9.71176 14.2560   8
 -13   3  -7 -8.4769 8.89442   2
  10 -13  -7 0.61720 9.22121   2
   3  10  -7 -5.0058 8.88474   2
  13  -3   7 18.3823 14.1166   8
 -13   4  -7 -1.6976 9.43138   2
  13  -4   7 -0.2764 13.6646   8
 -13   5  -7 5.05344 9.21137   2
   5   8  -7 10.1740 8.63978   2
  13  -5   7 -17.852 12.7905   8
 -13   6  -7 14.3701 9.71965   2
   6   7  -7 -0.8688 8.08831   2
  13  -6   7 22.6277 13.4764   8
   7   6  -7 5.53877 7.86713   2
 -13   7  -7 -10.290 9.09685   2
  13  -7   7 -15.343 12.1073   8
 -13   8  -7 -3.6527 9.20384   2
   8   5  -7 0.55968 8.01532   2
  13  -8   7 -4.0508 13.2443   8
 -13   9  -7 10.6664 10.2703   2
   9   4  -7 18.6694 9.22610   2
  13  -9   7 9.33247 13.8872   8
 -13  10  -7 8.14775 10.2462   2
  10   3  -7 -0.8106 8.35552   2
   3 -13  -7 6.42666 7.55712   2
  13 -10   7 -3.8668 12.5120   8
  11   2  -7 -4.5244 8.50925   2
 -13  11  -7 8.92142 10.1734   2
   2 -13  -7 4.05003 7.80401   2
  13 -11   7 14.3017 13.5325   8
 -13  12  -7 0.20060 10.9532   2
  12   1  -7 13.3264 9.18748   2
   1 -13  -7 9.80856 8.42605   2
  13 -12   7 23.2215 13.5800   8
 -14   3  -7 18.4982 10.2710   2
  11 -14  -7 7.30201 8.28234   2
   3  11  -7 14.6936 10.6811   2
  14  -3   7 -2.9551 13.7118   8
   4  10  -7 0.30700 9.43719   2
  10 -14  -7 2.31479 8.45018   2
 -14   4  -7 -5.1780 9.80216   2
  14  -4   7 -6.0816 14.5408   8
   5   9  -7 -5.6035 9.04202   2
 -14   5  -7 10.6048 10.0724   2
  14  -5   7 -7.7315 13.3718   8
 -14   6  -7 -8.9311 9.41075   2
   6   8  -7 -3.7068 8.91226   2
  14  -6   7 -2.8581 13.8448   8
   7   7  -7 -0.1020 8.61056   2
 -14   7  -7 -13.270 9.33761   2
  14  -7   7 13.1225 14.1112   8
   8   6  -7 34.4771 10.1063   2
 -14   8  -7 42.0118 11.4858   2
  14  -8   7 42.8757 15.6959   8
 -14   9  -7 7.52971 10.1523   2
   9   5  -7 7.87760 8.91402   2
   5 -14  -7 -1.2182 10.2790   2
  14  -9   7 -8.8351 13.3700   8
  10   4  -7 33.3830 10.2896   2
   4 -14  -7 13.4663 8.45838   2
 -14  10  -7 17.9072 11.6333   2
  14 -10   7 22.7385 15.1683   8
   3 -14  -7 18.7557 8.61599   2
  11   3  -7 42.1162 10.2401   2
 -14  11  -7 20.2318 11.7305   2
  14 -11   7 0.85476 14.2845   8
   0   0   8 28.5676 11.1444   5
   0   0   8 44.6742 10.3117   8
   1   0   8 103.192 13.2260   8
   1   0   8 67.4142 12.7254   5
   0  -1   8 93.8200 11.1355   7
  -1   1   8 112.599 14.9984   5
  -1   1   8 82.6945 12.2926   8
   0  -1   8 101.891 12.8510   8
   0  -1   8 103.109 14.3994   5
  -1   0   8 26.8827 9.35754   8
  -1   0   8 19.3309 10.6448   5
   0   1   8 23.6739 9.50904   8
   0   1   8 0.87602 10.5165   5
   1  -1   8 8.87174 8.89823   8
   1  -1   8 16.5060 8.13599   7
   1  -1   8 23.4453 10.6605   5
  -1   2  -8 4.96632 4.71655   2
  -2   1   8 9.73973 10.2112   5
   1  -2   8 0.00161 9.88566   5
  -2   1   8 19.9817 9.20567   8
   1   1   8 0.47176 8.52406   8
   1  -2   8 22.3716 9.11549   8
   1   1   8 -3.3293 9.70801   5
  -1   3  -8 13.8632 5.34017   2
   2   1   8 13.8860 8.92809   8
  -3   2   8 15.4259 10.5355   5
  -3   2   8 7.63507 9.39026   8
   2   1   8 7.72898 11.3555   5
   1  -3   8 20.9135 10.8497   5
   1  -3   8 24.4959 9.87284   8
   0   2  -8 37.5361 5.52782   2
   0  -2   8 29.6377 7.87786   7
   2   0   8 36.9520 10.7647   8
  -2   2   8 47.6047 12.0680   5
  -2   2   8 39.4285 10.4688   8
   2   0   8 20.4114 11.3961   5
   0  -2   8 25.0923 9.36885   8
   0  -2   8 20.8487 10.4610   5
  -1  -1   8 96.6454 13.0210   8
  -1  -1   8 105.074 14.5825   5
  -1   2   8 118.758 15.1520   5
  -1  -1   8 105.097 10.5113   7
  -1   2   8 100.481 13.1506   8
   2  -1   8 98.2551 13.5136   8
   2  -1   8 112.237 14.8927   5
  -2   2  -8 32.6642 5.43418   2
  -2   0   8 36.9600 10.0521   8
   0   2   8 34.9663 10.3893   8
  -2   0   8 39.4918 11.5399   5
   0   2   8 47.2156 11.8133   5
   2  -2   8 38.0579 11.7714   5
   2  -2   8 39.0493 10.0800   8
  -2   3  -8 7.15375 5.30341   2
  -3   1   8 -9.8375 9.17049   8
   2  -3   8 14.1538 8.94969   8
   1   2   8 15.6189 9.15746   8
   1   2   8 20.4644 11.5163   5
  -3   1   8 -16.334 9.20591   5
   2  -3   8 1.19752 10.7435   5
  -2   4  -8 2.27763 5.74455   2
  -4   2   8 -8.4627 10.1527   5
  -4   2   8 0.88343 9.16757   8
   2   2   8 -0.8998 8.40875   8
   2  -4   8 -0.7205 8.47495   8
   2  -4   8 -8.6300 10.5184   5
  -2   5  -8 18.3327 6.33775   2
  -3  -2  -8 19.4212 5.43192   9
   2  -5   8 23.5034 11.9962   5
   2  -5   8 8.49246 9.23181   8
   2  -5   8 11.3785 8.79249   7
  -5   3   8 27.9977 11.0211   5
   3   2   8 22.0462 10.3252   8
  -5   3   8 11.2776 9.64424   8
  -3  -1  -8 107.968 9.17675   9
  -1   4  -8 110.492 9.58245   2
   3   1   8 81.5842 12.7493   8
  -4   3   8 115.338 14.2247   8
   1  -4   8 106.945 12.3631   7
   1  -4   8 92.5808 13.1008   8
  -4   3   8 98.3226 14.5071   5
   1  -4   8 127.716 15.2941   5
   0   3  -8 20.4229 5.57117   2
  -3   0  -8 23.4892 5.80382   9
   3   0   8 10.6723 11.2387   5
   3   0   8 29.0576 10.3196   8
   0  -3   8 31.2405 8.50879   7
  -3   3   8 25.5810 11.1476   5
   0  -3   8 12.4711 9.39798   8
  -3   3   8 17.6061 10.3085   8
   0  -3   8 24.6799 10.8936   5
  -3   1  -8 20.5596 5.92631   9
  -3   1  -8 23.6195 5.24468   2
   1   2  -8 20.4088 5.05793   2
  -1  -2   8 16.7766 10.7237   5
  -1  -2   8 28.6606 9.38442   8
   3  -1   8 5.57748 10.9609   5
  -2   3   8 3.53915 10.6954   5
  -1  -2   8 14.2807 7.64636   7
  -2   3   8 22.1377 10.0180   8
   3  -1   8 10.5495 9.37194   8
  -3   2  -8 8.72480 4.88917   2
  -1   3   8 10.9440 9.07176   8
  -2  -1   8 4.61612 6.71466   7
   3  -2   8 12.1651 10.1145   5
   3  -2   8 -2.5501 8.95741   8
  -2  -1   8 -1.9080 10.3709   5
  -1   3   8 14.5513 10.8823   5
  -2  -1   8 12.4857 9.13211   8
  -3   3  -8 9.63284 5.17601   2
  -3   0   8 6.29488 10.2361   5
   0   3   8 -6.0308 10.9048   5
  -3   0   8 0.43556 8.67956   8
   3  -3   8 11.5097 10.3200   5
  -3   0   8 -1.7243 6.27049   7
   0   3   8 3.19025 9.06002   8
   3  -3   8 19.4280 9.60172   8
  -3   4  -8 15.9986 6.01098   2
   3  -4   8 23.8616 9.90251   8
   1   3   8 3.04354 8.97015   8
   3  -4   8 24.9541 11.8866   5
  -4   1   8 -7.6125 8.83498   8
  -4   1   8 6.47818 10.8835   5
  -3   5  -8 17.6985 6.63927   2
   3  -5   8 17.2016 12.2644   5
   3  -5   8 7.26332 9.03668   8
   2   3   8 16.7550 9.61638   8
  -5   2   8 9.88446 9.88953   8
  -3  -3  -8 68.7208 7.56784   9
  -3   6  -8 64.3923 8.93257   2
   3   3   8 59.7543 12.0301   8
  -6   3   8 51.3878 12.4904   8
   3  -6   8 84.3750 12.3655   8
   3  -6   8 87.1810 15.1385   5
  -4  -3  -8 31.0730 6.78467   9
  -3   7  -8 26.3725 8.15140   2
  -7   4   8 45.1887 11.7275   8
   4   3   8 26.3816 11.3569   8
   3  -7   8 28.0258 10.5052   7
   3  -7   8 26.7376 13.1179   5
   3  -7   8 20.6834 9.68649   8
  -7   4   8 30.8998 8.17686   7
  -4  -2  -8 9.25079 6.01795   9
  -2   6  -8 14.6618 7.20904   2
   4   2   8 15.2609 10.2205   8
   2  -6   8 8.61286 9.43236   7
   2  -6   8 16.8611 9.43506   8
   2  -6   8 12.2511 12.0380   5
  -6   4   8 15.6614 10.6441   8
  -1   5  -8 -2.3058 5.78142   2
  -4  -1  -8 5.16197 5.67655   9
   4   1   8 5.88369 10.0753   8
  -5   4   8 11.0111 10.5774   5
   1  -5   8 -3.0744 8.01015   7
  -5   4   8 -5.5144 9.39827   8
   1  -5   8 1.16270 8.22237   8
   1  -5   8 -6.7702 10.9678   5
  -4   0  -8 9.63588 5.01201   2
   0   4  -8 -6.7998 5.11019   2
  -4   0  -8 4.32636 6.13910   9
  -4   4   8 13.8242 10.4658   5
   0  -4   8 3.22640 8.44884   8
  -4   4   8 -4.4192 9.24598   8
   4   0   8 11.7108 9.81054   8
   0  -4   8 -13.973 10.1038   5
   0  -4   8 -2.8211 7.84057   7
  -4   1  -8 14.5385 6.55139   9
   1   3  -8 22.9148 5.66260   2
  -4   1  -8 11.2962 5.08942   2
  -1  -3   8 29.0172 9.79927   8
  -1  -3   8 11.1606 10.9381   5
   4  -1   8 24.8671 12.0000   5
  -1  -3   8 7.19103 7.73321   7
   4  -1   8 25.4375 10.2323   8
  -3   4   8 24.2645 11.4651   5
  -3   4   8 18.5739 10.3689   8
  -4   2  -8 26.8514 7.26402   9
   2   2  -8 43.2718 6.17880   2
  -4   2  -8 39.8765 5.95707   2
  -2   4   8 33.2476 12.0586   5
   4  -2   8 30.6689 12.4549   5
   4  -2   8 27.7646 10.5005   8
  -2  -2   8 43.5075 10.3053   8
  -2   4   8 19.1525 9.86280   8
  -2  -2   8 35.1746 8.49781   7
  -4   3  -8 -3.7459 6.29407   9
   3   1  -8 6.09902 4.59034   2
  -4   3  -8 2.55498 5.33180   2
   4  -3   8 -14.477 8.92709   8
  -3  -1   8 6.76267 9.11782   8
  -1   4   8 1.30798 9.46660   8
   4  -3   8 -17.821 9.86128   5
  -1   4   8 -5.7013 10.5162   5
  -3  -1   8 -4.3790 6.74980   7
  -4   4  -8 0.36875 6.91342   9
  -4   4  -8 8.28649 5.63008   2
   0   4   8 3.31873 9.16046   8
   0   4   8 16.0528 11.8267   5
  -4   0   8 14.6261 9.17359   8
   4  -4   8 4.12033 10.6414   5
   4  -4   8 8.82902 9.60425   8
  -4   0   8 -2.9628 6.76345   7
  -4   5  -8 19.7065 6.69401   2
   1   4   8 -7.2607 9.20756   8
   4  -5   8 1.25197 12.4186   5
  -5   1   8 9.85043 7.06627   7
  -5   1   8 -2.8966 8.92113   8
   4  -5   8 5.62750 9.66729   8
  -2  -4  -8 17.2345 5.45442   9
  -4   6  -8 14.1299 7.56353   2
  -6   2   8 53.5233 8.87356   7
   4  -6   8 50.8346 13.3853   5
  -6   2   8 39.4003 11.7991   8
   4  -6   8 39.9882 11.0849   8
   2   4   8 35.9495 10.6947   8
  -3  -4  -8 0.89017 5.60254   9
  -4   7  -8 -17.130 6.79643   2
  -7   3   8 -12.681 9.70244   8
   3   4   8 4.22075 10.0903   8
   4  -7   8 9.67617 10.1654   8
  -7   3   8 -2.2049 7.62226   7
   4  -7   8 -1.4482 11.6076   5
  -4   8  -8 87.7705 10.7728   2
  -4  -4  -8 70.8015 9.18905   9
   4  -8   8 85.2276 15.1612   5
   4  -8   8 54.5339 12.9883   7
   4   4   8 71.1517 13.4182   8
  -8   4   8 70.0756 13.5048   8
   4  -8   8 80.1955 12.7809   8
  -8   4   8 99.9114 18.3493   7
  -5  -4  -8 3.52181 6.23527   2
  -5  -4  -8 2.95169 7.38280   9
  -4   9  -8 -0.9563 8.43308   2
   5   4   8 -6.5447 10.8112   8
  -9   5   8 -24.015 9.86028   8
  -5  -3  -8 -0.6101 7.08114   9
  -5  -3  -8 1.34281 6.00476   2
  -3   8  -8 3.47193 8.06291   2
   5   3   8 23.4434 11.1967   8
  -8   5   8 17.8198 11.1548   8
   3  -8   8 -3.2929 9.36409   7
  -2   7  -8 14.9484 7.42176   2
  -5  -2  -8 -0.0211 5.37543   2
  -5  -2  -8 19.9659 7.08948   9
  -7   5   8 4.43665 10.6552   8
   5   2   8 9.21871 10.2560   8
   2  -7   8 14.2268 9.78859   7
   2  -7   8 25.6671 9.94523   8
  -5  -1  -8 19.2947 7.01174   9
  -1   6  -8 33.6247 7.53230   2
  -5  -1  -8 12.3180 5.66168   2
   1  -6   8 16.1953 9.58344   7
   1  -6   8 30.3043 10.0008   8
  -6   5   8 23.5081 10.8910   8
   5   1   8 9.48785 9.82867   8
  -6   5   8 20.7559 11.0603   5
  -5   0  -8 43.4678 6.85096   2
   0   5  -8 45.1241 7.43452   2
  -5   0  -8 37.4789 7.65361   9
  -5   5   8 32.3128 11.3357   8
   5   0   8 31.7630 10.8890   8
   0  -5   8 51.8081 11.1391   7
   0  -5   8 32.4230 10.3095   8
  -5   5   8 35.7534 11.5006   5
  -5   1  -8 16.5565 5.75004   2
   1   4  -8 16.5003 6.12695   2
  -5   1  -8 18.8214 7.45344   9
  -4   5   8 17.4061 10.8598   5
  -1  -4   8 21.3536 9.20415   7
   5  -1   8 41.1883 11.0445   8
  -1  -4   8 29.8136 9.70930   8
  -4   5   8 18.2333 10.1217   8
   2   3  -8 -1.0371 5.49724   2
  -5   2  -8 7.47725 7.39012   9
  -5   2  -8 5.06912 5.68187   2
  -3   5   8 3.38226 10.1523   5
   5  -2   8 2.28286 8.97226   8
  -2  -3   8 2.87866 8.01719   7
   5  -2   8 -9.4854 11.0694   5
  -2  -3   8 -1.2377 8.24420   8
  -3   5   8 17.2606 10.2397   8
  -5   3  -8 41.2578 8.75580   9
  -5   3  -8 54.6437 7.22521   2
   3   2  -8 53.5738 6.81380   2
   5  -3   8 63.4750 11.7410   8
   5  -3   8 31.5286 12.9331   5
  -3  -2   8 41.4062 9.55927   7
  -2   5   8 41.7874 11.1050   8
  -2   5   8 48.2975 12.7532   5
  -3  -2   8 38.6934 10.3213   8
   4   1  -8 10.4144 5.22587   2
  -5   4  -8 0.83651 5.96265   2
  -5   4  -8 9.07078 7.89243   9
   5  -4   8 2.02111 11.3739   5
  -4  -1   8 -5.4794 8.98652   8
  -1   5   8 0.48722 9.67872   8
  -4  -1   8 5.30550 7.56954   7
   5  -4   8 -5.8336 9.26520   8
  -1   5   8 5.02990 11.2260   5
   5   0  -8 44.4413 6.73042   2
  -5   5  -8 65.9202 8.33623   2
  -5   5  -8 61.4928 9.86388   9
   5  -5   8 50.8432 11.4393   8
  -5   0   8 61.1957 9.93443   7
  -5   0   8 47.6144 11.1843   8
   0   5   8 53.3955 11.9409   8
   5  -5   8 48.8269 13.3385   5
   6  -1  -8 18.3847 5.79349   2
  -5   6  -8 24.0552 7.63044   2
  -5   6  -8 19.6442 9.20110   9
   1   5   8 20.8810 10.8871   8
  -6   1   8 6.65982 9.86442   8
   5  -6   8 -4.6098 9.34489   8
  -6   1   8 9.20733 7.80218   7
   5  -6   8 13.0815 12.6549   5
  -5   7  -8 46.1386 9.26989   2
  -5   7  -8 25.5617 10.1906   9
  -2  -5  -8 25.4000 6.28594   9
   7  -2  -8 15.1190 7.74636   2
   2   5   8 25.9533 11.2684   8
  -7   2   8 20.7752 11.2187   8
   5  -7   8 33.2897 10.4125   8
   5  -7   8 25.7010 13.7615   5
  -7   2   8 22.7048 8.65931   7
  -5   8  -8 5.51190 9.63697   9
  -5   8  -8 1.83912 7.94719   2
   5  -8   8 5.18735 10.1687   8
  -8   3   8 0.23776 10.8186   8
  -8   3   8 14.2303 10.2572   7
   3   5   8 -6.5926 9.73067   8
   5  -8   8 -5.4866 12.7079   5
  -5   9  -8 -4.4339 8.55898   2
  -5   9  -8 1.49753 10.6557   9
   4   5   8 7.41595 10.7532   8
  -9   4   8 -17.229 10.2868   8
  -5  10  -8 19.4554 11.7656   9
  -5  10  -8 12.2316 9.78207   2
  -5  -5  -8 30.0734 7.74714   2
   5   5   8 20.1514 11.8036   8
  -5  11  -8 7.84592 9.68507   2
  -6  -5  -8 10.0976 8.01769   2
  11  -6  -8 6.60883 8.98323   2
   6   5   8 -0.2440 11.4673   8
  -4  10  -8 16.9515 9.48255   2
  -6  -4  -8 18.4912 7.47303   2
   6   4   8 9.51846 11.5502   8
  -3   9  -8 2.20757 8.41868   2
  -6  -3  -8 12.1045 7.01888   2
  -6  -3  -8 16.5971 8.77225   9
  -9   6   8 0.54997 11.0529   8
   6   3   8 -7.6929 9.88006   8
  -2   8  -8 18.1810 8.14085   2
  -6  -2  -8 5.65928 7.43096   9
  -6  -2  -8 3.76751 6.23315   2
   2  -8   8 5.99927 10.6872   7
  -8   6   8 -1.7103 10.7608   8
   6   2   8 23.6427 10.8375   8
  -1   7  -8 25.2334 7.90272   2
  -6  -1  -8 13.6662 6.37770   2
  -6  -1  -8 14.1313 7.72291   9
   1  -7   8 22.5343 10.7983   7
   6   1   8 0.06549 9.74619   8
  -7   6   8 29.4923 11.7866   8
  -6   0  -8 15.8711 7.61265   9
  -6   0  -8 8.49643 6.29869   2
   0   6  -8 11.0192 7.10817   2
  -6   6   8 14.7649 10.4728   8
   0  -6   8 16.1642 9.22052   8
   0  -6   8 14.3970 10.1499   7
   6   0   8 18.6764 10.5113   8
  -6   1  -8 16.8453 6.35474   2
   1   5  -8 20.7988 6.94099   2
  -6   1  -8 13.7010 7.50157   9
  -5   6   8 15.7298 10.5613   8
  -1  -5   8 30.1832 9.72288   8
  -5   6   8 45.2758 16.3562   5
  -1  -5   8 32.7470 10.3240   7
   6  -1   8 45.0975 11.8536   8
   2   4  -8 13.1285 6.62490   2
  -6   2  -8 -0.7600 7.81614   9
  -6   2  -8 8.21546 6.02522   2
  -2  -4   8 6.91987 8.67064   8
  -4   6   8 -1.5926 10.0995   5
   6  -2   8 -5.5259 9.95155   8
  -2  -4   8 -3.0258 8.36423   7
  -4   6   8 14.7414 10.6788   8
  -6   3  -8 19.9244 6.83128   2
  -6   3  -8 21.9526 8.88126   9
   3   3  -8 18.0914 6.25179   2
  -3  -3   8 27.2629 9.96414   8
  -3  -3   8 26.7552 9.19795   7
  -3   6   8 17.2088 11.2292   5
   6  -3   8 12.2569 12.8779   5
  -3   6   8 12.8565 10.5142   8
   6  -3   8 22.1823 10.6208   8
  -6   4  -8 18.1802 9.10602   9
   4   2  -8 12.1794 6.22899   2
  -6   4  -8 22.7983 7.02845   2
  -4  -2   8 22.2336 10.1101   8
   6  -4   8 18.3934 10.6202   8
  -4  -2   8 5.54726 8.43034   7
   6  -4   8 26.9476 12.5543   5
  -2   6   8 16.5421 11.3920   5
  -2   6   8 25.7214 10.9101   8
   5   1  -8 68.5059 7.92893   2
  -6   5  -8 55.3359 10.6133   9
  -6   5  -8 62.6686 9.06755   2
  -1   6   8 62.0356 12.4869   8
  -5  -1   8 55.4885 11.9695   8
   6  -5   8 64.6478 13.0085   8
  -1   6   8 46.4268 13.1676   5
  -5  -1   8 68.6804 10.8932   7
   6  -5   8 68.5046 14.4474   5
  -6   6  -8 26.2588 7.87475   2
  -6   6  -8 24.1929 9.89641   9
   6   0  -8 19.0985 6.42101   2
   6  -6   8 20.1768 10.6093   8
  -6   0   8 24.6810 9.48727   7
   6  -6   8 17.1033 12.8583   5
  -6   0   8 12.2166 10.9564   8
   0   6   8 36.8163 11.4701   8
   7  -1  -8 95.6326 8.91628   2
  -6   7  -8 78.3491 12.3645   9
  -6   7  -8 79.2398 10.5000   2
   6  -7   8 93.2683 15.8175   5
  -7   1   8 79.2231 11.7322   7
   1   6   8 84.2920 13.3564   8
   6  -7   8 81.8879 13.1067   8
  -7   1   8 55.2879 12.5674   8
  -6   8  -8 20.3905 8.80909   2
   8  -2  -8 28.9844 6.76061   2
  -6   8  -8 -1.4408 9.89572   9
  -8   2   8 2.16240 10.4429   8
   6  -8   8 15.6030 13.0326   5
   6  -8   8 16.2238 10.6599   8
  -8   2   8 17.3399 11.2766   7
   2   6   8 22.1904 10.6265   8
  -6   9  -8 3.54172 8.84378   2
  -6   9  -8 -3.7626 9.94966   9
   9  -3  -8 1.22815 6.30897   2
   6  -9   8 1.88733 10.0368   8
   6  -9   8 4.84978 12.9874   5
   3   6   8 15.9267 10.8806   8
  -6  10  -8 6.70507 9.49397   2
  10  -4  -8 6.33189 7.12015   2
  -6  10  -8 10.9042 10.7551   9
   4   6   8 -5.3044 10.2291   8
  11  -5  -8 11.7205 7.59692   2
  -5  -6  -8 11.4339 7.76917   2
  -6  11  -8 0.21609 9.51808   2
  -6  -6  -8 7.45435 8.21541   2
  12  -6  -8 7.03122 7.66980   2
  -6  12  -8 18.0129 10.6423   2
  -7  -6  -8 1.23156 8.57707   2
  13  -7  -8 0.00060 8.10292   2
  -6  13  -8 -4.5995 10.5498   2
  -7  -5  -8 5.31214 8.73111   2
  -5  12  -8 -9.2155 9.86612   2
  12  -7  -8 2.65522 7.75177   2
  -4  11  -8 20.8318 9.96706   2
  -7  -4  -8 -6.3169 7.18205   2
   7   4   8 8.03982 11.0521   8
  -7  -3  -8 5.25825 7.55498   2
  -3  10  -8 0.93813 8.82774   2
   7   3   8 -5.5969 10.3977   8
  -2   9  -8 -3.9838 8.01495   2
  -7  -2  -8 0.99828 6.84359   2
  -7  -2  -8 3.61643 8.90729   9
  -9   7   8 -4.1735 11.2855   8
   7   2   8 9.06080 11.0499   8
  -1   8  -8 18.0620 8.04889   2
  -7  -1  -8 22.5166 8.72040   9
  -7  -1  -8 15.2823 6.81934   2
   7   1   8 26.7982 11.8690   8
  -8   7   8 26.2166 11.8176   8
   1  -8   8 13.9087 12.8341   7
  -7   0  -8 5.94266 6.76390   2
   0   7  -8 -4.0853 7.11686   2
  -7   0  -8 15.4121 8.52938   9
  -7   7   8 12.1724 11.0918   8
   0  -7   8 14.3854 10.2236   7
   7   0   8 -1.5490 10.7923   8
   1   6  -8 28.0726 7.64981   2
  -7   1  -8 32.3192 7.76025   2
  -7   1  -8 9.42840 8.36979   9
  -6   7   8 29.3430 11.5450   8
  -1  -6   8 14.3030 9.85641   7
   7  -1   8 10.9710 10.6747   8
  -7   2  -8 54.8671 9.96842   9
   2   5  -8 55.1027 8.85249   2
  -7   2  -8 54.5644 8.43398   2
  -5   7   8 63.6897 12.6220   8
  -2  -5   8 47.8096 11.7192   7
   7  -2   8 66.9079 13.2107   8
  -2  -5   8 45.8765 11.0313   8
  -7   3  -8 59.2401 8.69621   2
   3   4  -8 70.6569 8.86947   2
  -7   3  -8 69.0314 11.0041   9
  -4   7   8 59.8945 12.8313   8
  -3  -4   8 69.0007 12.1237   7
   7  -3   8 100.921 14.0474   8
  -3  -4   8 84.1002 12.2721   8
  -7   4  -8 24.6866 7.46893   2
   4   3  -8 29.5575 7.24896   2
  -7   4  -8 19.8178 9.81322   9
  -4  -3   8 12.1723 9.60553   7
  -3   7   8 18.7807 11.5539   5
  -3   7   8 15.6472 10.9518   8
  -4  -3   8 15.9152 9.25662   8
   7  -4   8 7.49133 13.3236   5
   7  -4   8 32.5650 11.8004   8
  -7   5  -8 4.37554 9.24651   9
   5   2  -8 9.88854 6.31462   2
  -7   5  -8 6.46544 7.01437   2
  -5  -2   8 8.35841 9.13806   7
  -2   7   8 -2.9782 11.6358   5
  -2   7   8 13.5881 10.9334   8
   7  -5   8 32.9622 11.3575   8
  -5  -2   8 21.0112 10.2372   8
   7  -5   8 21.7618 13.1892   5
  -7   6  -8 18.9420 10.5607   9
  -7   6  -8 22.9858 8.11170   2
   6   1  -8 20.9701 7.03198   2
   7  -6   8 5.37516 12.8992   5
  -1   7   8 40.3539 11.8027   8
  -6  -1   8 27.0171 9.81152   7
   7  -6   8 34.4955 11.3343   8
  -6  -1   8 10.3628 9.91034   8
  -7   7  -8 62.1562 12.0742   9
  -7   7  -8 50.6533 9.97545   2
   7   0  -8 69.4954 9.00258   2
   7  -7   8 68.6647 12.8900   8
  -7   0   8 85.0455 13.2780   8
   0   7   8 71.3692 13.4262   8
   7  -7   8 95.2051 16.6626   5
  -7   0   8 80.8587 12.1481   7
  -7   8  -8 18.4816 10.8507   9
  -7   8  -8 13.5857 8.40093   2
   8  -1  -8 32.2704 7.34068   2
   1   7   8 28.3339 12.0160   8
   7  -8   8 26.1218 14.1172   5
  -8   1   8 14.4427 11.4714   8
   7  -8   8 14.7182 11.1372   8
  -7   9  -8 -2.0998 8.42831   2
  -7   9  -8 2.64138 10.2572   9
   9  -2  -8 -8.3243 6.33573   2
   2   7   8 -7.6180 9.66217   8
   7  -9   8 2.24146 12.3438   5
   7  -9   8 6.43868 10.3217   8
  -7  10  -8 18.5086 12.5613   9
  -7  10  -8 -5.7035 8.88174   2
  10  -3  -8 -0.7788 7.25153   2
   7 -10   8 15.9506 13.6414   5
  11  -4  -8 12.6791 8.04390   2
  -7  11  -8 17.5803 10.6550   2
  12  -5  -8 -8.3880 7.63024   2
  -5  -7  -8 10.5147 8.00396   2
  -7  12  -8 -8.4357 10.4309   2
  -6  -7  -8 9.40555 8.93116   2
  -7  13  -8 14.7962 11.3229   2
  13  -6  -8 6.04566 8.34021   2
  13  -8  -8 9.64902 7.83921   2
  -8  -5  -8 9.84763 9.57849   2
  -5  13  -8 1.01861 10.8429   2
  -8  -4  -8 -3.9906 8.35339   2
  -4  12  -8 13.2814 10.4304   2
   8   4   8 -4.1884 10.7038   8
  -8  -3  -8 20.1577 8.66043   2
  -3  11  -8 22.3211 10.1287   2
   8   3   8 20.8924 12.0229   8
  -8  -2  -8 0.22483 7.44224   2
  -8  -2  -8 -8.5702 9.50041   9
  -2  10  -8 1.44239 8.77583   2
   8   2   8 7.43362 11.7236   8
  -8  -1  -8 11.6680 9.47124   9
  -1   9  -8 -4.2355 8.09478   2
  -8  -1  -8 3.23596 7.05603   2
  -9   8   8 1.37559 11.1789   8
   8   1   8 3.13180 11.2160   8
   0   8  -8 -3.5794 7.50692   2
  -8   0  -8 7.92882 7.20772   2
  -8   0  -8 17.9531 9.48837   9
  -8   8   8 11.5730 11.3519   8
   8   0   8 -0.1579 11.4899   8
  -8   1  -8 -3.2688 7.01753   2
  -8   1  -8 -2.3773 8.73868   9
   1   7  -8 -8.7551 7.27271   2
   8  -1   8 -2.0028 10.9525   8
  -7   8   8 -13.589 9.85128   8
  -1  -7   8 -5.6799 10.0302   7
  -8   2  -8 2.16447 8.99639   9
  -8   2  -8 3.97006 6.83139   2
   2   6  -8 12.4408 7.68950   2
  -2  -6   8 -0.3358 9.91081   7
  -6   8   8 11.0039 11.0661   8
   8  -2   8 -7.9894 9.96296   8
  -8   3  -8 22.4050 7.86923   2
  -8   3  -8 28.8588 9.82903   9
   3   5  -8 29.0566 8.09194   2
  -3  -5   8 19.1223 10.6455   7
   8  -3   8 39.2103 12.0818   8
  -5   8   8 33.5892 11.2419   8
   4   4  -8 26.3323 7.77920   2
  -8   4  -8 20.9147 8.01114   2
  -8   4  -8 14.8277 9.40796   9
  -4  -4   8 12.4637 10.0652   7
   8  -4   8 12.2427 11.0830   8
  -4   8   8 2.76665 9.89170   8
  -4  -4   8 5.80358 9.89849   8
  -8   5  -8 16.4857 9.97593   9
   5   3  -8 13.0897 6.96502   2
  -8   5  -8 10.3691 7.43322   2
  -5  -3   8 3.67443 9.93556   8
  -3   8   8 13.0329 10.8258   8
   8  -5   8 14.8156 11.4498   8
  -5  -3   8 35.6730 10.7422   7
   8  -5   8 21.9097 14.0574   5
   6   2  -8 17.6379 7.44246   2
  -8   6  -8 -3.3736 7.36412   2
  -8   6  -8 1.38661 10.2788   9
   8  -6   8 15.3802 13.4004   5
  -2   8   8 15.7272 11.2633   8
  -6  -2   8 9.29245 9.65489   7
  -6  -2   8 -1.4174 9.70057   8
   8  -6   8 20.5694 11.8997   8
  -8   7  -8 5.44794 7.96982   2
  -8   7  -8 9.95802 11.4777   9
   7   1  -8 18.2141 7.68603   2
  -7  -1   8 6.73747 10.0482   8
   8  -7   8 21.3818 13.0020   5
  -7  -1   8 21.4693 10.4850   7
  -1   8   8 13.7026 11.0708   8
   8  -7   8 4.72321 11.2539   8
  -8   8  -8 -5.7494 8.16642   2
  -8   8  -8 9.42352 11.0592   9
   8   0  -8 -0.5907 6.97339   2
   0   8   8 8.49825 10.7398   8
  -8   0   8 18.3398 11.1101   8
   8  -8   8 20.9488 11.7941   8
   8  -8   8 13.1927 13.0476   5
   9  -1  -8 7.73894 7.09235   2
  -8   9  -8 8.99236 11.1099   9
  -8   9  -8 2.78128 8.54992   2
   8  -9   8 9.02931 10.9753   8
   8  -9   8 3.28764 11.9448   5
  -8  10  -8 10.1341 11.8627   9
  -8  10  -8 3.37163 9.29226   2
  10  -2  -8 5.65999 7.55909   2
   8 -10   8 7.47805 12.3856   8
  -8  11  -8 7.70139 9.77613   2
  11  -3  -8 3.10397 7.64567   2
  12  -4  -8 -2.3559 8.24091   2
  -4  -8  -8 8.04067 11.9395   2
  -8  12  -8 -7.8440 10.1556   2
  13  -5  -8 12.9565 8.76123   2
  -8  13  -8 4.23895 11.3742   2
  -5  -8  -8 6.39716 9.09856   2
  -4  13  -8 15.6500 11.1903   2
  -9  -4  -8 10.9374 9.39430   2
  -9  -3  -8 2.86218 9.20796   2
  -3  12  -8 11.0987 9.97145   2
   9   3   8 -1.1941 12.5815   8
  -2  11  -8 19.2867 9.98746   2
  -9  -2  -8 1.77084 8.27348   2
   9   2   8 17.3087 12.8013   8
  -1  10  -8 -5.0574 8.53261   2
  -9  -1  -8 -6.1462 9.99502   9
  -9  -1  -8 5.78682 8.09378   2
   9   1   8 -1.0878 12.2928   8
  -9   0  -8 -8.5700 7.41730   2
   0   9  -8 7.65586 8.49670   2
  -9   0  -8 -0.9873 10.0556   9
   9   0   8 -8.6604 11.9459   8
   1   8  -8 6.54695 8.38797   2
  -9   1  -8 -8.4008 9.18062   9
  -9   1  -8 3.29691 7.66167   2
   9  -1   8 18.0015 12.2870   8
  -8   9   8 -3.8696 11.6085   8
   2   7  -8 4.56995 7.96471   2
  -9   2  -8 -2.4383 7.66165   2
  -9   2  -8 12.4094 10.2655   9
  -7   9   8 7.83957 11.1187   8
   9  -2   8 2.19417 11.2783   8
   3   6  -8 15.3982 8.06367   2
  -9   3  -8 8.86473 7.80816   2
  -9   3  -8 22.7752 10.8456   9
   9  -3   8 16.9670 11.6549   8
  -6   9   8 14.0641 11.5523   8
  -3  -6   8 28.3113 11.2815   7
  -9   4  -8 11.5542 8.13339   2
  -9   4  -8 37.7208 11.7585   9
  -5   9   8 14.7444 11.8524   8
   9  -4   8 30.9837 11.7503   8
  -4  -5   8 42.9126 12.0916   7
  -9   5  -8 -0.0794 7.73980   2
  -9   5  -8 -9.3771 9.32814   9
   5   4  -8 12.0037 7.52473   2
   9  -5   8 23.5216 13.6721   5
  -4   9   8 10.6034 10.9264   8
   9  -5   8 2.36323 10.3263   8
  -5  -4   8 5.90929 10.4684   7
  -9   6  -8 -1.5854 7.74691   2
   6   3  -8 11.2666 7.39967   2
  -9   6  -8 13.7395 10.6351   9
  -6  -3   8 -7.0779 9.77840   8
   9  -6   8 -3.8194 12.8816   5
  -3   9   8 -18.506 9.59707   8
  -6  -3   8 -4.9566 9.68302   7
   9  -6   8 11.4734 11.6955   8
   7   2  -8 9.17474 7.48609   2
  -9   7  -8 20.7347 11.8612   9
  -9   7  -8 -3.4713 8.10246   2
   9  -7   8 16.0383 11.7996   8
  -2   9   8 12.7320 11.2043   8
   9  -7   8 4.44883 12.4074   5
  -7  -2   8 21.5215 11.0035   8
  -9   8  -8 -2.7814 8.53824   2
   8   1  -8 3.16152 7.63345   2
  -9   8  -8 8.89338 11.1150   9
   9  -8   8 -1.9919 12.4370   5
   9  -8   8 24.6533 12.1834   8
   9   0  -8 25.5224 8.27110   2
  -9   9  -8 16.9924 12.8669   9
  -9   9  -8 11.8525 9.56028   2
   9  -9   8 -8.2729 17.8703   5
   9  -9   8 19.0606 12.3871   8
  10  -1  -8 10.6045 7.96408   2
  -9  10  -8 -5.8103 9.01493   2
   9 -10   8 18.4766 12.1624   8
  -9  11  -8 -17.737 9.09894   2
  11  -2  -8 2.13542 8.19300   2
  -9  12  -8 5.99268 10.4450   2
  12  -3  -8 17.4512 8.72986   2
  -4  -9  -8 1.32175 8.79047   2
  -9  13  -8 13.3395 11.2165   2
  13  -4  -8 6.82089 9.33589   2
  -2  12  -8 12.4236 10.5289   2
 -10  -2  -8 5.57193 9.45854   2
  10   2   8 -10.076 13.4508   8
  -1  11  -8 11.6665 9.67950   2
 -10  -1  -8 2.19580 8.48834   2
  10   1   8 -9.8859 12.9786   8
 -10   0  -8 15.7945 12.1161   9
   0  10  -8 11.2106 9.48341   2
 -10   0  -8 13.0798 8.49907   2
  10   0   8 1.41616 12.0732   8
   1   9  -8 6.12391 8.92274   2
 -10   1  -8 31.0978 12.3081   9
 -10   1  -8 -10.171 7.93726   2
  10  -1   8 -4.2319 12.6786   8
   2   8  -8 19.9071 9.39048   2
 -10   2  -8 9.22618 8.34525   2
 -10   2  -8 6.31052 10.7613   9
  -8  10   8 22.3368 12.5464   8
  10  -2   8 7.91602 12.3106   8
 -10   3  -8 8.97199 11.1336   9
   3   7  -8 11.1449 8.39459   2
 -10   3  -8 3.00032 8.39830   2
  10  -3   8 -1.7419 11.2321   8
  -7  10   8 2.07375 11.8826   8
 -10   4  -8 14.6844 8.38512   2
 -10   4  -8 19.9782 12.1768   9
  10  -4   8 47.4745 13.3835   8
  -6  10   8 32.7191 12.1448   8
 -10   5  -8 4.71928 8.36140   2
 -10   5  -8 -8.9021 10.8184   9
   5   5  -8 11.5944 7.92799   2
  -5  -5   8 -12.693 11.9193   7
  10  -5   8 17.9572 11.7742   8
  -5  10   8 -12.265 9.85259   8
 -10   6  -8 5.99734 11.0527   9
 -10   6  -8 4.10079 8.69635   2
   6   4  -8 4.89685 7.59740   2
  10  -6   8 -14.837 11.3277   8
  10  -6   8 5.38713 14.1474   5
  -4  10   8 4.08141 10.8431   8
 -10   7  -8 8.41112 9.07335   2
 -10   7  -8 20.2007 11.5664   9
   7   3  -8 10.9992 8.21431   2
  10  -7   8 29.5648 14.3693   5
  10  -7   8 15.1067 12.1822   8
 -10   8  -8 -0.3028 11.2399   9
 -10   8  -8 -10.001 8.27812   2
   8   2  -8 10.2529 8.40645   2
  10  -8   8 -3.4384 12.0755   8
  10  -8   8 8.47024 13.2467   5
 -10   9  -8 -0.8489 8.97524   2
 -10   9  -8 -25.423 13.1389   9
   9   1  -8 -17.008 7.37878   2
  10  -9   8 10.3146 12.6125   8
 -10  10  -8 10.5690 9.71848   2
  10   0  -8 -5.3824 8.12090   2
  10 -10   8 -10.507 12.0514   8
 -10  11  -8 1.15011 9.72605   2
  11  -1  -8 6.51806 8.51015   2
  12  -2  -8 0.19730 8.60109   2
 -10  12  -8 9.42019 10.7462   2
  -1  12  -8 2.50774 10.3284   2
 -11  -1  -8 -3.5873 9.18283   2
  11   1   8 4.72357 14.2212   8
   0  11  -8 13.5541 9.93318   2
 -11   0  -8 1.39154 8.94922   2
 -11   0  -8 -11.354 11.6622   9
  11   0   8 11.8744 13.8458   8
 -11   1  -8 11.4344 12.7032   9
 -11   1  -8 14.6870 9.13989   2
   1  10  -8 18.0468 9.54327   2
  11  -1   8 -5.2071 13.4845   8
 -11   2  -8 22.7166 12.3841   9
   2   9  -8 27.3991 10.0280   2
 -11   2  -8 23.9865 9.50579   2
  11  -2   8 15.3118 13.9099   8
 -11   3  -8 13.8930 9.32700   2
   3   8  -8 14.1004 9.39027   2
 -11   3  -8 -6.8873 11.6602   9
  11  -3   8 17.0458 13.1657   8
  -8  11   8 -2.8946 11.8470   8
   4   7  -8 8.86629 8.44858   2
 -11   4  -8 -6.2144 8.10738   2
 -11   4  -8 -7.5666 12.1657   9
  -7  11   8 -29.047 10.2625   8
  11  -4   8 -4.2404 12.2170   8
   5   6  -8 4.18316 8.16354   2
 -11   5  -8 -2.1489 12.1503   9
 -11   5  -8 -9.7654 8.14607   2
  -6  11   8 0.64032 11.3052   8
  11  -5   8 20.1529 13.3137   8
 -11   6  -8 33.4360 13.0719   9
   6   5  -8 -3.2681 8.03426   2
 -11   6  -8 -0.1901 8.49716   2
  11  -6   8 -18.724 11.1218   8
 -11   7  -8 -11.119 8.71476   2
   7   4  -8 5.91596 8.44661   2
 -11   7  -8 6.09795 11.8088   9
  11  -7   8 0.81771 13.6511   5
  11  -7   8 12.3224 12.9421   8
 -11   8  -8 3.91986 9.25020   2
   8   3  -8 20.4187 8.73207   2
 -11   8  -8 -2.6419 15.5801   9
  11  -8   8 5.20009 13.1263   8
 -11   9  -8 9.26081 9.64770   2
   9   2  -8 20.4178 9.34735   2
  11  -9   8 11.5670 13.1290   8
 -11  10  -8 14.5963 10.1543   2
  10   1  -8 4.53285 8.52175   2
  11 -10   8 18.4468 14.1580   8
 -11  11  -8 10.6496 10.5211   2
  11   0  -8 12.5535 9.06356   2
  11 -11   8 16.4278 13.0411   8
 -11  12  -8 1.04754 11.1512   2
  12  -1  -8 15.2992 9.12916   2
 -12   1  -8 -3.2609 8.86754   2
 -12   1  -8 2.21548 12.7478   9
   1  11  -8 5.01272 10.0319   2
  12  -1   8 7.72167 14.0797   8
 -12   2  -8 3.28902 12.8368   9
   2  10  -8 -6.8175 9.33354   2
 -12   2  -8 10.9659 9.50642   2
  12  -2   8 -5.9553 14.1517   8
 -12   3  -8 0.86004 12.6872   9
   3   9  -8 -11.756 8.91668   2
 -12   3  -8 3.26107 9.37277   2
  12  -3   8 -21.671 12.4785   8
 -12   4  -8 9.23428 9.46208   2
 -12   4  -8 -20.578 12.0655   9
   4   8  -8 9.30710 9.34371   2
  12  -4   8 0.81186 13.2018   8
 -12   5  -8 0.95622 12.6910   9
 -12   5  -8 5.42769 9.22016   2
  12  -5   8 1.55380 12.8442   8
 -12   6  -8 8.79154 9.29967   2
 -12   6  -8 -8.6517 13.5492   9
   6   6  -8 3.08555 8.82763   2
  12  -6   8 -24.118 11.3615   8
 -12   7  -8 10.2383 9.89829   2
   7   5  -8 -9.2254 8.24906   2
  12  -7   8 15.1116 13.4232   8
   8   4  -8 5.12763 8.66779   2
 -12   8  -8 2.66601 9.71020   2
  12  -8   8 3.10118 13.0401   8
   9   3  -8 34.1414 9.96710   2
 -12   9  -8 30.3042 10.6923   2
  12  -9   8 10.9407 14.3775   8
 -12  10  -8 4.03034 9.60133   2
  10   2  -8 1.36538 9.00315   2
  12 -10   8 -8.6727 13.0775   8
  11   1  -8 -0.4459 9.09247   2
 -12  11  -8 1.24105 10.3985   2
  12 -11   8 -17.164 12.5944   8
 -13   4  -8 -5.0569 9.94564   2
   4   9  -8 13.1948 10.1189   2
  13  -4   8 -5.5069 13.7419   8
 -13   5  -8 13.8568 10.5304   2
  13  -5   8 33.2853 14.8384   8
 -13   6  -8 41.8561 11.1091   2
   6   7  -8 12.3992 9.59486   2
  13  -6   8 23.1580 14.5621   8
   7   6  -8 5.47966 9.07018   2
 -13   7  -8 -0.9784 10.0050   2
  13  -7   8 -5.8305 12.5632   8
 -13   8  -8 -6.8227 9.49985   2
   8   5  -8 7.21745 9.14683   2
  13  -8   8 13.1551 14.1048   8
   9   4  -8 -4.1106 8.91282   2
 -13   9  -8 -2.7720 10.4229   2
  13  -9   8 9.60528 14.3564   8
   0   0   9 29.3204 11.1750   8
   0   0   9 -11.194 12.1055   5
   0  -1   9 14.3800 12.5470   5
  -1   1   9 19.5816 10.5437   8
   0  -1   9 5.00547 7.04050   7
   0  -1   9 10.3237 9.77547   8
   1   0   9 14.0641 10.6255   8
  -1   1   9 11.3371 12.7341   5
   1   0   9 6.04508 12.6527   5
  -1   0   9 14.9249 10.2338   8
  -1   0   9 26.5310 12.9644   5
   0   1   9 22.4244 10.4051   8
   1  -1   9 18.2128 10.5876   8
   1  -1   9 25.6142 12.8374   5
   0   1   9 38.7275 13.4529   5
  -2   1   9 5.47987 10.1393   8
   1  -2   9 10.5738 12.3239   5
   1  -2   9 1.49539 9.65096   8
  -2   1   9 6.96749 12.0566   5
   1   1   9 -1.5945 10.2592   8
   1   1   9 -7.3412 11.8575   5
   2   1   9 -22.768 10.9865   5
  -3   2   9 3.24626 12.1103   5
   1  -3   9 6.16357 12.0518   5
   1  -3   9 -3.7740 9.30773   8
   2   1   9 2.24378 10.3129   8
  -3   2   9 -4.5349 10.2045   8
   1  -3   9 1.39191 7.91458   7
   0  -2   9 6.44294 12.0192   5
   0  -2   9 2.94860 9.47175   8
  -2   2   9 14.2521 10.0969   8
  -2   2   9 -12.089 12.0016   5
   2   0   9 16.4155 12.1722   5
   0  -2   9 -0.5347 7.57042   7
   2   0   9 -6.1240 9.75885   8
   2  -1   9 42.1511 13.5270   5
  -1  -1   9 36.6409 11.3644   8
  -1   2   9 -7.4524 12.6873   5
  -1  -1   9 22.5155 13.3133   5
   2  -1   9 19.4072 10.2302   8
  -1   2   9 19.8592 10.7878   8
  -2   0   9 4.50728 10.2425   8
   2  -2   9 15.5737 10.6278   8
   0   2   9 15.2340 11.2021   8
  -2   0   9 16.7759 13.1161   5
   2  -2   9 17.4417 12.4814   5
   0   2   9 20.8081 13.1390   5
  -3   1   9 -8.5139 9.74627   8
   1   2   9 -12.298 9.60993   8
   2  -3   9 3.37043 12.3614   5
   1   2   9 2.61649 13.4806   5
  -3   1   9 14.7527 12.6265   5
   2  -3   9 -13.781 9.45170   8
  -2   4  -9 13.5057 6.83278   2
  -4   2   9 18.2980 11.1166   8
   2  -4   9 2.74544 12.8675   5
   2   2   9 22.0881 10.9707   8
  -4   2   9 21.0275 12.7289   5
   2   2   9 6.35666 13.4957   5
   2  -4   9 23.9490 10.8414   8
   2  -4   9 4.36817 8.79224   7
  -2   5  -9 -1.9975 7.06896   2
  -3  -2  -9 6.62528 5.64943   9
   3   2   9 -4.5329 9.80713   8
  -5   3   9 -2.6585 10.8864   8
   2  -5   9 -10.607 11.9839   5
  -5   3   9 2.46872 12.0954   5
   2  -5   9 3.87925 10.3082   8
  -3  -1  -9 20.5625 6.73779   9
  -1   4  -9 20.9084 7.01075   2
  -4   3   9 35.7594 12.6938   5
  -4   3   9 23.1121 11.3885   8
   1  -4   9 9.00841 12.8041   5
   3   1   9 17.2824 10.3899   8
   3   1   9 2.72689 13.6046   5
   1  -4   9 23.9483 9.96992   7
   1  -4   9 17.0013 10.3729   8
  -3   0  -9 51.3555 7.80309   9
   3   0   9 9.13285 10.4975   8
   0  -3   9 22.3245 9.52808   7
   0  -3   9 41.9019 13.9690   5
   0  -3   9 29.1760 11.2514   8
   3   0   9 24.5182 13.4393   5
  -3   3   9 43.1748 13.4231   5
  -3   3   9 19.8327 11.6754   8
  -3   1  -9 6.62552 6.64059   9
  -1  -2   9 26.0243 8.59423   7
  -1  -2   9 22.7398 13.3306   5
  -2   3   9 33.0116 11.7863   8
   3  -1   9 35.7642 11.1053   8
   3  -1   9 41.2857 13.9372   5
  -2   3   9 -2.6685 12.7205   5
  -1  -2   9 17.1119 10.3282   8
  -3   2  -9 34.4073 7.63915   9
  -1   3   9 9.61764 10.4072   8
  -2  -1   9 34.7837 13.7725   5
   3  -2   9 59.4923 14.4197   5
   3  -2   9 35.1491 11.2542   8
  -2  -1   9 29.4576 11.5649   8
  -2  -1   9 27.5317 8.77865   7
  -1   3   9 32.5073 13.4962   5
  -3   3  -9 7.73435 7.60576   2
   3  -3   9 -9.0722 12.0768   5
   0   3   9 25.0516 13.1929   5
  -3   0   9 17.1991 10.7303   8
  -3   0   9 18.3501 12.8625   5
   3  -3   9 14.6324 10.4592   8
   0   3   9 9.57318 10.5973   8
  -3   4  -9 36.1217 7.23801   2
   3  -4   9 24.9265 10.2905   8
  -4   1   9 18.7069 10.9749   8
   3  -4   9 31.1422 13.4658   5
   1   3   9 7.34219 11.4047   8
   1   3   9 57.2449 15.0902   5
  -3   5  -9 5.33407 7.36444   2
   2   3   9 24.2699 14.3544   5
   3  -5   9 19.7465 10.6571   8
   2   3   9 9.11898 11.4149   8
  -5   2   9 3.75054 10.7545   8
   3  -5   9 26.9834 14.9541   5
  -3   6  -9 1.12890 7.75504   2
  -3  -3  -9 4.54184 5.75748   9
   3  -6   9 1.72723 13.5409   5
   3  -6   9 -15.477 9.65727   8
   3   3   9 11.6691 10.8276   8
  -6   3   9 -5.4024 10.4342   8
  -4  -3  -9 13.7485 6.86988   9
  -3   7  -9 -1.2817 8.12483   2
   3  -7   9 0.70676 13.1879   5
   3  -7   9 19.1034 11.4826   8
   4   3   9 14.6686 12.1104   8
  -7   4   9 20.7516 11.9518   8
  -2   6  -9 17.7199 8.34766   2
  -4  -2  -9 0.95554 6.54760   9
   2  -6   9 6.37980 10.5365   8
   2  -6   9 1.22634 14.4325   5
   4   2   9 2.57968 11.7449   8
  -6   4   9 14.7307 11.9463   8
  -1   5  -9 43.0075 8.37457   2
  -4  -1  -9 37.5438 7.48820   9
   4   1   9 25.8782 12.1131   8
  -5   4   9 35.9207 14.0165   5
   1  -5   9 38.9191 15.4057   5
  -5   4   9 42.2551 12.4402   8
   1  -5   9 31.3889 11.3114   8
  -4   0  -9 3.91746 7.19385   9
   0   4  -9 -9.9006 6.34465   2
   4   0   9 -12.150 13.2673   5
   0  -4   9 -4.0498 12.0060   5
  -4   4   9 -11.030 10.3202   8
   4   0   9 1.52414 10.6746   8
   0  -4   9 -2.3003 9.53529   8
  -4   4   9 12.9197 11.9825   5
  -4   1  -9 1.87773 7.08609   9
   1   3  -9 6.75931 6.13755   2
  -1  -3   9 -10.159 9.21148   8
  -3   4   9 14.8488 11.1165   8
  -3   4   9 -5.2879 11.7751   5
   4  -1   9 8.18928 13.3152   5
   4  -1   9 -1.4892 10.7010   8
  -4   2  -9 7.94966 7.62118   9
  -2  -2   9 5.34131 10.5315   8
  -2   4   9 8.36270 12.1290   5
   4  -2   9 2.50704 10.4229   8
  -2   4   9 1.40440 10.3128   8
   4  -2   9 10.9915 12.7772   5
  -4   3  -9 43.7491 8.99690   9
  -4   3  -9 42.3463 7.32280   2
  -1   4   9 32.7358 11.8095   8
  -3  -1   9 40.8752 11.7198   8
  -1   4   9 39.3393 14.4488   5
   4  -3   9 52.0678 14.7872   5
   4  -3   9 62.3795 13.4189   8
  -4   4  -9 4.21353 6.59254   2
  -4   4  -9 7.16810 8.32847   9
   0   4   9 7.01115 12.9254   5
   4  -4   9 4.39760 10.9340   8
   4  -4   9 16.0509 13.3591   5
  -4   0   9 20.2802 10.3786   8
   0   4   9 -8.0573 10.9162   8
  -4   5  -9 -3.7861 6.81740   2
  -4   5  -9 -5.9965 8.28503   9
   4  -5   9 2.16350 11.0479   8
   1   4   9 -5.5198 13.4162   5
   1   4   9 -3.0724 10.0060   8
   4  -5   9 4.78626 13.2706   5
  -5   1   9 -17.553 9.53847   8
  -4   6  -9 18.9777 9.80414   9
  -4   6  -9 10.2846 8.32596   2
  -2  -4  -9 10.5847 5.50632   9
   2   4   9 22.8787 11.9874   8
   4  -6   9 13.8630 13.6785   5
  -6   2   9 -1.2862 10.8460   8
   4  -6   9 6.73189 10.9547   8
  -4   7  -9 21.0939 9.09301   2
  -4   7  -9 29.4617 10.7809   9
  -3  -4  -9 18.5966 6.78321   9
  -7   3   9 18.6524 11.4497   8
   4  -7   9 31.3215 11.4646   8
   4  -7   9 43.7795 15.0077   5
   3   4   9 24.1172 11.8430   8
  -4   8  -9 4.84563 8.71974   2
  -4  -4  -9 29.2783 8.15120   9
  -4   8  -9 21.8426 11.1455   9
   4   4   9 7.10837 11.8653   8
   4  -8   9 12.7435 14.9755   8
  -8   4   9 29.6007 12.5401   8
  -4   9  -9 -2.5677 9.38124   2
  -5  -4  -9 6.79082 8.59917   9
  -4   9  -9 11.7015 11.3436   9
   5   4   9 11.2299 11.2410   8
  -9   5   9 2.81584 12.2362   8
  -5  -3  -9 7.50216 7.81857   9
  -3   8  -9 12.3259 8.96199   2
   5   3   9 -2.1998 11.5267   8
  -8   5   9 9.08179 12.6858   8
  -2   7  -9 12.4187 8.77246   2
  -5  -2  -9 -5.6239 6.90056   9
   2  -7   9 -7.3095 10.5281   8
  -7   5   9 -15.109 10.9073   8
   5   2   9 -3.5581 10.9899   8
  -1   6  -9 14.8822 7.86773   2
  -5  -1  -9 11.6740 7.76686   9
   1  -6   9 15.1457 10.7330   8
   5   1   9 15.9741 12.0925   8
  -6   5   9 11.3561 12.0732   8
  -5   0  -9 6.16353 6.94593   9
   0   5  -9 6.05070 7.06669   2
   5   0   9 1.94507 11.4245   8
  -5   5   9 5.46748 11.1469   8
   0  -5   9 17.2978 10.4698   8
  -5   5   9 20.1990 12.9632   5
  -5   1  -9 42.7454 9.46940   9
   1   4  -9 40.6718 7.94131   2
   5  -1   9 35.7382 12.5183   8
  -4   5   9 73.3993 14.0547   8
   5  -1   9 62.3519 16.0849   5
  -4   5   9 51.3048 13.8069   5
  -1  -4   9 68.7333 12.6415   8
  -5   2  -9 1.55861 8.67814   2
  -5   2  -9 -9.6688 8.01691   9
   2   3  -9 10.2096 6.16987   2
  -3   5   9 3.44214 10.6303   8
  -3   5   9 5.88543 12.5971   5
  -2  -3   9 -5.2484 9.59822   8
   5  -2   9 -2.3661 13.5678   5
   5  -2   9 -11.210 9.94149   8
  -5   3  -9 20.2361 9.22122   9
  -5   3  -9 28.5423 6.97109   2
  -2   5   9 18.6616 11.4960   8
  -2   5   9 27.7858 13.2630   5
  -3  -2   9 -3.1141 10.1708   8
   5  -3   9 33.0182 12.0552   8
   5  -3   9 8.55017 13.6446   5
  -5   4  -9 8.53513 8.68950   9
  -5   4  -9 4.55036 6.65988   2
  -1   5   9 28.6301 13.3982   5
  -1   5   9 4.46116 11.4369   8
  -4  -1   9 -1.3590 9.90506   8
   5  -4   9 8.08159 13.0272   5
   5  -4   9 -1.1561 10.4644   8
  -5   5  -9 6.02221 7.08646   2
  -5   5  -9 2.85940 9.16574   9
  -5   0   9 22.2054 11.1504   8
   0   5   9 3.90741 11.5255   8
   0   5   9 -2.5345 13.5074   5
   5  -5   9 4.36127 13.9059   5
   5  -5   9 9.00466 11.6506   8
  -5   6  -9 7.50613 9.65802   9
  -5   6  -9 6.64339 7.45158   2
  -6   1   9 36.5051 12.5566   8
   5  -6   9 9.93094 11.5039   8
   5  -6   9 5.56960 13.8260   5
   1   5   9 -21.802 10.2958   8
  -2  -5  -9 13.1233 6.35411   9
  -5   7  -9 1.68612 8.21981   2
  -5   7  -9 13.1981 10.4012   9
   5  -7   9 2.48755 13.8122   5
   2   5   9 9.20788 10.8685   8
   5  -7   9 11.2728 11.2586   8
  -7   2   9 25.4630 12.0362   8
  -5   8  -9 -11.502 10.1571   9
  -5   8  -9 9.03743 9.23885   2
  -8   3   9 -0.8829 11.3455   8
   3   5   9 11.4532 11.5733   8
   5  -8   9 13.9008 15.7547   5
   5  -8   9 18.8516 11.8598   8
  -5   9  -9 -5.1210 9.49481   2
  -5   9  -9 -19.146 10.3371   9
   4   5   9 4.24409 11.3623   8
  -9   4   9 7.12175 12.9556   8
  -5  10  -9 18.1740 10.3134   2
  -5  10  -9 0.62319 12.4430   9
   5   5   9 7.09279 12.4268   8
  -5  11  -9 -11.233 10.2463   2
   6   5   9 -2.6515 12.1776   8
  -4  10  -9 -3.2951 11.5759   9
  -4  10  -9 8.10340 10.2552   2
   6   4   9 18.1232 12.5924   8
  -3   9  -9 11.8712 9.43384   2
  -6  -3  -9 9.34233 8.76689   9
   6   3   9 14.2069 12.3543   8
  -9   6   9 25.2854 13.6062   8
  -2   8  -9 4.10071 9.04393   2
  -6  -2  -9 1.60890 8.24980   9
   6   2   9 -1.9707 11.5696   8
  -8   6   9 17.9923 13.2022   8
  -6  -1  -9 -7.2438 7.78191   9
  -1   7  -9 -0.0484 7.88865   2
   6   1   9 -6.4010 11.7107   8
  -7   6   9 -4.8703 11.9851   8
   0   6  -9 -4.5471 7.52522   2
  -6   0  -9 5.27964 8.26268   9
  -6   6   9 -12.947 11.0096   8
   0  -6   9 -13.923 9.46888   8
   6   0   9 -0.0773 11.0465   8
  -6   1  -9 14.4386 8.15386   9
  -6   1  -9 11.1813 10.2289   2
   1   5  -9 9.51466 6.93947   2
  -5   6   9 14.8282 11.5061   8
   6  -1   9 -8.1076 10.8492   8
  -1  -5   9 -6.6581 9.97229   8
  -6   2  -9 18.0571 6.97695   2
   2   4  -9 15.1439 7.14558   2
  -6   2  -9 13.5060 9.10434   9
  -4   6   9 27.2828 11.7554   8
   6  -2   9 25.2334 11.9088   8
   6  -2   9 36.5218 15.5253   5
  -2  -4   9 10.0100 10.5051   8
  -6   3  -9 9.44061 7.10897   2
  -6   3  -9 11.8153 9.56683   9
   3   3  -9 11.2833 6.89776   2
  -3  -3   9 12.3011 10.4609   8
   6  -3   9 20.5078 14.5108   5
   6  -3   9 9.41596 11.4424   8
  -3   6   9 17.9386 12.2137   8
  -3   6   9 32.1072 13.7955   5
   4   2  -9 7.22966 6.50900   2
  -6   4  -9 28.3509 9.95650   9
  -6   4  -9 20.0824 7.19340   2
  -2   6   9 -0.0204 11.0185   8
   6  -4   9 -4.4058 10.8786   8
   6  -4   9 12.8927 13.1501   5
  -2   6   9 3.47396 12.7766   5
  -4  -2   9 15.4119 10.7487   8
  -6   5  -9 1.24446 9.65373   9
  -6   5  -9 17.3167 7.60592   2
  -1   6   9 19.1873 14.1317   5
  -5  -1   9 2.37938 10.6117   8
  -1   6   9 30.4777 12.2799   8
   6  -5   9 13.1848 13.6430   5
   6  -5   9 10.4032 11.2072   8
  -6   6  -9 41.1040 11.4264   9
  -6   6  -9 47.2090 9.10520   2
   0   6   9 25.1055 12.2520   8
   6  -6   9 2.09113 14.0705   5
  -6   0   9 48.9961 12.9482   8
   6  -6   9 34.2211 12.4002   8
   0   6   9 21.2788 14.7476   5
  -6   7  -9 9.29485 8.30554   2
  -6   7  -9 -2.7826 10.1308   9
   6  -7   9 -3.1891 10.8661   8
   6  -7   9 4.05935 13.8830   5
   1   6   9 14.6602 12.1458   8
  -7   1   9 12.3798 11.4494   8
  -6   8  -9 -4.8615 8.42986   2
  -6   8  -9 -5.5809 10.7158   9
  -8   2   9 1.62269 11.6919   8
   6  -8   9 14.0639 13.9826   5
   6  -8   9 8.88310 11.6020   8
   2   6   9 16.3935 11.4950   8
  -6   9  -9 9.50988 11.4393   9
  -6   9  -9 0.78683 9.18995   2
  -9   3   9 -14.632 11.5758   8
   6  -9   9 -6.2568 14.2864   5
   3   6   9 20.5473 12.3483   8
  -6  10  -9 5.09754 10.5047   2
  -6  10  -9 0.75547 11.8802   9
   4   6   9 -9.6586 11.7673   8
  -6  11  -9 4.91875 10.7055   2
  -4  11  -9 16.2397 10.8838   2
   7   4   9 44.8467 13.9850   8
  -3  10  -9 -11.429 9.50059   2
   7   3   9 22.4456 13.1675   8
  -7  -2  -9 1.93549 9.42816   9
  -2   9  -9 -1.5905 9.25651   2
  -9   7   9 24.2520 13.4714   8
   7   2   9 2.17251 12.6491   8
  -1   8  -9 -0.5456 8.25578   2
  -7  -1  -9 4.71475 8.79991   9
  -8   7   9 3.96843 12.3107   8
   7   1   9 -4.9762 11.4522   8
  -7   0  -9 24.2842 9.51397   9
   0   7  -9 21.6590 8.81281   2
  -7   0  -9 23.4795 7.38567   2
  -7   7   9 19.4327 12.2729   8
   7   0   9 9.84033 11.9890   8
  -7   1  -9 -4.6753 8.83450   9
   1   6  -9 -0.7034 7.69367   2
  -7   1  -9 3.65624 7.21651   2
  -6   7   9 22.9897 13.2198   8
   7  -1   9 1.81487 11.5590   8
   2   5  -9 -5.0674 7.04671   2
  -7   2  -9 0.78175 7.02446   2
  -7   2  -9 5.02295 8.64031   9
   7  -2   9 25.3984 12.6265   8
  -2  -5   9 4.81436 10.5472   8
  -5   7   9 19.5283 12.2052   8
  -7   3  -9 -1.4658 7.35121   2
  -7   3  -9 -4.6879 8.85549   9
   3   4  -9 4.11218 7.43123   2
   7  -3   9 14.9890 11.2800   8
  -3  -4   9 2.17928 9.66623   8
   7  -3   9 11.9773 14.9020   5
  -4   7   9 1.06927 10.6167   8
  -7   4  -9 4.78838 10.2195   9
  -7   4  -9 0.27640 7.64477   2
   4   3  -9 1.61088 6.90061   2
  -3   7   9 6.35474 11.9563   8
   7  -4   9 11.4346 13.9651   5
   7  -4   9 9.73523 11.5335   8
  -4  -3   9 3.12145 9.79839   8
  -7   5  -9 -8.4665 7.22988   2
  -7   5  -9 -6.2057 10.1978   9
  -2   7   9 -17.112 14.5697   5
  -2   7   9 11.7570 12.2641   8
  -5  -2   9 -1.4398 9.92509   8
   7  -5   9 2.97976 11.2397   8
   7  -5   9 0.36663 14.0350   5
  -7   6  -9 -4.4062 10.4434   9
   6   1  -9 3.21060 6.91028   2
  -7   6  -9 0.78569 7.73393   2
   7  -6   9 7.53991 11.5758   8
  -1   7   9 9.52898 14.4483   5
   7  -6   9 1.72925 13.7590   5
  -6  -1   9 -11.335 10.1834   8
  -1   7   9 20.6024 12.5322   8
  -7   7  -9 6.88710 8.90101   2
  -7   7  -9 -5.4059 10.8524   9
   0   7   9 21.5299 12.3746   8
   7  -7   9 -0.9244 14.6904   5
   7  -7   9 13.4992 12.2048   8
  -7   0   9 20.5902 12.2458   8
  -7   8  -9 18.3033 9.62846   2
  -7   8  -9 23.2740 12.1788   9
   1   7   9 30.4387 13.2388   8
  -8   1   9 20.1409 12.4101   8
   7  -8   9 13.2481 11.9883   8
   7  -8   9 25.4199 14.8839   5
  -7   9  -9 14.0054 12.1237   9
  -7   9  -9 1.29803 9.35716   2
   7  -9   9 4.47252 14.8355   5
   7  -9   9 4.91936 11.5049   8
   2   7   9 13.6631 12.9034   8
  -7  10  -9 9.25319 9.86474   2
  -7  10  -9 2.77526 12.7428   9
   7 -10   9 3.57502 18.0108   5
  -7  11  -9 5.51513 10.7936   2
  -8  -2  -9 -1.5537 7.99483   2
  -8  -2  -9 3.94772 10.5480   9
  -2  10  -9 -0.5075 9.65422   2
   8   2   9 17.9832 13.3170   8
  -8  -1  -9 -0.2405 9.83278   9
  -1   9  -9 -1.3228 8.85320   2
  -8  -1  -9 7.54662 7.70253   2
  -9   8   9 -7.9859 12.5083   8
   8   1   9 9.49285 12.6043   8
  -8   0  -9 3.74402 7.61684   2
  -8   0  -9 -12.046 8.73845   9
   0   8  -9 8.93640 8.81298   2
  -8   8   9 -13.900 11.5208   8
   8   0   9 4.42058 12.0455   8
  -8   1  -9 4.06038 9.97019   9
   1   7  -9 14.7477 8.60097   2
  -8   1  -9 6.84362 7.67471   2
   8  -1   9 -4.7838 12.4996   8
  -7   8   9 13.8050 12.6682   8
  -8   2  -9 5.62959 7.92823   2
   2   6  -9 -0.4269 8.09601   2
  -8   2  -9 2.77912 9.89355   9
  -6   8   9 -11.683 11.7774   8
   8  -2   9 23.1016 13.3262   8
  -8   3  -9 3.77125 9.96692   9
   3   5  -9 2.83675 7.91255   2
  -8   3  -9 3.31545 7.95988   2
   8  -3   9 19.4267 12.1569   8
   8  -3   9 14.1839 15.4725   5
  -5   8   9 14.1445 12.2507   8
   4   4  -9 13.0589 7.96292   2
  -8   4  -9 9.27360 7.90864   2
  -8   4  -9 7.46360 10.3201   9
   8  -4   9 19.8093 12.2790   8
  -4  -4   9 -7.1359 10.1113   8
   8  -4   9 12.9237 14.8612   5
  -4   8   9 19.0435 12.4918   8
  -8   5  -9 19.1830 8.87527   2
  -8   5  -9 15.1604 11.1009   9
  -5  -3   9 -1.2712 10.8068   8
  -3   8   9 -7.3562 11.2041   8
   8  -5   9 15.3316 12.3902   8
   8  -5   9 -16.434 13.9548   5
  -8   6  -9 14.1025 11.3411   9
   6   2  -9 11.9646 7.83417   2
  -8   6  -9 0.80332 7.85972   2
   8  -6   9 12.7051 14.5852   5
  -6  -2   9 2.00808 10.8913   8
  -2   8   9 17.8455 12.5269   8
   8  -6   9 0.39368 12.2796   8
  -8   7  -9 28.6279 12.4283   9
   7   1  -9 0.65917 7.64505   2
  -8   7  -9 6.31720 8.64804   2
  -1   8   9 12.1160 12.1678   8
  -7  -1   9 37.4599 12.4796   8
   8  -7   9 46.0744 13.7037   8
   8  -7   9 18.2203 15.3295   5
   8   0  -9 9.65063 7.83280   2
  -8   8  -9 1.58547 8.97012   2
  -8   8  -9 11.9923 12.3079   9
   8  -8   9 -16.169 13.3865   5
   0   8   9 -2.9399 11.9468   8
  -8   0   9 -4.5731 11.4461   8
   8  -8   9 4.50469 11.5291   8
  -8   9  -9 20.3611 10.3672   2
  -8   9  -9 22.2431 13.1072   9
   9  -1  -9 18.5642 8.38340   2
   8  -9   9 30.2623 15.7599   5
   8  -9   9 -0.1076 11.8067   8
  -8  10  -9 0.46784 9.59336   2
  10  -2  -9 21.0542 14.1760   2
  -8  10  -9 -8.3697 13.3984   9
  -1  10  -9 7.40360 10.0864   2
  -9  -1  -9 2.93382 8.55923   2
  -9  -1  -9 -1.8420 11.1486   9
   9   1   9 -5.1458 12.3499   8
  -9   0  -9 6.12934 7.72956   2
  -9   0  -9 10.7502 10.9857   9
   0   9  -9 5.81243 9.26580   2
  -9   9   9 -6.6419 12.6220   8
   9   0   9 -7.2503 11.9686   8
   1   8  -9 -0.5004 8.88904   2
  -9   1  -9 -0.8946 8.07447   2
  -9   1  -9 -8.6955 10.3805   9
  -8   9   9 0.17632 12.5151   8
   9  -1   9 15.9452 13.1207   8
   2   7  -9 4.60358 8.59067   2
  -9   2  -9 -5.3000 7.93830   2
  -9   2  -9 -6.7239 10.3742   9
  -7   9   9 -0.9620 12.9061   8
   9  -2   9 7.16220 12.7554   8
  -9   3  -9 26.8264 11.8815   9
   3   6  -9 -0.9816 8.74086   2
  -9   3  -9 10.4238 7.97385   2
  -6   9   9 7.06810 12.9248   8
   9  -3   9 -0.1392 12.4088   8
  -9   4  -9 -12.712 10.1591   9
  -9   4  -9 -12.408 8.17347   2
   4   5  -9 4.89247 8.22549   2
   9  -4   9 0.68296 20.6527   5
   9  -4   9 -11.766 11.9479   8
  -5   9   9 15.4559 12.5341   8
  -9   5  -9 25.4787 9.14737   2
  -9   5  -9 15.4127 11.9923   9
   9  -5   9 26.0052 13.2687   8
  -4   9   9 1.91265 12.0352   8
   9  -5   9 -3.9220 14.4985   5
  -9   6  -9 8.21957 9.27287   2
   6   3  -9 21.2921 8.62364   2
  -9   6  -9 6.35084 11.5380   9
  -6  -3   9 11.6764 11.8910   8
  -3   9   9 5.35722 12.0751   8
   9  -6   9 30.0711 15.6908   5
   9  -6   9 22.6835 13.6700   8
  -9   7  -9 3.99407 12.3822   9
  -9   7  -9 7.27400 8.90120   2
   7   2  -9 -6.9170 7.84021   2
  -2   9   9 -6.7446 11.1377   8
  -7  -2   9 -14.287 10.8141   8
   9  -7   9 3.01847 14.2991   5
   9  -7   9 19.6992 13.2046   8
   8   1  -9 7.11260 8.24359   2
  -9   8  -9 -9.8392 8.67550   2
  -9   8  -9 3.61166 12.0767   9
   9  -8   9 -13.151 14.6725   5
   9  -8   9 15.8876 13.1648   8
  -9   9  -9 9.20706 9.87935   2
   9   0  -9 -2.6081 8.36268   2
  -9   9  -9 -5.4147 12.7929   9
   9  -9   9 12.2632 12.8478   8
  -9  10  -9 -12.007 9.86247   2
  10  -1  -9 3.65916 8.44679   2
   9 -10   9 -17.534 11.4945   8
 -10   1  -9 -5.2324 11.7905   9
 -10   1  -9 -13.076 8.42412   2
   1   9  -9 2.48168 9.64713   2
  10  -1   9 -7.8264 13.6178   8
 -10   2  -9 55.3414 13.6693   9
 -10   2  -9 46.9837 10.3834   2
   2   8  -9 35.6495 10.0341   2
  10  -2   9 15.9312 14.7607   8
  -8  10   9 32.2510 14.4323   8
   3   7  -9 7.85842 9.45090   2
 -10   3  -9 7.75736 12.5483   9
 -10   3  -9 12.2823 9.29619   2
  -7  10   9 -1.4273 12.2751   8
  10  -3   9 -4.8436 13.4603   8
 -10   4  -9 -1.0729 12.0841   9
 -10   4  -9 10.5982 9.05647   2
   4   6  -9 -0.8803 8.57416   2
  -6  10   9 11.0302 12.0678   8
  10  -4   9 5.26629 12.4341   8
 -10   5  -9 0.62760 8.94445   2
   5   5  -9 3.10089 8.41360   2
 -10   5  -9 -11.132 11.7118   9
  10  -5   9 -4.3006 12.6368   8
  -5  10   9 -6.7686 11.8916   8
   6   4  -9 -4.5302 8.59524   2
 -10   6  -9 7.73720 9.40085   2
 -10   6  -9 1.77748 12.3858   9
  10  -6   9 11.2996 14.3363   8
  -4  10   9 5.11223 12.4748   8
   7   3  -9 -1.4680 8.59817   2
 -10   7  -9 1.94349 12.7150   9
 -10   7  -9 11.4676 9.85830   2
  10  -7   9 -7.9783 13.3779   8
 -10   8  -9 11.2305 9.53901   2
 -10   8  -9 1.32448 13.3163   9
   8   2  -9 10.2738 8.94678   2
  10  -8   9 -3.2969 12.2199   8
 -10   9  -9 4.63617 9.94099   2
 -10   9  -9 37.9798 15.6088   9
   9   1  -9 -1.7085 8.71117   2
  10  -9   9 -15.818 12.6288   8
   4   7  -9 33.7855 10.4261   2
 -11   4  -9 21.6731 10.1809   2
 -11   4  -9 3.89268 12.6956   9
  -7  11   9 7.61551 13.2696   8
  11  -4   9 27.4625 14.4225   8
 -11   5  -9 4.70695 12.8547   9
 -11   5  -9 1.26962 9.57895   2
   5   6  -9 5.68182 8.88517   2
  -6  11   9 -0.8722 13.0483   8
  11  -5   9 15.2456 13.7468   8
 -11   6  -9 -9.3030 12.7197   9
 -11   6  -9 0.74758 9.80276   2
  11  -6   9 10.4519 13.6801   8
 -11   7  -9 -3.4027 9.57428   2
   7   4  -9 9.09398 9.42468   2
 -11   7  -9 -14.849 12.4913   9
  11  -7   9 8.22278 13.3033   8
   0   0  10 48.6248 12.9490   8
   0   0  10 28.4638 14.8039   5
   0  -1  10 27.7869 12.5780   8
  -1   1  10 2.32376 13.9372   5
   1   0  10 -1.0824 13.9564   5
   1   0  10 -6.3681 11.0114   8
  -1   1  10 -3.6712 11.2266   8
   0  -1  10 0.71295 13.9977   5
   0   1  10 36.5968 13.0003   8
   1  -1  10 28.4795 12.7182   8
  -1   0  10 14.4722 14.8914   5
   1  -1  10 23.7021 15.1440   5
   0   1  10 4.80793 15.3294   5
  -1   0  10 10.0981 11.2039   8
  -2   1  10 -16.294 10.9574   8
   1   1  10 11.3904 12.0982   8
   1  -2  10 4.04603 11.6039   8
  -2   1  10 -1.2629 13.4328   5
   1  -2  10 19.6072 14.2762   5
   1   1  10 13.3366 15.1774   5
  -2  -1 -10 35.1851 7.40531   9
   2   1  10 18.0489 12.2926   8
   1  -3  10 49.5691 16.4006   5
   1  -3  10 49.3719 13.1262   8
   2   1  10 34.9400 15.9673   5
  -3   2  10 24.2161 14.9064   5
  -3   2  10 44.0444 13.0790   8
  -2   0 -10 56.7492 8.23898   9
  -2   2  10 32.3896 15.0834   5
  -2   2  10 19.9847 13.1804   8
   2   0  10 36.9510 12.6934   8
   0  -2  10 59.4959 13.2677   8
   0  -2  10 58.1431 16.5069   5
   2   0  10 68.0835 16.9841   5
   2  -1  10 18.3924 14.2701   5
  -1   2  10 25.1335 12.7655   8
  -1   2  10 32.6563 15.1012   5
   2  -1  10 0.97040 10.8989   8
  -1  -1  10 5.75147 14.9366   5
  -1  -1  10 -2.5971 11.0346   8
  -2   0  10 -6.4425 11.2137   8
   0   2  10 -5.4880 11.3122   8
   2  -2  10 26.8207 14.5318   5
   2  -2  10 2.96272 11.5789   8
   0   2  10 6.53074 14.8913   5
  -2   0  10 -1.8264 14.2311   5
   2  -3  10 16.5624 14.7817   5
  -3   1  10 -6.7966 13.3552   5
   1   2  10 -0.1807 14.7227   5
   1   2  10 4.32737 12.1611   8
   2  -3  10 7.87175 11.0179   8
  -3   1  10 11.8121 12.5090   8
   2  -4  10 25.0253 12.4564   8
   2   2  10 9.57109 11.4307   8
  -4   2  10 8.70252 11.8893   8
   2   2  10 -3.8165 15.1567   5
  -4   2  10 -14.958 13.7732   5
  -3  -2 -10 16.3122 6.85607   9
   2  -5  10 19.7921 12.2784   8
  -5   3  10 2.72896 12.2192   8
   3   2  10 16.1325 13.1589   8
  -3  -1 -10 11.3658 7.47608   9
   1  -4  10 12.1147 11.7777   8
  -4   3  10 52.0031 13.4526   8
   3   1  10 36.8893 13.1182   8
  -4   3  10 -2.2691 14.2140   5
  -3   0 -10 14.9366 7.89087   9
  -3   3  10 27.3255 14.4163   5
   0  -3  10 21.1065 17.3604   5
   3   0  10 2.03815 11.4078   8
  -3   3  10 15.0799 12.5950   8
   3   0  10 18.4857 16.2743   5
   0  -3  10 2.93484 11.3273   8
  -3   1 -10 2.11259 7.77486   9
   3  -1  10 9.67809 11.5234   8
   3  -1  10 16.7977 15.0931   5
  -1  -2  10 15.1323 11.9449   8
  -2   3  10 17.4498 12.5440   8
  -1  -2  10 6.66962 14.3634   5
  -2   3  10 -3.1765 13.9439   5
  -3   2 -10 2.34247 7.86324   9
  -2  -1  10 27.9877 12.3931   8
  -2  -1  10 21.0638 15.3699   5
   3  -2  10 39.9483 16.2061   5
  -1   3  10 3.90529 11.8763   8
  -1   3  10 16.9194 15.3180   5
   3  -2  10 20.6012 11.9303   8
  -3   3 -10 2.91030 8.41776   9
   3  -3  10 -0.9904 11.2310   8
   3  -3  10 13.9486 16.6881   5
   0   3  10 -6.3281 14.2905   5
   0   3  10 4.73959 12.2906   8
  -3   0  10 -19.960 9.87641   8
   1   3  10 21.3032 15.8007   5
   1   3  10 17.2383 12.7969   8
   3  -4  10 -32.240 10.6688   8
  -4   1  10 7.72558 11.5606   8
  -3   5 -10 5.79266 11.8545   2
  -5   2  10 14.5448 12.0197   8
   3  -5  10 17.8747 12.7200   8
   2   3  10 15.6877 12.4634   8
  -3  -3 -10 25.6614 7.40259   9
  -3   6 -10 13.5239 8.71968   2
   3   3  10 25.7553 13.5689   8
   3  -6  10 10.3573 11.8898   8
  -6   3  10 31.3901 13.8443   8
  -3   7 -10 2.34104 9.03511   2
  -4  -3 -10 -0.1861 7.29545   9
   3  -7  10 -3.2884 11.8017   8
   4   3  10 1.93884 12.7286   8
  -7   4  10 -4.8082 11.7834   8
  -2   6 -10 7.16114 8.62344   2
  -4  -2 -10 14.4813 7.43094   9
   4   2  10 17.0574 12.4641   8
  -6   4  10 8.26481 13.2141   8
   2  -6  10 21.7264 12.2544   8
  -4  -1 -10 1.91554 7.07764   9
  -1   5 -10 7.13027 10.1798   2
   4   1  10 5.55568 11.5153   8
  -5   4  10 -2.6036 13.6509   5
  -5   4  10 33.1002 13.8528   8
   1  -5  10 0.78269 10.6363   8
  -4   0 -10 11.8717 7.91920   9
  -4   4  10 31.4175 14.8965   5
  -4   4  10 21.2779 12.5010   8
   4   0  10 0.43247 11.6369   8
   0  -4  10 23.5896 11.7951   8
  -4   1 -10 26.1339 9.02601   9
  -3   4  10 15.7666 14.0282   5
  -1  -3  10 10.5687 11.7196   8
  -3   4  10 29.5418 13.3716   8
   4  -1  10 36.7229 12.8490   8
  -4   2 -10 0.38692 8.55390   9
  -2   4  10 8.05136 12.1853   8
   4  -2  10 4.78215 10.7200   8
  -2  -2  10 -4.0802 11.4503   8
  -2   4  10 7.71640 14.2299   5
  -4   3 -10 -1.0571 9.14982   9
  -3  -1  10 -18.746 10.9259   8
  -1   4  10 7.91228 12.3749   8
   4  -3  10 11.1137 11.1372   8
  -1   4  10 8.75308 14.2964   5
  -4   4 -10 -0.4847 8.74616   9
  -4   0  10 11.5049 12.0857   8
   0   4  10 -1.5967 11.9711   8
   4  -4  10 10.3362 11.3983   8
   0   4  10 -8.5628 14.5664   5
  -4   5 -10 11.3987 8.41562   2
  -4   5 -10 14.9334 10.4569   9
  -5   1  10 32.2744 12.9651   8
   1   4  10 12.2644 17.9471   5
   4  -5  10 -4.1818 11.7530   8
   1   4  10 -0.5785 11.9788   8
  -2  -4 -10 11.1322 6.22114   9
  -4   6 -10 16.8912 11.0666   9
  -4   6 -10 -4.6537 7.69818   2
   4  -6  10 -2.3129 11.4975   8
   2   4  10 27.8126 13.0782   8
  -6   2  10 19.0078 13.6896   8
  -4   7 -10 39.1455 12.9112   9
  -3  -4 -10 37.9284 8.26065   9
  -4   7 -10 57.2666 10.6707   2
   3   4  10 48.6062 14.4011   8
  -7   3  10 52.4708 14.0793   8
   4  -7  10 39.9116 13.4753   8
  -4   8 -10 -7.4099 11.5520   9
  -4   8 -10 16.4566 9.84842   2
  -4  -4 -10 20.9736 8.63244   9
  -8   4  10 8.77467 13.6011   8
   4   4  10 33.2358 13.9953   8
  -3   8 -10 28.6756 10.2136   2
  -5  -3 -10 2.46989 8.34883   9
  -8   5  10 12.6915 12.9638   8
   5   3  10 15.5660 13.1809   8
  -5  -2 -10 -1.1059 7.64626   9
  -2   7 -10 -5.7121 8.85113   2
   5   2  10 10.3944 12.0824   8
  -7   5  10 14.1591 13.1674   8
  -5  -1 -10 -4.9450 7.71296   9
  -1   6 -10 3.53426 8.37978   2
   1  -6  10 5.95936 11.5528   8
   5   1  10 -12.351 12.7066   8
  -6   5  10 11.2747 12.7457   8
  -5   0 -10 6.73077 7.91018   9
   0   5 -10 13.9095 8.25131   2
  -5   5  10 -4.0270 12.7453   8
   0  -5  10 -4.9821 11.0785   8
   5   0  10 22.4470 13.9914   8
  -5   1 -10 -1.1160 8.59398   9
  -4   5  10 -4.9406 13.9942   5
   5  -1  10 9.71885 12.4750   8
  -1  -4  10 16.3796 12.0203   8
  -4   5  10 13.4071 11.9069   8
  -5   2 -10 15.5071 9.40582   9
   5  -2  10 -5.8294 12.2025   8
  -3   5  10 -17.163 12.1846   8
  -3   5  10 1.46492 14.3537   5
  -2  -3  10 11.0110 11.1410   8
  -5   3 -10 11.0355 9.71909   9
  -3  -2  10 -1.8839 10.9798   8
  -2   5  10 11.1379 12.6494   8
   5  -3  10 29.5329 13.3394   8
  -2   5  10 -9.4502 14.6967   5
  -5   4 -10 -4.6048 9.77197   9
  -1   5  10 14.8875 14.8533   5
  -4  -1  10 -3.1817 11.6836   8
  -1   5  10 -13.728 11.5627   8
   5  -4  10 1.46275 11.9376   8
  -5   5 -10 6.27927 7.33292   2
  -5   5 -10 7.17671 10.4949   9
   5  -5  10 5.77332 12.9913   8
  -5   0  10 5.15664 12.1834   8
   0   5  10 -10.836 11.9388   8
   0   5  10 16.4849 16.1810   5
  -5   6 -10 11.4135 11.4523   9
  -5   6 -10 15.9511 8.45169   2
   5  -6  10 11.4007 12.4656   8
   1   5  10 11.4213 12.9913   8
  -6   1  10 20.7200 13.0508   8
  -2  -5 -10 1.47761 6.78632   9
  -5   7 -10 11.1729 11.5801   9
  -5   7 -10 -6.9358 8.37577   2
  -7   2  10 25.4765 13.3435   8
   2   5  10 -1.6015 13.0356   8
   5  -7  10 -13.479 11.2782   8
  -5   8 -10 8.51035 12.1855   9
  -5   8 -10 1.12973 9.20056   2
  -8   3  10 10.1808 13.0204   8
   5  -8  10 7.05478 12.4509   8
   3   5  10 0.72658 12.9362   8
  -6  -2 -10 8.52362 9.27961   9
  -2   8 -10 5.67512 9.46267   2
   6   2  10 -8.4731 12.5494   8
  -8   6  10 6.95909 13.7519   8
  -1   7 -10 13.5581 9.26662   2
  -6  -1 -10 11.5185 9.09709   9
  -7   6  10 23.2073 14.4390   8
   6   1  10 3.89102 13.2228   8
   0   6 -10 7.76329 8.73335   2
  -6   0 -10 3.37534 8.74768   9
  -6   6  10 28.4460 13.8751   8
   6   0  10 5.87362 13.1089   8
  -6   1 -10 15.9800 9.53139   9
   1   5 -10 15.9313 8.04444   2
  -5   6  10 22.1472 13.6631   8
  -1  -5  10 16.7666 11.4014   8
   6  -1  10 -0.4493 13.0192   8
  -6   2 -10 9.29056 9.18951   9
  -4   6  10 12.6095 12.5637   8
   6  -2  10 -11.757 12.3680   8
  -2  -4  10 2.00717 10.7560   8
  -6   3 -10 15.5734 10.2666   9
  -3   6  10 3.31408 12.8285   8
  -3  -3  10 20.7413 11.9851   8
   6  -3  10 6.03860 13.0268   8
  -6   4 -10 8.45703 10.7891   9
  -4  -2  10 -8.6049 10.3273   8
  -2   6  10 -5.4280 12.0700   8
  -2   6  10 -6.2661 14.1799   5
   6  -4  10 18.4489 13.5768   8
  -6   5 -10 35.7068 8.72701   2
  -6   5 -10 38.8189 12.6189   9
  -5  -1  10 24.7318 12.7926   8
  -1   6  10 32.1720 14.0700   8
   6  -5  10 9.49775 13.2255   8
  -1   6  10 -7.9416 14.3455   5
  -6   6 -10 2.10477 8.31937   2
  -6   6 -10 0.24282 11.4529   9
  -6   0  10 15.3607 12.8307   8
   6  -6  10 5.74514 12.8424   8
   0   6  10 -18.854 12.2232   8
  -6   7 -10 1.51854 12.1430   9
  -6   7 -10 -6.0832 8.96477   2
   1   6  10 -4.3978 12.5020   8
   6  -7  10 -8.2049 12.2045   8
  -7   1  10 18.6754 12.9435   8
  -6   8 -10 -0.5848 12.2125   9
  -6   8 -10 12.5185 9.55187   2
   6  -8  10 19.2506 13.3394   8
  -8   2  10 10.7909 13.0046   8
   2   6  10 4.85117 13.3672   8
  -7   0 -10 3.66685 9.54840   9
   0   7 -10 5.97058 9.06921   2
  -7   7  10 21.0856 13.7625   8
   7   0  10 -3.1969 13.1619   8
   1   6 -10 36.6750 9.48889   2
  -7   1 -10 29.4532 10.5470   9
   7  -1  10 27.3822 14.0381   8
  -6   7  10 -8.6260 13.0067   8
  -7   2 -10 26.2712 10.9599   9
   2   5 -10 22.5845 8.54798   2
  -5   7  10 56.9294 15.2905   8
   7  -2  10 18.1657 13.5144   8
  -7   3 -10 -6.2700 9.23106   9
   7  -3  10 17.4095 13.3936   8
  -4   7  10 17.5702 14.0447   8
  -3  -4  10 6.58165 11.5754   8
  -7   4 -10 21.9696 8.75193   2
  -7   4 -10 33.2207 11.9612   9
  -4  -3  10 35.9197 12.7645   8
  -3   7  10 8.44612 13.0912   8
   7  -4  10 27.9500 13.3894   8
  -7   5 -10 19.3134 12.1782   9
  -7   5 -10 7.54261 8.94337   2
   7  -5  10 1.69699 12.8285   8
  -5  -2  10 15.8592 12.8459   8
  -2   7  10 21.4469 13.5398   8
  -7   6 -10 27.6951 12.8284   9
  -7   6 -10 22.6866 9.12926   2
   7  -6  10 30.3429 14.6244   8
  -1   7  10 24.6722 14.2577   8
  -6  -1  10 18.3139 12.4663   8
  -7   7 -10 30.6540 13.6095   9
  -7   7 -10 24.2890 9.55471   2
   0   7  10 33.9659 14.5794   8
   7  -7  10 2.90654 13.1450   8
  -7   0  10 33.1339 13.0930   8
  -8   2 -10 -2.0762 10.5242   9
   2   6 -10 -0.6049 8.55436   2
   8  -2  10 -4.1831 13.4135   8
  -6   8  10 20.7907 14.6787   8
  -8   3 -10 -1.0721 9.83273   2
   3   5 -10 16.2067 8.63779   2
  -8   3 -10 0.19262 10.8559   9
   8  -3  10 7.10344 12.7698   8
  -5   8  10 13.8527 14.4090   8
  -8   4 -10 23.7682 12.1439   9
  -8   4 -10 13.9898 8.54995   2
   4   4 -10 13.4554 8.50552   2
  -4   8  10 22.6141 14.0783   8
   8  -4  10 15.1753 13.4820   8
  -8   5 -10 -2.5624 11.2629   9
  -8   5 -10 2.38848 8.73250   2
  -3   8  10 1.42195 12.5043   8
  -5  -3  10 -10.085 11.1498   8
   8  -5  10 -4.8389 13.1349   8
  -8   6 -10 6.81871 12.2610   9
  -8   6 -10 27.0007 10.0695   2
  -2   8  10 7.85106 13.2807   8
   8  -6  10 0.87454 13.5834   8
  -6  -2  10 19.4834 12.4777   8
   0   0  11 -13.496 12.2825   8
   1   0  11 26.9693 13.7875   8
  -1   1  11 8.99173 13.0272   8
   0  -1  11 7.65568 13.3132   8
  -1   0  11 20.8562 13.4562   8
   0   1  11 3.68437 13.1575   8
   1  -1  11 26.6941 13.1766   8
   1  -2  11 -3.8447 12.0813   8
  -2   1  11 -9.1799 12.8778   8
   1   1  11 7.16463 12.9759   8
  -2   0 -11 9.16909 7.97322   9
   2   0  11 12.5585 13.0800   8
   0  -2  11 3.42482 12.8402   8
  -2   2  11 -8.9818 12.6840   8
  -2   1 -11 5.27452 7.99646   9
   2  -1  11 1.09850 12.2070   8
  -1   2  11 -14.439 12.6924   8
  -1  -1  11 -9.4217 12.0739   8
  -2   2 -11 0.54809 8.67879   9
   2  -2  11 13.4193 13.5231   8
   0   2  11 0.69702 13.3453   8
  -2   0  11 2.66846 13.1778   8
   0   0   0    0.00    0.00   0
;
_shelx_hkl_checksum              77446
loop_
_space_group_symop_operation_xyz
'x, y, z'
'-y, x-y, z'
'-x+y, -x, z'
loop_
_atom_site_label
_atom_site_type_symbol
_atom_site_fract_x
_atom_site_fract_y
_atom_site_fract_z
_atom_site_U_iso_or_equiv
_atom_site_adp_type
_atom_site_occupancy
_atom_site_site_symmetry_order
_atom_site_calc_flag
_atom_site_refinement_flags_posn
_atom_site_refinement_flags_adp
_atom_site_refinement_flags_occupancy
Br6 Br 0.58355(11) 0.14731(11) 1.20066(17) 0.0512(4) Uani 1 1 d . . .
Br2 Br 0.3333 0.6667 0.3704(3) 0.0497(5) Uani 1 3 d S T P
Br3 Br 0.0000 0.0000 -0.5827(3) 0.0522(6) Uani 1 3 d S T P
Br5 Br 0.6667 0.3333 1.5838(3) 0.0579(6) Uani 1 3 d S T P
Br4 Br 0.07842(12) 0.18591(12) -0.1981(2) 0.0587(4) Uani 1 1 d . . .
Br1 Br 0.17273(13) 0.50676(13) -0.0248(2) 0.0702(4) Uani 1 1 d . . .
Ga3 Ga 0.6667 0.3333 1.2929(3) 0.0380(5) Uani 1 3 d S T P
Ga2 Ga 0.0000 0.0000 -0.2892(3) 0.0399(5) Uani 1 3 d S T P
Ga1 Ga 0.3333 0.6667 0.0746(3) 0.0397(5) Uani 1 3 d S T P
Cl2 Cl 0.4321(3) 0.1666(3) 0.8587(5) 0.0637(9) Uani 1 1 d . . .
Cl1 Cl 0.2389(3) 0.2283(3) 0.1727(4) 0.0599(9) Uani 1 1 d . . .
S2 S 0.4074(3) 0.3833(3) 0.7932(4) 0.0569(9) Uani 1 1 d . . .
S3 S 0.2677(3) 0.0143(3) 0.2335(5) 0.0625(10) Uani 1 1 d . . .
S1 S 0.3557(3) 0.4678(3) 0.6326(5) 0.0588(9) Uani 1 1 d . . .
S4 S 0.3226(4) -0.0685(3) 0.3961(6) 0.0751(12) Uani 1 1 d . . .
N1 N 0.3171(8) 0.3882(9) 0.4758(13) 0.042(2) Uani 1 1 d . . .
N2 N 0.3590(10) 0.0066(11) 0.5526(15) 0.063(3) Uani 1 1 d . . .
C1 C 0.3239(9) 0.2943(10) 0.4898(15) 0.039(3) Uani 1 1 d . . .
C4 C 0.3504(10) 0.1032(10) 0.5371(17) 0.043(3) Uani 1 1 d . . .
C6 C 0.3698(10) 0.2745(11) 0.6452(16) 0.043(3) Uani 1 1 d . . .
C5 C 0.3778(10) 0.1814(11) 0.6663(15) 0.042(3) Uani 1 1 d . . .
C2 C 0.2911(9) 0.2099(10) 0.3597(14) 0.036(3) Uani 1 1 d . . .
C3 C 0.3029(9) 0.1179(10) 0.3813(15) 0.038(3) Uani 1 1 d . . .
loop_
_atom_site_aniso_label
_atom_site_aniso_U_11
_atom_site_aniso_U_22
_atom_site_aniso_U_33
_atom_site_aniso_U_23
_atom_site_aniso_U_13
_atom_site_aniso_U_12
Br6 0.0511(8) 0.0388(7) 0.0631(9) -0.0057(6) -0.0068(7) 0.0219(6)
Br2 0.0513(8) 0.0513(8) 0.0464(13) 0.000 0.000 0.0257(4)
Br3 0.0539(8) 0.0539(8) 0.0488(14) 0.000 0.000 0.0270(4)
Br5 0.0643(10) 0.0643(10) 0.0451(14) 0.000 0.000 0.0322(5)
Br4 0.0594(9) 0.0421(7) 0.0704(10) -0.0133(7) -0.0137(8) 0.0223(7)
Br1 0.0585(9) 0.0562(9) 0.0685(10) -0.0077(8) -0.0083(8) 0.0080(7)
Ga3 0.0360(7) 0.0360(7) 0.0420(13) 0.000 0.000 0.0180(4)
Ga2 0.0352(7) 0.0352(7) 0.0492(15) 0.000 0.000 0.0176(4)
Ga1 0.0382(7) 0.0382(7) 0.0428(12) 0.000 0.000 0.0191(3)
Cl2 0.069(2) 0.079(2) 0.053(2) 0.0200(19) 0.0023(18) 0.045(2)
Cl1 0.057(2) 0.087(3) 0.0460(19) 0.0070(18) -0.0035(16) 0.044(2)
S2 0.058(2) 0.057(2) 0.049(2) -0.0015(17) -0.0067(17) 0.0241(17)
S3 0.059(2) 0.047(2) 0.072(3) -0.0141(18) 0.0018(19) 0.0189(17)
S1 0.069(2) 0.058(2) 0.057(2) 0.0012(18) -0.0011(19) 0.0382(19)
S4 0.085(3) 0.045(2) 0.096(3) -0.003(2) 0.005(3) 0.033(2)
N1 0.043(6) 0.055(6) 0.041(6) 0.008(5) 0.001(5) 0.034(5)
N2 0.050(7) 0.086(9) 0.054(8) 0.024(7) 0.009(6) 0.036(7)
C1 0.033(6) 0.043(7) 0.037(6) 0.007(5) 0.002(5) 0.016(5)
C4 0.036(6) 0.039(6) 0.057(8) 0.016(6) 0.013(6) 0.021(5)
C6 0.036(6) 0.052(7) 0.042(7) 0.003(6) 0.008(5) 0.023(6)
C5 0.037(6) 0.057(8) 0.038(7) 0.005(6) 0.003(5) 0.028(6)
C2 0.025(5) 0.052(7) 0.029(6) 0.008(5) 0.002(5) 0.017(5)
C3 0.028(6) 0.040(6) 0.046(7) 0.003(6) 0.004(5) 0.018(5)
loop_
_atom_type_symbol
_atom_type_description
_atom_type_scat_dispersion_real
_atom_type_scat_dispersion_imag
_atom_type_scat_source
Br Br -0.2901 2.4595 'International Tables Vol C Tables 4.2.6.8 and 6.1.1.4'
C C 0.0033 0.0016 'International Tables Vol C Tables 4.2.6.8 and 6.1.1.4'
Cl Cl 0.1484 0.1585 'International Tables Vol C Tables 4.2.6.8 and 6.1.1.4'
Ga Ga 0.2307 1.6083 'International Tables Vol C Tables 4.2.6.8 and 6.1.1.4'
N N 0.0061 0.0033 'International Tables Vol C Tables 4.2.6.8 and 6.1.1.4'
S S 0.1246 0.1234 'International Tables Vol C Tables 4.2.6.8 and 6.1.1.4'
loop_
_geom_angle_atom_site_label_1
_geom_angle_atom_site_label_2
_geom_angle_atom_site_label_3
_geom_angle
_geom_angle_site_symmetry_1
_geom_angle_site_symmetry_3
Br5 Ga3 Br6 108.31(7) . .
Br5 Ga3 Br6 108.31(7) . 2_655
Br6 Ga3 Br6 110.61(6) . 2_655
Br5 Ga3 Br6 108.31(7) . 3_665
Br6 Ga3 Br6 110.61(6) . 3_665
Br6 Ga3 Br6 110.61(6) 2_655 3_665
Br3 Ga2 Br4 108.06(7) . 2
Br3 Ga2 Br4 108.06(7) . 3
Br4 Ga2 Br4 110.85(7) 2 3
Br3 Ga2 Br4 108.06(7) . .
Br4 Ga2 Br4 110.85(7) 2 .
Br4 Ga2 Br4 110.84(7) 3 .
Br1 Ga1 Br1 109.18(7) 3_565 2_665
Br1 Ga1 Br1 109.18(7) 3_565 .
Br1 Ga1 Br1 109.18(7) 2_665 .
Br1 Ga1 Br2 109.76(7) 3_565 .
Br1 Ga1 Br2 109.76(7) 2_665 .
Br1 Ga1 Br2 109.76(7) . .
C6 S2 S1 91.5(5) . .
C3 S3 S4 89.9(4) . .
N1 S1 S2 101.0(4) . .
N2 S4 S3 102.7(5) . .
C1 N1 S1 116.3(9) . .
C4 N2 S4 114.4(10) . .
N1 C1 C2 124.5(11) . .
N1 C1 C6 119.2(11) . .
C2 C1 C6 116.2(10) . .
C5 C4 N2 123.2(12) . .
C5 C4 C3 119.1(10) . .
N2 C4 C3 117.5(12) . .
C5 C6 C1 121.7(12) . .
C5 C6 S2 126.3(10) . .
C1 C6 S2 112.0(9) . .
C6 C5 C4 121.3(11) . .
C6 C5 Cl2 117.3(10) . .
C4 C5 Cl2 121.2(10) . .
C3 C2 C1 121.3(10) . .
C3 C2 Cl1 119.7(10) . .
C1 C2 Cl1 119.0(9) . .
C2 C3 C4 120.2(11) . .
C2 C3 S3 124.5(10) . .
C4 C3 S3 115.2(9) . .
loop_
_geom_bond_atom_site_label_1
_geom_bond_atom_site_label_2
_geom_bond_distance
_geom_bond_site_symmetry_2
Br6 Ga3 2.3205(15) .
Br2 Ga1 2.337(3) .
Br3 Ga2 2.319(3) .
Br5 Ga3 2.298(4) .
Br4 Ga2 2.3208(16) .
Br1 Ga1 2.3242(16) .
Ga3 Br6 2.3205(15) 2_655
Ga3 Br6 2.3205(15) 3_665
Ga2 Br4 2.3207(16) 2
Ga2 Br4 2.3207(16) 3
Ga1 Br1 2.3242(16) 3_565
Ga1 Br1 2.3242(16) 2_665
Cl2 C5 1.747(12) .
Cl1 C2 1.712(11) .
S2 C6 1.753(13) .
S2 S1 2.063(5) .
S3 C3 1.707(12) .
S3 S4 2.083(6) .
S1 N1 1.556(11) .
S4 N2 1.523(14) .
N1 C1 1.335(14) .
N2 C4 1.388(17) .
C1 C2 1.439(16) .
C1 C6 1.464(17) .
C4 C5 1.386(17) .
C4 C3 1.451(17) .
C6 C5 1.339(17) .
C2 C3 1.354(16) .
