#------------------------------------------------------------------------------
#$Date: 2019-11-25 17:06:40 +0200 (Mon, 25 Nov 2019) $
#$Revision: 241409 $
#$URL: file:///home/coder/svn-repositories/cod/cif/4/13/11/4131119.cif $
#------------------------------------------------------------------------------
#
# This file is available in the Crystallography Open Database (COD),
# http://www.crystallography.net/
#
# All data on this site have been placed in the public domain by the
# contributors.
#
data_4131119
loop_
_publ_author_name
'Woerly, Eric M.'
'Banik, Steven M.'
'Jacobsen, Eric N.'
_publ_section_title
;
 Enantioselective, Catalytic Fluorolactonization Reactions with a
 Nucleophilic Fluoride Source.
;
_journal_issue                   42
_journal_name_full               'Journal of the American Chemical Society'
_journal_page_first              13858
_journal_page_last               13861
_journal_paper_doi               10.1021/jacs.6b09499
_journal_volume                  138
_journal_year                    2016
_chemical_absolute_configuration ad
_chemical_formula_sum            'C11 H11 F O3'
_chemical_formula_weight         210.20
_space_group_crystal_system      monoclinic
_space_group_IT_number           4
_space_group_name_Hall           'P 2yb'
_space_group_name_H-M_alt        'P 1 21 1'
_atom_sites_solution_hydrogens   geom
_audit_creation_method           SHELXL-2014/7
_cell_angle_alpha                90
_cell_angle_beta                 92.4936(17)
_cell_angle_gamma                90
_cell_formula_units_Z            2
_cell_length_a                   4.5174(2)
_cell_length_b                   6.8284(4)
_cell_length_c                   15.9328(8)
_cell_measurement_reflns_used    9852
_cell_measurement_temperature    100(2)
_cell_measurement_theta_max      66.5
_cell_measurement_theta_min      2.83
_cell_volume                     491.01(4)
_computing_cell_refinement       'SAINT 8.34C (Bruker-AXS, 2014)'
_computing_data_collection       'APEX2 v2014.3.0 (Bruker-AXS, 2014)'
_computing_data_reduction        'SAINT 8.34C (Bruker-AXS, 2014)'
_computing_molecular_graphics    'Bruker SHELXTL (Sheldrick, 2015)'
_computing_publication_material  'Bruker SHELXTL (Sheldrick, 2015)'
_computing_structure_refinement  'SHELXL-2014 (Sheldrick, 2015)'
_computing_structure_solution    'SHELXT-2014 (Sheldrick, 2015)'
_diffrn_ambient_temperature      100(2)
_diffrn_measured_fraction_theta_full 0.995
_diffrn_measured_fraction_theta_max 0.995
_diffrn_measurement_device_type
;
Bruker D8 goniometer with CCD area detector  
;
_diffrn_measurement_method       'omega and phi scans'
_diffrn_radiation_monochromator  graphite
_diffrn_radiation_source         'I\mS microfocus tube'
_diffrn_radiation_type           CuK\a
_diffrn_radiation_wavelength     1.54178
_diffrn_reflns_av_R_equivalents  0.0337
_diffrn_reflns_av_unetI/netI     0.0183
_diffrn_reflns_Laue_measured_fraction_full 0.995
_diffrn_reflns_Laue_measured_fraction_max 0.995
_diffrn_reflns_limit_h_max       5
_diffrn_reflns_limit_h_min       -5
_diffrn_reflns_limit_k_max       7
_diffrn_reflns_limit_k_min       -7
_diffrn_reflns_limit_l_max       18
_diffrn_reflns_limit_l_min       -18
_diffrn_reflns_number            12027
_diffrn_reflns_point_group_measured_fraction_full 0.937
_diffrn_reflns_point_group_measured_fraction_max 0.937
_diffrn_reflns_theta_full        66.500
_diffrn_reflns_theta_max         66.675
_diffrn_reflns_theta_min         2.776
_exptl_absorpt_coefficient_mu    0.980
_exptl_absorpt_correction_T_max  0.8642
_exptl_absorpt_correction_T_min  0.7647
_exptl_absorpt_correction_type   multi-scan
_exptl_absorpt_process_details   sadabs
_exptl_crystal_colour            colorless
_exptl_crystal_density_diffrn    1.422
_exptl_crystal_description       block
_exptl_crystal_F_000             220
_exptl_crystal_size_max          0.180
_exptl_crystal_size_mid          0.100
_exptl_crystal_size_min          0.080
_refine_diff_density_max         0.191
_refine_diff_density_min         -0.150
_refine_diff_density_rms         0.035
_refine_ls_abs_structure_details
;
 Classical Flack method preferred over Parsons because s.u. lower.
;
_refine_ls_abs_structure_Flack   0.0(2)
_refine_ls_extinction_coef       0.017(3)
_refine_ls_extinction_expression Fc^*^=kFc[1+0.001xFc^2^\l^3^/sin(2\q)]^-1/4^
_refine_ls_extinction_method     'SHELXL-2014/7 (Sheldrick 2014'
_refine_ls_goodness_of_fit_ref   1.038
_refine_ls_hydrogen_treatment    constr
_refine_ls_matrix_type           full
_refine_ls_number_parameters     138
_refine_ls_number_reflns         1628
_refine_ls_number_restraints     1
_refine_ls_restrained_S_all      1.038
_refine_ls_R_factor_all          0.0338
_refine_ls_R_factor_gt           0.0326
_refine_ls_shift/su_max          0.000
_refine_ls_shift/su_mean         0.000
_refine_ls_structure_factor_coef Fsqd
_refine_ls_weighting_details
'w=1/[\s^2^(Fo^2^)+(0.0574P)^2^+0.1501P] where P=(Fo^2^+2Fc^2^)/3'
_refine_ls_weighting_scheme      calc
_refine_ls_wR_factor_gt          0.0843
_refine_ls_wR_factor_ref         0.0857
_reflns_Friedel_coverage         0.723
_reflns_Friedel_fraction_full    0.867
_reflns_Friedel_fraction_max     0.867
_reflns_number_gt                1588
_reflns_number_total             1628
_reflns_threshold_expression     'I > 2\s(I)'
_cod_data_source_file            ja6b09499_si_004.cif
_cod_data_source_block           EMW-480A-IV-85
_cod_original_sg_symbol_H-M      'P 21'
_cod_database_code               4131119
_shelx_shelxl_version_number     2014/7
_shelx_space_group_comment
;
The symmetry employed for this shelxl refinement is uniquely defined
by the following loop, which should always be used as a source of
symmetry information in preference to the above space-group names.
They are only intended as comments.
;
_shelx_estimated_absorpt_t_min   0.843
_shelx_estimated_absorpt_t_max   0.926
_shelx_res_file
;

    zsl.res created by SHELXL-2014/7

TITL zsl in P2(1)
CELL 1.54178 4.5174 6.8284 15.9328 90 92.4936 90
ZERR 2 0.0002 0.0004 0.0008 0 0.0017 0
LATT -1
SYMM -X,0.5+Y,-Z

SFAC C H F O
UNIT 22 22 2 6

SIZE 0.08 0.10 0.18
L.S. 10
PLAN  -1
TEMP -173.21
CONF
BOND $H
LIST 4
fmap 2
acta 133
REM <HKL>G:/zsl/Jacobsen/EWoerly1503/work/zsl.hkl</HKL>

WGHT    0.057400    0.150100
EXTI    0.016504
FVAR       0.53883
C1    1   -0.514866   -0.554758   -0.840987    11.00000    0.01531    0.01586 =
         0.01509   -0.00150   -0.00083   -0.00068
C2    1   -0.711943   -0.381399   -0.843882    11.00000    0.01406    0.01385 =
         0.01701   -0.00137   -0.00150   -0.00308
C3    1   -0.732048   -0.269211   -0.916988    11.00000    0.01824    0.01836 =
         0.01610   -0.00027    0.00059   -0.00155
AFIX  43
H3    2   -0.623842   -0.305587   -0.964364    11.00000   -1.20000
AFIX   0
C4    1   -0.911299   -0.103896   -0.920127    11.00000    0.02158    0.01889 =
         0.01908    0.00409   -0.00281   -0.00039
AFIX  43
H4    2   -0.926346   -0.027093   -0.969847    11.00000   -1.20000
AFIX   0
C5    1   -1.068295   -0.050777   -0.850829    11.00000    0.02178    0.01385 =
         0.02712   -0.00158   -0.00361    0.00276
AFIX  43
H5    2   -1.192220    0.061650   -0.853517    11.00000   -1.20000
AFIX   0
C6    1   -1.045732   -0.160597   -0.777604    11.00000    0.01850    0.01706 =
         0.01876   -0.00586   -0.00048    0.00092
AFIX  43
H6    2   -1.151924   -0.122256   -0.730125    11.00000   -1.20000
AFIX   0
C7    1   -0.867567   -0.326986   -0.773633    11.00000    0.01516    0.01542 =
         0.01713   -0.00239   -0.00190   -0.00083
C8    1   -0.836386   -0.451302   -0.696058    11.00000    0.01581    0.01800 =
         0.01498   -0.00075    0.00047    0.00072
AFIX  13
H8    2   -1.024513   -0.446000   -0.665297    11.00000   -1.20000
AFIX   0
C9    1   -0.771014   -0.660338   -0.718722    11.00000    0.01405    0.01722 =
         0.01638    0.00088    0.00278    0.00125
AFIX  13
H9    2   -0.948939   -0.715417   -0.749934    11.00000   -1.20000
AFIX   0
C10   1   -0.693468   -0.793309   -0.644980    11.00000    0.01706    0.01798 =
         0.01859    0.00138    0.00195    0.00126
AFIX  23
H10A  2   -0.625323   -0.922260   -0.664974    11.00000   -1.20000
H10B  2   -0.533618   -0.734572   -0.608701    11.00000   -1.20000
AFIX   0
C11   1   -0.914474   -0.948807   -0.532344    11.00000    0.03317    0.02280 =
         0.02071    0.00620    0.00667    0.00227
AFIX 137
H11A  2   -0.849683   -1.075500   -0.553866    11.00000   -1.50000
H11B  2   -1.102320   -0.965381   -0.504635    11.00000   -1.50000
H11C  2   -0.764025   -0.898089   -0.491827    11.00000   -1.50000
AFIX   0
O1    4   -0.521065   -0.672751   -0.772473    11.00000    0.01742    0.01835 =
         0.01668    0.00214    0.00360    0.00493
O2    4   -0.341895   -0.594043   -0.893929    11.00000    0.02310    0.01964 =
         0.01947   -0.00127    0.00567    0.00350
O3    4   -0.954121   -0.814863   -0.599939    11.00000    0.02068    0.02345 =
         0.01937    0.00730    0.00352    0.00378
F1    3   -0.600513   -0.376222   -0.643806    11.00000    0.02541    0.02144 =
         0.01668   -0.00320   -0.00431   -0.00104
HKLF 4

REM  zsl in P2(1)
REM R1 =  0.0326 for    1588 Fo > 4sig(Fo)  and  0.0338 for all    1628 data
REM    138 parameters refined using      1 restraints

END

WGHT      0.0574      0.1501

REM Highest difference peak  0.191,  deepest hole -0.150,  1-sigma level  0.035
Q1    1  -0.7173 -0.7132 -0.6813  11.00000  0.05    0.13
;
_shelx_res_checksum              72960
_shelx_hkl_file
;
  -1   0   0   52.26    2.06
  -1   0   0   51.66    2.11
   1   0   0   53.12    2.05
   1   0   0   48.16    2.08
   1   0   0   53.02    2.07
   1   0   0   52.78    2.13
  -1   0   0   54.02    2.03
  -1   0   0   55.30    2.07
  -1   0   0   53.38    2.07
  -1   0   0   55.31    2.10
  -2   0   0   49.72    1.93
  -2   0   0   51.01    2.11
  -2   0   0   45.73    2.18
  -2   0   0   48.35    1.89
   2   0   0   50.30    1.96
   2   0   0   45.96    2.02
   2   0   0   47.24    2.06
   2   0   0   48.55    1.95
   2   0   0   42.55    2.16
   2   0   0   48.20    2.03
   2   0   0   51.71    2.16
  -2   0   0   52.88    1.89
  -2   0   0   48.57    1.92
  -2   0   0   50.84    2.01
  -2   0   0   47.98    2.11
  -3   0   0    5.95    0.88
  -3   0   0    4.26    0.41
  -3   0   0    4.70    0.43
  -3   0   0    4.55    0.55
  -3   0   0    4.57    0.99
  -3   0   0    4.79    0.87
   3   0   0    4.94    0.71
   3   0   0    4.94    0.62
   3   0   0    4.00    0.77
   3   0   0    4.61    1.13
   3   0   0    5.86    1.20
  -3   0   0    4.62    0.34
  -3   0   0    4.73    0.74
   3   0   0    4.29    0.95
  -4   0   0    0.87    0.12
   4   0   0    0.81    0.48
  -4   0   0    0.69    0.28
  -4   0   0    0.99    0.20
  -4   0   0    0.69    0.19
   5   0   0   26.71    1.07
  -5   0   0   27.94    1.07
   0  -1   0    0.28    0.09
   0  -1   0    0.21    0.06
   0  -1   0    0.07    0.09
  -1  -1   0   98.19    3.85
   1  -1   0  103.22    3.93
   1  -1   0  101.78    3.87
   1  -1   0  103.83    3.81
  -1  -1   0   96.71    3.91
  -1  -1   0  100.11    3.85
  -1  -1   0  107.09    3.86
  -1  -1   0  100.64    3.78
  -1  -1   0   98.54    3.87
  -1  -1   0   99.77    3.84
   1  -1   0   89.07    3.98
   1  -1   0   99.15    3.84
   1  -1   0  101.28    3.88
   1   1   0   99.87    3.77
  -1   1   0   95.72    3.75
  -1   1   0  101.15    3.68
  -1   1   0   98.56    3.72
   1   1   0  100.65    3.88
   1   1   0   91.27    3.70
  -1   1   0   94.11    3.79
   1   1   0   93.94    3.69
   1   1   0   97.17    3.67
  -1   1   0   93.82    3.72
  -2  -1   0   37.64    1.51
   2  -1   0   36.70    1.41
   2  -1   0   35.20    1.44
   2  -1   0   32.96    1.54
  -2  -1   0   34.77    1.75
   2  -1   0   35.28    1.49
   2  -1   0   36.76    1.59
   2  -1   0   37.37    1.68
   2  -1   0   34.75    1.89
   2  -1   0   35.07    1.58
   2  -1   0   35.44    1.63
   2  -1   0   36.01    1.81
  -2  -1   0   36.20    1.61
  -2  -1   0   35.65    1.43
  -2  -1   0   36.12    1.47
  -2  -1   0   40.67    1.81
   2   1   0   30.41    1.36
   2   1   0   31.14    1.53
   2   1   0   31.85    1.84
  -2   1   0   33.73    1.59
  -2   1   0   33.78    1.35
  -2   1   0   31.82    1.70
   2   1   0   33.30    1.53
   2   1   0   31.11    1.61
  -2   1   0   34.59    1.40
  -2   1   0   34.84    1.48
  -2   1   0   35.82    1.41
  -3  -1   0    2.35    0.67
  -3  -1   0    2.65    0.36
   3  -1   0    2.40    1.06
   3  -1   0    2.03    0.75
  -3  -1   0    2.82    0.58
  -3  -1   0    0.94    0.77
  -3  -1   0    1.99    0.33
   3  -1   0    1.83    0.41
  -3  -1   0    2.62    0.77
  -3  -1   0    2.38    0.28
  -3  -1   0    2.30    0.44
  -3   1   0    1.42    0.33
   3   1   0    1.85    0.73
   3   1   0    1.97    0.47
  -3   1   0    1.96    0.61
   3   1   0    3.16    0.95
  -3   1   0    3.40    0.85
   3   1   0    3.75    1.18
   3   1   0    2.66    0.75
   3   1   0    2.21    0.71
  -4  -1   0   29.08    1.34
  -4  -1   0   28.51    1.35
   4  -1   0   30.14    1.60
  -4  -1   0   28.86    1.16
  -4  -1   0   28.34    1.17
  -4  -1   0   30.07    1.13
  -4   1   0   28.10    1.31
  -4   1   0   27.31    1.08
  -4   1   0   27.52    1.03
   4   1   0   25.58    1.66
   4   1   0   26.24    1.59
  -5  -1   0   25.19    0.95
  -5  -1   0   24.17    0.98
  -5  -1   0   25.39    0.98
  -5   1   0   25.75    1.01
   0  -2   0   11.27    0.61
   0  -2   0   11.81    0.55
   0  -2   0   12.89    0.62
   0  -2   0   11.49    0.61
   0  -2   0   12.10    0.66
   0  -2   0   11.68    0.57
   0  -2   0   11.73    0.55
   0  -2   0   11.98    0.61
  -1  -2   0   15.83    0.71
  -1  -2   0   17.07    0.72
   1  -2   0   17.29    0.87
   1  -2   0   17.20    0.79
   1  -2   0   17.29    0.72
   1  -2   0   16.36    0.85
   1  -2   0   16.87    0.76
  -1  -2   0   16.39    0.74
  -1  -2   0   15.53    0.78
  -1  -2   0   17.34    0.91
   1  -2   0   16.77    0.66
   1  -2   0   17.87    0.79
  -1  -2   0   16.17    0.75
  -1  -2   0   17.04    0.74
  -1  -2   0   17.43    0.80
   1  -2   0   17.35    0.93
  -1  -2   0   16.40    0.70
   1  -2   0   17.03    0.79
  -1  -2   0   17.20    0.75
  -1  -2   0   17.27    0.82
  -1  -2   0   17.45    0.72
  -1   2   0   16.01    0.68
   1   2   0   15.94    0.82
   1   2   0   15.58    0.67
  -1   2   0   16.54    0.73
   1   2   0   15.78    0.95
  -1   2   0   16.64    0.85
  -1   2   0   16.56    0.77
  -1   2   0   17.40    0.74
  -2  -2   0   40.94    1.72
   2  -2   0   46.17    2.01
  -2  -2   0   43.55    1.84
  -2  -2   0   46.10    1.94
   2  -2   0   42.45    1.84
   2  -2   0   47.15    1.89
  -2  -2   0   44.85    1.87
   2  -2   0   44.38    2.01
   2  -2   0   46.43    2.23
  -2  -2   0   43.35    1.81
  -2  -2   0   43.12    1.95
  -2  -2   0   44.08    1.76
   2  -2   0   44.39    1.73
   2  -2   0   44.32    1.78
   2  -2   0   44.36    2.06
  -2  -2   0   46.19    1.94
   2   2   0   41.33    1.88
  -2   2   0   41.33    1.71
  -2   2   0   41.54    1.72
  -2   2   0   36.10    1.90
  -2   2   0   40.76    1.74
   2   2   0   39.51    1.66
  -2   2   0   35.15    1.63
   2   2   0   34.15    2.14
  -2   2   0   40.96    1.59
   2   2   0   42.59    1.95
   2   2   0   37.00    1.58
  -3  -2   0   17.01    1.53
  -3  -2   0   17.62    0.85
   3  -2   0   18.55    1.97
  -3  -2   0   16.10    0.75
  -3  -2   0   17.19    0.81
  -3  -2   0   19.27    1.38
  -3  -2   0   17.08    0.90
   3  -2   0   17.32    1.01
  -3  -2   0   12.82    2.12
   3   2   0   17.09    1.28
  -3   2   0   15.21    0.83
   3   2   0   16.42    1.51
   3   2   0   14.29    1.24
  -3   2   0   17.36    1.65
   3   2   0   16.14    0.86
  -3   2   0   15.86    1.35
  -4  -2   0   29.99    1.18
   4  -2   0   30.75    1.58
  -4  -2   0   30.58    1.20
  -4  -2   0   30.28    1.41
  -4  -2   0   30.26    1.20
  -4  -2   0   29.71    1.34
  -4  -2   0   30.73    1.31
  -4  -2   0   29.42    1.21
  -4   2   0   27.13    1.14
   4   2   0   28.19    1.49
  -4   2   0   28.45    1.39
   4   2   0   31.03    1.79
  -5  -2   0    2.73    0.19
  -5  -2   0    2.74    0.14
  -5  -2   0    2.70    0.17
  -5   2   0    2.54    0.17
   0  -3   0    0.17    0.28
   0  -3   0   -0.12    0.16
   0  -3   0    0.08    0.20
   0  -3   0   -0.01    0.10
   0  -3   0   -0.10    0.08
   0  -3   0    0.33    0.20
   0  -3   0    0.03    0.12
   0  -3   0    0.04    0.31
   0  -3   0   -0.08    0.23
   0  -3   0   -0.19    0.24
   0  -3   0   -0.11    0.14
   0  -3   0    0.06    0.13
   0  -3   0    0.04    0.23
   0  -3   0   -0.09    0.08
   0  -3   0   -0.01    0.10
   0   3   0    0.05    0.07
   0   3   0    0.05    0.07
  -1  -3   0  126.51    4.70
   1  -3   0  131.66    4.98
  -1  -3   0  123.61    4.65
  -1  -3   0  121.25    4.63
   1  -3   0  120.54    4.62
  -1  -3   0  122.94    4.72
   1  -3   0  105.88    4.74
   1  -3   0  126.10    4.88
  -1  -3   0  129.43    4.81
   1  -3   0  126.98    4.71
  -1  -3   0  115.14    4.65
   1  -3   0  126.35    4.88
   1  -3   0  118.98    4.78
  -1  -3   0  117.83    4.74
  -1  -3   0  120.70    4.68
  -1  -3   0  121.70    4.78
  -1  -3   0  120.79    4.65
  -1  -3   0  119.95    4.89
  -1  -3   0  120.30    4.73
  -1  -3   0  117.79    4.68
   1  -3   0  124.02    4.72
   1  -3   0  122.31    4.65
   1  -3   0  116.59    4.76
  -1   3   0  111.21    4.53
   1   3   0  123.81    4.86
  -1   3   0  117.49    4.48
   1   3   0  118.64    4.67
  -1   3   0  114.59    4.70
   2  -3   0   42.38    1.98
   2  -3   0   42.56    1.73
  -2  -3   0   39.56    1.63
   2  -3   0   44.43    2.31
  -2  -3   0   41.29    1.75
   2  -3   0   41.83    1.79
  -2  -3   0   41.38    1.79
  -2  -3   0   43.21    1.70
   2  -3   0   43.55    1.80
   2  -3   0   42.81    2.10
   2  -3   0   43.19    1.65
  -2  -3   0   40.88    1.71
  -2  -3   0   42.85    1.99
   2  -3   0   42.57    2.08
  -2  -3   0   42.20    1.97
  -2  -3   0   40.50    1.87
  -2  -3   0   41.19    1.84
  -2   3   0   34.46    1.57
  -2   3   0   34.43    1.95
  -2   3   0   37.23    1.67
   2   3   0   37.24    2.09
  -2   3   0   36.72    1.71
   2   3   0   35.91    2.32
   2   3   0   35.32    1.48
  -2   3   0   37.50    1.75
   2   3   0   38.33    1.58
  -2   3   0   36.80    1.50
  -3  -3   0    4.52    0.30
  -3  -3   0    4.64    0.31
  -3  -3   0    3.98    0.40
  -3  -3   0    4.95    0.36
   3  -3   0    4.15    0.63
  -3  -3   0    4.60    0.35
  -3  -3   0    5.35    0.54
   3  -3   0    5.31    0.72
  -3  -3   0    4.40    0.51
   3  -3   0    4.65    1.12
   3  -3   0    4.58    1.38
  -3  -3   0    3.17    0.99
  -3  -3   0    5.86    1.03
  -3  -3   0    4.07    0.95
   3  -3   0    4.65    0.25
   3   3   0    2.39    1.04
  -3   3   0    2.25    1.22
  -3   3   0    3.69    0.49
   3   3   0   -0.35    2.22
  -3   3   0    5.86    1.10
   3   3   0    3.79    0.51
   3   3   0    2.95    0.80
  -3   3   0    4.07    0.53
   3   3   0    5.12    1.15
  -4  -3   0    8.28    0.39
  -4  -3   0    9.69    0.84
  -4  -3   0    8.65    0.57
  -4  -3   0    8.17    0.40
  -4  -3   0    8.26    0.43
   4  -3   0    7.83    0.97
  -4  -3   0    8.74    0.40
   4  -3   0    8.31    0.35
  -4  -3   0    8.87    0.65
   4   3   0    6.23    0.82
  -4   3   0    6.89    0.34
  -4   3   0    7.31    0.71
   0  -4   0  174.35    6.89
   0  -4   0  162.39    6.57
   0  -4   0  166.06    6.52
   0  -4   0  169.43    6.54
   0  -4   0  170.90    6.66
   0  -4   0  170.85    6.49
   0  -4   0  172.98    6.76
   0  -4   0  177.30    6.58
   0  -4   0  167.89    6.76
   0  -4   0  174.38    6.52
   0  -4   0  167.38    6.53
   0   4   0  156.26    5.75
   0   4   0  148.17    5.62
   0   4   0  148.37    5.73
   0   4   0  139.21    5.63
   1  -4   0   15.89    0.83
   1  -4   0   17.62    1.33
  -1  -4   0   15.40    0.72
  -1  -4   0   16.17    0.81
   1  -4   0   15.15    0.89
   1  -4   0   17.04    0.82
  -1  -4   0   16.25    0.97
  -1  -4   0   16.17    0.84
   1  -4   0   15.94    0.65
  -1  -4   0   15.90    0.92
  -1  -4   0   17.68    1.04
   1  -4   0   15.35    1.18
  -1  -4   0   15.15    0.75
  -1  -4   0   15.96    0.72
   1  -4   0   15.27    0.76
  -1  -4   0   15.79    1.20
   1  -4   0   16.27    1.13
  -1   4   0   13.79    0.77
  -1   4   0   13.96    0.96
  -1   4   0   14.31    1.08
  -1   4   0   15.38    0.77
   1   4   0   14.58    1.22
  -1   4   0   14.48    0.66
   1   4   0   13.55    0.61
   1   4   0   15.72    1.61
   2  -4   0    2.15    0.60
  -2  -4   0    1.60    0.37
   2  -4   0    2.10    0.78
   2  -4   0    1.19    0.27
  -2  -4   0    1.99    0.42
  -2  -4   0    1.65    0.57
   2  -4   0    2.58    1.13
  -2  -4   0    1.97    0.23
  -2  -4   0    3.45    0.84
   2  -4   0    1.43    0.27
  -2  -4   0    1.66    0.29
   2  -4   0    1.80    0.50
   2  -4   0    1.38    0.82
  -2  -4   0    1.70    0.32
  -2  -4   0    0.75    0.71
   2  -4   0    2.04    0.22
   2   4   0    1.82    0.87
  -2   4   0    1.88    0.55
   2   4   0    1.75    0.40
  -2   4   0    2.26    0.98
   2   4   0    1.44    1.58
   2   4   0    1.99    0.40
  -2   4   0    1.55    0.34
  -2   4   0    1.47    0.67
  -3  -4   0   27.21    1.37
   3  -4   0   28.49    1.12
  -3  -4   0   27.25    1.11
   3  -4   0   27.59    1.09
  -3  -4   0   27.56    1.23
  -3  -4   0   26.54    1.17
  -3  -4   0   27.57    1.14
   3  -4   0   29.47    1.46
   3  -4   0   28.68    1.46
  -3   4   0   24.24    1.26
   3   4   0   24.83    1.19
  -3   4   0   24.54    1.17
  -4  -4   0    4.85    0.29
  -4  -4   0    3.49    0.50
   4  -4   0    4.92    0.20
  -4  -4   0    4.63    0.24
  -4   4   0    3.98    0.23
   4   4   0    4.38    0.73
   0  -5   0    0.59    0.35
   0  -5   0   -0.28    0.39
   0  -5   0    1.01    0.84
   0  -5   0    0.20    0.26
   0  -5   0   -2.22    1.15
   0  -5   0   -0.01    0.20
   0   5   0   -0.32    0.81
   1  -5   0    1.66    1.35
   1  -5   0    2.84    0.47
  -1  -5   0    1.75    0.43
   1  -5   0    2.20    0.42
  -1  -5   0    2.51    0.38
   1  -5   0    2.64    0.39
  -1  -5   0    1.46    0.35
   1  -5   0    2.08    0.31
   1  -5   0    2.74    0.54
   1  -5   0    2.35    0.86
  -1   5   0    2.68    0.65
  -1   5   0    1.73    0.45
  -1   5   0    1.95    0.38
   1   5   0    2.73    1.46
  -1   5   0    2.95    1.23
  -1   5   0    2.88    0.81
  -1   5   0    2.51    0.98
  -2  -5   0    7.43    0.38
  -2  -5   0    7.68    0.46
  -2  -5   0    6.01    0.83
   2  -5   0    7.85    0.37
   2  -5   0    8.10    0.62
  -2  -5   0    7.35    0.44
   2  -5   0    6.89    0.79
   2  -5   0    7.23    0.43
   2  -5   0    6.87    0.40
   2  -5   0    5.98    1.30
   2  -5   0    7.44    1.35
  -2  -5   0    8.31    0.54
  -2  -5   0    8.66    0.74
   2  -5   0    8.38    1.61
   2  -5   0    7.46    0.71
  -2   5   0    5.54    0.90
   2   5   0    6.19    0.59
  -2   5   0    6.72    1.29
  -2   5   0    7.45    0.82
   2   5   0    7.00    0.82
  -2   5   0    2.43    2.68
   2   5   0    3.38    1.57
  -2   5   0    6.77    0.45
  -3  -5   0   18.18    1.14
  -3  -5   0   17.94    0.87
   3  -5   0   22.57    1.37
   3  -5   0   18.15    0.91
  -3  -5   0   19.69    0.81
   3  -5   0   18.94    0.76
   3  -5   0   19.34    0.79
   3  -5   0   20.04    1.21
  -3  -5   0   18.77    0.95
  -3   5   0   16.75    1.10
  -3   5   0   15.22    0.87
   3   5   0   14.99    0.89
  -4  -5   0    2.49    0.20
  -4  -5   0    2.11    0.16
   4  -5   0    2.48    0.12
  -4   5   0    1.93    0.16
   0  -6   0    5.11    0.73
   0  -6   0    4.99    0.31
   0  -6   0    5.49    0.58
   1  -6   0   45.96    2.08
   1  -6   0   45.36    1.82
   1  -6   0   44.71    1.98
   1  -6   0   48.82    1.84
  -1   6   0   37.97    1.58
   2  -6   0   16.77    0.98
  -2  -6   0   17.42    0.76
   2  -6   0   17.14    0.79
   2  -6   0   17.00    0.71
   2  -6   0   17.78    1.11
  -2  -6   0   17.27    0.95
  -2  -6   0   17.70    1.23
  -2  -6   0   16.95    0.71
  -2   6   0   13.54    0.72
   3  -6   0    4.93    0.23
  -3  -6   0    4.37    0.31
   3  -6   0    5.23    0.25
  -3  -6   0    5.15    0.25
  -3   6   0    4.62    0.27
   0  -7   0    0.02    0.11
   1  -7   0   46.15    1.77
   1  -7   0   46.34    2.12
   1  -7   0   45.15    2.02
   1  -7   0   45.72    1.81
  -1   7   0   32.64    1.39
   2  -7   0    6.65    0.30
  -5   0   1    5.75    0.28
   5   0  -1    5.75    0.30
  -4   0   1    4.85    0.32
  -4   0   1    4.92    0.23
  -4   0   1    4.95    0.29
   4   0  -1    4.12    0.90
  -4   0   1    4.61    0.56
   3   0  -1    2.42    0.80
  -3   0   1    1.07    0.63
   3   0  -1    1.34    0.38
   3   0  -1    1.00    1.01
  -3   0   1    1.09    0.22
  -3   0   1    0.97    0.50
  -3   0   1    0.87    0.80
  -3   0   1    1.84    0.27
   3   0  -1    1.10    0.43
  -3   0   1    0.46    0.89
  -3   0   1    0.58    0.26
   3   0  -1    0.19    0.71
   3   0  -1    1.63    0.88
   2   0  -1   22.63    1.11
  -2   0   1   26.43    1.09
   2   0  -1   26.16    1.23
  -2   0   1   27.72    1.27
  -2   0   1   28.39    1.04
   2   0  -1   27.28    1.17
  -2   0   1   27.04    1.17
   2   0  -1   27.40    1.29
  -2   0   1   26.17    1.10
   2   0  -1   21.76    1.53
  -2   0   1   26.09    1.28
  -2   0   1   26.09    1.05
   2   0  -1   24.85    1.27
  -1   0   1  288.26   11.20
   1   0  -1  283.40   11.22
  -1   0   1  295.72   11.25
   1   0  -1  294.59   11.22
  -1   0   1  299.80   11.22
  -1   0   1  301.15   11.22
  -1   0   1  312.26   11.26
   1   0  -1  304.76   11.25
  -1   0   1  288.12   11.22
  -1   0   1  298.81   11.26
   0   0   1    7.68    0.32
   0   0  -1    8.26    0.32
   0   0  -1    7.47    0.33
   0   0  -1    6.92    0.32
   0   0   1    6.89    0.32
   0   0   1    7.66    0.31
   0   0  -1    6.58    0.33
   0   0  -1    7.90    0.32
   0   0   1    7.44    0.33
   0   0   1    7.75    0.33
   0   0   1    7.44    0.33
   0   0  -1    6.77    0.33
   0   0  -1    6.51    0.33
  -1   0  -1  770.09   28.86
  -1   0  -1  793.15   28.91
   1   0   1  705.55   28.94
   1   0   1  754.02   28.88
  -1   0  -1  765.72   28.87
  -1   0  -1  778.81   28.93
  -1   0  -1  775.84   28.87
   1   0   1  793.24   28.86
   1   0   1  819.68   28.84
   1   0   1  705.14   29.00
  -2   0  -1   10.50    0.45
  -2   0  -1    9.95    0.47
   2   0   1   10.58    0.81
   2   0   1    9.73    0.73
  -2   0  -1    9.44    0.54
  -2   0  -1   10.01    0.63
   2   0   1   10.29    0.66
  -2   0  -1    9.84    0.78
   2   0   1   10.23    0.57
  -2   0  -1    9.42    0.51
  -2   0  -1    9.36    0.73
   2   0   1    8.86    0.67
   2   0   1    9.65    0.53
   2   0   1   10.74    1.26
  -3   0  -1    0.95    0.20
   3   0   1    0.36    0.35
   3   0   1    0.28    0.95
  -3   0  -1   -0.58    1.62
  -3   0  -1    0.71    0.20
  -3   0  -1    0.53    0.59
   3   0   1    0.68    0.78
  -3   0  -1   -0.26    0.72
  -3   0  -1    1.44    0.70
  -3   0  -1    0.71    0.19
   3   0   1    0.87    0.74
   3   0   1    0.57    0.35
  -4   0  -1   28.84    1.10
  -4   0  -1   28.15    1.14
  -4   0  -1   28.68    1.35
   4   0   1   28.35    1.60
  -4   0  -1   27.88    1.14
  -5   0  -1   20.87    0.83
  -5  -1   1    6.88    0.32
  -5  -1   1    7.23    0.29
  -5   1   1    7.39    0.34
  -4  -1   1   98.08    4.00
  -4  -1   1   99.05    3.85
   4  -1  -1  103.43    4.19
  -4  -1   1   99.63    3.84
  -4  -1   1  103.55    3.82
  -4   1   1   95.70    3.63
   4   1  -1   96.88    4.07
  -4   1   1   95.48    3.85
  -4   1   1   96.63    3.67
   3  -1  -1   23.73    1.62
   3  -1  -1   22.81    1.28
  -3  -1   1   24.01    1.11
   3  -1  -1   23.27    2.14
  -3  -1   1   26.47    1.07
  -3  -1   1   25.81    1.67
  -3  -1   1   24.78    1.41
  -3  -1   1   24.98    1.48
  -3  -1   1   24.99    1.03
  -3  -1   1   25.97    1.16
   3   1  -1   23.75    1.56
   3   1  -1   24.18    1.13
  -3   1   1   24.84    1.72
  -3   1   1   22.41    1.07
   3   1  -1   25.76    1.59
   3   1  -1   22.20    2.30
   3   1  -1   21.77    1.35
  -3   1   1   24.65    1.43
  -2  -1   1  102.98    4.15
  -2  -1   1  104.03    4.12
  -2  -1   1  105.70    4.21
   2  -1  -1  104.56    4.17
   2  -1  -1  106.62    4.08
   2  -1  -1  116.29    4.19
  -2  -1   1   99.58    4.05
   2  -1  -1  104.74    4.23
   2  -1  -1  103.90    4.48
   2  -1  -1   99.29    4.15
  -2  -1   1  105.34    4.06
  -2  -1   1  108.36    4.02
   2  -1  -1  105.93    4.22
   2  -1  -1  102.01    4.07
  -2   1   1   98.56    3.88
  -2   1   1   94.58    4.00
   2   1  -1   99.50    3.96
  -2   1   1   97.99    3.79
   2   1  -1   90.78    3.79
   2   1  -1  104.27    3.89
  -2   1   1  102.51    3.96
  -2   1   1   96.67    3.83
  -2   1   1  101.03    3.80
  -2   1   1   94.28    3.81
  -2   1   1   99.12    3.89
  -1  -1   1  286.03   11.08
   1  -1  -1  278.86   11.11
   1  -1  -1  296.76   11.14
  -1  -1   1  298.39   11.04
   1  -1  -1  295.40   11.02
  -1  -1   1  292.97   11.14
  -1  -1   1  286.57   11.07
  -1  -1   1  295.23   11.08
   1  -1  -1  299.21   11.11
   1  -1  -1  293.98   11.08
   1  -1  -1  297.51   11.24
  -1  -1   1  288.43   11.10
  -1   1   1  294.69   10.81
  -1   1   1  273.78   10.75
   1   1  -1  287.61   10.73
   1   1  -1  280.99   10.73
   1   1  -1  292.93   10.77
  -1   1   1  304.27   10.77
   1   1  -1  262.58   10.73
  -1   1   1  272.81   10.75
   1   1  -1  291.53   10.92
  -1   1   1  276.36   10.75
   0  -1  -1  252.66    9.76
   0  -1  -1  248.94    9.76
   0  -1   1  259.04    9.76
   0  -1   1  247.54    9.75
   0  -1   1  266.58    9.76
   0  -1   1  244.61    9.75
   0  -1  -1  265.58    9.71
   0  -1   1  274.11    9.89
   0  -1  -1  264.70    9.75
   0  -1  -1  253.69    9.73
   0   1   1  232.46    8.85
   0   1   1  230.57    8.88
   0   1   1  242.06    8.85
   1  -1   1  861.58   32.40
   1  -1   1  885.69   32.36
  -1  -1  -1  886.56   32.38
   1  -1   1  870.27   32.46
  -1  -1  -1  842.99   32.35
  -1  -1  -1  845.56   32.39
   1  -1   1  834.46   32.39
   1  -1   1  844.00   32.36
   1  -1   1  803.59   32.39
   1  -1   1  908.05   32.53
  -1  -1  -1  865.81   32.40
   1   1   1  793.53   29.70
  -1   1  -1  825.36   29.60
  -1   1  -1  773.75   29.62
  -1   1  -1  863.57   29.67
   1   1   1  720.90   29.75
   1   1   1  804.44   29.60
  -1   1  -1  698.96   29.70
   1   1   1  794.22   29.61
  -1   1  -1  799.26   29.64
   2  -1   1    3.84    0.50
   2  -1   1    4.87    0.69
   2  -1   1    4.09    0.27
  -2  -1  -1    4.26    0.34
  -2  -1  -1    4.18    0.28
  -2  -1  -1    4.65    0.56
   2  -1   1    3.98    0.57
   2  -1   1    3.57    0.80
   2  -1   1    3.71    0.40
   2  -1   1    4.92    0.56
   2  -1   1    3.96    0.34
   2  -1   1    4.24    0.64
  -2  -1  -1    4.31    0.53
   2  -1   1    3.17    0.54
   2   1   1    3.18    0.68
  -2   1  -1    2.87    0.42
  -2   1  -1    4.82    0.49
  -2   1  -1    3.39    0.54
  -2   1  -1    3.73    0.32
  -2   1  -1    3.46    0.58
   2   1   1    3.90    0.35
  -2   1  -1    3.61    0.51
  -2   1  -1    3.94    0.38
   2   1   1    3.13    0.43
   3  -1   1   28.67    2.17
  -3  -1  -1   25.07    1.11
  -3  -1  -1   25.24    1.61
   3  -1   1   25.96    1.73
  -3  -1  -1   24.85    1.16
  -3  -1  -1   27.06    1.59
   3  -1   1   24.84    1.32
  -3  -1  -1   26.59    1.08
  -3  -1  -1   26.36    1.77
  -3  -1  -1   24.63    1.50
  -3  -1  -1   27.26    1.19
   3   1   1   23.37    1.37
   3   1   1   27.59    1.18
   3   1   1   25.49    1.88
  -3   1  -1   24.83    1.47
   3   1   1   24.10    1.51
  -3   1  -1   24.14    1.14
   3   1   1   25.06    2.34
  -3   1  -1   26.51    1.74
   3   1   1   26.34    1.64
  -4  -1  -1    5.48    0.61
  -4  -1  -1    5.66    0.32
  -4  -1  -1    5.58    0.36
  -4  -1  -1    5.97    0.31
  -4  -1  -1    5.76    0.63
   4  -1   1    6.53    0.84
  -4   1  -1    6.14    0.31
   4   1   1    4.83    1.05
  -4   1  -1    4.60    0.57
  -4   1  -1    5.18    0.23
  -5  -1  -1   11.20    0.48
  -5  -1  -1   11.09    0.44
  -5  -1  -1   11.94    0.48
  -5   1  -1   11.16    0.47
  -5  -2   1    5.08    0.22
  -5  -2   1    5.01    0.26
  -5  -2   1    5.19    0.25
  -5   2   1    5.03    0.25
  -4  -2   1   57.96    2.23
   4  -2  -1   62.27    2.61
  -4  -2   1   57.21    2.24
  -4  -2   1   56.78    2.48
  -4  -2   1   56.41    2.35
  -4  -2   1   57.24    2.41
  -4  -2   1   58.56    2.25
  -4  -2   1   57.83    2.22
  -4  -2   1   57.96    2.32
  -4   2   1   54.26    2.32
  -4   2   1   52.14    2.12
   4   2  -1   58.07    2.39
   4   2  -1   54.89    2.66
  -3  -2   1   10.34    0.63
  -3  -2   1   11.35    0.70
   3  -2  -1   11.64    1.42
  -3  -2   1   11.74    0.60
   3  -2  -1   11.79    0.85
   3  -2  -1   11.86    1.85
  -3  -2   1   11.85    1.39
  -3  -2   1   10.82    0.54
  -3  -2   1   10.25    1.61
  -3   2   1   10.96    0.62
  -3   2   1    9.81    1.66
   3   2  -1    9.10    0.66
   3   2  -1   10.35    1.36
   3   2  -1   11.31    2.40
   3   2  -1    9.74    1.17
  -3   2   1   10.14    1.18
   3   2  -1    8.34    1.08
  -2  -2   1  112.88    4.51
   2  -2  -1  119.08    4.77
  -2  -2   1  115.32    4.59
  -2  -2   1  119.97    4.57
   2  -2  -1  125.93    5.02
   2  -2  -1  120.68    4.52
   2  -2  -1  123.23    4.66
   2  -2  -1  120.58    4.76
  -2  -2   1  115.62    4.62
  -2  -2   1  119.28    4.66
  -2  -2   1  117.34    4.70
  -2  -2   1  118.55    4.72
  -2  -2   1  120.34    4.65
  -2  -2   1  113.80    4.83
   2  -2  -1  117.94    4.80
  -2  -2   1  119.60    4.55
   2   2  -1  110.90    4.17
  -2   2   1   97.98    4.39
  -2   2   1  109.39    4.21
   2   2  -1  104.36    4.34
   2   2  -1  109.58    4.67
   2   2  -1  106.82    4.10
  -2   2   1  108.98    4.23
  -2   2   1  112.01    4.23
  -2   2   1   97.89    4.14
  -2   2   1  107.54    4.12
  -1  -2   1  169.77    6.54
  -1  -2   1  167.58    6.53
   1  -2  -1  158.16    6.47
   1  -2  -1  182.96    6.73
  -1  -2   1  171.45    6.67
  -1  -2   1  167.18    6.57
  -1  -2   1  175.10    6.54
   1  -2  -1  177.05    6.66
  -1  -2   1  178.75    6.56
   1  -2  -1  160.97    6.55
  -1  -2   1  177.79    6.51
   1  -2  -1  163.37    6.52
  -1  -2   1  173.53    6.60
   1  -2  -1  173.94    6.55
   1  -2  -1  171.22    6.65
  -1  -2   1  174.29    6.54
  -1  -2   1  167.74    6.50
  -1  -2   1  173.43    6.52
  -1  -2   1  168.48    6.51
   1  -2  -1  176.24    6.59
  -1   2   1  161.51    6.23
  -1   2   1  159.88    6.27
   1   2  -1  175.11    6.49
  -1   2   1  161.65    6.23
   1   2  -1  164.13    6.28
   1   2  -1  162.01    6.24
   1   2  -1  168.59    6.18
   1   2  -1  160.76    6.18
  -1   2   1  163.76    6.25
  -1   2   1  145.69    6.19
  -1   2   1  171.32    6.35
   0  -2  -1  477.16   17.91
   0  -2  -1  485.51   17.99
   0  -2   1  493.23   17.97
   0  -2  -1  472.70   17.97
   0  -2   1  460.79   17.97
   0  -2  -1  462.89   17.93
   0  -2  -1  471.97   17.98
   0  -2  -1  471.17   17.85
   0  -2   1  468.73   17.96
   0  -2  -1  463.72   17.85
   0  -2   1  475.05   17.91
   0  -2   1  478.14   17.94
   0  -2  -1  478.80   17.98
   0  -2   1  481.75   18.04
   0   2   1  422.50   16.07
   0   2   1  431.93   16.07
   1  -2   1  287.60   10.89
   1  -2   1  305.02   11.12
  -1  -2  -1  289.27   10.91
  -1  -2  -1  274.95   10.87
   1  -2   1  270.32   10.84
   1  -2   1  291.82   10.96
  -1  -2  -1  303.93   10.98
  -1  -2  -1  267.33   10.91
   1  -2   1  289.56   10.96
  -1  -2  -1  286.62   10.98
  -1  -2  -1  289.35   11.04
   1  -2   1  268.39   10.89
   1  -2   1  301.53   11.03
   1  -2   1  299.49   11.05
  -1  -2  -1  298.33   10.91
   1  -2   1  280.99   10.92
   1  -2   1  291.65   10.93
  -1  -2  -1  280.67   10.90
  -1  -2  -1  293.11   10.90
   1   2   1  269.60   10.32
   1   2   1  270.21   10.20
  -1   2  -1  261.61   10.23
  -1   2  -1  263.66   10.25
   1   2   1  289.62   10.42
  -1   2  -1  266.76   10.35
  -1   2  -1  276.46   10.18
  -1   2  -1  258.53   10.18
   1   2   1  269.10   10.18
   2  -2   1   41.07    1.70
   2  -2   1   43.05    1.90
   2  -2   1   42.23    1.75
  -2  -2  -1   38.79    1.71
  -2  -2  -1   44.46    1.84
   2  -2   1   42.51    1.60
  -2  -2  -1   38.45    1.59
  -2  -2  -1   39.41    1.84
  -2  -2  -1   39.84    1.68
  -2  -2  -1   40.31    1.75
   2  -2   1   42.17    1.66
  -2  -2  -1   40.57    1.65
   2  -2   1   38.87    1.94
   2  -2   1   41.64    2.10
  -2  -2  -1   38.98    1.81
   2  -2   1   43.04    1.90
  -2  -2  -1   40.64    1.64
   2   2   1   35.87    1.70
  -2   2  -1   37.69    1.60
  -2   2  -1   37.80    1.65
   2   2   1   36.18    1.47
   2   2   1   30.03    2.01
  -2   2  -1   36.18    1.46
   2   2   1   36.20    1.55
   2   2   1   37.60    1.85
  -2   2  -1   34.33    1.53
  -2   2  -1   34.67    1.79
  -2   2  -1   37.55    1.59
  -3  -2  -1   68.17    3.00
  -3  -2  -1   69.64    2.76
   3  -2   1   65.64    3.27
  -3  -2  -1   67.33    2.73
  -3  -2  -1   58.94    3.20
   3  -2   1   75.26    2.91
  -3  -2  -1   67.97    2.65
  -3  -2  -1   69.64    2.69
  -3  -2  -1   67.65    3.10
   3  -2   1   67.85    3.65
  -3   2  -1   59.10    3.07
  -3   2  -1   59.00    2.50
   3   2   1   54.67    2.69
   3   2   1   62.51    2.92
   3   2   1   65.52    2.49
   3   2   1   60.61    2.69
   3   2   1   58.06    4.71
  -3   2  -1   61.97    2.82
   3   2   1   64.22    4.14
  -4  -2  -1   10.78    0.50
  -4  -2  -1   10.22    0.49
  -4  -2  -1   12.17    0.70
  -4  -2  -1   10.25    0.79
  -4  -2  -1   10.97    0.48
  -4  -2  -1   10.79    0.52
   4  -2   1   12.63    0.92
  -4  -2  -1   11.17    0.72
  -4   2  -1    8.81    0.71
  -4   2  -1    8.84    0.42
   4   2   1    9.65    0.93
  -5  -2  -1    6.18    0.29
  -5  -2  -1    5.99    0.28
  -5  -2  -1    6.01    0.25
  -5   2  -1    6.44    0.30
  -5  -3   1    3.68    0.19
  -4  -3   1   16.44    0.70
  -4  -3   1   15.96    0.68
  -4  -3   1   17.02    1.10
  -4  -3   1   17.35    0.82
  -4  -3   1   15.22    0.98
   4  -3  -1   16.73    0.64
   4  -3  -1   17.32    1.23
  -4  -3   1   16.27    0.88
  -4  -3   1   16.60    0.68
  -4  -3   1   16.28    0.68
  -4   3   1   14.86    0.94
   4   3  -1   13.53    1.01
  -4   3   1   13.83    0.60
   3  -3  -1    2.58    0.20
  -3  -3   1    2.46    0.87
  -3  -3   1    2.01    1.09
   3  -3  -1    2.79    0.39
   3  -3  -1    3.65    1.37
  -3  -3   1    2.92    0.25
   3  -3  -1    2.65    0.44
   3  -3  -1    1.91    1.35
  -3  -3   1    3.05    0.45
  -3  -3   1    4.22    1.00
  -3  -3   1    2.84    0.50
  -3  -3   1    2.43    0.35
  -3  -3   1    2.54    0.30
   3  -3  -1    2.02    1.00
  -3  -3   1    2.53    0.26
   3   3  -1    0.54    0.79
  -3   3   1    2.26    0.48
  -3   3   1    2.47    1.08
  -3   3   1    0.77    1.09
  -3   3   1    1.90    0.47
  -3   3   1    3.21    0.48
   3   3  -1    4.10    1.24
  -3   3   1    1.40    1.36
   3   3  -1    2.58    0.51
  -2  -3   1   11.55    0.84
   2  -3  -1   12.00    0.71
   2  -3  -1   12.87    0.72
  -2  -3   1   11.13    0.51
   2  -3  -1   12.44    1.00
   2  -3  -1   12.10    0.53
  -2  -3   1   11.56    0.69
  -2  -3   1   12.05    0.60
  -2  -3   1   11.59    0.66
  -2  -3   1   11.97    0.58
   2  -3  -1   13.27    1.31
   2  -3  -1   13.57    0.93
   2  -3  -1   11.24    1.11
  -2  -3   1   10.60    0.97
  -2  -3   1   12.47    1.28
   2  -3  -1   11.83    0.61
  -2  -3   1   11.66    0.84
   2   3  -1    9.72    0.54
  -2   3   1   11.41    0.79
  -2   3   1   10.51    0.85
  -2   3   1   11.29    0.55
  -2   3   1    9.43    1.10
   2   3  -1   10.85    0.69
  -2   3   1    8.86    0.88
  -2   3   1    9.60    0.64
   2   3  -1   10.00    1.56
  -1  -3   1  139.34    5.32
   1  -3  -1  130.44    5.14
   1  -3  -1  135.56    5.26
   1  -3  -1  125.87    5.21
  -1  -3   1  138.76    5.27
  -1  -3   1  138.19    5.32
  -1  -3   1  139.67    5.17
  -1  -3   1  137.46    5.18
  -1  -3   1  134.15    5.23
  -1  -3   1  130.63    5.27
   1  -3  -1  136.67    5.19
   1  -3  -1  142.20    5.47
   1  -3  -1  136.62    5.41
   1  -3  -1  136.58    5.29
   1  -3  -1  141.05    5.24
  -1  -3   1  133.94    5.19
  -1  -3   1  131.97    5.22
  -1  -3   1  136.95    5.43
   1   3  -1  106.41    4.61
   1   3  -1  119.58    4.60
  -1   3   1  123.50    4.69
  -1   3   1  124.57    4.73
   1   3  -1  129.58    4.81
   1   3  -1  125.36    4.74
  -1   3   1  112.81    4.75
  -1   3   1  125.23    4.69
  -1   3   1  117.40    4.64
  -1   3   1  129.56    4.89
   0  -3  -1  145.84    5.53
   0  -3   1  150.01    5.77
   0  -3   1  138.91    5.65
   0  -3   1  144.61    5.60
   0  -3   1  145.02    5.51
   0  -3   1  134.95    5.47
   0  -3   1  147.71    5.64
   0  -3   1  149.45    5.55
   0  -3   1  138.23    5.50
   0  -3   1  140.94    5.54
   0  -3   1  140.73    5.51
   0  -3  -1  144.26    5.66
   0  -3  -1  147.35    5.51
   0  -3  -1  138.12    5.49
   0  -3   1  142.61    5.63
   0  -3  -1  151.60    5.68
   0  -3  -1  152.67    5.47
   0  -3   1  142.57    5.53
   0  -3  -1  142.66    5.51
   0  -3  -1  134.80    5.66
   0  -3  -1  151.51    5.71
   0  -3  -1  139.00    5.54
   0  -3   1  144.30    5.47
   0  -3  -1  146.56    5.54
   0  -3   1  150.24    5.46
   0   3  -1  135.53    5.08
   0   3  -1  132.98    5.08
   0   3   1  127.42    5.09
   0   3   1  137.85    5.08
   0   3  -1  134.00    5.17
   0   3   1  137.76    5.15
  -1  -3  -1   82.48    3.45
  -1  -3  -1   86.73    3.41
   1  -3   1   89.87    3.48
  -1  -3  -1   88.07    3.38
   1  -3   1   87.84    3.45
   1  -3   1   93.47    3.72
  -1  -3  -1   84.80    3.43
   1  -3   1   91.55    3.61
  -1  -3  -1   87.65    3.39
   1  -3   1   87.75    3.33
  -1  -3  -1   89.08    3.39
  -1  -3  -1   85.56    3.49
   1  -3   1   89.09    3.52
   1  -3   1   86.54    3.41
  -1  -3  -1   90.79    3.53
   1  -3   1   87.81    3.60
  -1  -3  -1   83.60    3.37
  -1  -3  -1   87.70    3.42
  -1   3  -1   80.92    3.21
   1   3   1   85.65    3.51
   1   3   1   79.08    3.22
   1   3   1   77.96    3.13
  -1   3  -1   81.46    3.26
   1   3   1   85.72    3.39
  -1   3  -1   81.76    3.15
  -1   3  -1   83.68    3.41
   2  -3   1    6.97    0.53
   2  -3   1    6.24    0.88
   2  -3   1    6.37    1.17
  -2  -3  -1    6.68    0.34
   2  -3   1    6.54    0.44
   2  -3   1    7.62    0.54
  -2  -3  -1    6.00    0.89
  -2  -3  -1    6.80    0.45
  -2  -3  -1    7.30    0.42
  -2  -3  -1    5.91    0.47
  -2  -3  -1    6.47    0.52
   2  -3   1    7.37    0.36
  -2  -3  -1    7.26    0.88
   2  -3   1    5.50    0.80
  -2  -3  -1    8.23    0.74
   2  -3   1    7.39    0.96
  -2  -3  -1    8.39    0.71
   2   3   1    4.55    1.10
   2   3   1    6.58    0.58
  -2   3  -1    6.39    0.50
  -2   3  -1    5.55    0.36
   2   3   1    5.13    0.41
  -2   3  -1    6.15    0.73
   2   3   1    6.21    0.92
  -2   3  -1    6.16    0.65
  -2   3  -1    3.89    0.72
   2   3   1    6.78    1.00
  -2   3  -1    6.79    0.81
  -3  -3  -1   36.66    1.53
  -3  -3  -1   34.50    1.69
  -3  -3  -1   35.27    1.44
   3  -3   1   37.46    2.35
  -3  -3  -1   32.91    2.17
  -3  -3  -1   36.86    1.62
  -3  -3  -1   35.08    2.23
   3  -3   1   35.27    1.43
  -3  -3  -1   36.41    1.47
   3  -3   1   35.98    1.59
   3  -3   1   39.62    1.69
   3  -3   1   37.61    2.90
   3  -3   1   35.88    1.39
  -3  -3  -1   36.33    1.57
   3  -3   1   35.68    1.69
  -3  -3  -1   35.22    1.42
   3   3   1   30.29    1.85
  -3   3  -1   34.22    1.49
  -3   3  -1   36.66    2.49
  -3   3  -1   33.42    2.21
   3   3   1   32.48    2.33
   3   3   1   32.46    1.94
   3   3   1   35.74    1.49
  -3   3  -1   34.32    1.55
  -4  -3  -1    2.56    0.21
  -4  -3  -1    2.64    0.52
   4  -3   1    2.88    0.83
  -4  -3  -1    2.10    0.34
   4  -3   1    2.26    0.14
  -4  -3  -1    2.55    0.25
  -4  -3  -1    2.32    0.24
  -4  -3  -1    2.25    0.22
   4   3   1    2.15    0.52
  -4   3  -1    1.77    0.40
  -4   3  -1    2.04    0.19
  -4  -4   1    8.72    0.66
  -4  -4   1    7.75    0.36
  -4  -4   1    6.77    0.96
  -4  -4   1    7.03    0.55
  -4  -4   1    8.03    0.38
   4  -4  -1    7.93    0.32
  -4   4   1    7.06    0.33
   4   4  -1    6.80    0.78
  -3  -4   1    3.64    0.61
   3  -4  -1    4.80    0.78
  -3  -4   1    4.22    0.36
   3  -4  -1    3.63    0.43
   3  -4  -1    3.90    0.27
   3  -4  -1    4.27    0.73
  -3  -4   1    3.51    0.44
   3  -4  -1    4.26    0.23
  -3  -4   1    4.15    0.32
  -3  -4   1    4.05    0.61
  -3  -4   1    4.02    0.26
  -3  -4   1    3.59    0.28
   3   4  -1    2.56    0.58
   3   4  -1    2.64    0.95
  -3   4   1    2.82    0.49
  -3   4   1    3.36    0.62
   2  -4  -1    3.91    0.41
  -2  -4   1    4.41    0.37
  -2  -4   1    3.35    0.57
  -2  -4   1    4.58    0.58
   2  -4  -1    4.38    0.55
   2  -4  -1    3.92    0.86
   2  -4  -1    4.22    0.83
   2  -4  -1    3.25    0.50
   2  -4  -1    4.61    0.29
  -2  -4   1    3.86    0.27
  -2  -4   1    3.84    0.53
  -2  -4   1    3.66    0.43
   2  -4  -1    4.27    0.70
  -2  -4   1    3.89    0.80
   2  -4  -1    4.42    1.60
  -2  -4   1    5.23    0.84
  -2   4   1    3.42    0.42
  -2   4   1    3.61    0.92
  -2   4   1    4.86    0.83
  -2   4   1    2.96    0.56
   2   4  -1    2.70    0.47
   2   4  -1    3.35    0.43
  -2   4   1    4.91    0.80
  -2   4   1    4.73    0.99
   2   4  -1    3.48    1.55
  -1  -4   1   26.93    1.65
  -1  -4   1   25.70    1.52
   1  -4  -1   28.83    1.19
  -1  -4   1   26.32    1.31
  -1  -4   1   26.60    1.08
   1  -4  -1   26.62    1.14
   1  -4  -1   25.66    1.02
  -1  -4   1   24.88    1.35
  -1  -4   1   24.35    1.07
  -1  -4   1   25.39    1.08
  -1  -4   1   25.12    1.21
   1  -4  -1   24.46    1.51
   1  -4  -1   26.66    1.21
  -1  -4   1   25.36    1.16
  -1  -4   1   25.08    1.23
  -1  -4   1   25.77    1.19
   1  -4  -1   28.75    1.64
   1  -4  -1   26.70    1.46
  -1  -4   1   26.24    1.36
   1  -4  -1   26.28    1.25
  -1  -4   1   24.74    1.13
  -1  -4   1   26.45    1.12
  -1   4   1   23.62    1.41
   1   4  -1   22.78    1.27
   1   4  -1   25.66    1.87
  -1   4   1   22.52    1.09
  -1   4   1   24.24    1.27
   1   4  -1   24.71    1.52
   1   4  -1   23.63    0.96
   1   4  -1   23.73    0.95
  -1   4   1   23.58    1.27
  -1   4   1   20.96    0.99
  -1   4   1   22.70    1.10
   0  -4  -1   42.08    1.72
   0  -4   1   44.66    1.79
   0  -4   1   41.78    1.69
   0  -4  -1   42.73    1.71
   0  -4  -1   41.23    2.01
   0  -4   1   43.70    1.73
   0  -4  -1   42.23    2.00
   0  -4  -1   40.37    2.08
   0  -4  -1   43.44    1.78
   0  -4   1   43.08    1.90
   0  -4   1   44.14    2.17
   0  -4   1   41.94    1.72
   0  -4   1   40.99    1.99
   0  -4   1   41.80    1.77
   0  -4   1   42.92    1.97
   0  -4  -1   41.80    1.78
   0  -4  -1   42.86    2.00
   0  -4  -1   40.89    1.72
   0  -4  -1   42.12    1.74
   0  -4   1   42.66    2.12
   0   4  -1   38.16    1.68
   0   4  -1   38.76    1.67
   0   4   1   37.12    1.66
   0   4  -1   36.97    1.83
   0   4  -1   38.34    1.52
   0   4   1   40.32    1.53
   0   4   1   38.86    1.74
  -1  -4  -1    0.84    0.21
   1  -4   1    1.05    0.16
   1  -4   1    1.00    0.48
  -1  -4  -1    0.82    0.48
   1  -4   1    1.34    0.34
  -1  -4  -1    1.39    0.46
  -1  -4  -1    1.09    0.17
   1  -4   1    1.27    0.43
   1  -4   1    1.49    0.65
   1  -4   1    1.17    0.20
   1  -4   1    1.13    0.52
   1  -4   1    1.72    0.40
  -1  -4  -1    0.76    0.58
   1  -4   1    1.47    0.35
  -1  -4  -1    0.97    0.25
  -1   4  -1    0.91    0.21
   1   4   1    1.33    0.65
  -1   4  -1    1.43    0.46
   1   4   1    1.58    0.92
   1   4   1    2.25    0.80
  -1   4  -1    1.40    0.28
   1   4   1    0.77    0.17
  -1   4  -1    1.49    0.56
   1   4   1    1.19    0.55
  -2  -4  -1    4.51    0.87
   2  -4   1    5.93    1.56
  -2  -4  -1    5.35    0.32
   2  -4   1    5.70    0.56
   2  -4   1    6.22    1.16
   2  -4   1    5.01    0.55
  -2  -4  -1    4.92    0.60
  -2  -4  -1    7.09    1.15
   2  -4   1    5.34    0.46
   2  -4   1    7.82    1.38
   2  -4   1    5.36    0.33
   2  -4   1    4.19    0.72
  -2  -4  -1    5.09    0.59
  -2  -4  -1    5.27    0.42
  -2   4  -1    6.34    1.01
   2   4   1    4.57    0.46
   2   4   1    4.97    0.64
  -2   4  -1    4.77    0.58
  -2   4  -1    6.05    0.84
  -2   4  -1    4.87    1.02
  -2   4  -1    6.27    0.88
   2   4   1    4.43    0.91
   3  -4   1    6.37    0.70
  -3  -4  -1    7.43    0.82
   3  -4   1    7.88    0.84
  -3  -4  -1    7.08    0.47
  -3  -4  -1    7.32    0.37
  -3  -4  -1    8.29    0.72
   3  -4   1    7.95    0.39
   3  -4   1    7.76    0.85
  -3  -4  -1    7.26    0.42
   3  -4   1    7.78    0.34
  -3  -4  -1    6.69    0.54
   3  -4   1    7.06    0.57
   3  -4   1    7.49    0.38
  -3   4  -1    6.85    0.70
   3   4   1    6.20    0.60
  -3   4  -1    6.96    0.57
  -4  -4  -1   20.15    0.80
  -4  -4  -1   19.49    0.95
  -4  -4  -1   19.99    1.02
  -4  -4  -1   20.01    0.82
   4  -4   1   20.10    0.77
   4  -4   1   20.02    1.47
   4   4   1   11.42    0.94
  -4   4  -1   13.78    0.99
   4  -5  -1    7.42    0.29
  -4  -5   1    7.39    0.35
  -4  -5   1    6.95    0.32
  -4   5   1    6.99    0.32
   3  -5  -1   78.01    2.99
  -3  -5   1   79.58    3.25
   3  -5  -1   87.23    3.45
  -3  -5   1   78.22    3.12
   3  -5  -1   79.08    3.32
   3  -5  -1   77.84    3.01
  -3  -5   1   73.66    3.05
   3  -5  -1   77.37    3.08
  -3  -5   1   77.72    3.02
  -3  -5   1   78.42    3.00
  -3   5   1   67.51    2.86
   3   5  -1   68.71    2.71
  -3   5   1   67.24    2.73
  -3   5   1   65.13    2.72
  -3   5   1   64.16    2.55
  -2  -5   1    8.13    0.46
   2  -5  -1    8.13    0.75
  -2  -5   1    8.78    0.75
   2  -5  -1    7.79    0.61
  -2  -5   1    9.09    0.55
   2  -5  -1    8.43    0.40
   2  -5  -1    7.55    1.40
   2  -5  -1    8.06    0.88
  -2  -5   1    9.74    0.89
   2  -5  -1    9.10    1.74
   2  -5  -1    7.93    1.34
  -2  -5   1    8.07    0.41
   2  -5  -1    8.23    0.45
  -2  -5   1    7.85    1.10
  -2  -5   1    8.47    0.50
   2   5  -1    6.65    0.60
   2   5  -1    6.63    0.87
   2   5  -1    6.21    1.53
  -2   5   1    8.32    1.32
  -2   5   1    7.31    0.86
  -2   5   1    7.03    0.48
  -2   5   1   10.21    1.33
  -2   5   1    6.40    1.80
   1  -5  -1   12.57    0.68
  -1  -5   1   10.69    0.98
   1  -5  -1   11.00    1.61
   1  -5  -1   11.33    0.77
  -1  -5   1   11.85    0.82
   1  -5  -1   11.31    0.55
  -1  -5   1   12.03    0.97
   1  -5  -1   11.11    1.38
  -1  -5   1   12.40    0.62
   1  -5  -1   11.35    0.94
  -1  -5   1   12.06    0.72
   1   5  -1   13.11    2.84
  -1   5   1   10.39    0.58
  -1   5   1   10.60    0.83
  -1   5   1   10.62    1.42
   1   5  -1    9.01    1.38
  -1   5   1   11.43    1.18
   0  -5   1   10.22    0.65
   0  -5  -1   10.35    0.86
   0  -5  -1    9.87    0.60
   0  -5   1    8.37    1.36
   0  -5   1   10.11    1.40
   0  -5   1   10.40    0.80
   0  -5   1    9.70    0.69
   0  -5   1    8.46    1.60
   0  -5   1    9.36    0.59
   0  -5  -1    9.65    0.72
   0   5  -1    9.33    1.24
   0   5  -1    7.90    0.83
   0   5   1    8.02    0.56
   0   5  -1    7.56    0.57
   0   5   1    9.01    1.21
   1  -5   1   51.07    3.10
   1  -5   1   51.36    2.63
   1  -5   1   47.60    1.94
  -1  -5  -1   48.28    2.04
  -1  -5  -1   49.89    2.12
   1  -5   1   49.06    2.26
  -1  -5  -1   50.29    2.01
  -1  -5  -1   50.05    2.79
  -1  -5  -1   50.47    2.17
   1  -5   1   50.61    2.16
   1  -5   1   49.84    2.75
   1  -5   1   50.52    2.08
  -1   5  -1   45.60    2.37
  -1   5  -1   45.59    2.26
   1   5   1   41.81    2.74
  -1   5  -1   46.37    1.96
  -1   5  -1   42.29    1.94
  -1   5  -1   45.27    2.54
  -1   5  -1   44.18    1.80
   2  -5   1   12.03    0.57
  -2  -5  -1   12.89    1.99
  -2  -5  -1   13.67    0.89
   2  -5   1   12.46    0.60
   2  -5   1   10.92    1.59
   2  -5   1   13.15    0.78
  -2  -5  -1   13.93    0.71
   2  -5   1    8.90    1.41
  -2  -5  -1   10.10    1.33
  -2  -5  -1   11.84    0.60
   2  -5   1   12.87    0.56
  -2  -5  -1   12.11    0.98
  -2  -5  -1   13.03    0.56
   2  -5   1   14.60    2.26
   2  -5   1   12.99    2.44
  -2  -5  -1   12.41    0.61
   2  -5   1   12.58    0.94
   2  -5   1   13.36    0.89
   2   5   1    8.45    0.89
  -2   5  -1   10.92    0.59
  -2   5  -1   11.39    1.76
  -2   5  -1   14.30    2.33
  -2   5  -1   10.13    0.88
  -2   5  -1   14.43    1.69
   2   5   1   12.65    2.27
  -2   5  -1   12.41    2.15
   2   5   1    9.62    0.68
   3  -5   1   11.12    0.46
   3  -5   1   11.10    0.49
   3  -5   1   13.04    1.06
  -3  -5  -1   11.18    0.53
  -3  -5  -1   10.72    0.48
  -3  -5  -1   10.83    0.92
   3  -5   1   11.87    0.98
  -3  -5  -1   10.06    0.60
  -3  -5  -1   11.08    0.70
  -3   5  -1    9.12    0.66
   3   5   1    8.75    0.68
  -3   5  -1    9.39    0.93
  -4  -5  -1   12.31    0.52
   4  -5   1   12.19    0.47
  -4  -5  -1   11.82    0.49
  -4   5  -1   10.53    0.44
  -3  -6   1    4.12    0.23
   3  -6  -1    4.26    0.23
  -3  -6   1    4.27    0.30
   3  -6  -1    4.08    0.20
  -2  -6   1   16.14    0.89
  -2  -6   1   15.95    1.19
   2  -6  -1   16.79    0.94
   2  -6  -1   15.77    1.10
  -2  -6   1   15.70    0.66
   2  -6  -1   15.07    0.74
   2  -6  -1   15.52    0.66
  -2   6   1   12.86    0.71
   1  -6  -1    8.73    0.47
   1  -6  -1    7.32    0.43
   1  -6  -1    6.94    0.63
   1  -6  -1    8.69    0.79
  -1   6   1    6.59    0.46
   0  -6   1   21.85    1.13
   0  -6   1   25.12    1.25
   0  -6  -1   22.48    1.25
   0  -6  -1   22.65    1.14
   0  -6  -1   21.95    0.93
   0  -6   1   22.95    0.93
   1  -6   1   23.69    1.26
   1  -6   1   23.39    1.00
   1  -6   1   24.59    1.18
  -1   6  -1   20.27    0.92
   2  -6   1   39.17    1.57
  -2  -6  -1   38.15    1.98
   2  -6   1   38.55    1.51
   2  -6   1   38.42    1.74
  -2  -6  -1   38.12    1.50
  -2  -6  -1   39.62    1.91
   2  -6   1   39.87    1.83
  -2  -6  -1   38.67    1.54
   2  -6   1   38.07    1.52
  -2   6  -1   32.03    1.38
  -3  -6  -1    4.38    0.23
   3  -6   1    4.05    0.21
  -3  -6  -1    4.73    0.29
   3  -6   1    3.99    0.23
  -3   6  -1    3.48    0.22
   2  -7  -1    2.94    0.18
   1  -7  -1   40.54    1.56
   1  -7  -1   39.93    1.93
  -1   7   1   29.01    1.26
   0  -7   1   13.34    0.55
   0  -7  -1   12.58    0.55
   1  -7   1   13.44    0.91
   1  -7   1   12.90    0.66
   1  -7   1   13.24    0.55
   1  -7   1   13.50    1.00
  -1   7  -1    9.80    0.58
   2  -7   1    2.25    0.16
  -5   0   2    1.51    0.16
   5   0  -2    1.77    0.19
  -4   0   2   26.29    1.26
  -4   0   2   25.81    1.06
   4   0  -2   25.98    1.54
  -4   0   2   26.42    1.02
  -4   0   2   27.49    1.07
  -3   0   2    2.57    0.33
   3   0  -2    2.28    0.57
  -3   0   2    2.36    0.34
   3   0  -2    1.82    0.45
   3   0  -2    2.46    0.79
  -3   0   2    2.14    0.29
   3   0  -2    2.93    1.11
   3   0  -2    1.83    0.84
  -3   0   2    1.70    0.66
  -3   0   2    1.70    0.54
   3   0  -2    2.39    1.07
  -3   0   2    3.83    0.67
  -3   0   2    1.18    0.93
  -3   0   2    2.79    0.99
  -2   0   2    2.14    0.41
   2   0  -2    2.46    0.51
   2   0  -2    1.92    0.37
  -2   0   2    2.08    0.18
   2   0  -2    1.70    0.28
  -2   0   2    2.34    0.41
  -2   0   2    2.16    0.41
  -2   0   2    2.29    0.37
  -2   0   2    2.29    0.23
  -2   0   2    1.88    0.32
  -2   0   2    1.82    0.33
   2   0  -2    2.39    0.47
  -1   0   2   44.81    1.80
   1   0  -2   43.04    1.96
  -1   0   2   47.66    1.79
   1   0  -2   47.81    1.80
  -1   0   2   46.57    1.79
  -1   0   2   38.55    1.80
  -1   0   2   46.32    1.81
   1   0  -2   45.71    1.81
  -1   0   2   46.72    1.83
   1   0  -2   48.36    1.82
  -1   0   2   45.41    1.82
   1   0  -2   44.94    1.82
   0   0   2  407.59   14.75
   0   0  -2  371.11   14.76
   0   0   2  389.62   14.78
   0   0   2  399.65   14.78
   0   0   2  380.31   14.77
   0   0   2  376.63   14.76
   0   0   2  416.91   14.76
   0   0  -2  362.69   14.78
   0   0  -2  429.62   14.78
   0   0  -2  392.19   14.76
   0   0   2  376.64   14.78
   0   0  -2  395.17   14.78
   1   0   2  345.69   12.78
   1   0   2  334.51   12.67
   1   0   2  352.28   12.60
  -1   0  -2  323.58   12.61
   1   0   2  335.78   12.64
   1   0   2  331.07   12.67
  -1   0  -2  358.84   12.70
   1   0   2  323.88   12.75
  -1   0  -2  344.91   12.71
  -1   0  -2  314.16   12.64
  -1   0  -2  321.06   12.63
  -1   0  -2  325.07   12.64
   2   0   2   44.98    1.80
  -2   0  -2   45.12    1.99
  -2   0  -2   43.29    1.74
  -2   0  -2   46.70    1.73
  -2   0  -2   45.85    1.89
  -2   0  -2   46.36    2.00
   2   0   2   42.98    1.88
   2   0   2   44.83    1.91
   2   0   2   39.07    2.45
   2   0   2   44.65    1.89
  -2   0  -2   44.41    1.81
  -3   0  -2  212.18    7.58
   3   0   2  183.92    8.32
  -3   0  -2  206.69    7.81
   3   0   2  184.74    7.64
   3   0   2  185.18    7.72
  -3   0  -2  212.79    7.83
   3   0   2  187.60    7.90
   3   0   2  183.16    7.60
  -3   0  -2  213.79    7.56
  -3   0  -2  202.38    7.98
   3   0   2  213.29    8.10
  -3   0  -2  198.01    7.64
  -4   0  -2    0.18    0.30
  -4   0  -2    0.11    0.12
  -4   0  -2    0.22    0.27
   4   0   2   -0.16    0.50
  -4   0  -2    0.08    0.07
  -5   0  -2    0.93    0.13
  -5  -1   2   45.31    1.69
   5  -1  -2   42.52    1.72
  -5  -1   2   46.01    1.72
  -5   1   2   46.44    1.78
  -4  -1   2   23.59    0.92
  -4  -1   2   23.60    0.95
   4  -1  -2   23.34    1.44
  -4  -1   2   23.17    1.15
  -4  -1   2   24.04    0.97
  -4   1   2   23.60    0.88
  -4   1   2   22.96    1.14
  -4   1   2   22.96    0.93
   4   1  -2   21.67    1.48
  -3  -1   2   78.32    3.11
  -3  -1   2   77.95    3.30
  -3  -1   2   77.64    3.33
  -3  -1   2   79.02    3.48
   3  -1  -2   74.74    4.03
  -3  -1   2   81.63    3.06
   3  -1  -2   74.84    3.26
  -3  -1   2   80.43    3.03
  -3  -1   2   79.18    3.13
   3  -1  -2   79.78    3.49
   3   1  -2   59.54    3.76
  -3   1   2   68.10    3.28
  -3   1   2   75.09    2.82
  -3   1   2   74.52    3.03
   3   1  -2   74.48    3.10
   3   1  -2   62.35    3.00
   3   1  -2   72.69    3.16
   3   1  -2   71.82    2.84
  -2  -1   2   24.29    1.03
  -2  -1   2   22.16    1.27
  -2  -1   2   22.29    1.18
   2  -1  -2   23.71    0.94
  -2  -1   2   24.61    0.97
   2  -1  -2   23.80    1.53
   2  -1  -2   21.35    1.06
   2  -1  -2   22.25    1.16
  -2  -1   2   23.44    1.02
   2  -1  -2   22.60    1.26
   2  -1  -2   24.83    1.25
  -2  -1   2   23.15    1.12
   2  -1  -2   24.70    1.20
   2  -1  -2   23.32    1.04
   2  -1  -2   24.95    1.19
  -2   1   2   22.70    0.96
  -2   1   2   22.30    0.92
  -2   1   2   22.80    1.11
   2   1  -2   22.55    1.04
  -2   1   2   22.49    1.21
  -2   1   2   21.96    1.06
  -2   1   2   21.45    1.02
  -2   1   2   21.46    0.95
   2   1  -2   18.02    1.43
  -2   1   2   21.62    1.23
   2   1  -2   23.05    1.15
   2   1  -2   21.63    1.06
  -1  -1   2  173.81    6.51
  -1  -1   2  170.66    6.52
  -1  -1   2  175.55    6.48
   1  -1  -2  176.16    6.58
   1  -1  -2  174.77    6.56
   1  -1  -2  170.08    6.57
  -1  -1   2  167.87    6.54
   1  -1  -2  170.35    6.46
  -1  -1   2  170.26    6.53
   1  -1  -2  168.69    6.53
   1  -1  -2  171.26    6.69
  -1  -1   2  162.22    6.59
   1   1  -2  146.36    6.15
  -1   1   2  158.60    6.17
   1   1  -2  157.45    6.16
   1   1  -2  171.21    6.37
  -1   1   2  161.03    6.17
  -1   1   2  173.98    6.23
  -1   1   2  161.85    6.13
  -1   1   2  166.30    6.19
   1   1  -2  164.75    6.15
  -1   1   2  160.30    6.17
   1   1  -2  155.54    6.19
   0  -1  -2  234.72    8.68
   0  -1   2  227.19    8.72
   0  -1  -2  212.64    8.63
   0  -1  -2  231.47    8.61
   0  -1   2  230.20    8.62
   0  -1  -2  229.36    8.63
   0  -1  -2  217.82    8.66
   0  -1  -2  228.76    8.67
   0  -1  -2  221.63    8.63
   0  -1   2  227.64    8.64
   0  -1   2  239.21    8.66
   0  -1   2  234.37    8.64
   0  -1   2  231.54    8.66
   0   1  -2  216.74    8.44
   0   1   2  256.36    8.43
   0   1   2  209.60    8.38
   0   1  -2  218.97    8.43
   0   1   2  215.63    8.43
   0   1   2  213.20    8.41
   0   1   2  228.74    8.40
   0   1   2  216.00    8.43
   0   1  -2  227.41    8.40
   1  -1   2 1000.00   35.87
  -1  -1  -2  899.63   35.73
  -1  -1  -2  887.74   35.77
  -1  -1  -2  904.51   35.78
   1  -1   2  965.33   35.79
  -1  -1  -2  917.43   35.80
  -1  -1  -2  989.90   35.75
   1  -1   2  978.47   35.75
   1  -1   2  942.06   35.90
   1  -1   2  948.78   35.79
  -1  -1  -2  990.39   35.78
   1  -1   2  971.13   35.74
   1  -1   2  939.62   35.75
  -1   1  -2  876.31   32.93
  -1   1  -2  861.32   32.92
   1   1   2  871.18   33.02
  -1   1  -2  919.49   32.98
   1   1   2  865.02   32.96
  -1   1  -2  861.30   33.02
   1   1   2  821.60   33.05
  -1   1  -2  896.60   32.91
   1   1   2  889.30   32.90
   2  -1   2  112.34    4.79
  -2  -1  -2  128.80    4.95
   2  -1   2  120.01    4.79
  -2  -1  -2  121.98    4.85
  -2  -1  -2  121.61    4.88
   2  -1   2  133.29    4.92
   2  -1   2  138.89    5.26
   2  -1   2  124.40    4.91
   2  -1   2  120.65    4.92
  -2  -1  -2  126.07    4.98
   2  -1   2  131.27    5.10
   2  -1   2  123.56    4.82
  -2  -1  -2  128.87    4.98
   2  -1   2  124.77    4.76
  -2  -1  -2  125.43    4.79
   2   1   2   98.80    4.53
   2   1   2  118.78    4.59
  -2   1  -2  118.33    4.44
  -2   1  -2  125.60    4.52
   2   1   2  117.70    4.45
   2   1   2  104.08    5.11
   2   1   2  107.89    4.82
  -2   1  -2  119.04    4.55
   2   1   2  121.33    4.51
  -2   1  -2  116.85    4.40
  -2   1  -2  115.48    4.48
  -2   1  -2  118.44    4.67
  -2   1  -2  117.73    4.53
  -2   1  -2  115.83    4.68
  -3  -1  -2   10.90    1.16
  -3  -1  -2   11.03    0.62
  -3  -1  -2   12.04    1.50
   3  -1   2   12.50    0.86
  -3  -1  -2   11.34    0.67
   3  -1   2   11.20    1.42
   3  -1   2   12.95    1.75
  -3  -1  -2   12.77    0.60
  -3  -1  -2   14.08    1.29
  -3  -1  -2   12.59    0.72
  -3  -1  -2   12.70    1.27
   3   1   2   10.02    1.62
   3   1   2   12.48    2.02
   3   1   2    9.97    1.24
  -3   1  -2   10.95    0.68
  -3   1  -2   12.43    1.39
   3   1   2   11.66    0.73
  -3   1  -2   12.69    1.12
   3   1   2   13.53    0.98
   3   1   2   10.91    1.32
  -4  -1  -2   21.63    1.13
  -4  -1  -2   23.25    1.17
   4  -1   2   23.94    1.34
  -4   1  -2   21.66    1.14
   4   1   2   23.54    1.50
   4   1   2   19.82    1.28
  -5  -1  -2   16.95    0.68
  -5  -1  -2   17.19    0.67
  -5  -1  -2   16.38    0.64
  -5   1  -2   17.78    0.71
  -5  -2   2    1.06    0.13
  -5  -2   2    1.38    0.17
  -5  -2   2    1.11    0.09
  -5   2   2    0.90    0.13
  -4  -2   2   69.89    2.62
  -4  -2   2   69.65    2.70
  -4  -2   2   67.70    2.62
  -4  -2   2   67.71    2.87
  -4  -2   2   66.70    2.79
  -4  -2   2   68.32    2.63
   4  -2  -2   70.80    2.99
  -4  -2   2   66.96    2.73
  -4  -2   2   67.48    2.60
   4   2  -2   60.81    2.96
   4   2  -2   64.25    2.68
  -4   2   2   61.60    2.41
  -4   2   2   64.16    2.62
   3  -2  -2   71.59    2.90
  -3  -2   2   66.22    2.97
  -3  -2   2   68.19    2.75
  -3  -2   2   64.32    3.16
   3  -2  -2   67.87    2.83
   3  -2  -2   75.17    3.78
   3  -2  -2   66.39    3.30
  -3  -2   2   68.47    2.79
  -3  -2   2   68.92    2.70
  -3  -2   2   67.37    3.08
  -3  -2   2   69.24    2.66
  -3   2   2   62.54    2.78
  -3   2   2   63.46    2.43
   3   2  -2   62.89    2.76
   3   2  -2   57.82    2.90
   3   2  -2   51.13    2.69
   3   2  -2   59.99    2.49
  -3   2   2   62.92    2.46
   2  -2  -2   31.60    1.37
   2  -2  -2   30.35    1.54
  -2  -2   2   27.28    1.60
   2  -2  -2   32.86    1.80
  -2  -2   2   29.72    1.23
  -2  -2   2   29.41    1.31
   2  -2  -2   31.23    1.33
  -2  -2   2   29.12    1.29
  -2  -2   2   29.98    1.41
  -2  -2   2   29.27    1.19
  -2  -2   2   30.10    1.37
   2  -2  -2   31.21    1.26
  -2  -2   2   29.58    1.44
   2  -2  -2   31.48    1.20
   2  -2  -2   30.92    1.51
  -2  -2   2   29.97    1.26
   2  -2  -2   32.18    1.50
  -2   2   2   27.32    1.34
   2   2  -2   26.71    1.77
  -2   2   2   27.98    1.31
   2   2  -2   29.18    1.18
  -2   2   2   28.07    1.18
  -2   2   2   29.84    1.36
  -2   2   2   28.04    1.53
  -2   2   2   27.50    1.21
   2   2  -2   28.01    1.28
   1  -2  -2    4.37    0.32
  -1  -2   2    3.90    0.51
   1  -2  -2    4.83    0.49
  -1  -2   2    4.89    0.36
  -1  -2   2    4.31    0.39
   1  -2  -2    4.24    0.38
   1  -2  -2    4.16    0.42
  -1  -2   2    4.22    0.32
  -1  -2   2    4.41    0.36
   1  -2  -2    4.64    0.46
  -1  -2   2    4.74    0.35
   1  -2  -2    4.43    0.35
  -1  -2   2    4.23    0.27
  -1  -2   2    3.80    0.44
  -1  -2   2    4.07    0.36
   1  -2  -2    3.95    0.26
  -1  -2   2    4.65    0.32
  -1  -2   2    4.38    0.25
   1  -2  -2    4.37    0.21
  -1   2   2    3.11    0.38
  -1   2   2    3.45    0.35
  -1   2   2    4.22    0.30
  -1   2   2    3.82    0.38
   1   2  -2    3.81    0.38
  -1   2   2    3.06    0.40
   1   2  -2    3.59    0.24
  -1   2   2    3.88    0.25
   1   2  -2    3.78    0.34
   0  -2   2   93.84    3.62
   0  -2   2   93.91    3.63
   0  -2   2   89.35    3.65
   0  -2  -2   93.79    3.59
   0  -2   2   90.58    3.57
   0  -2   2   95.99    3.54
   0  -2   2   92.69    3.65
   0  -2   2   83.92    3.58
   0  -2  -2   91.29    3.68
   0  -2   2   92.26    3.59
   0  -2  -2   92.97    3.67
   0  -2   2   88.85    3.56
   0  -2   2   93.90    3.74
   0  -2  -2   97.28    3.61
   0  -2  -2   96.39    3.56
   0  -2  -2   92.41    3.65
   0  -2  -2   98.53    3.67
   0  -2  -2   92.75    3.56
   0  -2   2   92.67    3.59
   0   2  -2   86.93    3.40
   0   2  -2   85.04    3.34
   0   2   2   85.74    3.40
   0   2   2   88.67    3.36
   0   2  -2   90.07    3.39
   0   2   2   90.82    3.35
   0   2   2   84.80    3.41
   0   2  -2   89.54    3.45
   1  -2   2   37.39    1.64
   1  -2   2   37.84    1.70
  -1  -2  -2   36.34    1.49
  -1  -2  -2   35.84    1.51
   1  -2   2   38.09    1.54
   1  -2   2   35.95    1.53
   1  -2   2   36.61    1.41
  -1  -2  -2   36.36    1.49
  -1  -2  -2   34.52    1.48
  -1  -2  -2   38.34    1.57
  -1  -2  -2   36.40    1.56
   1  -2   2   35.64    1.46
   1  -2   2   37.79    1.50
   1  -2   2   35.04    1.47
  -1  -2  -2   35.36    1.47
   1  -2   2   36.84    1.51
  -1  -2  -2   35.30    1.44
  -1  -2  -2   37.39    1.46
   1  -2   2   38.33    1.60
   1  -2   2   36.56    1.49
   1   2   2   32.81    1.45
  -1   2  -2   34.11    1.37
  -1   2  -2   33.27    1.40
  -1   2  -2   32.83    1.52
   1   2   2   32.70    1.35
  -1   2  -2   33.59    1.34
   1   2   2   34.49    1.50
   1   2   2   34.06    1.33
  -1   2  -2   32.85    1.31
   1   2   2   32.46    1.55
  -2  -2  -2   64.52    2.73
   2  -2   2   66.57    2.56
  -2  -2  -2   64.40    2.54
   2  -2   2   66.96    2.50
  -2  -2  -2   63.83    2.74
   2  -2   2   68.48    2.64
  -2  -2  -2   63.50    2.61
  -2  -2  -2   63.13    2.50
   2  -2   2   66.59    3.00
   2  -2   2   59.19    2.65
  -2  -2  -2   64.63    2.55
  -2  -2  -2   67.19    2.75
  -2  -2  -2   64.57    2.63
   2  -2   2   62.43    2.85
  -2  -2  -2   65.09    2.58
   2  -2   2   67.60    2.78
  -2   2  -2   54.82    2.31
   2   2   2   52.19    2.77
  -2   2  -2   59.23    2.37
   2   2   2   58.88    2.47
   2   2   2   61.57    2.65
   2   2   2   60.96    2.32
  -2   2  -2   59.57    2.41
  -2   2  -2   55.78    2.56
  -2   2  -2   58.61    2.24
   2   2   2   52.12    2.23
   2   2   2   48.94    2.40
  -3  -2  -2   32.56    2.06
  -3  -2  -2   33.40    1.98
  -3  -2  -2   33.58    1.47
  -3  -2  -2   32.64    1.56
  -3  -2  -2   34.62    1.58
  -3  -2  -2   36.18    1.89
   3  -2   2   35.46    2.50
  -3  -2  -2   33.88    1.42
  -3  -2  -2   32.34    2.02
   3  -2   2   30.27    2.11
  -3  -2  -2   35.30    1.39
  -3   2  -2   29.81    1.84
   3   2   2   31.40    2.54
  -3   2  -2   31.89    2.11
   3   2   2   30.71    3.16
  -3   2  -2   32.43    1.47
   3   2   2   28.86    1.72
   3   2   2   34.77    1.99
   3   2   2   28.96    1.67
   4  -2   2   10.90    0.94
  -4  -2  -2    9.78    0.46
  -4  -2  -2    9.10    0.82
  -4  -2  -2   10.32    0.46
  -4  -2  -2   10.22    0.44
  -4  -2  -2    9.84    0.71
  -4  -2  -2    8.64    0.47
  -4  -2  -2    9.61    0.68
   4   2   2    7.54    0.91
  -4   2  -2    8.67    0.74
   4   2   2    7.85    0.89
  -4   2  -2    8.80    0.40
  -5  -2  -2    4.34    0.18
  -5  -2  -2    4.06    0.23
  -5   2  -2    4.61    0.23
  -4  -3   2    1.24    0.14
  -4  -3   2    1.18    0.30
  -4  -3   2    1.46    0.37
  -4  -3   2    1.70    0.18
   4  -3  -2    1.56    0.11
  -4  -3   2    1.70    0.31
  -4  -3   2    1.25    0.43
  -4  -3   2    1.76    0.19
  -4  -3   2    2.10    0.24
   4   3  -2    1.17    0.51
  -4   3   2    1.74    0.18
  -4   3   2    1.17    0.37
   4   3  -2    0.89    0.92
  -3  -3   2   29.72    1.37
  -3  -3   2   26.09    1.87
  -3  -3   2   29.08    1.15
  -3  -3   2   27.11    1.18
   3  -3  -2   29.27    1.23
  -3  -3   2   29.15    1.95
   3  -3  -2   24.82    2.53
  -3  -3   2   29.54    1.25
  -3  -3   2   26.63    1.81
   3  -3  -2   32.27    1.48
   3  -3  -2   25.03    2.07
  -3  -3   2   28.80    1.16
  -3  -3   2   29.99    1.31
   3  -3  -2   29.59    1.13
   3  -3  -2   30.21    1.46
  -3  -3   2   29.54    1.20
   3  -3  -2   34.68    2.83
   3   3  -2   24.32    1.68
  -3   3   2   25.85    1.20
  -3   3   2   21.32    1.98
  -3   3   2   27.09    1.17
   3   3  -2   21.61    1.62
  -3   3   2   26.87    2.41
  -3   3   2   26.84    1.20
  -3   3   2   24.05    1.01
   3   3  -2   24.20    1.21
   3   3  -2   21.59    3.53
  -3   3   2   26.88    1.99
   3   3  -2   26.87    2.14
  -2  -3   2    1.87    0.41
   2  -3  -2    2.41    0.57
  -2  -3   2    2.18    0.37
  -2  -3   2    1.91    0.30
  -2  -3   2    3.41    0.61
  -2  -3   2    2.39    0.49
   2  -3  -2    2.67    0.64
  -2  -3   2    1.36    0.66
  -2  -3   2    2.04    0.55
  -2  -3   2    1.94    0.19
   2  -3  -2    2.47    0.76
   2  -3  -2    1.91    0.30
   2  -3  -2    1.96    0.43
   2  -3  -2    2.18    0.48
   2  -3  -2    2.17    0.21
   2  -3  -2    2.36    0.41
  -2  -3   2    2.70    0.50
  -2  -3   2    1.68    0.25
  -2   3   2    1.91    0.52
  -2   3   2    2.02    0.28
  -2   3   2    1.34    0.46
   2   3  -2    1.57    0.31
  -2   3   2    1.92    0.69
  -2   3   2    1.99    0.40
   2   3  -2    1.96    0.38
  -2   3   2    1.00    0.44
   2   3  -2    2.06    0.92
   1  -3  -2  307.96   11.67
  -1  -3   2  305.76   11.76
  -1  -3   2  319.97   11.74
  -1  -3   2  310.11   11.90
  -1  -3   2  267.04   11.72
  -1  -3   2  307.90   11.66
   1  -3  -2  299.07   11.75
   1  -3  -2  308.70   11.86
   1  -3  -2  298.32   11.72
  -1  -3   2  312.49   11.65
  -1  -3   2  311.84   11.66
  -1  -3   2  308.89   11.71
  -1  -3   2  314.63   11.78
  -1  -3   2  311.84   11.69
   1  -3  -2  317.08   11.69
  -1  -3   2  300.21   11.66
   1  -3  -2  324.44   11.91
   1  -3  -2  314.15   11.88
  -1   3   2  280.04   10.71
   1   3  -2  286.56   10.75
  -1   3   2  276.83   10.87
   1   3  -2  292.84   10.77
  -1   3   2  282.96   10.76
  -1   3   2  278.44   10.69
   1   3  -2  283.91   10.62
   1   3  -2  292.43   10.61
  -1   3   2  254.37   10.67
   0  -3  -2  197.97    7.70
   0  -3   2  203.64    7.74
   0  -3   2  195.25    7.66
   0  -3  -2  211.22    7.88
   0  -3  -2  202.07    7.85
   0  -3   2  189.60    7.73
   0  -3   2  197.51    7.70
   0  -3   2  202.51    7.70
   0  -3   2  200.47    7.84
   0  -3   2  207.07    7.83
   0  -3  -2  205.09    7.85
   0  -3  -2  211.17    7.69
   0  -3  -2  206.44    7.74
   0  -3  -2  191.53    7.73
   0  -3   2  216.79    8.24
   0  -3  -2  200.85    7.71
   0   3  -2  185.60    7.06
   0   3   2  183.12    7.09
   0   3   2  184.09    7.00
   0   3   2  184.80    7.06
   0   3   2  181.90    7.02
   0   3  -2  189.46    7.15
   0   3  -2  186.13    6.98
   0   3  -2  178.94    6.98
  -1  -3  -2   56.78    2.23
   1  -3   2   56.35    2.38
   1  -3   2   56.49    2.46
   1  -3   2   58.85    2.59
  -1  -3  -2   55.67    2.29
   1  -3   2   56.88    2.27
   1  -3   2   60.07    2.36
  -1  -3  -2   56.56    2.39
  -1  -3  -2   51.05    2.26
  -1  -3  -2   55.63    2.28
   1  -3   2   58.91    2.26
   1  -3   2   57.67    2.30
   1  -3   2   59.35    2.48
  -1  -3  -2   55.88    2.36
  -1  -3  -2   60.01    2.43
   1  -3   2   59.72    2.30
  -1  -3  -2   56.19    2.27
  -1  -3  -2   55.63    2.26
   1   3   2   53.00    2.26
   1   3   2   49.52    2.05
  -1   3  -2   49.80    2.10
   1   3   2   45.08    1.99
   1   3   2   48.47    2.16
   1   3   2   51.93    1.98
  -1   3  -2   50.76    2.04
   1   3   2   52.95    2.34
  -1   3  -2   53.68    2.27
  -2  -3  -2   14.89    0.85
   2  -3   2   17.07    0.78
  -2  -3  -2   15.52    1.06
  -2  -3  -2   16.32    0.75
   2  -3   2   15.97    1.22
  -2  -3  -2   15.68    0.68
   2  -3   2   16.92    1.25
  -2  -3  -2   15.93    1.16
  -2  -3  -2   16.61    0.81
   2  -3   2   17.10    0.69
  -2  -3  -2   14.82    0.82
   2  -3   2   16.71    0.85
  -2  -3  -2   15.58    1.15
   2  -3   2   17.18    1.45
   2  -3   2   16.72    0.85
  -2  -3  -2   14.57    0.98
   2   3   2   11.04    1.82
   2   3   2   12.72    1.29
  -2   3  -2   14.97    1.01
  -2   3  -2   13.30    1.18
  -2   3  -2   14.14    0.65
   2   3   2   14.55    0.80
  -2   3  -2   13.59    0.90
   2   3   2   13.13    0.67
  -2   3  -2   13.70    0.76
   2   3   2   12.19    1.42
   2   3   2   12.99    1.09
  -3  -3  -2    0.30    0.19
  -3  -3  -2    0.30    0.20
  -3  -3  -2    0.01    0.13
   3  -3   2    0.13    0.27
   3  -3   2    0.04    0.10
  -3  -3  -2    0.22    0.22
  -3  -3  -2   -0.71    1.03
   3  -3   2    0.07    0.13
  -3  -3  -2    0.26    0.20
   3  -3   2    0.45    1.34
   3  -3   2    0.05    0.29
  -3  -3  -2    0.27    0.35
   3  -3   2   -1.59    1.03
  -3  -3  -2   -1.41    0.99
   3   3   2    0.51    1.12
  -3   3  -2   -1.56    1.20
  -3   3  -2    0.11    0.24
  -3   3  -2   -1.28    0.93
   3   3   2   -0.23    0.26
   3   3   2    0.03    0.77
  -3   3  -2   -0.05    0.27
  -4  -3  -2    4.26    0.56
  -4  -3  -2    3.51    0.26
  -4  -3  -2    3.00    0.23
  -4  -3  -2    4.18    0.51
  -4  -3  -2    3.07    0.24
   4  -3   2    3.07    0.84
   4  -3   2    2.95    0.16
  -4   3  -2    2.73    0.62
  -4   3  -2    2.77    0.20
   4   3   2    1.69    0.55
  -4  -4   2    1.50    0.16
  -4  -4   2    2.05    0.25
  -4  -4   2    1.91    0.21
  -4  -4   2    1.55    0.33
   4  -4  -2    1.69    0.11
  -4  -4   2    1.63    0.47
  -4   4   2    1.67    0.19
   3  -4  -2    3.21    0.24
   3  -4  -2    3.30    0.83
   3  -4  -2    3.25    0.21
  -3  -4   2    3.20    0.30
  -3  -4   2    2.68    0.23
  -3  -4   2    3.60    0.42
  -3  -4   2    3.01    0.34
  -3  -4   2    3.06    0.25
   3  -4  -2    2.96    0.41
  -3  -4   2    3.36    0.55
  -3   4   2    3.50    0.66
  -3   4   2    3.17    0.52
  -3   4   2    2.75    0.27
   3   4  -2    2.01    0.90
  -3   4   2    3.18    0.41
  -2  -4   2   52.81    2.09
  -2  -4   2   52.98    2.23
   2  -4  -2   51.80    2.06
   2  -4  -2   51.99    2.16
   2  -4  -2   56.58    2.23
   2  -4  -2   52.72    2.46
  -2  -4   2   56.19    2.96
  -2  -4   2   48.55    2.01
   2  -4  -2   52.96    2.62
  -2  -4   2   52.08    2.13
  -2  -4   2   49.09    2.50
  -2  -4   2   47.68    2.29
  -2  -4   2   50.30    2.27
   2  -4  -2   54.79    3.01
   2  -4  -2   51.31    2.75
  -2   4   2   45.42    2.12
  -2   4   2   47.46    2.23
   2   4  -2   45.54    1.84
   2   4  -2   48.76    3.43
  -2   4   2   47.18    2.37
  -2   4   2   46.90    2.62
  -2   4   2   41.44    1.95
   2   4  -2   44.90    1.98
   1  -4  -2   11.62    0.50
  -1  -4   2   12.01    0.74
  -1  -4   2   10.43    0.67
  -1  -4   2   12.75    0.56
   1  -4  -2   13.25    1.12
   1  -4  -2   11.64    1.19
   1  -4  -2   11.83    0.62
   1  -4  -2   11.17    0.77
   1  -4  -2   12.48    0.76
  -1  -4   2   12.21    0.63
  -1  -4   2   12.15    0.60
   1  -4  -2   12.32    0.70
   1  -4  -2   12.13    0.63
  -1  -4   2   10.95    0.69
  -1  -4   2   11.78    0.87
  -1  -4   2   11.29    0.75
  -1  -4   2   11.00    0.95
  -1  -4   2   12.34    0.60
  -1  -4   2   10.20    1.30
   1  -4  -2   11.40    0.99
   1   4  -2   10.50    0.51
  -1   4   2   10.77    1.00
  -1   4   2   10.43    0.64
  -1   4   2   10.80    0.86
   1   4  -2    9.59    0.89
  -1   4   2   10.04    0.71
  -1   4   2   10.08    0.53
  -1   4   2   10.09    0.96
   0  -4   2   76.36    3.24
   0  -4   2   80.76    3.53
   0  -4   2   83.23    3.52
   0  -4   2   81.39    3.26
   0  -4  -2   80.77    3.30
   0  -4   2   84.17    3.26
   0  -4   2   82.33    3.30
   0  -4   2   85.06    3.72
   0  -4  -2   80.44    3.51
   0  -4  -2   83.15    3.55
   0  -4  -2   81.64    3.27
   0  -4   2   84.20    3.23
   0  -4  -2   84.62    3.26
   0  -4  -2   83.51    3.55
   0  -4  -2   84.67    3.26
   0  -4   2   90.47    3.39
   0  -4   2   83.01    3.42
   0  -4   2   84.92    3.32
   0  -4   2   85.94    3.49
   0   4  -2   76.44    3.21
   0   4   2   78.26    2.95
   0   4   2   75.75    3.12
   0   4  -2   73.04    2.93
   0   4  -2   76.74    3.07
   0   4  -2   74.92    3.06
   1  -4   2    9.08    0.92
   1  -4   2    8.46    0.58
   1  -4   2    9.49    0.40
  -1  -4  -2    8.91    0.62
  -1  -4  -2   10.26    0.88
   1  -4   2    9.04    0.98
   1  -4   2    7.33    0.75
   1  -4   2    8.67    0.57
  -1  -4  -2    8.14    0.97
   1  -4   2   10.17    1.22
  -1  -4  -2    9.26    0.58
  -1  -4  -2    8.62    0.49
  -1  -4  -2    8.99    0.60
   1  -4   2    8.20    0.51
   1  -4   2    9.32    0.82
   1   4   2    7.03    0.93
  -1   4  -2    7.84    0.41
  -1   4  -2    7.89    0.57
   1   4   2    7.48    1.07
  -1   4  -2    7.01    0.98
   1   4   2    7.35    0.43
  -1   4  -2    8.38    0.80
  -2  -4  -2   33.60    1.80
  -2  -4  -2   38.72    1.55
   2  -4   2   36.13    1.94
  -2  -4  -2   35.52    1.44
   2  -4   2   36.50    2.49
   2  -4   2   35.00    2.23
  -2  -4  -2   34.68    2.27
  -2  -4  -2   35.48    2.04
  -2  -4  -2   40.49    1.97
   2  -4   2   32.98    1.88
   2  -4   2   35.54    2.11
   2  -4   2   40.60    1.61
  -2   4  -2   33.80    1.81
   2   4   2   30.08    1.35
  -2   4  -2   31.89    1.55
   2   4   2   31.01    2.60
  -2   4  -2   29.56    2.08
   2   4   2   28.93    1.45
  -2   4  -2   31.75    1.37
  -2   4  -2   33.59    1.63
   2   4   2   34.08    2.02
  -2   4  -2   36.44    1.91
   3  -4   2    4.02    0.24
   3  -4   2    3.90    0.29
  -3  -4  -2    3.47    0.39
   3  -4   2    4.12    0.49
   3  -4   2    4.33    0.28
  -3  -4  -2    3.25    0.32
   3  -4   2    3.91    0.71
  -3  -4  -2    3.49    0.63
  -3  -4  -2    3.64    0.26
  -3  -4  -2    3.87    0.47
  -3  -4  -2    3.88    0.72
   3  -4   2    4.35    0.69
  -3   4  -2    3.35    0.47
   3   4   2    3.02    0.49
  -3   4  -2    3.27    0.63
  -4  -4  -2   62.34    2.79
  -4  -4  -2   71.57    2.72
  -4  -4  -2   64.05    2.84
   4  -4   2   77.83    3.24
   4  -4   2   70.61    2.68
  -4  -4  -2   70.32    2.70
  -4  -4  -2   79.68    2.76
  -4   4  -2   58.17    2.10
  -4   4  -2   60.38    2.40
   4   4   2   49.39    2.39
   4   4   2   49.81    2.32
  -4  -5   2    8.12    0.36
   4  -5  -2    8.83    0.34
  -4  -5   2    8.62    0.39
  -4   5   2    6.82    0.34
  -3  -5   2    7.23    0.83
  -3  -5   2    6.66    0.35
   3  -5  -2    6.85    0.88
   3  -5  -2    6.67    0.54
   3  -5  -2    7.58    0.32
  -3  -5   2    6.65    0.47
   3  -5  -2    7.15    0.34
  -3  -5   2    6.32    0.56
  -3  -5   2    7.24    0.34
  -3  -5   2    7.69    0.39
   3   5  -2    4.94    0.68
  -3   5   2    7.25    0.67
  -3   5   2    6.71    0.64
  -2  -5   2   32.44    1.51
   2  -5  -2   28.98    3.62
   2  -5  -2   32.06    1.45
   2  -5  -2   32.61    1.25
  -2  -5   2   32.35    1.24
  -2  -5   2   32.43    1.35
   2  -5  -2   31.98    2.60
   2  -5  -2   28.03    1.96
  -2  -5   2   30.78    1.26
  -2  -5   2   27.98    1.65
  -2  -5   2   30.13    1.37
  -2  -5   2   32.34    1.44
   2  -5  -2   31.47    1.53
   2  -5  -2   32.75    1.28
  -2   5   2   28.39    2.12
   2   5  -2   22.75    2.16
  -2   5   2   24.46    3.67
   2   5  -2   26.27    1.18
   2   5  -2   22.48    1.64
   2   5  -2   30.37    3.42
  -2   5   2   27.97    1.19
   1  -5  -2    2.44    0.37
  -1  -5   2    1.68    0.34
   1  -5  -2    1.48    0.90
  -1  -5   2    1.74    0.42
  -1  -5   2    1.56    0.32
   1  -5  -2    1.85    0.46
   1  -5  -2    1.74    0.21
   1  -5  -2    1.37    0.79
   1  -5  -2    2.00    0.22
   1  -5  -2    1.35    0.50
   1   5  -2    1.93    0.91
   1   5  -2    1.71    1.71
   1   5  -2    1.52    0.32
  -1   5   2    1.66    0.33
  -1   5   2    2.35    0.77
  -1   5   2    0.22    0.85
  -1   5   2    2.07    0.47
   0  -5  -2   28.45    1.32
   0  -5   2   29.12    1.38
   0  -5   2   26.94    1.26
   0  -5   2   28.32    1.25
   0  -5  -2   28.11    1.88
   0  -5   2   27.98    1.67
   0  -5  -2   27.05    1.29
   0  -5  -2   28.85    1.24
   0  -5   2   26.02    2.84
   0  -5  -2   26.26    1.31
   0  -5   2   29.03    1.32
   0  -5   2   27.75    1.31
   0  -5  -2   24.62    2.06
   0  -5   2   26.22    1.88
   0   5   2   23.43    1.07
   0   5  -2   22.51    1.76
  -1  -5  -2   21.85    1.37
  -1  -5  -2   19.34    1.22
   1  -5   2   18.87    0.82
   1  -5   2   20.16    2.25
   1  -5   2   20.72    1.07
  -1  -5  -2   20.96    1.14
  -1  -5  -2   18.71    0.98
   1  -5   2   19.05    0.82
   1  -5   2   19.58    1.79
   1  -5   2   19.84    1.04
   1  -5   2   18.72    0.96
   1  -5   2   22.28    1.71
   1   5   2   14.69    2.00
  -1   5  -2   16.54    0.75
  -1   5  -2   15.44    1.76
  -1   5  -2   18.70    1.58
  -1   5  -2   17.03    0.98
   1   5   2   14.86    0.80
   2  -5   2    4.80    0.64
   2  -5   2    3.73    0.52
  -2  -5  -2    4.03    0.36
   2  -5   2    4.79    0.69
  -2  -5  -2    5.61    0.77
  -2  -5  -2    5.06    1.65
   2  -5   2    4.17    0.29
   2  -5   2    5.30    2.15
   2  -5   2    4.62    0.28
  -2  -5  -2    4.92    0.66
  -2  -5  -2    4.12    0.36
   2  -5   2    3.50    0.35
  -2  -5  -2    4.49    0.29
  -2  -5  -2    3.69    0.49
  -2   5  -2    8.93    2.27
   2   5   2    6.83    2.34
  -2   5  -2    3.35    0.35
  -2   5  -2    3.02    0.46
   2   5   2    2.73    0.47
   3  -5   2    3.76    0.71
   3  -5   2    5.05    0.91
  -3  -5  -2    3.50    0.24
  -3  -5  -2    3.99    0.30
   3  -5   2    3.81    0.25
   3  -5   2    3.79    0.22
   3  -5   2    3.86    0.24
  -3  -5  -2    3.07    0.41
   3  -5   2    4.38    0.80
   3  -5   2    4.66    0.57
   3   5   2    3.39    0.56
  -3   5  -2    2.00    0.44
  -3   5  -2    2.91    0.51
   4  -5   2    1.89    0.11
  -4  -5  -2    1.90    0.15
  -4  -5  -2    2.52    0.21
  -4   5  -2    1.69    0.15
  -3  -6   2   17.16    0.71
   3  -6  -2   17.16    0.67
   3  -6  -2   16.96    0.68
  -3  -6   2   16.75    0.68
  -2  -6   2   11.28    0.75
  -2  -6   2   10.33    1.09
   2  -6  -2   10.98    0.48
  -2  -6   2   10.61    0.48
   2  -6  -2   12.48    0.96
  -2   6   2    9.21    0.59
   1  -6  -2    5.20    0.38
   1  -6  -2    5.33    0.74
   1  -6  -2    5.71    0.36
   1  -6  -2    6.14    0.58
  -1   6   2    5.15    0.45
   0  -6   2   63.03    2.63
   0  -6  -2   63.59    2.62
   0  -6  -2   63.38    2.71
   0  -6  -2   68.22    2.45
   0  -6   2   64.35    2.71
   0  -6   2   62.64    2.45
   0  -6   2   62.40    2.83
   0  -6   2   61.15    2.68
   0  -6  -2   62.67    2.45
   0   6   2   49.87    2.00
   1  -6   2    2.38    0.59
  -1  -6  -2    1.13    0.63
   1  -6   2    1.90    0.31
   1  -6   2    1.98    0.24
  -1   6  -2    1.26    0.30
  -1   6  -2    0.56    0.43
   2  -6   2    6.65    0.74
  -2  -6  -2    6.75    0.51
   2  -6   2    6.47    0.32
   2  -6   2    6.84    0.69
  -2  -6  -2    6.91    0.35
  -2  -6  -2    6.15    0.39
   2  -6   2    7.51    1.08
   2  -6   2    6.38    0.46
   2  -6   2    6.41    0.34
  -2   6  -2    5.25    0.44
  -2   6  -2    4.91    0.66
  -3  -6  -2    3.33    0.20
   3  -6   2    3.33    0.18
   3  -6   2    3.28    0.20
  -3  -6  -2    3.45    0.26
  -3   6  -2    2.60    0.19
   2  -7  -2   20.17    0.80
   1  -7  -2   21.38    0.92
   1  -7  -2   22.10    0.87
   1  -7  -2   21.43    1.31
  -1   7   2   16.56    0.85
  -1   7   2   17.85    1.00
   0  -7  -2   22.54    0.88
   0  -7   2   22.45    0.86
   0  -7   2   19.55    1.35
   0  -7   2   20.60    1.25
   1  -7   2    3.70    0.40
   1  -7   2    3.12    0.20
   1  -7   2    3.90    0.80
   1  -7   2    3.52    0.65
  -1   7  -2    2.21    0.39
  -2  -7  -2    3.34    0.30
   2  -7   2    3.15    0.18
   5   0  -3   96.26    3.72
  -5   0   3   99.93    3.73
  -4   0   3   10.39    0.49
  -4   0   3   11.48    0.73
   4   0  -3   10.54    1.10
  -4   0   3   11.17    0.44
  -4   0   3   10.58    0.50
   3   0  -3   30.77    1.72
  -3   0   3   37.63    1.44
  -3   0   3   36.88    1.53
  -3   0   3   36.68    1.80
   3   0  -3   36.17    1.64
   3   0  -3   37.28    2.67
  -2   0   3    6.38    0.46
  -2   0   3    6.34    0.51
  -2   0   3    7.70    0.68
  -2   0   3    6.54    0.40
   2   0  -3    6.13    0.68
  -2   0   3    6.48    0.55
   2   0  -3    7.45    0.60
  -2   0   3    7.02    0.36
   2   0  -3    8.32    0.68
   2   0  -3    6.29    0.48
  -2   0   3    6.24    0.39
  -2   0   3    6.47    0.71
   2   0  -3    6.71    0.61
  -2   0   3    7.79    0.53
  -2   0   3    6.50    0.64
  -2   0   3    7.11    0.33
  -1   0   3    9.14    0.54
  -1   0   3    8.88    0.50
   1   0  -3   10.54    0.53
   1   0  -3    9.46    0.46
   1   0  -3    9.32    0.66
   1   0  -3    9.45    0.54
  -1   0   3   10.15    0.49
   1   0  -3    9.18    0.47
   1   0  -3    9.62    0.54
  -1   0   3    9.77    0.51
  -1   0   3    9.34    0.49
  -1   0   3    9.56    0.48
   0   0   3   53.25    2.06
   0   0  -3   52.29    2.08
   0   0   3   55.25    2.11
   0   0  -3   56.80    2.09
   0   0   3   53.04    2.08
   0   0   3   52.81    2.11
   0   0   3   53.07    2.09
   0   0  -3   57.01    2.12
   0   0  -3   51.85    2.08
   0   0   3   53.15    2.09
   0   0   3   53.10    2.10
   0   0  -3   54.26    2.13
  -1   0  -3   28.97    1.16
   1   0   3   29.50    1.31
   1   0   3   27.37    1.23
  -1   0  -3   30.39    1.26
   1   0   3   28.43    1.23
   1   0   3   26.91    1.30
   1   0   3   29.23    1.17
  -1   0  -3   27.99    1.17
  -1   0  -3   29.48    1.26
  -1   0  -3   27.45    1.18
  -1   0  -3   27.37    1.17
   2   0   3   77.02    3.36
   2   0   3   69.69    3.20
  -2   0  -3   83.68    3.07
  -2   0  -3   86.18    3.00
   2   0   3   70.16    3.39
  -2   0  -3   82.88    3.26
   2   0   3   70.48    3.03
  -2   0  -3   85.60    3.28
   2   0   3   82.48    3.13
  -2   0  -3   82.68    3.01
   2   0   3   71.83    3.05
   2   0   3   71.97    3.10
   3   0   3    4.12    0.68
   3   0   3    3.48    0.88
   3   0   3    4.61    0.56
  -3   0  -3    3.57    0.41
   3   0   3    2.50    1.21
  -3   0  -3    4.55    0.88
  -3   0  -3    3.72    0.40
  -3   0  -3    2.15    0.76
   3   0   3    3.88    0.97
  -3   0  -3    3.43    0.45
   4   0   3   80.49    3.34
  -4   0  -3   76.05    3.19
  -5   0  -3    0.82    0.14
  -5  -1   3   18.29    0.71
   5  -1  -3   18.26    0.74
  -5  -1   3   18.90    0.74
  -5   1   3   17.99    0.72
   4  -1  -3   49.80    2.37
  -4  -1   3   51.26    2.14
  -4   1   3   48.44    2.02
   4   1  -3   45.08    2.30
   3  -1  -3  142.98    6.45
  -3  -1   3  144.53    5.48
  -3  -1   3  140.72    5.69
  -3  -1   3  138.96    5.72
   3  -1  -3  147.03    5.70
   3  -1  -3  139.56    5.84
  -3  -1   3  140.55    5.55
  -3  -1   3  144.13    5.85
  -3  -1   3  145.68    5.45
  -3  -1   3  145.42    5.54
   3   1  -3  133.46    5.59
   3   1  -3  150.08    5.57
   3   1  -3  152.37    6.53
  -3   1   3  121.90    5.71
  -3   1   3  139.33    5.52
  -3   1   3  133.94    5.33
   3   1  -3  130.22    5.36
   2  -1  -3   13.58    0.60
  -2  -1   3   14.44    0.62
  -2  -1   3   14.26    0.78
  -2  -1   3   14.64    0.85
   2  -1  -3   14.51    0.89
   2  -1  -3   14.82    1.07
  -2  -1   3   14.05    0.80
   2  -1  -3   12.14    0.72
   2  -1  -3   13.52    0.71
   2  -1  -3   15.03    0.86
   2  -1  -3   13.93    1.20
   2  -1  -3   15.34    0.95
  -2  -1   3   14.06    0.66
  -2  -1   3   13.88    1.00
  -2  -1   3   14.23    0.59
  -2  -1   3   13.45    0.75
  -2  -1   3   14.42    0.69
   2  -1  -3   14.70    0.97
   2   1  -3   12.97    0.81
  -2   1   3   13.13    0.65
   2   1  -3   12.89    0.68
  -2   1   3   13.81    0.80
   2   1  -3   11.80    1.17
   2   1  -3   13.41    0.94
  -2   1   3   13.11    0.97
  -2   1   3   14.46    0.79
  -2   1   3   13.95    0.67
  -2   1   3   14.09    0.65
  -2   1   3   13.60    0.89
  -2   1   3   15.50    0.97
   2   1  -3   15.61    1.14
   2   1  -3   13.40    0.80
   1  -1  -3  261.77    9.83
   1  -1  -3  268.14    9.93
  -1  -1   3  255.73    9.83
  -1  -1   3  259.46    9.97
  -1  -1   3  269.30    9.89
   1  -1  -3  251.36   10.05
  -1  -1   3  267.01    9.88
  -1  -1   3  269.73    9.90
  -1  -1   3  258.96    9.81
   1  -1  -3  265.37    9.95
   1  -1  -3  257.92    9.87
   1  -1  -3  268.68    9.92
  -1  -1   3  254.90    9.89
   1  -1  -3  259.89    9.89
   1  -1  -3  248.39    9.81
  -1  -1   3  264.12    9.88
  -1  -1   3  253.27    9.84
  -1  -1   3  252.06    9.85
  -1   1   3  233.72    9.63
  -1   1   3  255.38    9.63
   1   1  -3  272.61    9.88
   1   1  -3  255.54    9.61
  -1   1   3  239.92    9.62
  -1   1   3  278.14    9.72
   1   1  -3  237.69    9.66
  -1   1   3  250.63    9.67
   1   1  -3  260.06    9.71
  -1   1   3  254.77    9.67
  -1   1   3  261.20    9.67
  -1   1   3  252.28    9.65
   1   1  -3  255.15    9.64
   0  -1   3   89.30    3.43
   0  -1   3   92.79    3.46
   0  -1  -3   92.12    3.48
   0  -1   3   89.46    3.48
   0  -1   3   90.42    3.46
   0  -1   3   91.64    3.44
   0  -1   3   88.76    3.54
   0  -1  -3   89.08    3.47
   0  -1  -3   85.96    3.43
   0  -1  -3   88.41    3.45
   0  -1   3   81.12    3.47
   0  -1  -3   88.80    3.49
   0   1  -3   84.26    3.28
   0   1  -3   83.28    3.29
   0   1  -3   85.57    3.31
   0   1  -3   85.29    3.30
   0   1  -3   81.84    3.26
   0   1   3   81.69    3.28
   0   1   3   87.73    3.27
   0   1   3   87.40    3.31
   0   1   3   86.74    3.29
  -1  -1  -3  396.76   15.29
   1  -1   3  395.81   15.26
  -1  -1  -3  421.70   15.31
   1  -1   3  414.55   15.31
   1  -1   3  411.67   15.25
  -1  -1  -3  383.23   15.24
   1  -1   3  444.62   15.42
  -1  -1  -3  397.02   15.21
  -1  -1  -3  389.36   15.23
  -1  -1  -3  375.82   15.21
   1  -1   3  424.87   15.28
   1  -1   3  404.28   15.27
   1  -1   3  383.26   15.19
  -1  -1  -3  416.19   15.24
   1  -1   3  418.74   15.31
   1  -1   3  404.52   15.41
  -1  -1  -3  399.24   15.32
  -1  -1  -3  380.82   15.19
  -1   1  -3  388.71   14.61
   1   1   3  380.03   14.73
  -1   1  -3  392.18   14.63
   1   1   3  404.31   14.67
   1   1   3  381.25   14.59
   1   1   3  388.52   14.55
  -1   1  -3  388.76   14.67
  -1   1  -3  382.00   14.61
  -1   1  -3  381.17   14.71
   1   1   3  389.03   14.57
  -1   1  -3  358.69   14.57
   1   1   3  399.03   14.73
  -2  -1  -3   45.72    1.88
   2  -1   3   48.17    2.00
   2  -1   3   45.94    2.28
   2  -1   3   47.45    2.20
   2  -1   3   51.78    1.99
  -2  -1  -3   47.07    2.07
  -2  -1  -3   46.57    2.05
  -2  -1  -3   48.15    1.86
   2  -1   3   47.83    2.06
  -2  -1  -3   47.46    2.12
  -2  -1  -3   50.17    1.93
   2  -1   3   47.57    1.86
   2  -1   3   50.60    2.26
   2  -1   3   46.30    1.90
  -2  -1  -3   47.63    2.14
  -2   1  -3   42.86    1.92
   2   1   3   46.83    2.19
  -2   1  -3   40.76    2.05
  -2   1  -3   45.24    1.77
   2   1   3   42.62    1.94
   2   1   3   46.56    2.36
  -2   1  -3   41.61    1.85
  -2   1  -3   46.72    1.91
  -2   1  -3   44.44    1.80
   2   1   3   46.44    1.90
   2   1   3   47.64    1.81
   2   1   3   47.48    2.00
   3  -1   3   43.09    3.18
  -3  -1  -3   43.02    1.86
  -3  -1  -3   46.61    1.79
   3  -1   3   46.80    1.99
  -3  -1  -3   44.50    2.21
  -3  -1  -3   45.59    2.60
  -3  -1  -3   43.31    1.82
  -3  -1  -3   44.60    2.30
  -3  -1  -3   43.85    2.30
  -3   1  -3   42.71    1.76
   3   1   3   43.18    1.78
   3   1   3   40.21    1.89
   3   1   3   40.98    2.55
   3   1   3   37.72    2.82
   3   1   3   39.62    2.33
   3   1   3   39.08    2.12
  -4  -1  -3   14.08    0.59
  -4  -1  -3   14.23    0.62
  -4  -1  -3   14.29    0.64
  -4  -1  -3   13.54    0.93
  -4  -1  -3   15.15    0.88
  -4  -1  -3   15.14    0.63
   4  -1   3   15.45    1.10
   4   1   3   15.39    1.04
   4   1   3   13.20    1.27
  -4   1  -3   15.19    0.92
  -4   1  -3   13.10    0.60
  -5  -1  -3    1.49    0.09
  -5  -1  -3    1.30    0.15
  -5   1  -3    1.52    0.16
  -5  -2   3    9.18    0.39
  -5  -2   3    9.50    0.37
  -5   2   3    9.17    0.39
  -4  -2   3   21.87    1.10
   4  -2  -3   22.42    1.41
  -4  -2   3   22.72    0.90
  -4  -2   3   21.73    0.86
  -4  -2   3   22.14    0.88
   4  -2  -3   22.30    0.89
  -4  -2   3   21.64    1.04
  -4  -2   3   20.58    1.28
  -4  -2   3   21.60    0.88
  -4  -2   3   20.85    0.98
  -4   2   3   21.44    1.12
  -4   2   3   20.69    0.86
   4   2  -3   22.17    1.62
   4   2  -3   20.67    1.29
   3  -2  -3    1.92    1.23
  -3  -2   3    1.22    0.69
   3  -2  -3    1.78    1.07
   3  -2  -3    1.83    0.41
  -3  -2   3    1.24    0.26
   3  -2  -3    0.97    0.41
   3  -2  -3    2.34    0.92
  -3  -2   3    1.42    0.75
  -3  -2   3    1.43    0.78
  -3  -2   3    1.12    0.24
  -3   2   3    2.05    0.81
  -3   2   3    2.22    0.87
  -3   2   3    2.00    0.42
   3   2  -3    0.52    0.81
   3   2  -3    0.69    1.50
  -3   2   3    2.22    0.45
  -2  -2   3    3.35    0.27
  -2  -2   3    3.26    0.46
   2  -2  -3    2.94    0.41
   2  -2  -3    2.68    0.51
  -2  -2   3    2.62    0.37
   2  -2  -3    3.56    0.75
  -2  -2   3    3.29    0.30
   2  -2  -3    4.00    0.61
  -2  -2   3    3.33    0.21
  -2  -2   3    3.53    0.56
  -2  -2   3    3.56    0.58
   2  -2  -3    2.91    0.50
  -2  -2   3    3.08    0.57
  -2  -2   3    2.89    0.36
   2  -2  -3    2.58    0.47
  -2   2   3    3.57    0.49
  -2   2   3    3.15    0.52
  -2   2   3    3.21    0.32
   2   2  -3    2.84    0.34
  -2   2   3    3.61    0.62
  -2   2   3    3.34    0.35
   2   2  -3    2.71    0.72
   2   2  -3    2.98    0.41
   1  -2  -3   21.94    1.02
  -1  -2   3   22.27    1.02
   1  -2  -3   22.63    1.10
  -1  -2   3   21.71    0.99
  -1  -2   3   21.72    0.93
  -1  -2   3   22.02    0.93
  -1  -2   3   22.29    0.97
  -1  -2   3   22.15    0.96
   1  -2  -3   23.34    1.14
   1  -2  -3   21.94    0.97
  -1  -2   3   22.38    0.96
  -1  -2   3   23.14    0.97
  -1  -2   3   22.27    1.00
   1  -2  -3   22.62    1.07
  -1  -2   3   22.83    0.98
  -1  -2   3   21.34    1.14
   1   2  -3   20.13    0.93
  -1   2   3   21.53    0.88
   1   2  -3   20.99    0.88
  -1   2   3   21.02    0.93
  -1   2   3   20.05    0.95
   1   2  -3   21.29    0.97
   1   2  -3   20.73    0.92
   0  -2  -3  261.19    9.83
   0  -2  -3  243.63    9.73
   0  -2  -3  256.21    9.73
   0  -2   3  250.25    9.73
   0  -2  -3  242.18    9.75
   0  -2  -3  267.28    9.77
   0  -2  -3  267.78    9.84
   0  -2   3  263.42    9.94
   0  -2   3  262.24    9.76
   0  -2  -3  266.22    9.75
   0  -2   3  258.02    9.76
   0  -2   3  269.96    9.73
   0  -2  -3  252.43    9.75
   0  -2   3  254.42    9.71
   0  -2   3  250.70    9.73
   0  -2   3  247.35    9.73
   0  -2  -3  265.76    9.75
   0  -2   3  267.65    9.80
   0  -2  -3  258.64    9.85
   0  -2   3  256.87    9.77
   0  -2   3  250.23    9.75
   0  -2   3  239.44    9.78
   0  -2   3  261.71    9.83
   0   2   3  230.22    9.52
   0   2  -3  259.32    9.53
   0   2   3  250.69    9.53
   0   2   3  243.07    9.49
   0   2   3  260.28    9.48
   0   2  -3  253.06    9.56
   0   2   3  243.41    9.45
   0   2  -3  265.06    9.48
  -1  -2  -3  221.28    8.62
  -1  -2  -3  205.52    8.57
  -1  -2  -3  244.22    8.66
  -1  -2  -3  214.22    8.51
   1  -2   3  222.18    8.60
  -1  -2  -3  207.06    8.46
  -1  -2  -3  217.37    8.54
   1  -2   3  235.90    8.72
   1  -2   3  230.20    8.58
  -1  -2  -3  231.86    8.54
   1  -2   3  219.03    8.53
   1  -2   3  231.12    8.56
   1  -2   3  223.42    8.56
   1  -2   3  229.07    8.61
  -1  -2  -3  225.78    8.51
   1  -2   3  231.98    8.67
   1  -2   3  230.09    8.78
   1   2   3  211.70    7.63
   1   2   3  211.05    7.56
   1   2   3  206.08    7.44
  -1   2  -3  177.63    7.61
   1   2   3  172.53    7.58
   1   2   3  176.76    7.40
   1   2   3  205.03    7.43
  -1   2  -3  203.90    7.46
  -1   2  -3  190.48    7.42
  -1   2  -3  203.54    7.48
   2  -2   3  375.24   13.96
   2  -2   3  372.44   14.03
  -2  -2  -3  377.32   14.12
   2  -2   3  382.81   14.11
  -2  -2  -3  385.47   14.12
   2  -2   3  379.19   14.15
   2  -2   3  362.24   13.99
  -2  -2  -3  370.47   13.94
   2  -2   3  378.43   14.36
   2  -2   3  360.34   13.86
  -2  -2  -3  342.51   13.90
  -2  -2  -3  356.48   13.98
  -2  -2  -3  364.04   14.10
  -2  -2  -3  339.92   13.86
   2  -2   3  376.04   14.26
   2  -2   3  356.29   13.99
  -2   2  -3  313.76   12.18
   2   2   3  341.98   12.25
   2   2   3  272.85   12.80
   2   2   3  273.85   12.24
  -2   2  -3  341.06   12.30
  -2   2  -3  303.78   12.24
   2   2   3  336.06   12.39
  -2   2  -3  332.47   12.33
  -2   2  -3  333.89   12.51
   2   2   3  341.99   12.57
   2   2   3  341.25   12.18
   3  -2   3   24.51    1.21
  -3  -2  -3   24.25    1.70
  -3  -2  -3   21.90    1.90
  -3  -2  -3   21.92    1.74
  -3  -2  -3   23.60    1.07
  -3  -2  -3   22.12    1.12
  -3  -2  -3   27.15    1.24
  -3  -2  -3   21.15    1.88
   3  -2   3   23.76    1.92
   3  -2   3   24.55    2.23
  -3   2  -3   20.85    1.65
   3   2   3   18.58    2.36
  -3   2  -3   19.62    1.78
   3   2   3   22.33    1.81
   3   2   3   19.79    1.02
   3   2   3   15.64    3.87
   3   2   3   21.80    1.45
  -3   2  -3   21.32    1.09
   3   2   3   20.73    1.38
  -4  -2  -3    5.68    0.36
  -4  -2  -3    6.45    0.33
  -4  -2  -3    5.79    0.30
   4   2   3    5.34    0.89
  -4   2  -3    5.25    0.29
  -5  -2  -3    9.14    0.36
  -5  -2  -3    9.04    0.39
  -5   2  -3    9.71    0.41
  -4  -3   3    0.60    0.30
  -4  -3   3    0.28    0.27
  -4  -3   3    0.01    0.10
   4  -3  -3    0.15    0.06
  -4  -3   3    0.05    0.09
  -4  -3   3   -0.38    0.30
  -4  -3   3    0.11    0.14
  -4  -3   3    0.16    0.11
   4  -3  -3    1.11    0.58
  -4  -3   3    0.25    0.40
   4   3  -3    0.50    0.84
   4   3  -3    0.43    0.50
  -4   3   3    0.18    0.38
   3  -3  -3   44.13    3.21
   3  -3  -3   43.98    1.93
   3  -3  -3   38.12    2.86
   3  -3  -3   38.81    1.60
  -3  -3   3   42.21    1.74
  -3  -3   3   41.94    1.59
  -3  -3   3   34.84    2.21
  -3  -3   3   40.86    1.80
  -3  -3   3   41.93    1.63
  -3  -3   3   42.14    1.59
  -3  -3   3   38.16    2.18
  -3  -3   3   39.55    1.61
   3  -3  -3   39.81    2.51
  -3  -3   3   40.96    1.68
   3  -3  -3   41.32    1.67
   3  -3  -3   41.10    1.86
  -3   3   3   36.64    2.38
  -3   3   3   32.32    1.38
   3   3  -3   34.84    1.58
  -3   3   3   39.58    2.24
  -3   3   3   37.23    1.58
   3   3  -3   34.51    2.04
  -3   3   3   36.79    1.52
  -3   3   3   36.52    1.56
  -3   3   3   37.86    2.89
   3   3  -3   27.61    3.81
   3   3  -3   29.97    1.95
  -2  -3   3    3.51    0.44
  -2  -3   3    4.97    0.90
  -2  -3   3    3.85    0.57
   2  -3  -3    4.27    0.52
   2  -3  -3    4.51    1.16
   2  -3  -3    4.47    0.47
   2  -3  -3    3.33    0.36
  -2  -3   3    3.66    0.24
   2  -3  -3    3.59    0.26
   2  -3  -3    3.96    0.79
  -2  -3   3    3.86    0.35
  -2  -3   3    3.09    0.62
   2  -3  -3    5.45    0.95
   2  -3  -3    3.44    0.60
  -2  -3   3    3.46    0.50
  -2  -3   3    3.78    0.64
  -2  -3   3    3.24    0.30
   2   3  -3    3.08    0.45
  -2   3   3    4.96    0.81
   2   3  -3    2.91    0.35
  -2   3   3    4.47    0.71
  -2   3   3    3.18    0.44
   2   3  -3    3.32    0.97
  -2   3   3    3.38    0.34
  -2   3   3    2.14    0.50
  -2   3   3    3.78    0.67
   1  -3  -3    3.90    0.54
  -1  -3   3    3.19    0.37
  -1  -3   3    3.71    0.28
   1  -3  -3    3.74    0.39
   1  -3  -3    3.38    0.28
  -1  -3   3    3.42    0.25
  -1  -3   3    3.08    0.35
  -1  -3   3    3.33    0.59
   1  -3  -3    3.74    0.42
  -1  -3   3    3.26    0.34
  -1  -3   3    3.02    0.75
   1  -3  -3    3.54    0.20
  -1  -3   3    3.90    0.46
   1  -3  -3    3.58    0.29
   1  -3  -3    3.78    0.63
  -1  -3   3    3.63    0.41
   1  -3  -3    4.19    0.66
   1  -3  -3    3.07    0.35
  -1  -3   3    3.48    0.39
  -1   3   3    3.00    0.42
  -1   3   3    3.18    0.37
  -1   3   3    2.98    0.46
   1   3  -3    3.54    0.30
   0  -3   3   49.00    2.12
   0  -3   3   48.72    2.01
   0  -3   3   50.29    2.00
   0  -3   3   48.31    1.95
   0  -3   3   47.95    1.90
   0  -3  -3   48.75    2.18
   0  -3  -3   48.05    2.06
   0  -3   3   49.88    2.07
   0  -3   3   49.38    1.98
   0  -3  -3   49.60    1.98
   0  -3  -3   50.16    2.14
   0  -3   3   49.95    1.94
   0  -3  -3   48.01    1.98
   0  -3  -3   48.40    1.96
   0  -3   3   48.24    2.02
   0  -3  -3   48.52    2.00
   0  -3   3   50.82    2.28
   0  -3   3   48.22    2.14
   0  -3   3   48.45    1.95
   0  -3   3   49.37    1.94
   0  -3   3   47.22    2.05
   0   3  -3   44.64    1.76
   0   3   3   39.93    1.81
   0   3   3   45.01    1.85
   0   3  -3   42.92    1.74
   0   3  -3   47.20    1.93
   0   3  -3   46.93    1.84
   0   3   3   46.60    1.75
   0   3   3   42.68    1.76
   0   3   3   42.45    1.85
  -1  -3  -3   49.71    2.16
  -1  -3  -3   49.73    2.07
   1  -3   3   51.56    1.96
   1  -3   3   50.19    2.04
   1  -3   3   52.74    2.08
  -1  -3  -3   49.85    2.09
   1  -3   3   51.42    2.15
   1  -3   3   50.69    2.05
  -1  -3  -3   49.98    2.19
   1  -3   3   49.45    2.17
   1  -3   3   51.60    2.08
   1  -3   3   50.61    2.21
   1  -3   3   51.61    2.26
  -1  -3  -3   50.63    2.04
   1  -3   3   51.39    2.41
  -1  -3  -3   52.87    2.23
   1  -3   3   52.81    2.27
  -1   3  -3   44.15    1.90
   1   3   3   46.76    2.07
  -1   3  -3   44.60    1.75
  -1   3  -3   45.00    1.83
  -1   3  -3   45.46    1.83
   1   3   3   45.35    1.77
   1   3   3   43.76    1.84
   1   3   3   45.62    1.96
  -1   3  -3   40.36    2.05
  -2  -3  -3   87.91    3.72
   2  -3   3   90.14    3.43
   2  -3   3   93.08    3.85
   2  -3   3   92.06    4.09
   2  -3   3   89.49    3.71
   2  -3   3   91.19    3.57
  -2  -3  -3   87.92    3.48
   2  -3   3   90.36    3.91
  -2  -3  -3   84.05    3.57
   2  -3   3   91.57    3.58
   2  -3   3   93.73    3.84
  -2  -3  -3   85.41    3.76
  -2  -3  -3   89.94    3.53
  -2  -3  -3   83.98    3.42
   2  -3   3   89.55    3.51
  -2  -3  -3   89.56    3.79
   2   3   3   83.32    3.44
   2   3   3   80.90    3.10
  -2   3  -3   79.75    3.36
  -2   3  -3   78.80    3.11
  -2   3  -3   78.17    3.21
   2   3   3   83.66    3.70
   2   3   3   78.58    3.18
  -2   3  -3   73.43    3.53
  -2   3  -3   79.00    3.27
  -3  -3  -3   42.66    1.96
  -3  -3  -3   42.73    1.78
   3  -3   3   43.12    1.64
   3  -3   3   43.81    3.15
  -3  -3  -3   43.61    1.85
   3  -3   3   44.75    1.93
  -3  -3  -3   41.25    2.51
  -3  -3  -3   41.30    2.62
  -3  -3  -3   43.26    1.73
   3  -3   3   40.88    1.76
   3  -3   3   45.25    2.74
  -3  -3  -3   41.28    1.66
  -3  -3  -3   41.55    1.69
   3  -3   3   41.76    1.68
  -3   3  -3   38.61    1.73
  -3   3  -3   37.28    1.75
  -3   3  -3   32.49    2.43
   3   3   3   39.25    2.63
  -3   3  -3   39.58    2.69
   3   3   3   42.77    1.69
   4  -3   3   22.57    0.85
  -4  -3  -3   19.78    1.04
   4  -3   3   24.23    1.32
  -4  -3  -3   21.98    0.88
  -4  -3  -3   22.86    0.89
  -4  -3  -3   20.66    1.09
  -4  -3  -3   21.77    0.91
   4   3   3   20.12    1.15
  -4   3  -3   18.87    1.10
   4   3   3   16.72    1.10
  -4   3  -3   18.60    0.76
  -4  -4   3    1.00    0.29
   4  -4  -3    1.70    0.10
  -4  -4   3    1.62    0.16
  -4  -4   3    1.37    0.33
  -4  -4   3    1.74    0.20
  -4  -4   3    1.62    0.25
  -4  -4   3    1.63    0.51
  -4   4   3    1.93    0.20
   4   4  -3    1.17    0.54
  -3  -4   3   11.83    0.77
   3  -4  -3   12.56    0.56
  -3  -4   3   12.33    0.59
   3  -4  -3   12.36    0.69
   3  -4  -3   14.66    1.13
   3  -4  -3   14.10    0.96
  -3  -4   3   11.64    0.55
  -3  -4   3   13.42    0.55
  -3  -4   3   12.54    0.62
  -3  -4   3   12.38    0.88
   3  -4  -3   12.62    0.52
  -3  -4   3   12.93    0.70
  -3   4   3   10.27    0.51
  -3   4   3   10.42    0.75
   3   4  -3    9.81    1.50
   3   4  -3   10.66    0.80
  -3   4   3   11.73    0.72
  -3   4   3   11.09    0.87
   2  -4  -3   34.56    1.50
  -2  -4   3   34.54    1.50
   2  -4  -3   35.42    1.61
  -2  -4   3   34.76    1.37
   2  -4  -3   33.78    1.72
  -2  -4   3   33.62    1.66
   2  -4  -3   36.15    2.23
   2  -4  -3   35.27    1.87
  -2  -4   3   33.49    1.85
   2  -4  -3   37.40    2.07
  -2  -4   3   35.13    1.56
   2  -4  -3   33.34    1.64
  -2  -4   3   35.42    2.49
  -2   4   3   30.74    1.42
   2   4  -3   29.39    1.47
  -2   4   3   27.48    1.63
   2   4  -3   31.86    2.96
   2   4  -3   28.68    1.26
  -2   4   3   28.94    1.70
  -2   4   3   29.94    2.07
  -2   4   3   30.01    1.30
  -1  -4   3   26.57    1.21
  -1  -4   3   26.56    1.11
  -1  -4   3   27.45    1.18
  -1  -4   3   23.95    1.78
   1  -4  -3   26.65    1.17
   1  -4  -3   27.58    1.32
  -1  -4   3   28.04    1.47
  -1  -4   3   26.07    1.22
  -1  -4   3   27.24    1.30
  -1  -4   3   25.90    1.15
   1  -4  -3   27.05    1.64
   1  -4  -3   27.33    1.06
  -1  -4   3   26.11    1.15
   1  -4  -3   27.42    1.17
   1  -4  -3   27.31    1.54
  -1  -4   3   27.35    1.38
   1  -4  -3   26.20    1.25
  -1   4   3   21.24    1.27
   1   4  -3   23.23    0.99
  -1   4   3   23.14    1.12
   1   4  -3   23.46    1.29
  -1   4   3   22.88    1.00
   1   4  -3   23.50    1.28
  -1   4   3   22.36    1.43
   0  -4   3    3.16    0.30
   0  -4   3    3.60    0.76
   0  -4   3    3.72    0.40
   0  -4  -3    3.43    0.62
   0  -4   3    3.73    0.43
   0  -4  -3    4.02    0.63
   0  -4   3    4.34    1.00
   0  -4  -3    3.88    0.37
   0  -4  -3    3.09    0.33
   0  -4   3    3.61    0.32
   0  -4   3    3.20    0.54
   0  -4  -3    3.52    0.42
   0  -4  -3    3.71    0.40
   0  -4   3    3.06    0.56
   0  -4  -3    3.52    0.65
   0  -4   3    3.68    0.34
   0  -4   3    3.42    0.40
   0   4  -3    3.70    0.65
   0   4  -3    4.16    0.67
   0   4  -3    3.40    0.45
   0   4   3    2.97    0.37
   1  -4   3    3.03    0.36
  -1  -4  -3    3.09    0.34
   1  -4   3    3.18    0.53
   1  -4   3    2.83    0.39
   1  -4   3    3.69    0.66
   1  -4   3    2.59    0.40
  -1  -4  -3    3.24    0.42
   1  -4   3    2.11    0.77
   1  -4   3    3.49    0.22
  -1  -4  -3    3.19    0.45
  -1  -4  -3    3.80    0.76
  -1  -4  -3    3.26    0.51
   1  -4   3    2.80    0.41
   1  -4   3    1.76    0.53
  -1  -4  -3    2.09    0.57
   1  -4   3    2.99    0.54
   1   4   3    2.62    0.60
   1   4   3    3.34    0.78
  -1   4  -3    3.08    0.25
  -1   4  -3    2.06    0.68
  -1   4  -3    3.15    0.58
  -1   4  -3    2.74    0.36
   1   4   3    2.97    0.37
  -2  -4  -3    1.03    0.20
  -2  -4  -3    2.77    0.88
   2  -4   3    0.71    0.30
   2  -4   3    0.13    1.10
  -2  -4  -3    0.83    0.35
  -2  -4  -3    0.73    0.70
   2  -4   3    0.74    0.86
  -2  -4  -3    0.40    0.23
   2  -4   3    1.02    0.41
   2  -4   3    0.89    0.18
  -2  -4  -3    2.23    1.06
   2  -4   3    2.50    0.90
   2  -4   3    0.81    0.31
  -2   4  -3   -0.09    0.89
  -2   4  -3    0.56    0.24
  -2   4  -3    0.29    0.55
   2   4   3    1.39    0.91
  -2   4  -3    0.74    0.18
   2   4   3    2.68    1.46
  -2   4  -3    1.65    0.85
   2   4   3    1.05    0.43
   3  -4   3   46.97    2.08
  -3  -4  -3   47.29    1.92
  -3  -4  -3   45.48    2.19
   3  -4   3   50.87    2.18
   3  -4   3   47.43    2.15
   3  -4   3   48.33    1.96
  -3  -4  -3   47.46    1.98
   3   4   3   40.64    1.71
  -3   4  -3   39.77    1.71
  -3   4  -3   37.74    1.81
  -4  -4  -3    5.51    0.31
  -4  -4  -3    6.07    0.82
  -4  -4  -3    5.87    0.28
  -4  -4  -3    5.38    0.30
  -4   4  -3    5.19    0.28
   4  -5  -3    1.46    0.09
  -4  -5   3    1.34    0.20
  -4  -5   3    1.74    0.18
  -4  -5   3    1.53    0.13
  -3  -5   3   12.35    0.94
  -3  -5   3   11.19    0.48
  -3  -5   3   11.80    0.68
  -3  -5   3   11.03    0.53
   3  -5  -3   11.32    0.48
  -3  -5   3   10.81    0.48
   3  -5  -3   10.35    0.66
  -3  -5   3    9.76    0.57
   3  -5  -3   12.63    1.00
  -3  -5   3   10.32    0.95
  -3   5   3    9.15    0.74
  -3   5   3   10.95    0.76
   3   5  -3    8.07    0.80
  -2  -5   3   32.71    1.38
  -2  -5   3   37.61    3.54
  -2  -5   3   31.83    1.54
  -2  -5   3   32.48    1.27
  -2  -5   3   31.56    1.27
   2  -5  -3   33.30    1.57
   2  -5  -3   32.19    1.27
  -2  -5   3   32.81    1.46
  -2  -5   3   28.98    1.72
  -2  -5   3   32.54    1.29
  -2   5   3   29.13    1.29
   2   5  -3   28.71    1.29
   1  -5  -3   37.96    2.28
   1  -5  -3   36.58    1.68
  -1  -5   3   33.43    1.59
   1  -5  -3   38.69    1.66
   1  -5  -3   37.05    1.46
   1  -5  -3   37.65    1.61
  -1  -5   3   36.04    1.66
  -1  -5   3   36.19    1.61
  -1  -5   3   37.79    1.60
  -1  -5   3   36.82    1.78
   1  -5  -3   36.49    1.45
   1  -5  -3   36.00    1.82
   1  -5  -3   39.33    2.36
  -1  -5   3   39.15    2.84
   1   5  -3   27.19    1.89
  -1   5   3   30.70    2.07
  -1   5   3   28.57    1.51
  -1   5   3   31.78    1.84
   1   5  -3   31.03    3.18
  -1   5   3   31.45    1.32
   1   5  -3   30.19    1.34
   0  -5   3   58.17    2.42
   0  -5   3   53.41    3.08
   0  -5  -3   53.75    2.82
   0  -5  -3   52.47    2.06
   0  -5  -3   53.76    2.20
   0  -5  -3   51.40    2.27
   0  -5  -3   56.31    2.82
   0  -5   3   51.30    2.58
   0  -5   3   52.95    2.21
   0  -5  -3   53.90    2.28
   0  -5   3   52.49    2.27
   0  -5  -3   54.07    2.26
   0   5  -3   44.55    2.28
   0   5  -3   46.93    2.20
   0   5   3   45.05    2.25
   0   5  -3   43.39    1.87
   0   5   3   45.61    1.91
   0   5   3   47.12    1.79
  -1  -5  -3   69.16    3.65
  -1  -5  -3   69.60    2.85
   1  -5   3   76.26    3.06
  -1  -5  -3   74.35    3.08
   1  -5   3   76.97    3.06
   1  -5   3   75.20    3.39
   1  -5   3   77.02    3.54
   1  -5   3   71.10    3.20
   1  -5   3   74.84    2.99
  -1  -5  -3   74.22    3.05
   1  -5   3   73.96    2.84
   1  -5   3   73.60    3.94
   1  -5   3   71.00    2.84
   1  -5   3   74.34    2.83
  -1   5  -3   62.90    2.37
  -1   5  -3   64.02    2.93
   1   5   3   57.44    2.40
  -1   5  -3   51.88    3.21
   1   5   3   61.99    3.30
  -2  -5  -3   33.64    1.68
  -2  -5  -3   32.84    1.33
  -2  -5  -3   32.14    1.37
   2  -5   3   34.14    1.34
   2  -5   3   33.35    1.34
   2  -5   3   33.46    1.38
   2  -5   3   34.13    1.53
  -2  -5  -3   33.10    1.36
   2  -5   3   34.20    1.63
  -2  -5  -3   34.76    1.47
   2  -5   3   34.76    1.65
  -2   5  -3   25.39    1.42
   2   5   3   30.05    1.23
  -2   5  -3   27.87    1.22
   3  -5   3   23.29    1.36
   3  -5   3   21.74    1.33
   3  -5   3   20.67    1.04
  -3  -5  -3   21.19    0.86
   3  -5   3   21.40    0.84
  -3  -5  -3   21.10    0.97
  -3  -5  -3   21.79    0.89
   3  -5   3   21.94    0.87
   3  -5   3   22.04    0.88
   3  -5   3   20.28    1.21
  -3  -5  -3   21.89    1.37
  -3  -5  -3   19.52    1.04
  -3   5  -3   17.60    0.89
  -3   5  -3   17.88    1.13
   3   5   3   14.14    0.92
   4  -5   3    0.11    0.04
  -4  -5  -3    0.23    0.12
  -4  -5  -3    0.27    0.10
  -4   5  -3    0.03    0.07
   3  -6  -3    5.38    0.26
   3  -6  -3    5.84    0.24
  -3  -6   3    5.52    0.27
  -2  -6   3    6.31    0.37
  -2  -6   3    7.41    1.01
  -2  -6   3    7.51    0.35
   2  -6  -3    7.91    0.88
  -2  -6   3    7.58    0.64
   2  -6  -3    8.08    0.36
   2  -6  -3    7.86    0.46
  -2   6   3    6.63    0.61
  -2   6   3    7.15    0.53
  -1  -6   3    5.74    0.34
   1  -6  -3    6.18    0.75
   1  -6  -3    6.05    0.33
  -1  -6   3    6.72    1.12
  -1  -6   3    7.36    0.80
  -1   6   3    5.51    0.48
   0  -6   3   15.68    1.00
   0  -6   3   15.33    0.67
   0  -6   3   15.94    1.16
   0  -6   3   16.26    0.67
   0  -6  -3   14.63    0.66
   0  -6   3   16.57    0.91
   0  -6   3   14.86    0.69
   0  -6   3   16.03    1.04
   0  -6  -3   15.59    1.11
   0   6  -3   13.00    0.65
   0   6   3   14.22    0.71
   1  -6   3    3.34    0.24
   1  -6   3    3.16    0.64
   1  -6   3    3.24    0.53
  -1  -6  -3    3.29    0.64
   1  -6   3    3.80    0.85
   1  -6   3    3.39    0.23
   1  -6   3    2.83    0.34
  -1  -6  -3    2.79    0.34
  -1   6  -3    2.28    0.32
  -1   6  -3    2.87    0.49
   2  -6   3   16.51    1.20
  -2  -6  -3   14.98    0.66
  -2  -6  -3   15.12    0.62
   2  -6   3   14.82    0.71
   2  -6   3   14.60    0.62
   2  -6   3   14.03    1.02
   2  -6   3   14.28    0.91
  -2  -6  -3   14.48    0.74
  -2  -6  -3   13.49    1.22
   2  -6   3   14.47    0.63
  -2   6  -3   11.87    0.64
   2   6   3   10.75    0.70
  -2   6  -3    9.56    1.06
   3  -6   3    3.36    0.18
  -3  -6  -3    3.19    0.25
  -3  -6  -3    3.44    0.20
   3  -6   3    3.51    0.20
   2  -7  -3   19.92    0.79
   1  -7  -3   47.66    2.31
   1  -7  -3   48.59    1.91
   1  -7  -3   49.18    1.87
  -1   7   3   37.36    1.68
  -1   7   3   36.90    1.57
   0  -7   3   13.13    0.53
   0  -7   3   12.95    0.96
   0  -7  -3   11.22    0.61
   0  -7   3   12.93    1.21
   0   7   3   10.38    0.70
   1  -7   3   27.66    1.11
   1  -7   3   28.25    1.17
   1  -7   3   28.24    1.39
   1  -7   3   26.95    1.48
   1  -7   3   28.34    1.10
  -1   7  -3   19.00    0.89
   2  -7   3    0.14    0.07
  -2  -7  -3    0.36    0.18
   2  -7   3   -0.02    0.09
   5   0  -4    2.45    0.19
  -5   0   4    2.70    0.17
  -4   0   4    0.39    0.28
   4   0  -4    0.40    0.53
   3   0  -4  150.43    6.60
  -3   0   4  173.49    6.45
  -3   0   4  181.63    6.36
  -3   0   4  173.94    6.61
   3   0  -4  171.98    6.50
   3   0  -4  149.91    7.40
  -2   0   4   19.74    0.99
  -2   0   4   19.95    0.92
   2   0  -4   19.84    0.94
   2   0  -4   20.83    1.26
  -2   0   4   20.10    0.84
  -2   0   4   20.13    1.12
  -2   0   4   21.85    1.19
  -2   0   4   20.48    0.82
  -2   0   4   21.31    1.10
   2   0  -4   20.73    1.02
  -2   0   4   20.19    1.02
   2   0  -4   22.06    1.11
  -2   0   4   20.25    0.88
   2   0  -4   19.84    1.08
   2   0  -4   20.42    0.98
   2   0  -4   20.31    0.99
   1   0  -4  267.83   10.57
   1   0  -4  280.26   10.55
   1   0  -4  256.57   10.57
   1   0  -4  301.22   10.58
  -1   0   4  265.55   10.54
  -1   0   4  276.38   10.59
  -1   0   4  278.87   10.56
  -1   0   4  294.20   10.61
  -1   0   4  283.12   10.60
   1   0  -4  269.87   10.65
   1   0  -4  290.76   10.60
  -1   0   4  275.62   10.62
   1   0  -4  273.56   10.62
   1   0  -4  276.37   10.76
  -1   0   4  292.30   10.56
   0   0  -4  233.32    8.57
   0   0  -4  227.50    8.60
   0   0   4  229.74    8.53
   0   0  -4  228.28    8.61
   0   0   4  227.37    8.58
   0   0   4  227.60    8.59
   0   0   4  220.87    8.59
   0   0   4  217.00    8.56
   0   0  -4  218.11    8.55
  -1   0  -4    2.15    0.28
  -1   0  -4    2.27    0.38
   1   0   4    1.86    0.36
  -1   0  -4    1.81    0.34
   1   0   4    2.59    0.40
   1   0   4    2.28    0.27
  -1   0  -4    1.90    0.17
   1   0   4    2.21    0.30
  -1   0  -4    2.18    0.41
  -1   0  -4    2.21    0.28
  -1   0  -4    1.98    0.29
   1   0   4    1.40    0.31
   1   0   4    2.05    0.36
   2   0   4    1.42    0.56
   2   0   4    0.15    0.20
  -2   0  -4    0.16    0.36
   2   0   4   -0.54    0.45
   2   0   4   -0.61    0.39
   2   0   4    0.33    0.37
  -2   0  -4   -0.07    0.29
  -2   0  -4   -0.01    0.13
  -2   0  -4    0.21    0.20
   2   0   4    0.27    0.24
  -2   0  -4    0.05    0.51
   3   0   4   93.40    4.37
   3   0   4   82.24    3.94
   3   0   4   85.04    3.49
   3   0   4   94.27    3.63
  -3   0  -4   90.53    3.96
  -3   0  -4   88.95    3.45
  -3   0  -4   83.79    3.73
  -3   0  -4   89.60    3.86
  -3   0  -4   87.28    3.51
  -4   0  -4    2.11    0.42
  -4   0  -4    2.93    0.16
  -4   0  -4    2.43    0.24
   4   0   4    4.13    0.96
  -5   0  -4    0.18    0.09
   5  -1  -4   20.42    0.81
  -5  -1   4   20.67    0.81
  -5  -1   4   20.29    0.78
   5   1  -4   20.64    0.84
  -5   1   4   21.45    0.83
  -4  -1   4    9.83    0.46
  -4  -1   4    9.55    0.68
  -4  -1   4   10.03    0.45
   4  -1  -4    9.53    0.46
   4  -1  -4   11.19    1.09
  -4  -1   4    9.77    0.41
  -4   1   4    8.41    0.68
   4   1  -4    7.90    1.14
  -4   1   4    9.07    0.41
  -3  -1   4   21.84    1.77
  -3  -1   4   15.47    1.94
  -3  -1   4   20.68    0.85
  -3  -1   4   20.85    0.88
   3  -1  -4   18.49    1.19
  -3  -1   4   19.43    1.01
  -3  -1   4   20.86    0.95
  -3  -1   4   19.60    1.62
   3   1  -4   16.47    1.28
  -3   1   4   18.80    0.90
   3   1  -4   20.07    1.04
   3   1  -4   17.44    1.61
  -3   1   4   17.96    1.35
   3   1  -4   18.85    2.36
   2  -1  -4    7.12    1.06
  -2  -1   4    8.16    0.46
   2  -1  -4    7.59    0.89
   2  -1  -4    8.83    0.67
  -2  -1   4    7.84    0.36
   2  -1  -4    7.47    0.52
   2  -1  -4    8.65    0.76
  -2  -1   4    7.77    0.60
  -2  -1   4    7.78    0.61
  -2  -1   4    8.79    0.67
   2  -1  -4    7.77    0.41
  -2  -1   4    8.18    0.45
  -2  -1   4    7.23    0.55
  -2  -1   4    7.70    0.85
   2   1  -4    6.96    1.05
  -2   1   4    7.57    0.63
  -2   1   4    7.53    1.28
   2   1  -4    7.89    0.67
   2   1  -4    8.51    0.71
  -2   1   4    7.73    0.87
  -2   1   4    8.21    0.59
   2   1  -4    7.16    0.54
  -2   1   4    7.16    0.42
  -2   1   4    6.76    0.77
  -2   1   4    7.23    0.50
   2   1  -4    6.56    0.48
  -2   1   4    6.80    0.52
  -1  -1   4   59.99    2.34
   1  -1  -4   60.25    2.41
   1  -1  -4   61.52    2.29
  -1  -1   4   61.85    2.38
  -1  -1   4   61.74    2.38
  -1  -1   4   60.28    2.33
   1  -1  -4   61.11    2.37
   1  -1  -4   59.10    2.40
  -1  -1   4   59.38    2.30
  -1  -1   4   60.44    2.47
   1  -1  -4   61.61    2.43
  -1  -1   4   61.39    2.28
   1  -1  -4   52.11    2.52
   1  -1  -4   60.44    2.45
  -1  -1   4   58.56    2.39
  -1  -1   4   60.91    2.36
  -1  -1   4   57.80    2.32
   1  -1  -4   59.78    2.32
   1   1  -4   57.83    2.27
  -1   1   4   49.36    2.22
   1   1  -4   54.58    2.24
  -1   1   4   55.23    2.27
   1   1  -4   57.29    2.24
  -1   1   4   59.42    2.27
  -1   1   4   53.18    2.20
  -1   1   4   57.17    2.23
   1   1  -4   60.83    2.20
   1   1  -4   60.14    2.49
   1   1  -4   57.19    2.32
  -1   1   4   56.61    2.26
  -1   1   4   56.94    2.25
   0  -1   4  100.96    3.93
   0  -1   4   99.72    4.03
   0  -1  -4  101.22    3.97
   0  -1   4  104.10    3.93
   0  -1   4  100.37    3.91
   0  -1  -4   96.54    3.92
   0  -1   4  105.35    3.94
   0  -1  -4  102.14    3.95
   0  -1   4  101.83    3.97
   0  -1  -4  107.69    3.97
   0   1   4   97.92    3.74
   0   1   4   93.88    3.72
   0   1   4  100.17    3.71
   0   1  -4  101.38    3.76
   0   1  -4   95.73    3.72
   0   1  -4   96.12    3.70
   0   1   4   86.62    3.72
   0   1  -4  100.61    3.73
   1  -1   4  177.51    6.79
   1  -1   4  182.98    6.95
   1  -1   4  188.51    6.82
  -1  -1  -4  166.33    6.73
   1  -1   4  177.58    6.77
   1  -1   4  176.40    6.76
  -1  -1  -4  182.05    6.87
   1  -1   4  179.99    6.73
   1  -1   4  172.04    6.94
  -1  -1  -4  172.07    6.71
   1  -1   4  180.30    6.80
  -1  -1  -4  175.94    6.76
  -1  -1  -4  182.68    6.86
  -1  -1  -4  175.60    6.75
   1  -1   4  176.48    6.71
   1  -1   4  186.81    6.85
  -1  -1  -4  176.44    6.82
   1  -1   4  172.80    6.74
  -1  -1  -4  171.27    6.76
   1   1   4  147.59    6.30
  -1   1  -4  173.11    6.36
   1   1   4  172.93    6.51
  -1   1  -4  165.25    6.38
  -1   1  -4  163.89    6.35
   1   1   4  166.35    6.42
  -1   1  -4  173.99    6.45
  -1   1  -4  160.97    6.30
   1   1   4  162.33    6.32
  -1   1  -4  172.80    6.47
  -1   1  -4  171.86    6.29
   1   1   4  171.73    6.34
  -1   1  -4  172.79    6.37
   1   1   4  149.94    6.41
   2  -1   4  177.44    6.72
   2  -1   4  183.40    6.79
  -2  -1  -4  173.17    6.86
  -2  -1  -4  171.75    6.61
  -2  -1  -4  165.53    6.63
   2  -1   4  175.74    6.90
  -2  -1  -4  176.36    6.89
   2  -1   4  168.42    7.02
   2  -1   4  170.02    6.60
   2  -1   4  182.63    6.63
  -2  -1  -4  171.54    6.81
   2  -1   4  174.20    6.99
   2  -1   4  177.69    6.72
  -2  -1  -4  169.35    6.69
  -2   1  -4  164.92    5.94
  -2   1  -4  162.27    6.05
   2   1   4  145.77    6.51
   2   1   4  156.30    5.97
  -2   1  -4  158.73    6.24
  -2   1  -4  155.82    6.07
   2   1   4  150.75    6.03
  -2   1  -4  146.78    6.01
  -2   1  -4  155.34    6.15
  -2   1  -4  159.75    5.96
   2   1   4  150.91    6.16
   2   1   4  151.12    6.33
   2   1   4  166.79    6.06
  -2   1  -4  156.43    6.09
   3  -1   4    5.72    1.15
  -3  -1  -4    3.97    0.39
  -3  -1  -4    4.12    0.90
   3  -1   4    5.33    0.63
  -3  -1  -4    4.12    1.22
  -3  -1  -4    3.16    0.85
  -3  -1  -4    4.16    0.50
   3  -1   4    4.04    1.27
  -3  -1  -4    7.41    1.30
  -3  -1  -4    3.92    0.40
   3   1   4    3.37    1.08
   3   1   4    4.58    0.91
   3   1   4    4.93    0.60
   3   1   4    3.27    0.80
  -3   1  -4    4.19    0.47
  -3   1  -4    3.49    0.75
   3   1   4    2.24    1.18
   3   1   4    3.53    1.48
  -3   1  -4    4.50    1.03
   3   1   4    4.24    0.64
  -4  -1  -4    7.56    0.72
  -4  -1  -4    7.50    0.80
  -4  -1  -4    7.23    0.32
   4  -1   4    6.68    0.93
  -4  -1  -4    7.63    0.40
  -4  -1  -4    6.77    0.40
  -4  -1  -4    6.94    0.37
  -4   1  -4    6.66    0.76
   4   1   4    5.88    1.25
  -4   1  -4    6.99    0.34
   4   1   4    6.09    0.82
  -5   1  -4    6.57    0.30
  -5  -2   4   19.81    0.78
  -5  -2   4   19.92    0.76
  -5   2   4   20.78    0.82
  -4  -2   4   79.57    3.04
   4  -2  -4   80.10    3.06
  -4  -2   4   80.56    3.06
  -4  -2   4   79.80    3.23
  -4  -2   4   81.51    3.05
  -4  -2   4   78.45    3.07
   4   2  -4   84.18    4.12
  -4   2   4   76.45    3.13
  -4   2   4   85.40    3.36
  -3  -2   4   53.45    2.21
   3  -2  -4   53.79    2.31
   3  -2  -4   52.83    3.43
  -3  -2   4   54.53    2.10
   3  -2  -4   45.46    3.10
  -3  -2   4   59.32    2.60
  -3  -2   4   52.08    2.51
  -3  -2   4   51.22    2.62
  -3  -2   4   57.20    3.12
  -3   2   4   47.32    1.99
  -3   2   4   51.46    2.42
   3   2  -4   48.03    2.42
   3   2  -4   39.90    2.25
   3   2  -4   47.10    2.00
  -3   2   4   48.49    3.02
   3   2  -4   37.98    3.47
  -3   2   4   49.44    1.92
  -2  -2   4  150.17    5.62
   2  -2  -4  152.64    5.83
  -2  -2   4  147.53    5.58
  -2  -2   4  144.65    5.70
  -2  -2   4  148.41    5.55
  -2  -2   4  138.59    5.72
   2  -2  -4  144.81    5.87
  -2  -2   4  146.62    5.65
   2  -2  -4  145.20    5.70
   2  -2  -4  149.83    5.68
  -2  -2   4  143.85    5.68
   2  -2  -4  132.99    6.04
   2  -2  -4  149.13    5.55
  -2  -2   4  143.95    5.94
  -2  -2   4  150.52    5.74
   2  -2  -4  149.97    5.84
   2   2  -4  131.88    5.95
  -2   2   4  140.55    5.46
   2   2  -4  142.46    5.36
   2   2  -4  133.67    5.54
   2   2  -4  139.55    5.46
  -2   2   4  132.57    5.34
  -2   2   4  148.79    5.67
  -2   2   4  144.10    5.49
  -2   2   4  143.57    5.38
  -2   2   4  132.11    5.36
  -2   2   4  143.74    5.52
  -1  -2   4   13.53    0.73
   1  -2  -4   14.84    0.87
   1  -2  -4   15.18    0.77
   1  -2  -4   14.13    0.79
   1  -2  -4   13.74    0.83
  -1  -2   4   14.33    0.67
   1  -2  -4   14.13    0.69
  -1  -2   4   14.51    0.57
  -1  -2   4   14.01    0.64
  -1  -2   4   14.02    0.72
   1   2  -4   13.27    0.76
  -1   2   4   14.25    0.72
  -1   2   4   14.26    0.64
  -1   2   4   13.65    0.70
   0  -2  -4  114.29    4.45
   0  -2   4  118.79    4.48
   0  -2  -4  115.79    4.46
   0  -2   4  117.81    4.45
   0  -2   4  116.61    4.53
   0  -2   4  111.76    4.37
   0  -2   4  115.91    4.41
   0  -2   4  118.70    4.44
   0  -2   4  117.78    4.65
   0  -2  -4  112.40    4.54
   0  -2  -4  113.38    4.35
   0  -2  -4  115.37    4.52
   0  -2   4  115.42    4.41
   0  -2  -4  112.58    4.41
   0  -2   4  114.85    4.35
   0  -2   4  119.16    4.48
   0  -2   4  107.17    4.50
   0  -2   4  112.06    4.43
   0  -2  -4  120.49    4.53
   0  -2  -4  110.79    4.43
   0  -2   4  115.01    4.41
   0  -2   4  118.33    4.45
   0   2   4  110.89    3.98
   0   2   4   99.96    4.05
   0   2  -4  107.19    4.04
   0   2  -4  105.90    4.01
   0   2  -4  108.50    4.06
   0   2   4  106.95    4.06
   0   2   4  106.36    4.01
   0   2  -4  100.00    3.97
   0   2  -4   93.54    4.08
   0   2   4  105.02    4.08
   0   2   4  108.64    4.02
   0   2  -4  103.29    4.10
  -1  -2  -4   73.53    3.08
  -1  -2  -4   81.99    3.19
  -1  -2  -4   75.17    3.07
   1  -2   4   77.08    3.03
   1  -2   4   79.05    3.08
  -1  -2  -4   84.72    3.09
   1  -2   4   82.21    3.16
   1  -2   4   78.15    3.26
   1  -2   4   81.64    3.07
   1  -2   4   75.94    3.13
   1  -2   4   78.82    3.08
   1  -2   4   77.16    3.14
   1  -2   4   76.82    3.05
   1  -2   4   78.88    3.33
  -1  -2  -4   81.56    3.06
  -1  -2  -4   74.56    2.99
   1   2   4   72.11    2.71
  -1   2  -4   68.54    2.94
   1   2   4   71.44    2.75
   1   2   4   70.63    2.74
  -1   2  -4   70.23    2.72
  -1   2  -4   70.79    2.78
  -1   2  -4   67.17    2.71
   1   2   4   73.02    2.94
  -2  -2  -4  131.76    5.31
   2  -2   4  136.27    5.23
   2  -2   4  132.10    5.03
   2  -2   4  129.11    5.08
  -2  -2  -4  130.70    5.30
  -2  -2  -4  124.20    5.14
  -2  -2  -4  137.93    5.12
   2  -2   4  140.45    5.40
   2  -2   4  116.65    5.28
   2  -2   4  133.71    5.46
  -2  -2  -4  127.31    5.03
  -2  -2  -4  130.46    5.07
   2  -2   4  135.62    5.13
   2  -2   4  136.40    5.16
   2  -2   4  134.73    5.55
  -2  -2  -4  136.93    5.35
  -2   2  -4  121.49    4.82
   2   2   4  131.90    4.72
  -2   2  -4  119.19    5.05
   2   2   4  117.39    5.20
   2   2   4  131.36    4.99
  -2   2  -4  118.87    4.71
   2   2   4  121.16    4.79
  -2   2  -4  119.63    4.80
   2   2   4  121.49    5.15
  -2   2  -4  121.93    4.89
  -3  -2  -4    1.34    0.98
   3  -2   4    1.86    0.40
  -3  -2  -4    2.61    0.58
   3  -2   4    1.57    1.06
  -3  -2  -4    2.41    0.39
   3  -2   4    2.14    0.27
   3  -2   4    2.03    0.17
  -3  -2  -4    2.13    0.36
  -3  -2  -4    2.17    0.33
  -3  -2  -4    1.88    0.26
  -3  -2  -4    3.34    0.99
   3  -2   4    3.08    1.35
  -3  -2  -4    0.07    1.14
   3   2   4    1.92    0.37
   3   2   4    1.71    0.34
   3   2   4    1.10    1.59
  -3   2  -4    1.70    0.94
   3   2   4    2.34    0.81
  -3   2  -4    2.33    0.49
  -3   2  -4    0.17    1.05
   3   2   4    3.66    1.21
   4  -2   4    1.91    0.50
  -4  -2  -4    2.57    0.19
  -4  -2  -4    1.85    0.25
  -4  -2  -4    1.51    0.43
  -4  -2  -4    2.02    0.37
  -4  -2  -4    2.30    0.23
  -4   2  -4    1.23    0.38
  -4   2  -4    1.80    0.19
   4   2   4    1.10    0.61
   4   2   4    1.92    0.41
  -5  -2  -4    3.02    0.20
  -5  -2  -4    3.26    0.14
  -5   2  -4    3.55    0.19
  -4  -3   4    0.51    0.26
   4  -3  -4    0.60    0.09
  -4  -3   4    0.55    0.28
  -4  -3   4    0.88    0.16
   4  -3  -4    1.23    0.65
  -4  -3   4    0.45    0.11
  -4  -3   4    0.61    0.34
  -4  -3   4    0.69    0.11
  -4   3   4    0.42    0.11
  -4   3   4    1.01    0.40
   4   3  -4   -0.92    0.82
   4   3  -4    0.66    0.57
  -3  -3   4    7.30    0.35
  -3  -3   4    6.73    0.35
   3  -3  -4   11.38    1.87
  -3  -3   4    7.61    0.66
   3  -3  -4    6.91    0.74
  -3  -3   4    6.93    0.41
   3  -3  -4    6.44    0.38
  -3  -3   4    7.98    1.43
   3  -3  -4    6.80    0.31
   3  -3  -4    7.02    1.84
  -3  -3   4    6.19    0.40
   3  -3  -4    6.82    0.38
  -3  -3   4    7.03    0.56
   3  -3  -4   10.23    1.64
   3  -3  -4    6.43    0.91
  -3  -3   4    7.23    0.48
  -3  -3   4    8.47    1.37
   3   3  -4    5.71    1.09
  -3   3   4    5.55    0.55
  -3   3   4    7.28    1.40
   3   3  -4    5.27    2.33
   3   3  -4    4.58    1.21
  -3   3   4    6.21    0.64
  -3   3   4    5.11    1.25
   3   3  -4    7.35    1.22
  -3   3   4    5.73    0.36
   2  -3  -4   35.09    2.08
   2  -3  -4   33.84    1.75
   2  -3  -4   32.92    1.31
  -2  -3   4   30.62    1.54
   2  -3  -4   34.17    1.49
   2  -3  -4   32.97    1.87
  -2  -3   4   30.57    1.55
  -2  -3   4   33.57    1.39
   2  -3  -4   31.38    1.69
  -2  -3   4   32.30    1.29
  -2  -3   4   30.27    2.00
  -2  -3   4   33.61    1.59
   2  -3  -4   33.99    1.49
  -2  -3   4   33.23    1.34
  -2  -3   4   32.59    1.44
  -2   3   4   31.03    1.31
  -2   3   4   30.92    1.82
  -2   3   4   29.52    1.28
   2   3  -4   33.39    2.29
  -2   3   4   29.64    1.60
   2   3  -4   29.91    1.47
  -2   3   4   28.89    1.32
  -2   3   4   29.53    1.57
  -2   3   4   29.56    1.55
   2   3  -4   28.64    1.26
  -1  -3   4  127.26    5.22
  -1  -3   4  127.10    4.90
  -1  -3   4  130.10    4.96
  -1  -3   4  121.86    5.38
   1  -3  -4  130.68    5.00
  -1  -3   4  131.91    5.05
   1  -3  -4  134.05    4.94
  -1  -3   4  132.92    4.95
  -1  -3   4  114.56    5.01
   1  -3  -4  130.00    5.06
   1  -3  -4  132.19    5.20
   1  -3  -4  133.18    5.13
   1  -3  -4  131.57    5.16
  -1  -3   4  130.17    5.03
   1  -3  -4  127.13    4.87
  -1  -3   4  130.53    5.01
   1  -3  -4  130.48    4.94
  -1  -3   4  124.00    4.85
  -1  -3   4  130.20    4.93
  -1  -3   4  116.96    5.13
  -1   3   4  119.90    4.63
  -1   3   4  119.79    4.61
   1   3  -4  123.15    4.71
  -1   3   4  111.66    4.67
   1   3  -4  122.16    4.55
  -1   3   4  119.51    4.56
   1   3  -4  118.03    4.67
   1   3  -4  112.20    4.47
   0  -3   4    2.65    0.32
   0  -3   4    2.44    0.14
   0  -3  -4    2.74    0.29
   0  -3   4    2.33    0.47
   0  -3   4    3.04    0.47
   0  -3  -4    2.54    0.26
   0  -3  -4    2.84    0.46
   0  -3   4    2.18    0.33
   0  -3  -4    2.96    0.46
   0  -3   4    2.47    0.29
   0  -3   4    2.82    0.34
   0  -3   4    3.14    0.70
   0  -3   4    1.64    0.46
   0  -3   4    2.71    0.26
   0  -3  -4    2.34    0.36
   0  -3   4    2.43    0.36
   0  -3  -4    2.53    0.33
   0  -3  -4    2.17    0.32
   0  -3   4    2.44    0.25
   0  -3  -4    2.51    0.43
   0   3  -4    2.39    0.45
   0   3  -4    1.94    0.17
   0   3  -4    2.08    0.37
   0   3   4    2.22    0.40
   0   3  -4    2.28    0.25
   0   3   4    2.48    0.29
   0   3  -4    2.64    0.39
   0   3   4    2.47    0.35
   0   3   4    2.75    0.21
   1  -3   4   69.70    2.88
   1  -3   4   69.55    2.77
   1  -3   4   71.45    2.80
   1  -3   4   66.49    2.89
   1  -3   4   69.60    2.76
   1  -3   4   71.45    3.00
   1  -3   4   65.76    2.97
  -1  -3  -4   71.40    2.92
   1  -3   4   73.09    3.17
  -1  -3  -4   74.23    2.97
  -1  -3  -4   68.12    2.79
  -1  -3  -4   72.08    2.76
  -1  -3  -4   69.59    2.85
   1  -3   4   71.89    2.95
   1  -3   4   65.84    2.79
  -1  -3  -4   68.08    2.72
   1  -3   4   71.06    2.67
  -1   3  -4   65.04    2.54
  -1   3  -4   62.92    2.60
  -1   3  -4   55.08    2.73
   1   3   4   63.85    2.45
  -1   3  -4   63.69    2.52
  -1   3  -4   61.19    2.44
   1   3   4   61.75    2.63
   1   3   4   63.02    2.77
   1   3   4   63.33    2.46
   1   3   4   66.55    2.67
  -2  -3  -4  142.35    5.28
  -2  -3  -4  134.43    5.54
  -2  -3  -4  134.46    5.23
  -2  -3  -4  133.80    5.52
  -2  -3  -4  129.52    5.17
   2  -3   4  139.46    5.31
  -2  -3  -4  133.06    5.52
  -2  -3  -4  128.25    5.32
   2  -3   4  140.96    5.33
   2  -3   4  133.72    5.45
   2  -3   4  134.79    5.67
   2  -3   4  140.21    5.60
   2  -3   4  135.05    5.26
   2  -3   4  133.79    5.18
   2  -3   4  141.98    5.85
   2   3   4  132.20    5.02
   2   3   4  119.33    5.23
   2   3   4  120.77    4.72
  -2   3  -4  111.39    4.75
  -2   3  -4  118.94    4.66
  -2   3  -4  119.50    4.92
   2   3   4  122.30    4.65
  -2   3  -4  119.87    5.10
  -3  -3  -4   78.99    3.02
   3  -3   4   76.65    4.38
  -3  -3  -4   77.76    2.98
  -3  -3  -4   66.90    3.83
   3  -3   4   84.74    3.23
   3  -3   4   79.95    2.92
   3  -3   4   74.05    4.02
  -3  -3  -4   79.45    2.95
   3  -3   4   80.22    2.97
  -3  -3  -4   72.58    3.75
  -3  -3  -4   64.71    3.83
  -3  -3  -4   78.22    3.24
  -3  -3  -4   80.12    3.07
  -3   3  -4   70.33    2.80
  -3   3  -4   68.19    3.63
   3   3   4   66.66    2.69
   3   3   4   56.26    4.67
   3   3   4   64.00    2.99
   3   3   4   61.29    3.62
  -3   3  -4   70.85    3.42
  -4  -3  -4   42.94    1.66
  -4  -3  -4   42.05    1.83
   4  -3   4   43.45    1.63
   4  -3   4   45.54    2.06
  -4  -3  -4   41.93    1.68
  -4  -3  -4   42.80    1.65
  -4  -3  -4   41.60    1.80
  -4   3  -4   36.33    1.40
   4   3   4   33.65    1.65
  -4   3  -4   37.79    1.70
   4   3   4   35.05    1.67
  -4  -4   4    6.43    0.70
  -4  -4   4    6.80    0.31
  -4  -4   4    7.79    0.38
   4  -4  -4    5.83    0.29
  -4   4   4    5.55    0.29
   3  -4  -4    3.10    0.76
   3  -4  -4    3.01    0.47
  -3  -4   4    3.34    0.33
  -3  -4   4    3.56    0.64
  -3  -4   4    2.57    0.53
  -3  -4   4    3.01    0.42
  -3   4   4    2.38    0.59
   3   4  -4    2.65    0.65
   3   4  -4    1.17    0.86
   2  -4  -4   45.60    2.50
   2  -4  -4   45.99    2.30
   2  -4  -4   47.15    1.80
  -2  -4   4   43.18    2.07
  -2  -4   4   45.50    1.85
   2  -4  -4   44.53    1.78
  -2  -4   4   44.30    2.22
  -2  -4   4   46.12    1.97
   2  -4  -4   44.85    2.01
   2  -4  -4   46.40    1.91
  -2  -4   4   46.16    1.78
   2  -4  -4   48.45    2.67
  -2  -4   4   43.39    2.10
  -2  -4   4   46.88    1.90
  -2  -4   4   46.69    2.94
   2   4  -4   40.62    2.19
   2   4  -4   41.26    1.95
  -2   4   4   41.52    1.76
   2   4  -4   45.13    3.44
  -2   4   4   41.95    2.12
  -2   4   4   42.15    1.78
  -2   4   4   41.25    2.54
  -2   4   4   43.43    2.17
   1  -4  -4   10.23    0.77
  -1  -4   4    9.07    0.48
   1  -4  -4    9.14    0.99
  -1  -4   4    9.95    0.88
   1  -4  -4    9.37    0.42
   1  -4  -4    8.94    0.63
  -1  -4   4    8.05    0.61
   1  -4  -4    8.30    1.18
  -1  -4   4    9.79    0.64
  -1  -4   4    9.71    0.58
  -1  -4   4   10.01    1.00
   1  -4  -4    9.48    0.54
  -1  -4   4    9.11    0.62
  -1  -4   4    9.48    0.54
   1  -4  -4    9.54    0.55
  -1  -4   4    8.87    0.69
  -1  -4   4    8.28    1.43
   1   4  -4    8.68    0.90
   1   4  -4    7.81    0.56
   1   4  -4    8.09    0.88
  -1   4   4    8.96    0.86
  -1   4   4    8.28    1.00
  -1   4   4    8.02    0.49
  -1   4   4    8.22    0.68
   0  -4   4  270.75   10.04
   0  -4   4  261.72   10.43
   0  -4  -4  258.64   10.21
   0  -4   4  279.34   10.35
   0  -4  -4  269.49   10.48
   0  -4   4  262.44   10.21
   0  -4  -4  269.37   10.15
   0  -4  -4  272.16   10.49
   0  -4  -4  260.89   10.21
   0  -4   4  264.92   10.16
   0  -4  -4  250.14   10.31
   0  -4   4  274.39   10.24
   0  -4   4  265.34   10.34
   0  -4   4  273.29   10.17
   0  -4   4  269.12   10.18
   0  -4  -4  265.87   10.42
   0  -4  -4  258.85   10.05
   0  -4   4  274.37   10.70
   0  -4   4  264.02   10.16
   0   4  -4  243.97    9.29
   0   4   4  249.12    9.19
   0   4  -4  242.36    9.15
   0   4  -4  230.59    9.09
   0   4  -4  243.99    9.26
   0   4   4  240.28    9.30
   0   4  -4  222.89    9.41
   0   4   4  247.17    9.10
   0   4  -4  245.11    9.38
   1  -4   4   28.74    1.35
   1  -4   4   29.07    1.30
   1  -4   4   29.35    1.32
   1  -4   4   29.63    1.17
  -1  -4  -4   29.22    1.43
   1  -4   4   31.17    1.37
   1  -4   4   31.14    2.04
   1  -4   4   30.53    1.55
  -1  -4  -4   29.61    1.62
  -1  -4  -4   28.00    1.33
   1  -4   4   29.67    1.68
  -1  -4  -4   30.58    1.72
   1  -4   4   29.66    1.60
  -1  -4  -4   28.53    1.15
  -1  -4  -4   30.60    1.25
   1   4   4   26.75    1.04
  -1   4  -4   25.04    1.05
   1   4   4   26.01    1.12
   1   4   4   23.90    1.56
  -1   4  -4   21.83    1.61
  -1   4  -4   25.48    1.40
   1   4   4   26.35    1.70
   2  -4   4    7.69    0.41
   2  -4   4    7.64    0.44
  -2  -4  -4    7.32    0.51
   2  -4   4    8.11    0.60
   2  -4   4    7.53    0.41
  -2  -4  -4    6.84    1.22
   2  -4   4    7.81    1.52
  -2  -4  -4    7.44    1.00
  -2  -4  -4    7.04    0.43
   2  -4   4    7.44    1.89
   2  -4   4    8.18    0.65
  -2  -4  -4    6.30    1.09
  -2  -4  -4    7.78    0.42
  -2  -4  -4    7.22    0.67
   2  -4   4    7.21    0.63
  -2  -4  -4    7.02    0.40
  -2   4  -4    4.72    1.15
   2   4   4    7.03    0.49
  -2   4  -4    6.99    0.63
  -2   4  -4    8.93    1.15
   2   4   4    6.54    1.65
  -2   4  -4    7.26    0.45
   2   4   4    6.14    0.76
   2   4   4    5.96    1.10
  -3  -4  -4   47.23    2.01
  -3  -4  -4   47.80    1.87
   3  -4   4   47.48    1.85
  -3  -4  -4   47.20    1.90
   3  -4   4   46.58    1.99
   3  -4   4   52.90    2.51
  -3  -4  -4   47.65    1.96
   3  -4   4   49.91    2.19
  -3  -4  -4   47.42    2.24
   3  -4   4   49.51    1.90
  -3   4  -4   41.42    1.80
  -3   4  -4   40.28    1.66
   3   4   4   34.65    1.65
   3   4   4   34.01    1.72
   4  -4   4   44.25    1.70
  -4  -4  -4   45.43    1.77
  -4  -4  -4   43.97    1.72
  -4  -4  -4   46.07    1.76
  -4   4  -4   35.62    1.42
  -4  -5   4    6.76    0.30
   4  -5  -4    7.20    0.27
  -4  -5   4    5.89    0.30
  -4  -5   4    7.11    0.32
   3  -5  -4   11.42    0.46
  -3  -5   4   11.88    0.69
  -3  -5   4   11.19    0.53
   3  -5  -4   11.47    0.49
  -3  -5   4   13.54    0.92
  -3  -5   4   13.03    0.96
   3  -5  -4   10.91    0.70
  -3  -5   4   10.19    0.58
  -3  -5   4   10.81    0.49
  -3  -5   4   11.88    0.49
   3  -5  -4    9.89    0.99
   3   5  -4    9.90    0.81
   3   5  -4    7.55    1.39
  -3   5   4   10.35    0.74
  -3   5   4    9.75    0.79
  -2  -5   4    0.23    0.47
   2  -5  -4    0.58    0.35
  -2  -5   4    0.39    0.21
  -2  -5   4    0.63    0.12
  -2  -5   4    0.78    0.19
   2  -5  -4    0.69    0.14
  -2  -5   4    0.49    0.28
  -2  -5   4    0.71    0.32
   2  -5  -4    0.81    0.17
  -2   5   4    0.30    0.23
   2   5  -4    0.76    0.33
  -2   5   4    0.68    0.29
   1  -5  -4    1.33    0.21
  -1  -5   4    2.80    0.61
   1  -5  -4    0.38    1.04
  -1  -5   4    1.07    0.32
  -1  -5   4    1.80    0.51
  -1  -5   4    1.68    0.41
   1  -5  -4    2.54    1.17
  -1  -5   4    1.67    0.21
  -1  -5   4    1.72    0.24
  -1  -5   4    1.50    0.23
  -1  -5   4   -0.44    1.55
  -1  -5   4    1.99    0.46
   1  -5  -4    1.35    0.36
  -1   5   4    1.61    1.10
   1   5  -4    1.18    0.48
   1   5  -4    3.42    1.02
  -1   5   4    0.92    0.50
  -1   5   4    1.16    0.25
   1   5  -4   -1.20    1.83
  -1   5   4    0.91    0.87
   0  -5   4   25.71    1.16
   0  -5   4   29.69    2.37
   0  -5   4   28.19    1.46
   0  -5   4   29.03    1.30
   0  -5   4   29.73    1.42
   0  -5  -4   27.26    2.07
   0  -5   4   28.84    1.30
   0  -5   4   29.97    1.37
   0  -5   4   28.81    1.12
   0  -5   4   26.36    1.84
   0  -5  -4   29.63    1.45
   0  -5  -4   27.25    2.10
   0   5   4   24.51    1.67
   0   5  -4   22.62    1.15
   0   5  -4   23.94    1.53
   0   5   4   23.74    1.20
   0   5  -4   25.40    1.56
   0   5  -4   23.21    0.99
   1  -5   4   83.35    3.23
   1  -5   4   77.90    3.62
   1  -5   4   81.01    3.83
  -1  -5  -4   78.87    3.04
   1  -5   4   80.79    3.07
  -1  -5  -4   77.79    3.37
   1  -5   4   81.85    3.28
   1  -5   4   84.24    3.31
  -1  -5  -4   77.15    3.91
   1  -5   4   79.65    3.06
   1  -5   4   76.95    4.21
   1  -5   4   80.79    3.06
  -1  -5  -4   76.03    3.07
   1  -5   4   78.12    3.48
  -1  -5  -4   79.34    3.29
   1   5   4   62.52    3.54
   1   5   4   64.25    2.54
  -1   5  -4   68.32    2.57
  -1   5  -4   64.16    3.53
  -1   5  -4   63.61    2.72
  -1   5  -4   69.37    3.15
   1   5   4   63.71    2.65
  -1   5  -4   63.41    3.12
  -2  -5  -4   23.52    1.36
  -2  -5  -4   23.24    0.97
   2  -5   4   24.12    0.99
   2  -5   4   23.35    1.29
  -2  -5  -4   24.43    1.01
  -2  -5  -4   24.35    1.14
   2  -5   4   24.71    1.04
   2  -5   4   24.87    1.33
   2  -5   4   23.90    1.20
   2  -5   4   25.26    0.98
  -2  -5  -4   23.59    1.03
   2   5   4   18.28    0.92
  -2   5  -4   20.09    1.14
   2   5   4   15.95    1.12
  -2   5  -4   20.54    0.91
   3  -5   4    6.76    0.33
  -3  -5  -4    6.49    0.65
   3  -5   4    6.98    0.35
   3  -5   4    7.33    0.67
   3  -5   4    6.78    0.31
  -3  -5  -4    6.09    0.37
   3  -5   4    7.97    0.92
  -3  -5  -4    5.97    0.52
  -3  -5  -4    6.92    0.97
   3  -5   4    6.58    0.99
   3  -5   4    7.60    0.94
  -3  -5  -4    6.67    0.33
   3   5   4    3.85    0.79
  -3   5  -4    5.59    0.59
   3   5   4    4.57    0.57
  -3   5  -4    5.28    0.84
  -4  -5  -4    2.51    0.16
  -4  -5  -4    2.77    0.18
   4  -5   4    2.88    0.13
  -4  -5  -4    2.88    0.20
  -4   5  -4    2.27    0.15
   3  -6  -4   27.34    1.05
  -3  -6   4   25.07    1.05
   3  -6  -4   28.19    1.04
  -3  -6   4   27.40    1.05
  -2  -6   4    5.97    0.31
  -2  -6   4    5.62    0.61
   2  -6  -4    5.99    0.41
  -2  -6   4    5.17    0.43
  -2  -6   4    6.45    1.08
  -2  -6   4    7.17    0.94
  -2  -6   4    5.79    0.30
   2  -6  -4    7.54    0.83
   2  -6  -4    5.98    0.30
  -2   6   4    5.03    0.59
  -2   6   4    4.00    0.49
   1  -6  -4   11.23    0.89
  -1  -6   4   11.31    0.87
   1  -6  -4   10.70    0.52
  -1  -6   4   10.84    0.49
  -1  -6   4    8.86    1.12
   1  -6  -4   10.51    0.47
  -1   6   4    7.96    0.66
  -1   6   4    8.34    0.57
   0  -6   4   67.98    2.84
   0  -6  -4   69.00    2.92
   0  -6   4   68.32    2.89
   0  -6   4   69.52    2.98
   0  -6   4   68.51    2.62
   0  -6   4   59.92    2.66
   0  -6  -4   69.56    2.93
   0  -6  -4   70.44    2.62
   0  -6   4   68.76    2.81
   0   6   4   58.03    2.42
   0   6   4   60.60    2.34
   0   6  -4   56.07    2.29
  -1  -6  -4   12.53    0.61
   1  -6   4   13.17    0.57
   1  -6   4   12.71    0.57
   1  -6   4   13.42    0.82
  -1  -6  -4   12.52    1.11
  -1  -6  -4   12.83    0.61
   1  -6   4   13.95    0.93
   1  -6   4   13.40    0.64
   1  -6   4   14.10    1.08
  -1   6  -4   11.54    0.91
   1   6   4   11.94    0.63
  -1   6  -4   10.89    0.60
   2  -6   4    6.41    0.68
   2  -6   4    6.79    0.34
   2  -6   4    5.50    0.82
  -2  -6  -4    6.25    0.38
  -2  -6  -4    8.34    1.04
   2  -6   4    6.62    0.49
   2  -6   4    7.83    0.97
   2  -6   4    6.61    0.33
  -2  -6  -4    6.86    0.52
  -2   6  -4    5.54    0.45
   2   6   4    5.04    0.51
  -2   6  -4    4.08    0.59
  -3  -6  -4    2.55    0.19
   3  -6   4    2.72    0.15
   3  -6   4    3.29    0.18
  -3  -6  -4    2.63    0.22
   2  -7  -4    7.00    0.31
   1  -7  -4   34.52    1.49
   1  -7  -4   39.40    1.45
  -1   7   4   28.25    1.44
   0  -7   4    1.66    0.33
   0  -7  -4    0.76    0.23
   0  -7   4    0.87    0.15
   0  -7   4    1.27    0.52
   0  -7   4   -0.27    0.57
   0   7  -4    0.76    0.30
   0   7   4    0.40    0.34
   1  -7   4    9.73    0.44
   1  -7   4   10.40    0.97
  -1  -7  -4   10.26    0.50
   1  -7   4    9.68    0.43
   2  -7   4   21.29    0.84
  -2  -7  -4   22.04    0.86
   2  -7   4   20.22    0.83
  -5   0   5    0.12    0.07
   5   0  -5    0.12    0.10
  -4   0   5    9.52    0.44
   4   0  -5   10.37    1.12
  -4   0   5    8.56    0.68
  -4   0   5    9.68    0.39
  -3   0   5    3.68    1.04
   3   0  -5    3.25    0.82
   3   0  -5    3.41    1.41
  -3   0   5    3.27    0.41
   2   0  -5  870.06   31.60
  -2   0   5  832.90   31.51
  -2   0   5  793.50   31.43
  -2   0   5  826.04   31.39
  -2   0   5  792.67   31.42
  -2   0   5  823.50   31.43
  -2   0   5  842.40   31.51
  -2   0   5  916.17   31.60
   2   0  -5  802.58   31.46
  -2   0   5  871.89   31.63
   2   0  -5  797.77   31.48
  -2   0   5  826.92   31.38
   2   0  -5  842.02   31.56
  -1   0   5   -0.06    0.10
   1   0  -5   -0.19    0.28
  -1   0   5   -0.06    0.20
  -1   0   5    0.04    0.08
  -1   0   5    0.16    0.34
   1   0  -5    0.08    0.16
  -1   0   5    0.16    0.13
  -1   0   5    0.08    0.11
   1   0  -5    0.21    0.19
  -1   0   5    0.50    0.34
   1   0  -5    0.48    0.24
  -1   0   5    0.03    0.17
  -1   0   5    0.22    0.26
  -1   0   5    0.09    0.19
   1   0  -5    0.30    0.17
  -1   0   5    0.06    0.08
   1   0  -5   -0.02    0.28
  -1   0   5    0.30    0.20
   0   0  -5   13.52    0.64
   0   0  -5   14.45    0.70
   0   0   5   13.78    0.58
   0   0   5   12.35    0.84
   0   0   5   14.01    0.70
   0   0  -5   12.51    0.55
   0   0  -5   12.38    0.62
   0   0   5   12.89    0.58
   0   0   5   12.82    0.69
   0   0   5   13.44    0.63
   0   0   5   12.65    0.59
   0   0  -5   13.88    0.63
   0   0  -5   14.43    0.72
   0   0  -5   13.14    0.62
   0   0   5   12.74    0.65
   0   0   5   13.50    0.64
   1   0   5    0.14    0.29
  -1   0  -5    1.06    0.34
   1   0   5    0.40    0.22
  -1   0  -5   -0.03    0.23
  -1   0  -5    0.35    0.20
   1   0   5    0.47    0.20
  -1   0  -5    0.25    0.12
  -1   0  -5    0.07    0.23
  -1   0  -5    0.25    0.23
   1   0   5   -0.03    0.34
   1   0   5    0.25    0.15
   1   0   5    0.23    0.27
   2   0   5    0.45    0.44
  -2   0  -5    0.66    0.37
  -2   0  -5    0.34    0.12
  -2   0  -5    0.87    0.63
  -2   0  -5    0.59    0.16
   2   0   5    0.67    0.19
   2   0   5   -0.44    0.46
  -2   0  -5    0.32    0.24
   2   0   5    0.20    0.56
   2   0   5    1.25    0.65
  -2   0  -5    0.33    0.43
  -2   0  -5    0.65    0.44
  -3   0  -5    5.67    0.54
   3   0   5    5.30    0.55
  -3   0  -5    5.16    0.45
   3   0   5    3.46    1.20
   3   0   5    5.05    0.72
  -3   0  -5    7.28    1.65
   3   0   5    5.70    1.14
  -3   0  -5    5.86    1.04
   3   0   5    4.88    1.47
  -4   0  -5    2.51    0.25
  -4   0  -5    4.02    0.88
  -4   0  -5    2.58    0.15
  -5   0  -5    1.51    0.24
   5  -1  -5    0.92    0.14
  -5  -1   5    0.75    0.07
  -5  -1   5    0.74    0.12
  -5   1   5    0.73    0.10
   4  -1  -5   12.71    0.57
  -4  -1   5   13.78    0.53
  -4  -1   5   12.84    0.80
   4  -1  -5   14.30    1.23
  -4  -1   5   13.02    0.57
  -4   1   5   13.59    0.56
  -4   1   5   13.52    0.82
   4   1  -5   10.45    1.27
  -3  -1   5   52.08    2.91
  -3  -1   5   50.86    2.00
   3  -1  -5   52.77    3.32
  -3  -1   5   51.35    2.08
  -3  -1   5   51.44    1.98
  -3  -1   5   48.00    2.33
  -3  -1   5   47.36    2.56
   3  -1  -5   50.67    2.32
  -3  -1   5   48.60    2.11
   3  -1  -5   50.24    2.17
   3   1  -5   39.33    3.33
  -3   1   5   48.62    1.95
   3   1  -5   44.68    2.05
  -3   1   5   49.26    1.95
   3   1  -5   47.88    2.31
  -3   1   5   47.22    2.28
   3   1  -5   48.40    2.56
   2  -1  -5   20.35    1.57
   2  -1  -5   21.28    1.15
   2  -1  -5   22.46    1.26
   2  -1  -5   22.95    1.17
   2  -1  -5   23.33    1.42
  -2  -1   5   21.77    1.01
  -2  -1   5   22.80    1.11
  -2  -1   5   22.95    0.93
  -2  -1   5   24.25    1.18
  -2  -1   5   22.62    0.90
  -2  -1   5   22.56    0.97
  -2  -1   5   21.50    1.38
   2  -1  -5   22.48    1.04
   2   1  -5   23.81    1.21
  -2   1   5   21.22    0.93
  -2   1   5   21.43    0.96
   2   1  -5   23.60    1.03
  -2   1   5   20.69    1.09
  -2   1   5   18.90    1.31
   2   1  -5   17.83    1.31
   2   1  -5   22.05    1.11
  -2   1   5   21.67    1.10
   2   1  -5   23.21    1.65
  -2   1   5   23.18    1.29
   1  -1  -5  135.69    5.19
   1  -1  -5  133.12    5.08
  -1  -1   5  131.53    5.20
  -1  -1   5  136.97    5.11
   1  -1  -5  139.07    5.17
   1  -1  -5  135.28    5.13
  -1  -1   5  133.01    5.05
  -1  -1   5  130.71    5.04
  -1  -1   5  135.58    5.08
  -1  -1   5  131.14    5.04
   1  -1  -5  116.78    5.25
   1  -1  -5  125.26    5.14
   1  -1  -5  133.23    5.00
  -1  -1   5  135.92    5.11
  -1  -1   5  134.50    5.01
   1  -1  -5  130.27    5.05
   1  -1  -5  131.80    5.14
  -1  -1   5  125.05    5.10
   1   1  -5  129.37    5.23
  -1   1   5  128.90    4.93
   1   1  -5  133.38    4.92
   1   1  -5  131.10    4.99
  -1   1   5  109.19    4.93
   1   1  -5  130.90    4.97
  -1   1   5  126.81    5.00
   1   1  -5  133.56    4.96
   1   1  -5  131.46    5.06
  -1   1   5  132.89    5.00
  -1   1   5  128.03    4.98
   0  -1   5   97.39    3.91
   0  -1  -5  105.82    4.01
   0  -1   5  100.97    4.00
   0  -1   5  104.17    3.92
   0  -1   5   98.50    3.94
   0  -1   5  102.45    4.09
   0  -1   5  104.97    3.97
   0  -1   5  101.07    3.94
   0  -1  -5   98.20    3.92
   0  -1   5  102.66    4.02
   0  -1  -5  102.85    3.98
   0  -1   5  102.35    3.92
   0  -1  -5   98.08    3.96
   0  -1   5  102.62    3.87
   0  -1   5  102.97    3.94
   0  -1  -5  102.36    3.95
   0  -1  -5  104.89    4.00
   0  -1  -5  108.36    4.03
   0  -1  -5  101.18    3.88
   0  -1   5  106.27    3.98
   0   1   5   90.43    3.56
   0   1  -5   81.83    3.67
   0   1  -5  101.90    3.68
   0   1  -5   92.96    3.54
   0   1  -5   84.71    3.55
   0   1  -5   96.67    3.60
   0   1   5   88.59    3.56
   0   1   5   96.34    3.61
   0   1   5   96.53    3.69
   0   1   5   90.40    3.64
   0   1   5   93.58    3.56
   0   1   5   99.77    3.64
   0   1  -5   94.26    3.61
   0   1  -5   93.85    3.62
   0   1   5   94.89    3.61
   1  -1   5   45.43    1.85
  -1  -1  -5   42.31    1.74
  -1  -1  -5   47.38    1.88
   1  -1   5   44.39    1.76
   1  -1   5   40.27    1.82
   1  -1   5   45.66    1.76
   1  -1   5   45.19    1.72
  -1  -1  -5   45.56    1.89
   1  -1   5   42.97    1.95
   1  -1   5   43.41    1.98
   1  -1   5   43.11    1.69
   1  -1   5   43.92    1.73
  -1  -1  -5   41.81    1.79
   1  -1   5   46.18    1.89
  -1  -1  -5   40.21    1.74
   1  -1   5   42.83    1.80
   1  -1   5   42.60    1.74
  -1  -1  -5   44.76    1.70
  -1   1  -5   42.98    1.64
  -1   1  -5   41.08    1.81
  -1   1  -5   41.04    1.62
   1   1   5   42.61    1.69
   1   1   5   40.26    1.66
   1   1   5   40.94    1.80
  -1   1  -5   41.43    1.91
  -1   1  -5   41.49    1.71
  -1   1  -5   42.86    1.71
   1   1   5   42.32    1.67
  -1   1  -5   41.65    1.71
   1   1   5   41.54    1.64
   1   1   5   39.59    1.73
  -1   1  -5   41.61    1.74
   2  -1   5   59.22    2.34
   2  -1   5   58.29    2.47
  -2  -1  -5   55.03    2.52
   2  -1   5   56.64    2.70
  -2  -1  -5   57.28    2.26
  -2  -1  -5   56.85    2.23
  -2  -1  -5   57.48    2.49
   2  -1   5   60.62    2.40
  -2  -1  -5   57.71    2.60
   2  -1   5   57.32    2.71
   2  -1   5   59.36    2.73
   2  -1   5   53.63    2.25
  -2  -1  -5   54.43    2.32
   2  -1   5   58.53    2.26
   2   1   5   57.93    2.20
   2   1   5   56.95    3.14
   2   1   5   51.08    2.62
  -2   1  -5   50.67    2.31
  -2   1  -5   55.23    2.29
  -2   1  -5   54.53    2.36
   2   1   5   55.05    2.26
  -2   1  -5   57.53    2.34
   2   1   5   54.73    2.27
   2   1   5   55.50    2.47
  -2   1  -5   54.18    2.35
   2   1   5   52.69    2.18
  -2   1  -5   54.66    2.13
  -2   1  -5   55.19    2.49
  -2   1  -5   49.55    2.22
  -3  -1  -5   10.67    1.37
  -3  -1  -5    9.93    1.51
  -3  -1  -5   10.76    0.73
  -3  -1  -5   10.36    0.82
  -3  -1  -5    9.06    0.76
  -3  -1  -5   10.37    0.59
   3  -1   5    9.07    1.61
   3  -1   5   11.14    1.73
  -3   1  -5   11.53    1.42
   3   1   5   10.39    0.97
   3   1   5   10.02    0.73
   3   1   5   10.91    0.80
   3   1   5    9.71    1.55
   3   1   5    9.23    1.62
   3   1   5   10.74    1.67
  -4  -1  -5   30.81    1.29
   4  -1   5   38.39    2.34
  -4  -1  -5   33.66    1.70
  -4  -1  -5   32.16    1.32
   4   1   5   34.47    1.64
  -4   1  -5   28.94    1.24
  -5   1  -5   16.58    0.66
   5  -2  -5    0.57    0.10
  -5  -2   5    0.58    0.10
  -5   2   5    0.67    0.13
   5   2  -5    0.97    0.13
  -4  -2   5   52.31    1.94
  -4  -2   5   47.99    2.02
   4  -2  -5   53.72    2.45
  -4  -2   5   50.79    1.92
  -4  -2   5   48.45    2.28
  -4  -2   5   49.47    2.34
  -4  -2   5   48.36    2.06
   4  -2  -5   50.83    1.95
  -4  -2   5   50.85    1.95
  -4  -2   5   50.67    1.95
   4   2  -5   46.72    2.54
  -4   2   5   48.49    1.88
   4   2  -5   51.01    2.33
  -4   2   5   48.13    2.09
   3  -2  -5   21.42    2.69
  -3  -2   5   21.50    0.84
   3  -2  -5   20.37    1.28
  -3  -2   5   18.97    1.46
  -3  -2   5   21.30    0.98
  -3  -2   5   19.20    0.90
   3  -2  -5   19.74    2.01
  -3  -2   5   20.53    0.86
   3  -2  -5   20.31    0.84
   3  -2  -5   19.19    0.78
  -3  -2   5   19.70    0.82
  -3  -2   5   18.94    0.84
  -3  -2   5   20.84    2.33
  -3  -2   5   17.52    1.62
  -3  -2   5   20.67    1.05
  -3   2   5   15.28    1.74
   3   2  -5   18.75    1.76
   3   2  -5   16.73    1.40
   3   2  -5   21.63    1.59
  -3   2   5   16.32    0.97
   3   2  -5   17.23    1.03
  -3   2   5   20.03    1.59
   3   2  -5   17.83    2.99
  -3   2   5   19.72    1.06
  -2  -2   5   28.93    1.72
  -2  -2   5   28.57    1.37
  -2  -2   5   28.08    1.13
  -2  -2   5   30.75    1.41
  -2  -2   5   29.16    1.39
   2  -2  -5   25.50    1.81
   2  -2  -5   29.67    1.50
  -2  -2   5   28.20    1.16
  -2  -2   5   29.97    1.21
   2  -2  -5   29.94    1.59
  -2  -2   5   26.72    1.35
   2  -2  -5   28.74    1.58
   2  -2  -5   26.88    1.35
   2  -2  -5   29.67    1.31
  -2  -2   5   26.43    1.23
   2  -2  -5   28.72    1.14
  -2  -2   5   28.45    1.26
  -2   2   5   27.75    1.34
  -2   2   5   26.87    1.35
   2   2  -5   28.72    1.96
  -2   2   5   26.37    1.47
   2   2  -5   24.49    1.54
   2   2  -5   26.64    1.16
  -2   2   5   28.91    1.60
   2   2  -5   26.36    1.37
  -2   2   5   27.79    1.19
  -2   2   5   27.04    1.14
   2   2  -5   26.72    1.39
  -2   2   5   25.48    1.16
   2   2  -5   24.39    1.36
  -1  -2   5   64.90    2.57
   1  -2  -5   62.35    2.71
   1  -2  -5   66.95    2.70
  -1  -2   5   63.77    2.75
   1  -2  -5   66.03    2.46
   1  -2  -5   61.49    2.76
   1  -2  -5   62.50    2.70
  -1  -2   5   63.18    2.65
  -1  -2   5   62.08    2.69
  -1  -2   5   66.60    2.52
   1  -2  -5   66.97    2.68
   1   2  -5   65.31    2.39
  -1   2   5   61.14    2.46
   1   2  -5   63.35    2.44
   1   2  -5   59.83    2.45
   1   2  -5   58.00    2.70
  -1   2   5   60.47    2.43
  -1   2   5   60.90    2.58
   0  -2  -5  211.94    8.12
   0  -2  -5  222.82    8.23
   0  -2  -5  205.41    8.03
   0  -2  -5  212.24    8.16
   0  -2   5  218.17    8.02
   0  -2  -5  204.07    8.05
   0  -2   5  209.02    8.13
   0  -2   5  209.52    8.11
   0  -2  -5  202.45    8.23
   0  -2   5  216.36    8.13
   0  -2   5  210.13    8.15
   0  -2   5  218.56    8.09
   0  -2   5  211.52    8.09
   0  -2  -5  207.52    8.13
   0  -2  -5  221.02    8.22
   0  -2   5  219.21    8.23
   0  -2   5  214.86    8.36
   0  -2   5  216.95    8.16
   0   2   5  187.76    7.38
   0   2  -5  199.30    7.47
   0   2   5  183.43    7.37
   0   2   5  191.81    7.45
   0   2  -5  200.46    7.40
   0   2   5  198.85    7.42
   0   2   5  192.57    7.46
   0   2  -5  185.84    7.36
   0   2   5  201.14    7.36
   0   2  -5  202.08    7.45
   0   2  -5  195.95    7.50
  -1  -2  -5  177.39    6.94
   1  -2   5  188.05    6.86
  -1  -2  -5  170.25    6.82
  -1  -2  -5  179.70    7.00
  -1  -2  -5  183.52    7.03
   1  -2   5  181.74    6.98
   1  -2   5  177.67    6.88
  -1  -2  -5  167.88    6.98
  -1  -2  -5  178.98    6.85
   1  -2   5  188.41    7.01
  -1  -2  -5  184.19    7.01
   1  -2   5  177.96    6.91
   1  -2   5  184.91    7.18
   1  -2   5  184.36    7.00
   1  -2   5  180.09    6.97
   1   2   5  160.32    6.13
  -1   2  -5  164.40    6.17
   1   2   5  175.03    6.40
  -1   2  -5  154.92    6.50
   1   2   5  165.06    6.14
  -1   2  -5  159.84    6.09
  -1   2  -5  156.17    6.10
  -1   2  -5  169.15    6.18
  -1   2  -5  166.03    6.21
   1   2   5  143.57    6.26
   1   2   5  145.90    6.13
  -1   2  -5  163.67    6.25
   2  -2   5  175.92    6.66
  -2  -2  -5  177.01    7.02
   2  -2   5  184.40    7.21
  -2  -2  -5  173.44    6.67
  -2  -2  -5  165.01    6.78
  -2  -2  -5  176.93    6.96
   2  -2   5  178.65    6.87
   2  -2   5  174.89    6.72
  -2  -2  -5  174.18    6.70
   2  -2   5  179.83    6.79
   2  -2   5  177.74    6.76
   2  -2   5  181.80    7.07
   2  -2   5  175.93    6.88
  -2  -2  -5  168.53    6.95
   2  -2   5  166.08    7.10
   2   2   5  146.38    5.97
   2   2   5  161.52    6.03
   2   2   5  139.40    5.94
  -2   2  -5  161.02    6.15
  -2   2  -5  144.47    5.98
   2   2   5  161.04    6.45
  -2   2  -5  157.14    6.12
  -2   2  -5  160.77    6.09
  -2   2  -5  158.72    5.95
  -2   2  -5  158.18    6.04
  -2   2  -5  151.80    6.29
  -2   2  -5  159.65    6.08
   3  -2   5   26.11    1.09
  -3  -2  -5   26.75    1.19
   3  -2   5   28.13    1.35
  -3  -2  -5   25.60    1.11
  -3  -2  -5   28.22    1.97
  -3  -2  -5   27.55    2.03
   3  -2   5   26.61    1.04
  -3  -2  -5   24.05    2.35
   3  -2   5   26.81    2.30
  -3  -2  -5   27.13    1.38
   3  -2   5   26.55    2.61
  -3  -2  -5   27.21    1.16
  -3  -2  -5   25.84    1.07
  -3   2  -5   27.04    2.06
   3   2   5   23.41    1.73
  -3   2  -5   26.06    1.93
   3   2   5   22.47    2.82
   3   2   5   25.67    1.23
   3   2   5   23.05    2.28
  -3   2  -5   25.03    1.26
   3   2   5   26.01    1.25
   4  -2   5    6.64    0.91
  -4  -2  -5    5.21    0.31
  -4  -2  -5    5.31    0.28
  -4  -2  -5    5.33    0.67
  -4  -2  -5    5.80    0.34
   4   2   5    3.91    0.74
  -4   2  -5    5.28    0.75
  -4   2  -5    4.33    0.26
  -4  -3   5   12.43    0.50
  -4  -3   5   11.61    0.50
  -4  -3   5   11.73    0.48
  -4  -3   5   10.40    0.78
  -4  -3   5   12.65    0.52
  -4  -3   5   11.82    0.73
  -4  -3   5   10.96    1.06
   4  -3  -5   12.00    0.51
   4   3  -5   11.01    1.03
   4   3  -5    8.06    1.50
  -4   3   5   11.59    0.47
  -3  -3   5   65.69    2.70
   3  -3  -5   58.84    3.72
  -3  -3   5   64.96    2.47
   3  -3  -5   69.17    2.84
  -3  -3   5   64.86    2.49
  -3  -3   5   65.82    2.63
  -3  -3   5   67.13    2.56
   3  -3  -5   67.60    2.76
  -3  -3   5   55.47    3.09
  -3  -3   5   65.45    4.00
   3  -3  -5   64.90    2.47
  -3  -3   5   66.00    2.47
  -3  -3   5   64.12    2.51
   3  -3  -5   65.26    2.47
  -3  -3   5   64.03    3.09
   3  -3  -5   55.45    3.50
   3   3  -5   57.45    2.93
   3   3  -5   56.91    2.93
   3   3  -5   56.13    2.41
  -3   3   5   59.61    2.38
  -3   3   5   58.63    3.07
  -3   3   5   63.63    4.37
   3   3  -5   46.35    4.59
  -3   3   5   62.07    2.35
   3   3  -5   49.80    2.73
  -2  -3   5   10.32    0.53
  -2  -3   5   10.38    0.94
  -2  -3   5   11.06    0.59
   2  -3  -5   10.90    0.49
  -2  -3   5   11.45    1.60
  -2  -3   5   10.21    0.80
   2  -3  -5    9.97    1.27
  -2  -3   5   10.29    0.66
  -2  -3   5   10.52    0.87
   2  -3  -5    9.55    1.09
   2  -3  -5   10.03    0.69
   2  -3  -5    8.56    1.09
  -2  -3   5   10.98    0.47
  -2   3   5    9.76    0.59
   2   3  -5    9.89    1.75
  -2   3   5   10.18    1.31
  -2   3   5    8.17    0.94
   2   3  -5    9.87    0.94
  -2   3   5    9.14    0.53
   2   3  -5    8.03    0.98
   2   3  -5    8.95    0.57
  -2   3   5   10.58    1.10
   1  -3  -5   12.93    0.90
   1  -3  -5   12.38    0.60
   1  -3  -5   12.79    0.52
  -1  -3   5   12.06    0.55
  -1  -3   5   13.50    1.14
   1  -3  -5   12.37    0.79
  -1  -3   5   12.20    0.62
  -1  -3   5   11.79    0.82
  -1  -3   5   10.67    1.18
  -1  -3   5   12.17    0.68
  -1  -3   5   12.17    0.59
  -1  -3   5   11.49    0.64
   1  -3  -5   12.52    0.68
   1  -3  -5   11.60    0.94
   1  -3  -5   12.10    1.00
  -1  -3   5   11.92    0.50
  -1  -3   5   12.09    0.77
  -1  -3   5   11.73    0.72
  -1   3   5   10.79    0.71
  -1   3   5   10.36    0.55
   1   3  -5   10.40    0.47
  -1   3   5   11.54    0.86
  -1   3   5   10.96    0.57
   1   3  -5   11.52    0.79
   1   3  -5   11.25    0.84
   1   3  -5   10.91    0.62
   0  -3  -5   68.34    2.86
   0  -3   5   71.16    2.84
   0  -3   5   73.88    3.24
   0  -3   5   72.88    2.84
   0  -3   5   72.92    3.08
   0  -3   5   73.45    2.97
   0  -3   5   75.01    2.89
   0  -3  -5   68.56    3.05
   0  -3   5   72.00    2.94
   0  -3  -5   72.25    2.91
   0  -3  -5   71.71    2.92
   0  -3   5   72.85    2.88
   0  -3  -5   75.45    3.07
   0  -3   5   70.64    2.86
   0  -3  -5   70.99    2.74
   0  -3  -5   72.52    3.04
   0  -3  -5   69.92    2.83
   0  -3   5   72.44    2.83
   0   3   5   67.08    2.57
   0   3  -5   66.43    2.63
   0   3   5   68.77    2.65
   0   3  -5   61.93    2.49
   0   3  -5   65.18    2.54
   0   3   5   59.50    2.64
   0   3  -5   63.82    2.70
   0   3  -5   61.68    2.72
   0   3   5   66.04    2.49
  -1  -3  -5    3.76    0.21
   1  -3   5    3.10    0.37
  -1  -3  -5    3.88    0.31
   1  -3   5    3.90    0.88
  -1  -3  -5    4.39    0.38
   1  -3   5    3.61    0.40
  -1  -3  -5    4.18    0.71
   1  -3   5    2.98    0.35
   1  -3   5    3.70    0.45
   1  -3   5    3.82    0.24
  -1  -3  -5    3.06    0.56
   1  -3   5    3.56    0.33
   1  -3   5    4.95    0.93
   1  -3   5    3.76    0.74
   1  -3   5    3.53    0.67
  -1   3  -5    3.91    0.44
   1   3   5    2.59    0.39
  -1   3  -5    3.49    0.55
  -1   3  -5    4.09    0.49
   1   3   5    3.03    0.30
  -1   3  -5    3.71    0.56
   1   3   5    3.94    0.68
  -1   3  -5    3.22    0.25
   1   3   5    2.79    0.55
  -1   3  -5    2.69    0.32
  -1   3  -5    2.93    0.59
  -2  -3  -5    8.50    1.16
   2  -3   5    6.75    1.07
   2  -3   5    5.94    1.22
  -2  -3  -5    7.72    1.29
   2  -3   5    6.64    0.42
   2  -3   5    7.49    0.59
   2  -3   5    7.64    0.60
   2  -3   5    7.58    0.52
  -2  -3  -5    7.82    1.07
   2  -3   5    8.67    1.10
  -2  -3  -5    8.07    0.61
  -2  -3  -5    7.19    0.40
  -2  -3  -5    6.71    0.46
  -2   3  -5    6.83    0.42
   2   3   5    6.57    0.50
  -2   3  -5    7.11    1.20
  -2   3  -5    7.37    0.87
  -2   3  -5    5.95    0.97
  -2   3  -5    6.28    0.57
  -2   3  -5    8.75    1.09
   2   3   5    4.33    1.13
  -3  -3  -5   36.90    3.75
  -3  -3  -5   34.73    1.42
  -3  -3  -5   35.11    1.39
   3  -3   5   45.31    4.86
  -3  -3  -5   34.23    1.48
   3  -3   5   36.10    1.68
  -3  -3  -5   34.81    1.73
   3  -3   5   34.63    1.36
  -3  -3  -5   35.49    1.53
   3  -3   5   34.63    1.41
  -3   3  -5   28.16    1.44
   3   3   5   29.32    1.36
   3   3   5   29.75    1.40
   3   3   5   26.35    4.45
  -4  -3  -5    2.46    0.20
  -4  -3  -5    2.18    0.22
   4  -3   5    1.89    0.59
  -4  -3  -5    1.58    0.37
  -4  -3  -5    2.20    0.18
  -4   3  -5    0.86    0.45
   4   3   5    0.42    0.44
   4   3   5    1.54    0.52
   4  -4  -5    1.24    0.09
  -4  -4   5    1.24    0.19
  -4  -4   5    1.06    0.15
  -4  -4   5    1.21    0.14
  -4  -4   5    1.56    0.22
  -3  -4   5    3.96    0.72
   3  -4  -5    5.36    0.36
   3  -4  -5    4.96    0.64
  -3  -4   5    4.83    0.47
  -3  -4   5    4.72    0.57
  -3  -4   5    4.93    0.27
  -3  -4   5    5.18    0.33
   3  -4  -5    4.64    0.28
   3  -4  -5    4.80    0.23
  -3  -4   5    4.88    0.37
  -3  -4   5    4.76    0.27
   3  -4  -5    5.11    1.01
   3  -4  -5    4.46    0.78
  -3   4   5    5.90    1.04
   3   4  -5    3.86    0.97
  -3   4   5    5.07    0.59
   3   4  -5    4.58    0.69
   2  -4  -5   22.67    0.95
  -2  -4   5   22.13    1.15
   2  -4  -5   23.52    1.19
  -2  -4   5   22.70    0.93
   2  -4  -5   22.56    0.92
   2  -4  -5   23.71    1.81
   2  -4  -5   23.96    1.09
   2  -4  -5   22.55    2.05
  -2  -4   5   23.06    1.07
   2  -4  -5   21.67    1.66
   2  -4  -5   23.58    0.93
  -2  -4   5   22.72    0.92
  -2  -4   5   21.61    1.58
  -2  -4   5   21.71    1.37
  -2  -4   5   20.70    2.43
  -2  -4   5   22.74    1.00
  -2  -4   5   22.05    1.29
  -2  -4   5   22.23    0.91
   2   4  -5   22.74    1.01
  -2   4   5   20.28    1.61
  -2   4   5   20.63    2.09
  -2   4   5   21.57    1.56
   2   4  -5   20.89    1.60
   2   4  -5   27.57    2.99
   2   4  -5   19.60    1.39
  -2   4   5   20.77    1.01
  -2   4   5   21.20    1.03
  -1  -4   5   60.23    2.42
  -1  -4   5   58.23    2.30
   1  -4  -5   62.37    2.97
   1  -4  -5   62.41    2.64
  -1  -4   5   61.04    3.08
  -1  -4   5   59.37    2.47
  -1  -4   5   60.74    2.71
  -1  -4   5   60.05    2.36
   1  -4  -5   61.11    2.32
  -1  -4   5   58.66    2.43
  -1  -4   5   59.14    2.56
  -1  -4   5   59.31    2.47
   1  -4  -5   61.55    2.44
   1  -4  -5   59.77    2.52
  -1  -4   5   59.83    2.47
   1  -4  -5   60.19    2.84
  -1  -4   5   59.32    2.60
  -1   4   5   52.80    2.30
   1   4  -5   53.32    2.20
   1   4  -5   54.19    2.48
  -1   4   5   54.75    2.18
  -1   4   5   52.71    2.41
   1   4  -5   53.76    2.39
  -1   4   5   54.27    2.65
   1   4  -5   52.23    2.07
   0  -4  -5    9.86    1.04
   0  -4  -5    9.63    0.60
   0  -4  -5   12.34    1.25
   0  -4   5   10.39    0.59
   0  -4  -5    9.46    0.65
   0  -4   5   10.06    0.66
   0  -4   5   10.64    1.37
   0  -4  -5   10.16    0.74
   0  -4   5   14.00    1.47
   0  -4   5   10.76    0.78
   0  -4  -5   10.51    1.10
   0  -4   5   10.41    0.69
   0  -4   5   10.34    0.58
   0  -4  -5   10.23    0.44
   0  -4   5    9.44    0.95
   0  -4   5   10.58    0.44
   0  -4   5    9.91    0.64
   0   4  -5    9.10    0.48
   0   4  -5    9.21    0.85
   0   4  -5    8.74    0.44
   0   4  -5    9.20    0.80
   0   4   5    9.82    0.47
   0   4   5    7.60    0.89
   0   4  -5    9.80    0.87
   0   4   5    9.39    0.64
   0   4  -5    9.60    0.59
   0   4   5    9.40    0.53
   1  -4   5   57.70    2.44
   1  -4   5   59.43    2.27
   1  -4   5   58.13    2.41
   1  -4   5   57.88    2.76
  -1  -4  -5   58.09    2.43
  -1  -4  -5   60.03    2.83
  -1  -4  -5   59.05    2.69
  -1  -4  -5   57.71    2.25
  -1  -4  -5   58.89    2.33
  -1  -4  -5   59.82    2.57
   1  -4   5   56.72    2.70
   1  -4   5   60.69    2.45
   1  -4   5   59.03    2.40
   1  -4   5   56.61    2.68
   1   4   5   50.19    1.92
   1   4   5   42.42    1.98
  -1   4  -5   52.36    2.27
   1   4   5   41.31    2.40
  -1   4  -5   46.28    2.48
  -1   4  -5   51.96    1.93
   1   4   5   51.99    2.57
  -2  -4  -5   17.86    1.83
  -2  -4  -5   19.08    1.70
  -2  -4  -5   18.55    1.08
   2  -4   5   19.13    1.04
   2  -4   5   18.41    1.79
   2  -4   5   19.31    0.83
  -2  -4  -5   18.19    0.81
  -2  -4  -5   19.12    0.91
   2  -4   5   22.31    2.33
   2  -4   5   18.31    2.00
   2  -4   5   17.89    0.79
  -2  -4  -5   18.72    0.82
   2  -4   5   18.47    0.80
   2  -4   5   19.01    1.04
  -2  -4  -5   17.73    0.78
   2  -4   5   18.41    0.97
  -2  -4  -5   18.09    1.88
   2  -4   5   17.15    1.92
  -2   4  -5   16.64    1.73
   2   4   5   13.77    0.92
  -2   4  -5   15.10    0.93
   2   4   5   15.45    0.80
  -2   4  -5   16.48    0.77
   2   4   5   14.12    2.54
   2   4   5   11.94    1.97
  -2   4  -5   16.91    1.27
  -2   4  -5   17.20    1.90
   2   4   5   15.66    1.07
  -2   4  -5   16.23    1.54
   3  -4   5   21.26    1.23
  -3  -4  -5   18.98    0.79
  -3  -4  -5   18.83    1.25
  -3  -4  -5   19.23    0.92
   3  -4   5   18.97    0.81
   3  -4   5   18.74    0.76
  -3  -4  -5   19.17    0.82
  -3  -4  -5   19.12    0.97
   3  -4   5   18.24    1.17
   3   4   5   15.65    0.99
   3   4   5   15.04    0.87
  -3   4  -5   16.58    1.06
  -4  -4  -5    8.83    0.42
   4  -4   5    9.21    0.36
  -4  -4  -5    9.24    0.40
  -4  -4  -5    8.82    0.39
  -4   4  -5    7.87    0.36
  -4  -5   5   10.04    0.45
   4  -5  -5   12.07    0.43
  -4  -5   5   10.89    0.45
  -4  -5   5   11.69    0.52
  -4  -5   5   10.68    0.45
  -3  -5   5   23.65    1.25
   3  -5  -5   24.26    1.36
   3  -5  -5   23.64    1.14
  -3  -5   5   23.23    0.94
  -3  -5   5   25.02    1.02
  -3  -5   5   23.00    1.32
  -3  -5   5   22.03    1.00
  -3  -5   5   24.49    0.94
   3  -5  -5   23.90    0.92
   3  -5  -5   24.13    0.95
  -3  -5   5   23.88    1.10
   3   5  -5   20.34    1.11
  -3   5   5   19.83    1.25
  -3   5   5   19.91    1.03
   3   5  -5   15.80    2.04
  -2  -5   5    8.50    0.41
  -2  -5   5    8.49    0.43
  -2  -5   5    8.43    0.44
  -2  -5   5    7.75    0.64
  -2  -5   5    8.85    0.56
  -2  -5   5    7.38    1.03
   2  -5  -5    8.57    0.46
  -2  -5   5    8.04    0.79
   2  -5  -5    7.99    0.41
   2  -5  -5    9.36    0.80
  -2   5   5    7.36    0.58
  -2   5   5    7.28    0.58
   2   5  -5    7.67    0.65
   1  -5  -5   34.32    2.44
  -1  -5   5   32.29    1.34
   1  -5  -5   34.79    1.63
  -1  -5   5   34.15    1.35
  -1  -5   5   33.98    1.70
   1  -5  -5   33.03    1.35
  -1  -5   5   38.37    3.71
  -1  -5   5   33.78    1.53
  -1  -5   5   31.39    1.68
   1  -5  -5   35.52    1.37
   1  -5  -5   34.57    1.35
  -1  -5   5   35.13    1.51
   1  -5  -5   32.97    1.85
   1  -5  -5   32.54    2.46
   1  -5  -5   35.66    1.56
  -1  -5   5   34.63    1.60
  -1  -5   5   35.20    3.32
  -1  -5   5   35.11    1.34
  -1  -5   5   34.56    1.43
   1   5  -5   28.37    2.40
  -1   5   5   29.26    1.60
  -1   5   5   31.05    2.33
  -1   5   5   29.75    1.32
  -1   5   5   30.90    1.98
  -1   5   5   26.48    1.31
   1   5  -5   29.68    1.48
   1   5  -5   29.14    1.98
   1   5  -5   32.10    3.47
   0  -5   5  101.21    5.17
   0  -5  -5  102.05    4.11
   0  -5  -5  110.92    4.30
   0  -5   5  110.13    4.26
   0  -5   5  109.71    4.37
   0  -5  -5  109.04    4.10
   0  -5   5  107.65    4.65
   0  -5  -5  104.26    4.82
   0  -5   5  109.82    4.09
   0  -5  -5  106.11    4.31
   0  -5  -5  107.91    4.89
   0  -5   5  108.47    4.26
   0  -5   5  111.16    4.11
   0  -5   5  110.69    4.32
   0  -5   5  109.40    4.11
   0  -5  -5  105.02    4.40
   0  -5   5  105.12    4.36
   0   5  -5   88.67    3.65
   0   5  -5   90.00    3.53
   0   5   5   98.90    3.56
   0   5  -5   93.56    3.93
   0   5   5   89.01    3.99
   0   5   5   91.89    3.61
   0   5   5   87.01    3.69
   0   5  -5   92.60    4.03
   1  -5   5  267.81   10.03
  -1  -5  -5  248.21   10.49
   1  -5   5  262.55    9.81
  -1  -5  -5  259.69   10.11
  -1  -5  -5  259.83    9.79
  -1  -5  -5  256.82    9.80
  -1  -5  -5  268.75   10.02
   1  -5   5  265.79   10.86
   1  -5   5  251.95    9.95
   1  -5   5  239.20    9.79
   1  -5   5  261.71   10.19
   1  -5   5  247.78   10.29
   1  -5   5  274.62   10.05
   1  -5   5  260.84    9.80
   1   5   5  214.79    8.62
  -1   5  -5  220.86    9.00
  -1   5  -5  227.28    8.95
  -1   5  -5  215.28    8.68
   1   5   5  223.11    9.31
  -1   5  -5  226.24    8.55
   1   5   5  240.98    8.52
  -2  -5  -5    2.60    0.29
  -2  -5  -5    2.26    0.52
  -2  -5  -5    2.56    0.36
   2  -5   5    3.61    0.67
   2  -5   5    2.82    0.38
   2  -5   5    2.67    0.26
   2  -5   5    3.02    0.68
   2  -5   5    3.01    0.57
  -2  -5  -5    3.92    0.55
  -2  -5  -5    3.00    0.30
   2  -5   5    2.54    0.25
  -2   5  -5    2.70    0.34
  -2   5  -5    2.17    0.42
   2   5   5    1.65    0.43
   2   5   5    1.86    0.42
  -3  -5  -5    4.62    0.29
  -3  -5  -5    4.08    0.60
  -3  -5  -5    3.03    0.69
  -3  -5  -5    5.16    0.50
   3  -5   5    4.40    0.27
  -3  -5  -5    4.44    0.25
   3  -5   5    4.13    0.25
   3  -5   5    4.57    0.91
   3  -5   5    4.50    0.22
   3   5   5    2.68    0.51
   3   5   5    2.18    0.46
  -3  -6   5    4.99    0.24
  -3  -6   5    4.96    0.26
   3  -6  -5    5.39    0.25
   3  -6  -5    5.22    0.22
  -2  -6   5    2.32    0.36
  -2  -6   5    2.80    0.20
   2  -6  -5    4.04    0.82
   2  -6  -5    2.64    0.18
  -2  -6   5    2.63    0.19
   2  -6  -5    2.27    0.35
  -2  -6   5    2.14    0.48
  -2   6   5    2.05    0.41
   2   6  -5    3.14    0.74
  -2   6   5    2.04    0.46
  -1  -6   5   20.65    0.83
   1  -6  -5   19.86    0.82
   1  -6  -5   20.17    0.86
  -1  -6   5   20.20    1.26
  -1   6   5   17.43    0.92
  -1   6   5   15.48    0.93
   0  -6   5   76.55    3.30
   0  -6   5   78.58    3.39
   0  -6  -5   78.34    3.05
   0  -6   5   79.05    3.26
   0  -6   5   80.11    3.04
   0  -6  -5   78.94    3.05
   0  -6  -5   82.05    3.34
   0  -6   5   80.56    3.05
   0  -6   5   78.62    3.24
   0  -6   5   80.14    3.04
   0   6  -5   65.46    2.67
   0   6   5   70.76    2.73
   1  -6   5    5.49    0.52
   1  -6   5    6.52    0.63
  -1  -6  -5    5.63    0.36
   1  -6   5    5.59    0.31
   1  -6   5    5.39    0.30
   1   6   5    4.77    0.63
   2  -6   5   21.57    0.98
   2  -6   5   20.91    1.27
   2  -6   5   21.70    0.86
  -2  -6  -5   21.64    1.39
   2  -6   5   20.94    1.37
  -2  -6  -5   21.91    0.98
   2  -6   5   20.93    0.87
  -2  -6  -5   21.69    0.89
   2  -6   5   21.80    1.16
   2   6   5   16.20    0.83
  -2   6  -5   14.57    1.18
  -2   6  -5   17.14    0.82
  -3  -6  -5    3.91    0.23
   3  -6   5    4.39    0.22
  -3  -6  -5    4.70    0.28
   3  -6   5    4.26    0.20
   2  -7  -5    0.69    0.11
   2  -7  -5    0.64    0.10
  -1  -7   5   14.00    0.60
   1  -7  -5   14.64    0.59
   0  -7   5    3.84    0.33
   0  -7   5    4.53    0.26
   1  -7   5    0.23    0.09
  -1  -7  -5    0.48    0.18
   1  -7   5    0.44    0.12
  -2  -7  -5    7.57    0.37
   2  -7   5    7.26    0.33
   2  -7   5    8.17    0.35
   5   0  -6    2.02    0.16
  -5   0   6    1.69    0.14
  -4   0   6    0.12    0.26
  -4   0   6    0.33    0.06
   4   0  -6    1.38    0.65
  -4   0   6    0.29    0.11
  -3   0   6   32.28    1.76
   3   0  -6   27.36    2.93
  -3   0   6   34.36    1.43
  -2   0   6  134.08    5.13
  -2   0   6  128.27    5.04
  -2   0   6  139.54    5.31
   2   0  -6  130.84    5.06
   2   0  -6  128.08    5.09
  -2   0   6  131.63    5.02
   2   0  -6  120.25    5.06
   2   0  -6  129.22    5.22
  -2   0   6  128.41    5.00
  -2   0   6  133.12    4.96
   2   0  -6  134.21    5.34
  -2   0   6  126.85    5.25
  -2   0   6  127.56    5.09
  -2   0   6  134.05    4.97
   1   0  -6   11.94    0.77
  -1   0   6   12.74    0.71
  -1   0   6   12.05    0.59
   1   0  -6   12.20    0.64
  -1   0   6   13.46    0.78
  -1   0   6   13.07    0.52
   1   0  -6   12.86    0.64
  -1   0   6   12.52    0.69
   1   0  -6   12.56    0.64
   1   0  -6   12.33    1.06
   1   0  -6   12.32    0.75
  -1   0   6   12.75    0.63
  -1   0   6   12.48    0.78
  -1   0   6   13.01    0.57
  -1   0   6   10.93    0.68
   1   0  -6   12.29    0.53
  -1   0   6   11.99    0.56
   1   0  -6   13.04    0.90
   0   0   6   19.33    0.90
   0   0   6   20.33    0.99
   0   0   6   20.88    0.93
   0   0  -6   19.75    1.01
   0   0  -6   19.70    0.87
   0   0  -6   20.69    0.97
   0   0  -6   19.38    0.90
   0   0   6   18.57    0.82
   0   0  -6   20.12    0.89
   0   0  -6   18.87    0.80
   0   0   6   19.93    0.82
   0   0  -6   19.89    0.89
   0   0   6   18.06    0.97
   0   0   6   19.98    0.95
   0   0   6   19.62    0.95
   0   0   6   19.82    0.84
  -1   0  -6  161.66    6.05
  -1   0  -6  156.71    6.18
   1   0   6  132.36    6.21
  -1   0  -6  155.58    5.91
  -1   0  -6  167.98    6.15
   1   0   6  163.01    5.94
   1   0   6  155.56    5.92
  -1   0  -6  166.11    6.09
  -1   0  -6  145.60    5.99
   1   0   6  167.50    5.93
   1   0   6  158.73    6.00
  -1   0  -6  148.48    5.96
  -1   0  -6  155.56    5.95
   1   0   6  145.32    5.93
   1   0   6  162.32    5.99
  -1   0  -6  151.34    5.96
   1   0   6  151.31    6.15
   1   0   6  154.26    6.09
   1   0   6  148.70    6.07
  -1   0  -6  162.48    5.91
   2   0   6   42.53    1.71
   2   0   6   40.01    1.66
  -2   0  -6   41.17    1.94
   2   0   6   33.81    1.98
  -2   0  -6   41.96    2.31
   2   0   6   43.23    1.95
   2   0   6   40.64    1.64
  -2   0  -6   38.81    1.83
  -2   0  -6   40.48    1.61
   2   0   6   41.72    2.09
  -2   0  -6   43.50    1.90
   2   0   6   35.10    2.15
  -2   0  -6   37.65    1.68
  -3   0  -6   34.59    1.57
  -3   0  -6   31.24    2.11
  -3   0  -6   37.05    1.58
  -3   0  -6   31.55    2.20
   3   0   6   31.02    2.84
   3   0   6   30.06    2.56
   3   0   6   34.57    1.44
  -3   0  -6   28.80    2.08
   3   0   6   34.14    2.23
  -3   0  -6   32.78    1.28
  -4   0  -6    4.73    0.21
  -4   0  -6    4.57    0.29
  -5  -1   6    0.88    0.12
   5  -1  -6    0.84    0.13
   5   1  -6    0.52    0.10
  -4  -1   6   14.69    0.61
  -4  -1   6   14.47    0.56
  -4  -1   6   13.98    0.60
  -4  -1   6   13.72    0.84
   4  -1  -6   13.63    0.60
  -4   1   6   13.65    0.61
  -4   1   6   15.46    1.11
  -3  -1   6   34.44    1.52
   3  -1  -6   33.63    3.00
  -3  -1   6   32.81    2.19
  -3  -1   6   36.40    1.90
  -3  -1   6   38.77    1.48
  -3  -1   6   35.63    2.77
   3  -1  -6   33.26    1.66
  -3  -1   6   34.39    1.60
  -3  -1   6   37.94    1.43
  -3  -1   6   34.61    1.45
   3   1  -6   27.83    1.73
   3   1  -6   34.40    1.93
  -3   1   6   31.53    1.85
   3   1  -6   29.03    3.07
  -3   1   6   32.42    1.39
   3   1  -6   30.92    2.29
  -3   1   6   33.18    1.57
  -2  -1   6   53.42    2.03
  -2  -1   6   50.52    2.23
  -2  -1   6   54.09    2.10
   2  -1  -6   53.99    2.17
   2  -1  -6   52.15    2.28
  -2  -1   6   53.22    2.49
   2  -1  -6   46.92    2.68
   2  -1  -6   52.67    2.40
  -2  -1   6   52.56    2.09
  -2  -1   6   54.62    2.30
  -2  -1   6   53.05    2.05
  -2  -1   6   53.47    2.14
  -2  -1   6   51.81    2.21
  -2   1   6   48.50    2.01
   2   1  -6   49.61    2.28
   2   1  -6   51.54    2.73
   2   1  -6   51.08    2.07
  -2   1   6   50.29    2.14
  -2   1   6   49.25    2.02
   2   1  -6   51.42    2.09
   2   1  -6   52.93    2.32
  -2   1   6   49.44    2.16
  -2   1   6   49.92    2.35
   2   1  -6   50.87    2.17
  -1  -1   6   76.53    3.69
  -1  -1   6   83.62    3.41
  -1  -1   6   91.39    3.44
   1  -1  -6   88.82    3.31
  -1  -1   6   85.34    3.36
  -1  -1   6   87.45    3.30
   1  -1  -6   90.47    3.51
   1  -1  -6   85.89    3.38
   1  -1  -6   88.45    3.40
   1  -1  -6   84.73    3.31
   1  -1  -6   87.88    3.46
   1  -1  -6   85.82    3.52
  -1  -1   6   87.89    3.32
  -1  -1   6   87.12    3.38
  -1  -1   6   88.08    3.34
   1  -1  -6   83.20    3.46
   1   1  -6   85.41    3.58
   1   1  -6   86.43    3.30
  -1   1   6   82.01    3.33
   1   1  -6   91.55    3.23
  -1   1   6   82.21    3.23
  -1   1   6   82.59    3.33
   1   1  -6   88.87    3.28
  -1   1   6   76.69    3.21
  -1   1   6   69.87    3.25
   1   1  -6   86.84    3.57
   0  -1  -6   14.75    0.80
   0  -1   6   12.88    0.60
   0  -1   6   13.62    0.85
   0  -1  -6   12.90    0.83
   0  -1  -6   13.88    0.56
   0  -1  -6   13.48    0.65
   0  -1   6   13.64    0.55
   0  -1  -6   13.82    0.57
   0  -1   6   13.12    0.65
   0  -1   6   13.73    0.79
   0  -1  -6   13.38    0.71
   0  -1   6   13.73    0.77
   0  -1  -6   12.88    0.67
   0  -1   6   14.03    0.61
   0  -1   6   12.21    0.68
   0  -1  -6   14.42    0.77
   0  -1  -6   13.92    0.61
   0  -1   6   13.62    0.66
   0  -1   6   13.02    0.60
   0   1  -6   14.39    0.66
   0   1   6   13.88    0.69
   0   1   6   13.58    0.73
   0   1  -6   12.37    0.62
   0   1   6   12.70    0.60
   0   1   6   13.52    0.76
   0   1  -6   13.91    0.75
   0   1   6   13.69    0.59
   0   1   6   14.43    0.68
   0   1   6   12.78    0.59
   0   1  -6   13.74    0.67
   0   1  -6   13.87    0.67
   0   1   6   10.92    0.84
   1  -1   6   32.73    1.53
   1  -1   6   32.42    1.41
  -1  -1  -6   30.20    1.32
   1  -1   6   27.17    1.83
  -1  -1  -6   32.39    1.46
   1  -1   6   32.30    1.47
   1  -1   6   31.87    1.26
   1  -1   6   32.23    1.34
  -1  -1  -6   32.57    1.27
   1  -1   6   31.94    1.56
  -1  -1  -6   34.65    1.47
   1  -1   6   32.64    1.31
  -1  -1  -6   31.56    1.42
  -1  -1  -6   30.56    1.35
   1  -1   6   33.05    1.34
   1  -1   6   32.46    1.30
  -1  -1  -6   33.50    1.54
  -1   1  -6   31.55    1.26
  -1   1  -6   31.86    1.40
   1   1   6   30.94    1.56
   1   1   6   31.47    1.34
  -1   1  -6   30.21    1.35
  -1   1  -6   31.06    1.36
  -1   1  -6   31.69    1.46
  -1   1  -6   31.28    1.24
   1   1   6   30.85    1.32
   1   1   6   30.08    1.38
   1   1   6   32.03    1.27
   1   1   6   30.55    1.46
  -2  -1  -6   25.08    0.99
  -2  -1  -6   24.48    1.37
  -2  -1  -6   22.66    1.34
   2  -1   6   23.45    1.63
   2  -1   6   23.71    1.12
  -2  -1  -6   23.16    1.01
   2  -1   6   23.45    1.62
  -2  -1  -6   22.53    1.58
   2  -1   6   23.25    1.37
   2  -1   6   24.23    1.03
  -2  -1  -6   24.05    1.11
   2   1   6   19.59    1.57
   2   1   6   23.75    1.03
  -2   1  -6   23.39    1.39
  -2   1  -6   23.75    1.29
  -2   1  -6   23.25    1.27
  -2   1  -6   21.28    1.08
   2   1   6   23.33    1.46
   2   1   6   24.56    1.21
   2   1   6   21.47    1.03
  -2   1  -6   23.70    0.98
  -2   1  -6   23.99    1.68
  -3  -1  -6   16.30    0.80
   3  -1   6   17.27    0.99
  -3  -1  -6   15.80    0.66
  -3  -1  -6   16.77    1.75
   3  -1   6   15.35    2.02
  -3  -1  -6   16.18    0.70
   3  -1   6   15.11    0.63
  -3  -1  -6   16.15    1.57
  -3  -1  -6   13.50    1.18
  -3  -1  -6   16.44    0.83
   3  -1   6   18.18    2.44
   3   1   6   14.70    0.87
   3   1   6   15.24    0.90
   3   1   6   12.33    1.88
  -3   1  -6   15.02    1.73
  -3   1  -6   16.40    0.92
  -3   1  -6   12.66    1.76
   3   1   6   16.42    2.37
  -3   1  -6   15.48    0.60
  -4  -1  -6   19.83    0.80
  -4  -1  -6   19.55    1.09
   4  -1   6   18.59    1.34
  -4  -1  -6   18.90    0.76
  -4   1  -6   17.18    1.15
  -4   1  -6   17.81    0.73
   4   1   6   18.38    1.05
  -5  -2   6    1.18    0.11
  -5   2   6    1.87    0.20
  -4  -2   6   13.49    0.83
  -4  -2   6   14.93    0.61
  -4  -2   6   14.11    0.79
  -4  -2   6   14.56    1.01
  -4  -2   6   15.29    0.63
   4  -2  -6   14.53    0.61
  -4  -2   6   14.66    0.61
   4  -2  -6   15.09    1.47
  -4  -2   6   15.41    0.59
  -4   2   6   15.13    0.60
   4   2  -6   15.45    1.30
   4   2  -6   11.43    1.35
  -4   2   6   13.98    0.98
   3  -2  -6   32.12    1.24
  -3  -2   6   30.13    2.06
  -3  -2   6   31.94    1.39
  -3  -2   6   31.28    1.24
  -3  -2   6   32.08    2.86
   3  -2  -6   29.87    1.24
  -3  -2   6   30.42    1.23
  -3  -2   6   30.78    1.25
   3  -2  -6   29.49    2.51
   3  -2  -6   30.97    1.20
  -3  -2   6   32.24    1.27
   3  -2  -6   31.10    1.69
   3  -2  -6   31.26    3.37
   3  -2  -6   32.78    1.54
  -3  -2   6   31.44    1.32
  -3  -2   6   30.89    1.48
  -3  -2   6   30.99    1.87
   3   2  -6   29.27    1.94
   3   2  -6   25.11    1.69
  -3   2   6   30.53    1.30
   3   2  -6   26.97    1.39
  -3   2   6   30.47    1.27
  -3   2   6   26.33    1.95
   3   2  -6   24.71    3.37
   3   2  -6   25.77    2.21
  -3   2   6   27.22    2.11
   2  -2  -6   13.62    1.09
   2  -2  -6   13.71    0.79
  -2  -2   6   13.45    0.88
   2  -2  -6   14.56    0.62
   2  -2  -6   13.75    1.17
  -2  -2   6   14.33    0.69
  -2  -2   6   13.64    0.91
  -2  -2   6   12.93    0.94
  -2  -2   6   14.23    0.59
  -2  -2   6   13.09    1.35
   2  -2  -6   12.80    0.94
   2  -2  -6   13.53    1.56
  -2  -2   6   14.28    1.05
  -2  -2   6   13.77    0.71
  -2  -2   6   13.98    0.75
   2  -2  -6   12.72    1.25
  -2  -2   6   13.79    0.63
  -2   2   6   14.47    1.08
   2   2  -6   12.51    0.69
  -2   2   6   13.00    0.65
  -2   2   6   13.06    0.71
  -2   2   6   13.32    0.74
   2   2  -6   13.18    1.01
  -2   2   6   12.71    1.32
   2   2  -6   14.41    1.06
   2   2  -6   12.11    0.83
   2   2  -6   14.12    1.69
  -2   2   6   13.87    1.15
  -2   2   6   13.20    0.94
   1  -2  -6   16.69    0.66
   1  -2  -6   15.52    0.79
  -1  -2   6   16.37    0.83
  -1  -2   6   15.42    0.88
   1  -2  -6   16.72    0.93
   1  -2  -6   16.03    1.00
  -1  -2   6   15.46    1.08
  -1  -2   6   16.02    0.77
  -1  -2   6   16.15    0.68
   1  -2  -6   16.49    0.95
  -1  -2   6   15.48    0.64
  -1  -2   6   16.23    0.72
  -1  -2   6   16.53    0.83
  -1  -2   6   15.30    0.83
   1  -2  -6   16.27    1.01
  -1   2   6   16.29    0.74
   1   2  -6   17.38    0.70
  -1   2   6   15.85    0.86
  -1   2   6   14.19    0.69
   1   2  -6   15.11    0.78
   1   2  -6   14.67    0.95
  -1   2   6   13.75    0.83
   1   2  -6   13.94    0.83
   1   2  -6   15.35    0.79
   0  -2   6  457.20   16.58
   0  -2  -6  463.45   16.74
   0  -2   6  427.86   16.50
   0  -2   6  425.44   16.50
   0  -2   6  438.42   16.81
   0  -2   6  433.82   16.44
   0  -2   6  445.78   16.58
   0  -2  -6  431.35   16.54
   0  -2  -6  446.80   16.65
   0  -2   6  443.50   16.56
   0  -2   6  449.52   16.67
   0  -2  -6  411.93   16.50
   0  -2  -6  412.48   16.46
   0  -2  -6  440.54   16.62
   0  -2   6  428.61   16.54
   0  -2  -6  428.26   16.56
   0   2  -6  409.39   15.60
   0   2   6  423.29   15.54
   0   2   6  424.79   15.51
   0   2  -6  388.04   15.45
   0   2   6  427.12   15.55
   0   2   6  392.45   15.45
   0   2   6  415.12   15.44
   0   2  -6  418.12   15.53
   0   2  -6  404.94   15.49
   0   2  -6  389.20   15.42
   0   2  -6  406.71   15.53
  -1  -2  -6  106.52    4.39
   1  -2   6  112.62    4.63
  -1  -2  -6  109.92    4.32
  -1  -2  -6  114.01    4.48
   1  -2   6  113.91    4.46
   1  -2   6  112.58    4.30
   1  -2   6  108.42    4.55
   1  -2   6  115.72    4.47
   1  -2   6  109.06    4.31
   1  -2   6  109.88    4.41
   1  -2   6  110.65    4.23
   1  -2   6  114.87    4.33
  -1  -2  -6  109.33    4.27
   1  -2   6  112.49    4.33
  -1  -2  -6  108.92    4.44
  -1  -2  -6  111.97    4.47
  -1  -2  -6  110.27    4.23
   1   2   6   98.97    4.20
  -1   2  -6  108.40    4.25
  -1   2  -6  104.92    4.00
  -1   2  -6  100.33    3.99
  -1   2  -6  105.56    4.10
   1   2   6  106.96    4.00
   1   2   6  102.76    4.05
  -1   2  -6  107.17    4.09
   1   2   6   96.43    4.02
   1   2   6  107.74    4.33
  -1   2  -6  104.66    4.12
   1   2   6  106.90    4.07
  -1   2  -6  103.28    4.17
  -2  -2  -6   47.87    2.12
   2  -2   6   52.09    2.08
  -2  -2  -6   50.91    2.04
   2  -2   6   49.51    2.05
   2  -2   6   51.30    2.12
   2  -2   6   49.69    2.33
   2  -2   6   53.89    2.73
   2  -2   6   52.40    2.13
  -2  -2  -6   52.14    2.01
   2  -2   6   51.90    2.69
  -2  -2  -6   52.88    2.53
  -2  -2  -6   48.46    2.39
   2  -2   6   47.44    2.58
   2  -2   6   50.97    2.40
  -2  -2  -6   50.18    2.39
   2  -2   6   52.26    2.00
   2   2   6   41.82    1.87
  -2   2  -6   46.78    1.84
   2   2   6   44.87    1.91
   2   2   6   47.43    2.32
  -2   2  -6   48.63    2.15
   2   2   6   46.02    2.02
  -2   2  -6   44.54    2.28
  -2   2  -6   47.06    2.16
  -2   2  -6   48.56    1.88
  -2   2  -6   46.21    1.97
   2   2   6   43.90    2.52
  -2   2  -6   46.92    2.18
  -2   2  -6   46.48    2.15
  -3  -2  -6    4.06    1.23
  -3  -2  -6    1.64    1.66
   3  -2   6    3.62    1.73
   3  -2   6    3.24    0.19
  -3  -2  -6    2.60    0.37
   3  -2   6    2.41    0.28
   3  -2   6    2.76    0.63
   3  -2   6    1.99    1.39
  -3  -2  -6    2.74    1.12
  -3  -2  -6    2.98    0.42
  -3  -2  -6    3.04    0.27
  -3  -2  -6    2.74    0.54
  -3  -2  -6    3.93    0.44
   3   2   6    3.75    1.89
   3   2   6    1.56    1.26
  -3   2  -6    1.82    1.28
  -3   2  -6   -0.46    1.21
   3   2   6    1.94    0.35
  -3   2  -6    2.69    0.58
   3   2   6    4.09    1.09
   4  -2   6    3.49    0.65
  -4  -2  -6    4.05    0.22
  -4  -2  -6    4.84    0.67
  -4  -2  -6    3.92    0.26
  -4  -2  -6    4.04    0.30
   4   2   6    3.57    0.71
  -4   2  -6    5.22    0.82
  -4   2  -6    3.60    0.23
  -4  -3   6   15.44    0.64
  -4  -3   6   15.46    0.88
  -4  -3   6   15.37    0.62
  -4  -3   6   16.76    0.65
   4  -3  -6   15.84    0.64
  -4  -3   6   13.04    1.19
  -4  -3   6   16.28    0.63
  -4  -3   6   16.78    0.93
  -4  -3   6   14.30    0.78
   4   3  -6   13.03    1.15
  -4   3   6   13.72    0.58
   4   3  -6   10.07    1.48
  -3  -3   6  122.47    4.70
  -3  -3   6  124.96    4.91
  -3  -3   6  121.45    4.72
   3  -3  -6  121.01    4.66
  -3  -3   6  124.73    4.68
   3  -3  -6  124.14    4.69
  -3  -3   6  122.41    4.69
  -3  -3   6  125.25    4.84
   3  -3  -6  119.45    4.69
   3  -3  -6  128.89    4.97
  -3  -3   6  122.54    4.77
   3   3  -6   96.39    4.46
  -3   3   6  112.86    4.12
   3   3  -6  102.74    4.18
  -2  -3   6   43.16    2.54
   2  -3  -6   41.16    2.33
   2  -3  -6   41.72    2.18
  -2  -3   6   40.73    1.96
  -2  -3   6   41.37    1.71
   2  -3  -6   42.08    1.63
   2  -3  -6   42.55    2.17
  -2  -3   6   40.81    1.61
  -2  -3   6   38.48    1.89
  -2  -3   6   40.76    1.77
  -2  -3   6   41.85    1.66
   2  -3  -6   41.74    1.83
  -2  -3   6   37.40    2.02
   2   3  -6   40.93    1.93
  -2   3   6   38.62    1.69
  -2   3   6   39.17    2.20
  -2   3   6   42.11    2.34
   2   3  -6   40.58    2.10
  -2   3   6   39.21    2.06
   2   3  -6   36.54    1.64
   2   3  -6   39.29    2.87
  -2   3   6   37.61    1.64
   1  -3  -6   98.30    4.05
  -1  -3   6   98.69    3.77
  -1  -3   6   96.96    3.67
  -1  -3   6   97.82    3.80
  -1  -3   6   97.93    3.76
  -1  -3   6   96.82    3.87
  -1  -3   6   96.09    3.92
   1  -3  -6   96.96    3.83
  -1  -3   6   96.54    3.71
  -1  -3   6   93.20    4.14
  -1  -3   6   94.66    3.87
   1  -3  -6   97.20    3.77
   1  -3  -6   96.22    3.68
   1  -3  -6   98.08    4.09
  -1  -3   6   87.25    4.28
  -1  -3   6   97.14    3.82
   1  -3  -6   98.42    3.95
   1  -3  -6   98.71    4.10
  -1   3   6   91.90    3.49
   1   3  -6   89.06    3.61
  -1   3   6   86.31    3.46
   1   3  -6   88.95    3.51
   1   3  -6   90.44    3.72
  -1   3   6   86.97    3.62
   1   3  -6   79.23    3.43
  -1   3   6   91.07    3.60
   1   3  -6   95.39    3.55
   0  -3   6   57.87    2.35
   0  -3   6   56.04    2.27
   0  -3   6   57.82    2.26
   0  -3   6   51.55    2.40
   0  -3  -6   56.40    2.17
   0  -3  -6   55.18    2.30
   0  -3  -6   56.63    2.27
   0  -3   6   58.32    2.16
   0  -3   6   57.10    2.30
   0  -3   6   56.35    2.27
   0  -3   6   59.16    2.33
   0  -3  -6   56.70    2.52
   0  -3  -6   57.94    2.52
   0  -3   6   56.62    2.57
   0  -3   6   56.57    2.72
   0  -3  -6   53.23    2.40
   0   3   6   53.76    2.03
   0   3  -6   51.48    2.01
   0   3   6   49.87    2.05
   0   3   6   52.94    2.22
   0   3  -6   50.00    2.01
   0   3   6   49.19    2.12
   0   3   6   53.40    2.19
   0   3  -6   50.78    2.25
   0   3  -6   52.10    2.18
   0   3  -6   52.57    2.09
  -1  -3  -6  104.72    4.08
  -1  -3  -6  106.88    4.38
   1  -3   6  109.34    4.08
  -1  -3  -6  105.25    4.42
   1  -3   6  109.02    4.36
   1  -3   6  110.31    4.66
   1  -3   6  104.06    4.45
   1  -3   6  110.02    4.44
  -1  -3  -6  106.00    4.21
   1  -3   6  107.16    4.19
   1  -3   6  106.62    4.16
   1  -3   6  106.33    4.21
  -1  -3  -6  105.81    4.13
  -1  -3  -6  105.82    4.35
   1  -3   6  106.39    4.17
   1  -3   6  109.57    4.36
   1   3   6   92.02    3.71
  -1   3  -6   95.47    3.93
  -1   3  -6   91.75    3.68
   1   3   6   96.98    3.97
   1   3   6   94.37    4.10
  -1   3  -6   97.56    3.79
  -1   3  -6   92.93    4.01
   1   3   6   96.37    3.75
  -1   3  -6   97.33    3.82
  -1   3  -6   96.40    3.87
   1   3   6   96.68    3.68
  -1   3  -6   95.34    3.67
   2  -3   6    4.48    1.20
  -2  -3  -6    4.88    0.97
   2  -3   6    7.75    1.29
   2  -3   6    5.14    0.57
   2  -3   6    5.33    1.17
  -2  -3  -6    5.16    0.98
   2  -3   6    5.36    0.81
  -2  -3  -6    4.52    0.40
   2  -3   6    3.49    1.01
  -2  -3  -6    4.37    0.34
  -2  -3  -6    3.98    0.86
  -2  -3  -6    5.33    0.58
   2  -3   6    4.53    0.48
   2  -3   6    4.68    0.37
   2   3   6    3.27    0.92
   2   3   6    5.06    0.78
  -2   3  -6    4.09    0.36
  -2   3  -6    3.43    0.52
  -2   3  -6    3.23    0.73
   2   3   6    5.45    0.80
  -2   3  -6    4.62    0.91
   2   3   6    5.24    1.38
  -3  -3  -6   23.10    1.36
  -3  -3  -6   24.95    1.10
  -3  -3  -6   24.25    1.02
  -3  -3  -6   23.48    1.13
   3  -3   6   26.04    1.32
   3  -3   6   24.16    0.95
   3  -3   6   24.01    1.00
  -3  -3  -6   23.45    0.98
   3   3   6   20.26    1.04
  -3   3  -6   20.48    1.18
   3   3   6   19.93    1.11
  -4  -3  -6    5.72    0.71
   4  -3   6    7.40    1.08
  -4  -3  -6    6.62    0.31
  -4  -3  -6    6.79    0.32
  -4   3  -6    6.15    0.29
   4   3   6    5.30    0.78
  -4   3  -6    5.21    0.88
  -4  -4   6   44.18    1.84
  -4  -4   6   49.65    1.84
   4  -4  -6   53.14    1.82
  -4  -4   6   47.83    1.85
  -4  -4   6   45.68    1.83
   3  -4  -6   24.20    1.24
  -3  -4   6   24.03    0.94
  -3  -4   6   23.27    1.00
  -3  -4   6   22.99    1.15
   3  -4  -6   22.48    1.33
   3  -4  -6   23.64    0.94
  -3  -4   6   23.36    0.96
   3  -4  -6   23.11    0.94
   3  -4  -6   22.89    0.91
  -3  -4   6   22.81    0.94
  -3  -4   6   24.15    1.08
  -3  -4   6   25.42    1.28
   3   4  -6   19.86    1.17
   3   4  -6   21.86    1.79
  -3   4   6   21.02    1.07
   2  -4  -6   96.50    4.42
  -2  -4   6   85.05    3.82
  -2  -4   6   96.27    3.59
  -2  -4   6   88.55    3.85
  -2  -4   6   87.25    3.97
   2  -4  -6   91.94    4.13
  -2  -4   6   89.19    3.49
  -2  -4   6   94.21    3.71
   2  -4  -6   88.74    3.50
  -2  -4   6   93.39    3.65
  -2  -4   6   89.98    3.50
   2  -4  -6   94.01    3.76
   2  -4  -6   95.17    3.66
  -2  -4   6   93.70    3.51
   2  -4  -6   91.67    4.26
   2  -4  -6   89.66    3.50
  -2  -4   6   94.07    4.71
   2  -4  -6   93.37    3.54
   2   4  -6   81.96    3.28
  -2   4   6   83.72    3.69
   2   4  -6   80.28    3.67
  -2   4   6   80.70    3.72
  -2   4   6   81.33    3.29
   2   4  -6   90.55    4.97
  -2   4   6   82.22    3.33
  -2   4   6   89.79    4.16
   2   4  -6   75.03    3.56
   1  -4  -6    8.17    1.27
  -1  -4   6   13.11    1.81
   1  -4  -6    9.79    1.50
  -1  -4   6    9.67    0.56
  -1  -4   6    8.64    1.02
  -1  -4   6    8.42    1.20
   1  -4  -6    9.61    0.59
  -1  -4   6    9.06    0.67
  -1  -4   6    8.38    0.81
  -1  -4   6    9.37    0.42
  -1  -4   6    9.13    0.50
  -1  -4   6    9.17    0.61
  -1  -4   6   10.17    0.77
   1  -4  -6    9.19    0.43
   1  -4  -6    8.90    0.68
   1  -4  -6    9.58    0.91
   1   4  -6    8.14    0.75
  -1   4   6    8.10    0.51
  -1   4   6    8.41    0.57
   1   4  -6    8.37    1.12
  -1   4   6    7.55    0.84
  -1   4   6    7.46    1.03
   0  -4   6    4.76    0.73
   0  -4   6    4.40    0.39
   0  -4  -6    3.87    0.83
   0  -4  -6    3.50    0.40
   0  -4   6    3.61    0.49
   0  -4   6    3.48    0.39
   0  -4   6    3.53    0.23
   0  -4   6    6.01    0.90
   0  -4   6    3.57    0.96
   0  -4  -6    3.91    0.91
   0  -4  -6    3.79    0.51
   0  -4   6    3.15    1.04
   0  -4   6    4.46    0.55
   0  -4  -6    3.66    0.66
   0  -4   6    3.71    0.47
   0  -4  -6    3.85    0.23
   0   4   6    3.88    0.67
   0   4  -6    3.01    0.25
   0   4  -6    3.97    0.59
   0   4   6    2.66    0.44
   0   4  -6    2.49    0.57
   0   4   6    3.08    0.36
   0   4  -6    3.88    0.62
   0   4  -6    3.17    0.29
   0   4  -6    3.56    0.43
   1  -4   6  197.06    8.40
   1  -4   6  222.85    8.52
  -1  -4  -6  220.09    8.24
  -1  -4  -6  217.05    8.35
   1  -4   6  218.27    8.18
   1  -4   6  220.53    8.57
   1  -4   6  219.40    8.97
  -1  -4  -6  211.86    8.49
   1  -4   6  214.79    8.62
   1  -4   6  225.26    8.31
  -1  -4  -6  213.82    8.54
  -1  -4  -6  208.17    8.66
  -1  -4  -6  215.95    8.17
   1  -4   6  216.73    8.33
   1   4   6  194.77    7.22
   1   4   6  198.07    7.82
  -1   4  -6  181.03    7.57
  -1   4  -6  195.45    7.37
  -1   4  -6  178.06    7.27
  -1   4  -6  197.86    7.51
   1   4   6  179.65    7.59
   1   4   6  187.34    7.27
   1   4   6  189.65    7.32
  -1   4  -6  193.75    7.71
   2  -4   6    4.47    0.62
   2  -4   6    4.15    1.46
   2  -4   6    5.52    1.60
   2  -4   6    4.64    0.32
  -2  -4  -6    4.62    0.37
   2  -4   6    4.45    0.31
   2  -4   6    4.91    1.27
   2  -4   6    5.43    0.58
   2  -4   6    3.60    1.40
  -2  -4  -6    3.94    0.47
  -2  -4  -6    4.41    0.34
  -2  -4  -6    4.42    0.31
  -2  -4  -6    3.09    1.19
  -2  -4  -6    2.89    1.31
  -2  -4  -6    4.51    0.66
   2  -4   6    4.92    0.64
  -2  -4  -6    6.32    1.39
   2  -4   6    4.56    0.40
  -2   4  -6    3.13    0.35
   2   4   6    4.84    1.82
   2   4   6    3.37    0.42
  -2   4  -6    2.42    0.88
  -2   4  -6    2.59    1.23
  -2   4  -6    2.78    1.16
  -2   4  -6    4.09    1.07
   2   4   6    2.74    0.74
   2   4   6    5.52    1.41
  -3  -4  -6   19.15    0.97
  -3  -4  -6   20.35    1.40
  -3  -4  -6   19.44    0.81
   3  -4   6   18.52    0.83
  -3  -4  -6   22.33    1.09
  -3  -4  -6   19.37    0.84
   3  -4   6   21.22    1.22
   3  -4   6   19.27    0.79
  -3   4  -6   17.74    1.16
   3   4   6   15.13    0.98
   3   4   6   15.43    0.88
  -4  -4  -6    6.94    0.31
  -4  -4  -6    6.55    0.30
  -4  -4  -6    6.61    0.33
  -4   4  -6    5.93    0.28
   3  -5  -6    2.64    0.18
  -3  -5   6    2.60    0.18
  -3  -5   6    2.55    0.18
   3  -5  -6    3.57    0.85
  -3  -5   6    2.14    0.35
  -3  -5   6    1.97    0.34
   3  -5  -6    2.83    0.14
   3   5  -6    2.90    0.72
  -3   5   6    2.68    0.44
   3   5  -6    3.73    1.08
   2  -5  -6    9.25    0.42
   2  -5  -6    7.57    0.81
  -2  -5   6    6.78    1.04
  -2  -5   6    8.72    0.47
  -2  -5   6    8.54    0.84
  -2  -5   6    7.88    0.68
   2  -5  -6    9.53    0.81
  -2  -5   6    9.49    0.58
   2  -5  -6    8.92    0.40
   2  -5  -6    8.81    0.50
  -2  -5   6    8.91    0.41
  -2  -5   6    8.82    0.40
   2   5  -6    9.80    0.70
  -2   5   6    8.42    0.64
  -2   5   6    8.19    0.65
  -1  -5   6   24.47    0.98
  -1  -5   6   18.69    2.46
  -1  -5   6   24.99    1.15
  -1  -5   6   24.53    1.37
   1  -5  -6   24.58    1.00
  -1  -5   6   23.48    1.27
   1  -5  -6   24.73    1.21
  -1  -5   6   29.63    3.36
   1  -5  -6   24.56    0.98
   1  -5  -6   25.12    1.29
   1  -5  -6   23.80    1.66
  -1  -5   6   24.44    0.99
   1  -5  -6   23.08    0.98
  -1  -5   6   22.29    1.52
   1  -5  -6   20.03    2.43
  -1  -5   6   24.40    0.97
  -1  -5   6   24.74    0.98
   1  -5  -6   24.76    2.32
  -1  -5   6   24.78    1.21
  -1   5   6   20.74    1.43
  -1   5   6   17.75    0.97
   1   5  -6   20.87    1.37
   1   5  -6   18.15    0.96
   1   5  -6   19.65    1.80
  -1   5   6   20.61    0.97
  -1   5   6   19.25    2.22
   1   5  -6   23.42    3.54
   1   5  -6   20.29    2.18
  -1   5   6   20.07    1.82
   0  -5   6   10.52    0.70
   0  -5   6   11.73    2.31
   0  -5  -6   10.74    1.14
   0  -5   6   10.64    0.50
   0  -5  -6   11.02    0.85
   0  -5   6   10.26    0.85
   0  -5  -6   12.35    1.91
   0  -5  -6   10.94    0.50
   0  -5   6   11.65    0.74
   0  -5   6   10.54    0.50
   0  -5  -6   11.21    0.78
   0  -5  -6   10.46    0.51
   0  -5   6    9.87    1.29
   0  -5   6   11.29    0.51
   0  -5   6    9.58    1.26
   0  -5   6   11.26    0.76
   0   5  -6   10.57    0.98
   0   5   6   10.51    0.57
   0   5   6   10.15    1.54
   0   5  -6   11.05    1.45
   0   5  -6    9.19    0.50
   0   5  -6   12.17    1.42
   0   5   6    8.54    0.67
   0   5   6   10.23    0.98
   1  -5   6  108.16    4.28
  -1  -5  -6  104.44    4.05
   1  -5   6   97.83    4.60
   1  -5   6  108.02    5.48
   1  -5   6  108.65    4.04
  -1  -5  -6   99.12    5.05
   1  -5   6  112.99    4.31
   1  -5   6  110.85    4.22
  -1  -5  -6  102.84    4.56
  -1  -5  -6  104.12    4.27
  -1  -5  -6  104.02    4.05
   1  -5   6  107.52    4.06
   1  -5   6  107.12    4.04
   1  -5   6  101.55    4.76
  -1   5  -6   90.49    4.13
  -1   5  -6   89.81    3.50
  -1   5  -6   87.25    3.78
   1   5   6   97.70    3.48
   1   5   6   82.90    3.71
  -1   5  -6   81.28    4.31
   1   5   6   95.23    4.66
  -2  -5  -6   22.45    0.95
   2  -5   6   24.25    1.28
  -2  -5  -6   22.52    0.92
   2  -5   6   23.46    1.31
  -2  -5  -6   22.41    1.33
  -2  -5  -6   21.70    1.00
   2  -5   6   22.77    0.93
  -2  -5  -6   22.65    1.13
   2  -5   6   22.65    0.94
   2  -5   6   21.89    1.01
   2  -5   6   23.13    1.18
   2   5   6   18.28    1.10
   2   5   6   20.53    0.91
  -2   5  -6   17.84    1.13
  -2   5  -6   18.82    0.90
   3  -5   6    3.13    0.23
   3  -5   6    4.26    0.96
   3  -5   6    3.00    0.17
  -3  -5  -6    1.53    0.70
  -3  -5  -6    4.31    0.52
  -3  -5  -6    3.13    0.25
  -3  -5  -6    2.58    0.46
  -3  -5  -6    2.95    0.21
   3  -5   6    2.98    0.22
   3   5   6    1.47    0.52
  -3   5  -6    2.35    0.51
   3   5   6    2.02    0.50
  -3  -6   6   29.33    1.11
   3  -6  -6   28.87    1.11
   3  -6  -6   30.04    1.10
  -3  -6   6   26.71    1.11
   2  -6  -6   13.88    0.67
  -2  -6   6   13.98    0.55
   2  -6  -6   15.10    1.06
  -2  -6   6   12.85    0.56
  -2  -6   6   10.64    1.11
   2  -6  -6   13.62    0.55
  -2  -6   6   13.01    0.98
  -2  -6   6   11.89    0.63
   2   6  -6    9.88    0.90
  -2   6   6   12.54    0.79
  -2   6   6   11.71    0.74
  -1  -6   6    3.48    0.24
  -1  -6   6    3.73    0.68
   1  -6  -6    3.57    0.29
  -1  -6   6    3.44    0.34
  -1  -6   6    3.45    0.26
   1  -6  -6    3.41    0.23
   1  -6  -6    4.75    0.92
   1  -6  -6    3.82    0.73
   1  -6  -6    3.76    0.32
  -1   6   6    2.68    0.57
  -1   6   6    3.40    0.48
   1   6  -6    2.86    0.40
   0  -6   6   56.61    2.24
   0  -6   6   58.92    2.22
   0  -6  -6   60.53    2.58
   0  -6   6   57.30    2.22
   0  -6   6   55.28    2.46
   0  -6  -6   56.48    2.22
   0  -6  -6   56.68    2.25
   0  -6   6   57.14    2.46
   0   6   6   40.46    1.95
  -1  -6  -6    1.34    0.23
   1  -6   6    2.05    0.26
  -1  -6  -6    1.22    0.25
   1  -6   6    1.52    0.18
   1  -6   6    1.40    0.17
   1  -6   6    1.22    0.47
   1  -6   6    1.04    0.35
   1  -6   6    1.47    0.41
  -1   6  -6    1.35    0.29
  -1   6  -6    0.41    0.36
   1   6   6    0.96    0.26
  -2  -6  -6   23.87    0.98
   2  -6   6   23.58    1.35
  -2  -6  -6   24.53    1.08
  -2  -6  -6   24.66    1.49
   2  -6   6   24.20    1.46
   2  -6   6   24.33    0.97
   2  -6   6   22.83    1.08
   2  -6   6   23.83    1.25
   2  -6   6   24.30    0.96
   2   6   6   17.45    0.90
  -2   6  -6   16.85    1.26
  -2   6  -6   19.05    0.90
  -3  -6  -6    3.21    0.20
  -3  -6  -6    3.29    0.22
   3  -6   6    3.20    0.19
   3  -6   6    3.43    0.16
   2  -7  -6   10.55    0.40
   2  -7  -6    9.85    0.40
  -2  -7   6    8.67    0.47
  -1  -7   6   15.76    0.65
   1  -7  -6   16.00    0.64
   0  -7   6    3.79    0.22
   0  -7   6    4.15    0.23
   0  -7  -6    4.08    0.32
  -1  -7  -6   13.17    0.57
   1  -7   6   12.30    0.53
   1  -7   6   12.74    0.54
   2  -7   6    8.42    0.36
  -2  -7  -6    8.30    0.39
   2  -7   6    8.62    0.36
   2  -7   6    8.80    0.37
   5   0  -7    2.23    0.15
  -5   0   7    2.24    0.15
   4   0  -7   10.31    0.48
  -4   0   7   10.71    0.48
  -4   0   7   11.65    0.77
  -4   0   7   11.09    0.43
   4   0  -7   10.27    1.33
  -3   0   7    9.92    0.62
  -3   0   7    9.27    0.40
  -3   0   7    9.55    0.46
   3   0  -7   10.55    2.09
  -3   0   7    8.89    1.32
   3   0  -7   10.23    1.08
  -2   0   7   95.74    3.49
  -2   0   7   93.16    3.66
   2   0  -7   76.31    3.70
   2   0  -7   97.94    3.85
   2   0  -7   95.43    3.63
  -2   0   7   94.41    3.56
  -2   0   7   87.71    3.87
   2   0  -7   96.18    3.86
   2   0  -7   85.65    3.63
  -2   0   7   94.44    3.71
  -2   0   7   89.52    3.55
  -2   0   7   89.21    3.58
   2   0  -7   90.19    3.66
  -2   0   7   94.36    3.81
   1   0  -7  119.35    4.74
  -1   0   7  109.33    4.41
  -1   0   7  106.67    4.90
   1   0  -7  121.84    4.45
  -1   0   7  114.55    4.39
  -1   0   7  116.77    4.52
  -1   0   7  116.45    4.41
  -1   0   7  107.47    4.46
  -1   0   7  115.80    4.51
   1   0  -7  107.83    4.61
   1   0  -7  114.20    4.53
  -1   0   7  117.53    4.43
  -1   0   7  122.84    4.36
   0   0   7  132.01    4.99
   0   0   7  131.18    5.02
   0   0   7  116.87    5.04
   0   0   7  122.04    4.97
   0   0  -7  128.85    4.98
   0   0  -7  132.42    4.98
   0   0  -7  135.27    5.08
   0   0   7  116.69    5.05
   0   0   7  131.64    4.90
   0   0   7  128.83    4.86
   0   0   7  132.92    5.06
   0   0  -7  129.50    4.95
   0   0  -7  138.39    5.11
   0   0   7  121.57    4.90
   0   0  -7  124.49    4.92
   1   0   7    0.88    0.29
  -1   0  -7    1.48    0.18
  -1   0  -7    0.99    0.37
  -1   0  -7    1.28    0.35
   1   0   7    1.21    0.50
  -1   0  -7    1.85    0.60
   1   0   7    2.25    0.35
   1   0   7    1.35    0.44
  -1   0  -7    1.39    0.45
  -1   0  -7    1.45    0.32
   1   0   7    1.40    0.37
   1   0   7    0.93    0.39
  -1   0  -7    1.35    0.23
  -1   0  -7    1.20    0.27
   1   0   7    1.59    0.36
   1   0   7    1.92    0.61
   1   0   7    1.79    0.28
   1   0   7    0.93    0.16
  -1   0  -7    1.30    0.33
  -1   0  -7    1.46    0.37
  -2   0  -7    0.24    0.14
  -2   0  -7    0.24    0.57
  -2   0  -7    0.15    0.26
  -2   0  -7    0.36    0.55
   2   0   7    0.24    0.17
   2   0   7    0.80    0.60
   2   0   7    0.66    0.32
   2   0   7    0.86    0.78
  -2   0  -7   -0.50    0.49
   2   0   7    0.69    0.74
   3   0   7    3.17    1.58
   3   0   7    4.79    1.20
  -3   0  -7    0.84    1.00
  -3   0  -7    2.71    0.70
   3   0   7    2.69    0.47
  -3   0  -7    1.82    0.28
   3   0   7    2.12    0.54
  -3   0  -7    2.48    0.18
  -3   0  -7    3.06    0.30
  -3   0  -7    3.34    1.34
  -4   0  -7    7.30    0.30
   5  -1  -7    0.64    0.12
  -5  -1   7    0.84    0.11
   5   1  -7    0.98    0.12
  -5   1   7    0.95    0.12
  -4  -1   7    0.62    0.29
   4  -1  -7    0.56    0.69
   4  -1  -7    0.71    0.14
  -4  -1   7    0.80    0.16
  -4  -1   7    0.75    0.11
   4   1  -7   -0.23    0.68
  -4   1   7    0.29    0.35
   3  -1  -7   11.45    1.59
   3  -1  -7   14.77    0.66
  -3  -1   7   16.14    0.95
   3  -1  -7   14.48    1.02
  -3  -1   7   15.51    0.70
  -3  -1   7   15.69    0.65
  -3  -1   7   15.42    0.81
  -3  -1   7   15.05    0.62
   3  -1  -7   15.62    1.22
  -3  -1   7   14.95    0.73
  -3  -1   7   18.81    2.67
   3  -1  -7   17.52    2.92
  -3  -1   7   14.46    0.65
  -3  -1   7   14.69    1.42
  -3   1   7   15.71    0.82
   3   1  -7   13.83    1.03
  -3   1   7   16.75    1.62
   3   1  -7   12.87    1.23
  -3   1   7   14.88    0.58
   3   1  -7   15.84    1.64
  -3   1   7   14.92    0.82
  -3   1   7   14.98    0.64
   3   1  -7   11.92    2.96
  -3   1   7   16.33    1.69
  -2  -1   7   47.86    2.11
   2  -1  -7   44.51    2.21
  -2  -1   7   45.78    2.34
  -2  -1   7   44.98    1.85
  -2  -1   7   46.03    2.04
   2  -1  -7   38.25    2.55
  -2  -1   7   46.94    1.85
  -2  -1   7   46.27    1.80
  -2  -1   7   45.34    1.98
  -2  -1   7   47.82    1.78
   2  -1  -7   47.25    1.94
  -2  -1   7   44.69    1.89
   2   1  -7   43.64    2.12
  -2   1   7   43.10    1.92
   2   1  -7   43.23    1.85
   2   1  -7   44.11    1.97
  -2   1   7   43.85    1.98
   2   1  -7   42.83    2.58
  -2   1   7   42.96    1.77
   2   1  -7   42.22    1.84
  -2   1   7   43.66    1.78
   2   1  -7   46.65    2.18
  -1  -1   7   16.53    1.09
  -1  -1   7   16.09    0.89
  -1  -1   7   16.35    0.77
   1  -1  -7   18.39    1.08
   1  -1  -7   17.56    0.99
  -1  -1   7   16.92    0.79
   1  -1  -7   16.88    0.97
  -1  -1   7   16.76    0.91
  -1  -1   7   16.62    0.87
   1  -1  -7   17.75    0.72
   1  -1  -7   16.81    0.84
  -1  -1   7   17.56    0.75
  -1  -1   7   17.33    0.84
  -1  -1   7   16.66    0.69
   1  -1  -7   16.58    0.83
   1  -1  -7   17.72    0.72
  -1   1   7   16.60    0.81
  -1   1   7   18.42    0.99
   1   1  -7   16.64    0.87
   1   1  -7   16.90    0.77
  -1   1   7   17.24    0.90
  -1   1   7   17.19    0.99
   1   1  -7   16.58    1.20
   1   1  -7   17.55    1.01
   1   1  -7   17.14    0.91
   1   1  -7   15.95    0.82
  -1   1   7   15.86    0.77
  -1   1   7   16.96    0.74
  -1   1   7   15.96    0.82
   0  -1   7   63.88    2.54
   0  -1   7   63.34    2.42
   0  -1   7   60.96    2.68
   0  -1  -7   60.45    2.42
   0  -1   7   62.37    2.53
   0  -1  -7   59.76    2.55
   0  -1  -7   65.37    2.61
   0  -1   7   62.26    2.59
   0  -1  -7   64.60    2.38
   0  -1  -7   63.09    2.68
   0  -1   7   63.04    2.42
   0  -1   7   60.91    2.58
   0  -1  -7   62.98    2.47
   0  -1   7   63.18    2.43
   0  -1  -7   56.12    2.40
   0  -1   7   59.17    2.37
   0  -1   7   60.40    2.46
   0  -1   7   61.39    2.47
   0  -1  -7   64.01    2.55
   0   1  -7   60.38    2.42
   0   1  -7   63.97    2.38
   0   1   7   61.70    2.35
   0   1   7   61.28    2.55
   0   1  -7   54.84    2.53
   0   1   7   59.20    2.44
   0   1   7   60.60    2.45
   0   1   7   61.51    2.48
   0   1   7   58.74    2.35
   0   1   7   61.54    2.37
   0   1  -7   59.54    2.43
   0   1  -7   59.82    2.42
  -1  -1  -7   77.59    3.02
  -1  -1  -7   80.58    3.23
   1  -1   7   77.60    3.00
  -1  -1  -7   80.64    3.34
   1  -1   7   77.98    3.04
   1  -1   7   78.48    3.39
   1  -1   7   78.85    3.27
   1  -1   7   78.08    3.22
  -1  -1  -7   75.88    3.06
  -1  -1  -7   76.80    3.18
   1  -1   7   79.17    3.16
   1  -1   7   79.33    3.05
  -1  -1  -7   77.14    3.19
  -1  -1  -7   78.89    3.01
   1  -1   7   78.28    3.33
   1  -1   7   79.13    3.08
  -1  -1  -7   75.62    3.09
  -1   1  -7   75.57    3.00
  -1   1  -7   77.65    2.94
  -1   1  -7   74.65    3.15
  -1   1  -7   76.70    3.08
   1   1   7   69.38    2.94
   1   1   7   77.18    3.16
   1   1   7   71.02    3.27
   1   1   7   76.23    3.03
  -1   1  -7   80.18    3.02
   1   1   7   74.50    3.04
   1   1   7   75.45    2.96
  -1   1  -7   77.22    3.14
   1   1   7   82.70    2.97
  -2  -1  -7   37.95    1.47
  -2  -1  -7   36.55    1.84
   2  -1   7   34.85    1.87
  -2  -1  -7   33.57    2.15
   2  -1   7   35.79    1.57
   2  -1   7   37.17    2.13
  -2  -1  -7   35.83    1.48
  -2  -1  -7   36.20    1.85
   2  -1   7   36.18    1.49
   2  -1   7   37.45    2.15
  -2  -1  -7   34.59    1.58
  -2   1  -7   35.91    1.74
   2   1   7   29.65    2.02
  -2   1  -7   31.97    1.69
   2   1   7   34.15    1.69
  -2   1  -7   34.09    1.36
   2   1   7   34.69    1.40
   2   1   7   33.36    1.84
  -2   1  -7   30.09    1.47
   2   1   7   32.90    1.41
  -2   1  -7   32.31    1.78
  -3  -1  -7   18.51    0.73
  -3  -1  -7   18.54    0.90
  -3  -1  -7   15.07    2.05
  -3  -1  -7   17.12    0.76
  -3  -1  -7   18.47    0.95
  -3  -1  -7   18.00    1.82
   3  -1   7   16.61    2.96
   3  -1   7   16.43    2.30
   3  -1   7   17.18    0.97
   3  -1   7   17.93    0.70
   3  -1   7   19.44    1.12
  -3   1  -7   16.73    1.93
  -3   1  -7   18.08    0.91
  -3   1  -7   18.63    1.01
   3   1   7   17.28    0.93
   3   1   7   16.86    1.01
  -3   1  -7   14.87    2.07
  -3   1  -7   16.26    0.69
   3   1   7   15.62    2.08
   3   1   7   16.93    2.66
  -4  -1  -7   22.58    0.86
  -4  -1  -7   22.06    0.89
  -4  -1  -7   22.58    1.20
   4  -1   7   20.70    1.60
  -4   1  -7   20.06    0.81
   4   1   7   19.55    1.13
  -4   1  -7   20.51    1.38
  -4  -2   7    3.92    0.24
  -4  -2   7    3.86    0.19
  -4  -2   7    3.52    0.22
   4  -2  -7    3.51    0.23
  -4  -2   7    3.58    0.24
  -4  -2   7    2.91    0.55
  -4   2   7    3.68    0.24
  -3  -2   7    1.55    0.23
   3  -2  -7    1.64    0.22
   3  -2  -7    1.43    0.24
  -3  -2   7    1.87    0.23
  -3  -2   7    4.19    1.82
  -3  -2   7    1.67    0.20
  -3  -2   7    1.60    0.34
  -3  -2   7    1.46    0.25
  -3  -2   7    1.50    1.19
   3  -2  -7    2.61    1.52
   3  -2  -7    1.60    0.44
  -3  -2   7    1.48    0.23
   3  -2  -7    1.83    0.67
  -3  -2   7    2.48    0.97
   3  -2  -7    1.59    0.13
  -3   2   7    1.13    0.35
   3   2  -7    1.72    0.49
   3   2  -7    3.62    2.32
  -3   2   7    2.29    0.37
   3   2  -7    1.55    0.67
   3   2  -7   -0.66    1.37
   3   2  -7    3.66    1.19
  -3   2   7    2.76    1.18
  -2  -2   7   31.61    1.35
   2  -2  -7   28.14    1.82
  -2  -2   7   32.49    2.09
  -2  -2   7   28.91    1.52
  -2  -2   7   28.29    1.53
  -2  -2   7   31.12    1.68
  -2  -2   7   31.36    1.61
   2  -2  -7   31.72    1.45
   2  -2  -7   30.01    1.75
  -2  -2   7   31.32    1.29
  -2  -2   7   31.83    1.40
  -2  -2   7   32.23    1.25
  -2  -2   7   32.69    1.34
   2  -2  -7   32.68    1.28
   2  -2  -7   37.03    2.07
  -2   2   7   32.01    2.06
  -2   2   7   30.36    1.57
   2   2  -7   30.67    1.58
   2   2  -7   27.79    1.43
   2   2  -7   32.01    1.71
   2   2  -7   30.59    1.35
   2   2  -7   33.00    2.38
  -2   2   7   30.13    1.38
   2   2  -7   30.03    1.89
  -2   2   7   31.85    1.96
  -2   2   7   29.86    1.30
  -1  -2   7   29.71    1.21
   1  -2  -7   29.79    1.19
  -1  -2   7   29.84    1.24
   1  -2  -7   28.84    1.50
  -1  -2   7   31.09    1.40
  -1  -2   7   29.66    1.36
  -1  -2   7   29.55    1.26
  -1  -2   7   30.48    1.17
   1  -2  -7   30.52    1.50
   1  -2  -7   31.06    1.57
  -1  -2   7   29.73    1.29
   1  -2  -7   29.90    1.32
  -1  -2   7   29.49    1.36
  -1  -2   7   31.40    1.43
  -1  -2   7   29.55    1.63
   1  -2  -7   29.15    1.55
   1   2  -7   28.96    1.30
  -1   2   7   26.80    1.23
   1   2  -7   26.76    1.32
  -1   2   7   28.18    1.18
   1   2  -7   28.28    1.49
  -1   2   7   28.13    1.38
   1   2  -7   29.77    1.19
  -1   2   7   27.93    1.34
   1   2  -7   29.30    1.28
   0  -2   7  154.82    6.31
   0  -2  -7  157.90    5.96
   0  -2  -7  160.59    6.13
   0  -2   7  153.74    5.95
   0  -2  -7  150.84    5.89
   0  -2   7  157.09    5.88
   0  -2   7  157.99    6.01
   0  -2   7  156.62    6.08
   0  -2   7  153.78    6.16
   0  -2   7  155.99    5.95
   0  -2   7  158.43    6.06
   0  -2   7  156.62    5.96
   0  -2  -7  151.66    6.11
   0  -2  -7  154.98    6.14
   0  -2   7  150.97    6.02
   0   2   7  149.68    5.82
   0   2  -7  132.71    5.69
   0   2   7  152.76    5.59
   0   2  -7  149.79    5.69
   0   2  -7  146.65    5.55
   0   2   7  140.17    5.67
   0   2  -7  148.75    5.78
   0   2  -7  151.81    5.65
   0   2   7  149.42    5.67
   0   2   7  136.59    5.83
   0   2   7  148.06    5.57
   1  -2   7   91.92    3.55
  -1  -2  -7   90.16    3.69
  -1  -2  -7   91.99    3.73
   1  -2   7   87.21    3.53
  -1  -2  -7   92.08    3.76
  -1  -2  -7   83.17    3.72
  -1  -2  -7   91.12    3.45
  -1  -2  -7   89.13    3.48
   1  -2   7   86.54    3.81
   1  -2   7   89.22    3.55
   1  -2   7   91.75    3.50
  -1  -2  -7   88.32    3.54
   1  -2   7   93.58    3.92
   1  -2   7   92.05    3.74
   1  -2   7   90.47    3.66
   1  -2   7   90.68    3.52
   1  -2   7   89.02    3.44
   1  -2   7   92.45    3.73
   1   2   7   75.42    3.22
  -1   2  -7   85.99    3.32
   1   2   7   78.23    3.57
  -1   2  -7   84.11    3.21
  -1   2  -7   85.92    3.35
   1   2   7   83.81    3.21
   1   2   7   82.30    3.45
   1   2   7   87.21    3.31
  -1   2  -7   85.47    3.47
  -1   2  -7   78.86    3.19
   1   2   7   83.70    3.31
  -1   2  -7   79.27    3.40
  -1   2  -7   84.99    3.36
  -2  -2  -7    5.32    0.39
   2  -2   7    5.96    0.51
   2  -2   7    6.07    0.52
   2  -2   7    5.01    0.85
  -2  -2  -7    4.10    0.81
   2  -2   7    4.77    0.57
  -2  -2  -7    6.17    0.38
  -2  -2  -7    4.69    0.55
   2  -2   7    6.58    1.35
   2  -2   7    5.44    0.43
   2  -2   7    4.31    0.92
   2  -2   7    5.05    1.05
  -2  -2  -7    5.12    1.00
   2  -2   7    5.27    0.55
  -2  -2  -7    6.90    1.40
   2  -2   7    5.23    1.38
   2   2   7    2.84    1.02
  -2   2  -7    6.47    0.95
  -2   2  -7    5.65    0.76
  -2   2  -7    7.48    1.21
   2   2   7    4.89    1.22
   2   2   7    5.14    0.43
   2   2   7    4.52    0.67
   2   2   7    4.91    0.51
  -2   2  -7    3.70    0.68
  -2   2  -7    4.71    0.42
  -2   2  -7    6.45    0.57
  -2   2  -7    5.28    0.45
  -2   2  -7    4.88    0.87
   3  -2   7   11.06    0.46
  -3  -2  -7   12.70    0.71
   3  -2   7   11.15    0.90
  -3  -2  -7   11.40    0.52
  -3  -2  -7   11.03    0.49
   3  -2   7   12.85    2.42
  -3  -2  -7   11.79    2.41
  -3  -2  -7   10.60    0.58
  -3  -2  -7   11.33    0.97
   3  -2   7   10.67    0.54
  -3  -2  -7   10.83    0.68
   3   2   7   11.62    0.74
   3   2   7   11.65    1.62
   3   2   7    6.48    2.48
   3   2   7    9.05    0.76
  -3   2  -7   10.94    0.85
  -4  -2  -7   12.24    0.53
  -4  -2  -7   12.81    0.50
   4  -2   7   12.14    1.24
  -4  -2  -7   11.92    0.88
  -4   2  -7    8.96    1.02
  -4   2  -7   10.93    0.46
   4   2   7   11.95    0.84
  -4  -3   7    0.53    0.32
  -4  -3   7    1.35    0.16
  -4  -3   7    1.16    0.15
  -4  -3   7    1.02    0.12
  -4  -3   7    1.00    0.17
   4  -3  -7    1.30    0.17
  -4  -3   7    2.12    0.50
   4   3  -7   -0.06    0.77
   3  -3  -7  193.38    7.28
  -3  -3   7  194.40    7.39
   3  -3  -7  201.43    7.59
  -3  -3   7  190.90    7.31
  -3  -3   7  192.59    7.31
   3  -3  -7  190.28    7.30
  -3  -3   7  186.95    7.30
  -3  -3   7  193.33    7.53
   3  -3  -7  193.71    7.31
  -3  -3   7  193.63    7.34
   3   3  -7  154.06    6.73
  -3   3   7  176.55    6.41
   3   3  -7  164.68    6.49
   2  -3  -7   81.18    3.74
   2  -3  -7   78.19    3.66
  -2  -3   7   78.72    3.88
  -2  -3   7   77.87    3.13
  -2  -3   7   75.45    3.29
  -2  -3   7   75.65    3.12
  -2  -3   7   82.45    3.23
  -2  -3   7   76.33    3.31
   2  -3  -7   79.33    2.99
   2  -3  -7   74.11    3.17
   2  -3  -7   72.29    4.01
  -2  -3   7   72.06    3.25
  -2  -3   7   76.28    3.09
  -2   3   7   71.18    2.90
  -2   3   7   76.04    3.95
   2   3  -7   66.70    2.84
   2   3  -7   68.21    2.98
   2   3  -7   74.43    4.08
  -2   3   7   71.10    3.15
  -2   3   7   72.64    3.53
   2   3  -7   71.39    3.14
   2   3  -7   70.14    3.14
   1  -3  -7   69.65    2.67
  -1  -3   7   68.12    2.89
   1  -3  -7   69.06    3.08
  -1  -3   7   68.59    2.70
  -1  -3   7   65.88    2.86
  -1  -3   7   68.81    3.27
  -1  -3   7   70.04    2.79
  -1  -3   7   70.30    2.86
   1  -3  -7   70.49    3.00
   1  -3  -7   69.09    2.76
   1  -3  -7   69.80    3.16
  -1  -3   7   69.86    2.76
  -1  -3   7   68.47    2.75
   1  -3  -7   70.40    2.84
  -1  -3   7   70.76    2.65
  -1  -3   7   69.72    2.97
   1  -3  -7   68.39    3.14
   1   3  -7   62.02    2.48
   1   3  -7   63.60    2.59
   1   3  -7   65.64    2.69
  -1   3   7   62.31    2.67
  -1   3   7   64.50    2.50
  -1   3   7   63.25    2.69
  -1   3   7   65.97    2.53
   1   3  -7   57.11    2.82
   1   3  -7   59.32    2.58
   0  -3   7    5.17    0.48
   0  -3   7    7.10    1.11
   0  -3   7    5.49    0.45
   0  -3   7    5.79    0.28
   0  -3   7    5.53    0.41
   0  -3   7    6.05    1.07
   0  -3   7    5.31    0.71
   0  -3  -7    5.42    0.41
   0  -3  -7    6.47    0.82
   0  -3   7    5.61    0.45
   0  -3   7    5.50    0.39
   0  -3  -7    5.78    0.49
   0  -3  -7    5.66    0.68
   0  -3  -7    4.07    0.66
   0  -3  -7    6.46    0.98
   0  -3   7    6.42    0.71
   0  -3  -7    5.80    0.29
   0   3   7    5.15    0.38
   0   3   7    5.38    0.57
   0   3   7    4.94    0.36
   0   3  -7    5.24    0.31
   0   3  -7    5.47    0.56
   0   3  -7    5.01    0.65
   0   3   7    5.77    0.87
   0   3   7    5.08    0.68
   0   3  -7    5.10    0.30
   0   3  -7    4.70    0.68
   0   3   7    5.29    0.82
   1  -3   7   35.79    1.89
   1  -3   7   36.55    1.58
   1  -3   7   37.16    1.55
  -1  -3  -7   34.87    1.48
   1  -3   7   35.91    1.53
  -1  -3  -7   34.99    1.56
   1  -3   7   36.09    1.96
   1  -3   7   36.02    1.42
  -1  -3  -7   36.11    1.86
   1  -3   7   36.11    2.04
  -1  -3  -7   36.16    1.85
  -1  -3  -7   35.21    1.42
  -1  -3  -7   35.95    1.83
   1  -3   7   35.59    1.53
   1  -3   7   36.19    2.16
   1  -3   7   37.13    1.59
   1  -3   7   34.36    1.80
   1   3   7   30.86    1.28
  -1   3  -7   31.45    1.73
   1   3   7   29.47    1.33
   1   3   7   31.93    1.45
   1   3   7   32.63    1.90
  -1   3  -7   31.35    1.29
  -1   3  -7   30.37    1.64
  -1   3  -7   33.07    1.55
  -1   3  -7   32.13    1.49
  -1   3  -7   28.71    1.28
  -1   3  -7   31.31    1.56
   1   3   7   30.75    1.75
  -2  -3  -7   13.90    0.64
   2  -3   7   14.23    0.87
   2  -3   7   13.49    0.64
  -2  -3  -7   14.47    1.56
  -2  -3  -7   13.69    0.73
  -2  -3  -7   15.09    0.90
  -2  -3  -7   14.53    0.68
   2  -3   7   15.88    2.26
   2  -3   7   14.10    1.96
   2  -3   7   15.68    1.62
   2  -3   7   12.47    1.84
  -2  -3  -7   14.40    1.57
   2  -3   7   15.57    1.09
   2  -3   7   15.06    0.71
  -2  -3  -7   12.76    0.66
   2   3   7   14.64    0.82
  -2   3  -7   14.42    1.35
  -2   3  -7   14.31    1.49
  -2   3  -7   12.28    0.85
  -2   3  -7   13.44    0.70
   2   3   7   12.73    0.70
   2   3   7   12.85    1.69
   2   3   7   17.32    2.17
  -2   3  -7   15.94    1.37
   2   3   7   13.70    1.18
  -2   3  -7   10.71    1.57
   3  -3   7   16.53    0.72
  -3  -3  -7   16.60    0.86
   3  -3   7   16.54    0.66
  -3  -3  -7   16.66    0.73
  -3  -3  -7   15.41    1.14
  -3  -3  -7   16.40    0.70
   3  -3   7   17.20    1.10
  -3  -3  -7   16.93    0.88
  -3   3  -7   13.81    1.00
   3   3   7   12.49    0.90
   3   3   7   15.88    0.85
  -4  -3  -7    3.03    0.18
  -4  -3  -7    2.64    0.24
  -4   3  -7    2.72    0.20
  -4  -4   7   22.88    0.94
  -4  -4   7   25.05    0.94
   4  -4  -7   24.36    0.94
  -4  -4   7   23.80    0.92
  -3  -4   7    8.46    0.49
   3  -4  -7    9.14    0.42
   3  -4  -7    8.89    0.79
  -3  -4   7    9.35    0.41
  -3  -4   7    8.67    0.52
   3  -4  -7    8.82    0.41
  -3  -4   7    9.84    0.61
  -3  -4   7    8.93    0.88
  -3  -4   7   10.57    0.76
   3  -4  -7    9.62    0.91
  -3  -4   7    8.96    0.41
   3  -4  -7    8.96    0.37
   3   4  -7    6.53    0.80
   3   4  -7    5.46    1.50
  -3   4   7    8.01    0.66
  -2  -4   7  118.07    4.76
   2  -4  -7  122.03    5.53
  -2  -4   7  107.05    4.91
   2  -4  -7  119.21    4.55
   2  -4  -7  126.06    4.72
  -2  -4   7  123.08    4.55
  -2  -4   7  122.47    4.63
   2  -4  -7  123.99    4.60
   2  -4  -7  111.11    5.21
   2  -4  -7  120.99    4.55
  -2  -4   7  121.85    4.70
  -2  -4   7  117.53    5.88
  -2  -4   7  119.16    4.54
   2  -4  -7  116.33    5.40
  -2  -4   7  123.74    4.57
   2  -4  -7  122.46    4.82
  -2  -4   7  116.02    4.91
   2  -4  -7  121.53    4.53
   2   4  -7  105.43    4.10
  -2   4   7  103.07    4.53
   2   4  -7   99.17    4.42
  -2   4   7  102.74    4.64
  -2   4   7  102.77    4.10
  -2   4   7  107.52    4.15
  -2   4   7  103.99    5.02
   2   4  -7   99.30    4.50
   2   4  -7  112.30    5.92
   1  -4  -7   15.97    0.94
   1  -4  -7   17.65    1.61
  -1  -4   7   15.01    1.44
  -1  -4   7   14.95    0.80
  -1  -4   7   16.45    2.10
  -1  -4   7   15.36    0.90
  -1  -4   7   15.60    1.00
  -1  -4   7   16.35    0.85
   1  -4  -7   16.07    0.70
   1  -4  -7   15.43    1.89
   1  -4  -7   19.01    1.05
  -1  -4   7   15.21    1.13
   1  -4  -7   15.55    1.24
  -1  -4   7   15.31    1.31
  -1   4   7   12.54    0.74
  -1   4   7   13.88    0.76
  -1   4   7   13.85    1.27
  -1   4   7   11.65    1.11
   1   4  -7   12.13    0.76
   1   4  -7   12.16    1.10
   1   4  -7   13.35    1.46
   1   4  -7   11.90    1.17
   1   4  -7   14.81    0.99
   0  -4   7   18.07    0.89
   0  -4   7   16.75    0.95
   0  -4  -7   17.97    0.74
   0  -4   7   18.71    2.07
   0  -4   7   17.26    0.96
   0  -4   7   18.69    1.39
   0  -4  -7   17.50    1.20
   0  -4  -7   16.83    0.98
   0  -4   7   16.86    1.83
   0  -4  -7   18.38    1.55
   0  -4   7   17.47    1.19
   0  -4   7   17.96    0.73
   0  -4  -7   18.44    0.91
   0  -4   7   17.92    0.89
   0  -4  -7   19.11    1.76
   0   4  -7   15.57    1.27
   0   4   7   15.61    1.29
   0   4   7   15.72    0.80
   0   4  -7   16.54    0.73
   0   4   7   15.04    1.51
   0   4  -7   16.53    1.20
   0   4  -7   16.01    1.20
   0   4  -7   15.96    0.72
   0   4   7   16.85    0.77
   0   4  -7   17.07    0.99
   0   4   7   15.09    1.03
   1  -4   7    4.34    0.31
  -1  -4  -7    6.78    1.35
   1  -4   7    5.97    1.25
   1  -4   7    4.67    0.56
   1  -4   7    5.09    0.52
  -1  -4  -7    4.64    0.34
   1  -4   7    4.90    0.53
  -1  -4  -7    4.76    0.56
   1  -4   7    4.67    0.34
  -1  -4  -7    6.20    1.17
   1  -4   7    4.52    0.95
   1  -4   7    5.64    0.95
   1  -4   7    4.53    0.30
   1  -4   7    4.92    0.55
  -1  -4  -7    6.01    0.47
  -1  -4  -7    5.48    1.16
  -1  -4  -7    4.26    0.31
  -1   4  -7    3.83    0.88
   1   4   7    3.58    1.10
  -1   4  -7    5.29    0.65
   1   4   7    3.32    1.11
   1   4   7    3.52    0.58
   1   4   7    4.24    0.37
   1   4   7    4.41    0.54
  -1   4  -7    4.20    0.86
  -1   4  -7    4.05    0.32
   2  -4   7  231.41   10.57
  -2  -4  -7  257.75    9.86
   2  -4   7  261.71    9.77
   2  -4   7  271.17    9.99
  -2  -4  -7  254.68    9.77
   2  -4   7  264.66    9.93
  -2  -4  -7  255.22    9.75
   2  -4   7  254.20    9.75
  -2  -4  -7  267.04    9.81
  -2  -4  -7  254.42   10.01
   2  -4   7  264.51    9.81
   2  -4   7  256.93    9.76
   2  -4   7  264.53   10.00
   2  -4   7  274.34   10.52
   2  -4   7  237.24   10.59
   2   4   7  273.93   11.14
  -2   4  -7  269.82   10.35
  -2   4  -7  212.71    9.28
  -2   4  -7  227.72    9.16
   2   4   7  235.50    9.14
   2   4   7  224.57    9.18
   3  -4   7   13.34    0.53
   3  -4   7   13.16    0.58
  -3  -4  -7   13.46    0.75
   3  -4   7   13.95    1.06
  -3  -4  -7   11.31    1.10
  -3  -4  -7   13.44    0.56
  -3  -4  -7   11.96    0.79
  -3  -4  -7   13.27    0.60
   3   4   7   11.49    0.71
   3   4   7    9.68    0.82
  -3   4  -7   10.90    0.97
  -4  -4  -7   20.15    0.79
  -4  -4  -7   20.07    0.80
  -4  -4  -7   19.67    0.78
  -4   4  -7   17.18    0.68
  -3  -5   7   16.41    0.78
  -3  -5   7   17.66    0.70
   3  -5  -7   17.90    1.22
  -3  -5   7   17.01    0.71
   3  -5  -7   18.09    0.72
   3  -5  -7   17.59    0.68
  -3  -5   7   17.37    1.19
   3  -5  -7   17.62    0.71
  -3  -5   7   17.96    1.05
   3   5  -7   12.57    1.81
  -3   5   7   15.07    0.89
   3   5  -7   14.43    1.03
   2  -5  -7   27.28    1.16
  -2  -5   7   27.54    1.30
   2  -5  -7   26.92    1.09
   2  -5  -7   28.44    1.47
  -2  -5   7   27.12    1.09
  -2  -5   7   29.63    1.49
  -2  -5   7   26.47    1.12
  -2  -5   7   24.76    1.67
   2  -5  -7   28.41    1.39
  -2  -5   7   27.07    1.08
   2  -5  -7   25.83    1.08
   2  -5  -7   28.61    1.09
  -2  -5   7   27.70    1.22
   2   5  -7   22.60    1.19
  -2   5   7   23.92    1.14
  -2   5   7   23.47    1.22
  -1  -5   7    4.65    0.27
  -1  -5   7    4.78    0.79
   1  -5  -7    4.59    0.29
   1  -5  -7    4.67    0.33
  -1  -5   7    4.46    0.51
  -1  -5   7    4.71    0.61
   1  -5  -7    4.98    0.59
  -1  -5   7    4.51    0.30
  -1  -5   7    4.08    0.75
  -1  -5   7    4.34    0.28
   1  -5  -7    4.76    0.27
  -1  -5   7    4.56    0.31
   1  -5  -7    4.84    0.68
   1   5  -7    4.54    0.39
  -1   5   7    3.57    0.50
   1   5  -7    3.95    0.51
  -1   5   7    3.22    0.51
   1   5  -7    4.06    0.82
   0  -5   7    7.61    1.47
   0  -5   7    7.00    1.44
   0  -5  -7    8.46    0.71
   0  -5   7    7.40    0.62
   0  -5  -7    7.27    1.32
   0  -5   7    8.66    0.78
   0  -5   7    8.33    0.71
   0  -5   7    8.05    0.43
   0  -5   7    5.45    1.83
   0  -5  -7    8.64    0.85
   0  -5  -7   10.62    2.11
   0  -5   7    7.08    0.66
   0  -5  -7    8.28    0.42
   0  -5   7    8.41    0.40
   0  -5   7    8.15    0.41
   0  -5  -7    8.04    0.41
   0   5   7    6.59    0.63
   0   5   7    6.18    1.06
   0   5   7    9.11    1.71
   0   5  -7    6.44    1.11
   0   5  -7    7.18    0.42
   0   5   7    6.82    0.51
   0   5  -7    6.05    1.08
   0   5  -7    4.62    1.09
   1  -5   7   15.08    0.65
   1  -5   7   14.98    0.94
  -1  -5  -7   15.17    0.69
   1  -5   7   15.22    0.70
   1  -5   7   14.65    1.00
   1  -5   7   15.93    0.90
  -1  -5  -7   14.40    0.97
   1  -5   7   15.29    0.65
  -1  -5  -7   14.64    0.66
  -1   5  -7   12.74    0.66
   1   5   7   13.04    0.69
   2  -5   7   12.20    0.94
   2  -5   7   14.09    0.60
   2  -5   7   13.35    0.60
   2  -5   7   14.81    0.98
  -2  -5  -7   13.86    0.62
  -2  -5  -7   12.48    0.87
  -2  -5  -7   15.90    1.51
   2  -5   7   13.90    0.82
   2  -5   7   15.56    1.12
  -2  -5  -7   13.34    0.60
  -2  -5  -7   13.04    0.85
   2   5   7   12.27    0.69
  -2   5  -7   12.42    1.29
   2   5   7   10.84    0.89
  -2   5  -7   11.61    0.69
  -3  -5  -7    1.61    0.31
  -3  -5  -7    2.19    0.23
   3  -5   7    2.21    0.18
  -3  -6   7    0.40    0.07
   3  -6  -7    0.49    0.07
  -3  -6   7    0.28    0.07
   2  -6  -7   14.56    0.55
   2  -6  -7   13.86    0.57
  -2  -6   7   14.70    1.05
   2  -6  -7   12.95    1.08
  -2  -6   7   12.12    0.66
  -2  -6   7   13.96    0.57
  -2  -6   7   14.86    0.57
   2  -6  -7   12.27    0.71
  -2   6   7   13.48    0.81
   2   6  -7   10.05    1.12
  -2   6   7   10.84    0.78
  -1  -6   7    5.01    1.06
  -1  -6   7    5.57    0.40
  -1  -6   7    5.59    0.32
   1  -6  -7    6.07    0.95
  -1  -6   7    6.17    0.73
  -1  -6   7    6.03    0.31
   1  -6  -7    5.83    0.30
  -1  -6   7    5.96    0.30
   1  -6  -7    4.05    0.86
   1  -6  -7    5.90    0.33
   1  -6  -7    5.57    0.39
  -1   6   7    4.95    0.54
   1   6  -7    4.87    0.62
  -1   6   7    4.21    0.63
   0  -6   7   12.21    0.53
   0  -6  -7   11.72    0.54
   0  -6   7   12.48    0.83
   0  -6   7   11.14    0.90
   0  -6   7   11.97    0.53
   0  -6   7   12.50    0.60
   0  -6  -7   11.95    0.59
   0  -6   7   11.33    1.09
   0  -6  -7   14.62    1.05
   0   6   7   10.51    0.68
  -1  -6  -7   14.13    0.70
   1  -6   7   13.92    0.90
   1  -6   7   14.78    0.99
  -1  -6  -7   13.66    1.15
   1  -6   7   14.13    0.70
   1  -6   7   14.40    0.60
   1  -6   7   14.70    1.14
  -1  -6  -7   14.14    0.63
   1  -6   7   14.49    0.61
   1   6   7   12.01    0.69
  -1   6  -7   10.78    0.94
  -1   6  -7   12.31    0.63
   2  -6   7   15.88    0.63
   2  -6   7   14.20    0.61
   2  -6   7   15.06    0.64
  -2  -6  -7   14.38    0.64
   1  -7  -7    2.75    0.18
  -1  -7   7    2.95    0.19
   0  -7  -7    0.36    0.16
   0  -7   7    0.34    0.08
   0  -7   7    0.37    0.09
  -1  -7  -7    3.17    0.25
   1  -7   7    3.09    0.18
   1  -7   7    3.02    0.20
   4   0  -8    0.51    0.12
  -4   0   8    0.27    0.05
   4   0  -8    0.73    0.75
  -4   0   8    0.09    0.32
  -3   0   8    1.45    0.24
   3   0  -8    1.55    0.23
   3   0  -8    1.61    0.49
  -3   0   8    0.23    1.08
   3   0  -8    4.53    2.11
  -3   0   8    1.14    0.26
  -3   0   8    1.36    0.14
  -3   0   8    2.67    0.58
  -2   0   8    5.72    0.56
  -2   0   8    5.64    0.41
   2   0  -8    5.10    0.99
  -2   0   8    4.80    0.57
  -2   0   8    5.15    0.43
  -2   0   8    5.62    0.78
   2   0  -8    5.75    0.53
  -2   0   8    5.87    0.37
   2   0  -8    5.06    1.18
   2   0  -8    6.98    0.74
  -2   0   8    5.72    0.96
   2   0  -8    4.57    0.87
   2   0  -8    5.09    0.76
   2   0  -8    4.86    0.34
   1   0  -8   39.60    2.01
  -1   0   8   39.36    1.58
   1   0  -8   38.62    1.52
   1   0  -8   38.85    1.83
   1   0  -8   37.94    1.64
   1   0  -8   35.50    1.63
  -1   0   8   40.18    1.51
  -1   0   8   41.20    1.80
  -1   0   8   36.13    1.66
  -1   0   8   37.57    1.83
  -1   0   8   39.01    1.71
  -1   0   8   37.92    1.55
   1   0  -8   38.73    1.87
  -1   0   8   39.87    1.62
  -1   0   8   38.19    1.57
   1   0  -8   39.51    1.67
   0   0  -8   66.70    2.72
   0   0  -8   65.02    2.76
   0   0   8   68.39    2.79
   0   0   8   72.22    2.68
   0   0   8   71.70    2.86
   0   0   8   67.27    2.91
   0   0   8   72.15    2.89
   0   0   8   70.22    2.84
   0   0   8   69.70    2.64
   0   0  -8   68.77    2.67
   0   0  -8   64.87    2.80
   0   0  -8   72.00    2.79
   0   0  -8   68.45    2.68
   0   0  -8   67.26    2.78
   0   0  -8   72.37    2.99
   0   0  -8   68.97    2.91
   0   0   8   58.35    2.88
  -1   0  -8   11.62    0.62
  -1   0  -8   10.17    0.86
  -1   0  -8    8.44    0.78
   1   0   8   10.42    1.02
   1   0   8   10.64    0.91
  -1   0  -8    9.18    0.77
  -1   0  -8   10.30    0.48
   1   0   8    9.78    0.53
   1   0   8    8.31    0.83
  -1   0  -8    9.33    1.21
   1   0   8    9.66    0.52
  -1   0  -8    9.70    0.75
   1   0   8    9.49    0.74
  -2   0  -8   14.56    0.69
   2   0   8   16.33    1.29
  -2   0  -8   14.53    1.19
   2   0   8   14.16    0.73
  -2   0  -8   14.46    1.24
   2   0   8   12.65    1.62
  -3   0  -8   63.30    2.46
  -3   0  -8   67.51    2.60
  -3   0  -8   68.08    2.43
  -3   0  -8   56.68    3.34
  -3   0  -8   64.31    3.56
   3   0   8   63.95    2.59
   3   0   8   60.70    3.97
  -4   0  -8    2.13    0.26
  -4  -1   8    6.60    0.64
   4  -1  -8    4.50    0.95
  -4  -1   8    5.91    0.25
   4  -1  -8    5.68    0.30
  -4  -1   8    5.89    0.30
  -4   1   8    5.96    0.31
   4   1  -8    5.92    0.31
  -4   1   8    7.06    0.80
  -3  -1   8   30.67    1.32
  -3  -1   8   28.62    1.45
  -3  -1   8   29.52    1.17
   3  -1  -8   27.83    1.51
   3  -1  -8   31.43    1.77
   3  -1  -8   30.19    1.17
   3  -1  -8   23.10    2.67
  -3  -1   8   26.66    1.92
  -3  -1   8   29.99    1.13
  -3  -1   8   30.10    1.23
  -3   1   8   27.53    1.28
  -3   1   8   28.64    1.27
  -3   1   8   27.18    1.10
   3   1  -8   25.17    1.49
  -3   1   8   28.74    2.18
  -3   1   8   27.89    1.05
   2  -1  -8    8.10    0.64
  -2  -1   8    9.41    0.43
   2  -1  -8    7.70    1.76
  -2  -1   8    9.16    1.08
  -2  -1   8    8.66    0.62
  -2  -1   8    8.37    0.53
  -2  -1   8    8.37    0.87
   2  -1  -8    9.66    1.12
  -2  -1   8    9.31    1.43
  -2  -1   8    8.98    0.94
  -2  -1   8    9.50    0.53
   2   1  -8    8.34    0.67
   2   1  -8    9.18    1.70
   2   1  -8    9.03    0.67
   2   1  -8    9.53    0.87
  -2   1   8    8.59    0.54
  -2   1   8    8.76    0.59
   2   1  -8    9.04    1.35
  -2   1   8    9.35    0.98
  -2   1   8    7.85    0.88
   2   1  -8    8.28    1.26
  -1  -1   8   72.10    3.08
  -1  -1   8   78.37    2.99
  -1  -1   8   76.88    3.00
   1  -1  -8   79.90    2.96
   1  -1  -8   80.31    3.31
   1  -1  -8   72.98    3.24
   1  -1  -8   75.59    3.07
  -1  -1   8   78.44    3.02
  -1  -1   8   75.83    3.29
   1  -1  -8   73.82    3.18
   1  -1  -8   80.72    2.98
  -1  -1   8   77.89    2.93
  -1  -1   8   77.31    3.14
   1  -1  -8   71.75    3.07
  -1  -1   8   77.06    3.06
  -1  -1   8   78.42    3.15
   1   1  -8   74.69    3.01
  -1   1   8   72.69    3.09
   1   1  -8   78.82    2.98
  -1   1   8   71.60    2.89
   1   1  -8   70.34    2.85
  -1   1   8   73.75    3.10
   1   1  -8   75.95    3.17
   1   1  -8   75.18    2.91
  -1   1   8   71.67    2.89
   1   1  -8   76.07    3.37
  -1   1   8   72.76    2.96
  -1   1   8   73.38    3.03
  -1   1   8   72.29    3.07
   1   1  -8   75.94    3.04
   0  -1   8   46.75    1.89
   0  -1   8   48.84    1.89
   0  -1  -8   46.36    2.00
   0  -1  -8   44.84    1.90
   0  -1   8   48.50    1.90
   0  -1  -8   49.66    2.06
   0  -1  -8   47.29    1.85
   0  -1  -8   48.21    2.13
   0  -1   8   47.35    1.95
   0  -1   8   47.87    2.12
   0  -1  -8   49.44    2.14
   0  -1   8   44.49    2.11
   0  -1  -8   46.60    1.95
   0  -1   8   48.07    2.12
   0  -1   8   47.23    2.03
   0   1  -8   46.82    1.96
   0   1  -8   48.66    1.93
   0   1   8   45.69    1.85
   0   1  -8   46.82    1.86
   0   1   8   47.56    1.96
   0   1   8   44.11    1.85
   0   1  -8   48.52    1.81
   0   1   8   48.34    2.02
   0   1  -8   43.28    1.91
   0   1   8   46.31    1.90
   0   1   8   48.98    1.98
   0   1  -8   41.01    2.06
   0   1  -8   45.84    2.06
   0   1   8   42.69    2.17
   1  -1   8  114.82    4.54
   1  -1   8  121.67    4.37
  -1  -1  -8  114.23    4.60
   1  -1   8  117.18    4.48
   1  -1   8   98.04    4.82
   1  -1   8  116.08    4.79
  -1  -1  -8  113.11    4.57
  -1  -1  -8  110.22    4.45
  -1  -1  -8  111.72    4.42
   1  -1   8  114.11    4.41
  -1  -1  -8  116.46    4.72
   1  -1   8  118.95    4.62
  -1  -1  -8  119.20    4.37
   1  -1   8  109.51    4.70
   1  -1   8  116.12    4.40
  -1  -1  -8  112.52    4.38
  -1   1  -8  103.41    4.37
  -1   1  -8  107.58    4.25
  -1   1  -8  102.96    4.20
  -1   1  -8  102.20    4.18
   1   1   8  112.18    4.35
   1   1   8  111.09    4.27
   1   1   8  106.86    4.13
   1   1   8  107.93    4.14
  -1   1  -8  113.35    4.30
  -1   1  -8  112.70    4.12
   1   1   8  104.78    4.53
  -1   1  -8  102.28    4.36
  -1   1  -8  110.16    4.35
   1   1   8   97.72    4.30
   1   1   8  111.76    4.14
   2  -1   8   27.55    1.23
   2  -1   8   27.91    2.04
  -2  -1  -8   24.96    2.23
   2  -1   8   26.96    2.05
  -2  -1  -8   28.22    1.66
  -2  -1  -8   28.95    1.19
   2  -1   8   27.54    1.31
  -2  -1  -8   29.78    1.71
   2  -1   8   28.74    1.75
  -2  -1  -8   28.16    1.33
  -2  -1  -8   28.31    1.20
  -2   1  -8   28.44    1.67
  -2   1  -8   28.31    1.17
  -2   1  -8   28.10    1.64
   2   1   8   29.91    1.22
   2   1   8   26.50    2.08
  -2   1  -8   24.94    1.32
  -2   1  -8   26.13    1.65
   2   1   8   28.26    1.22
   2   1   8   22.08    1.68
   2   1   8   31.40    1.92
   3  -1   8    1.17    0.49
  -3  -1  -8    1.55    0.18
   3  -1   8    1.32    0.34
  -3  -1  -8    1.83    0.24
  -3  -1  -8    2.58    1.57
   3  -1   8    1.65    2.53
  -3  -1  -8    1.45    0.29
  -3   1  -8    0.70    0.31
   3   1   8    0.09    2.23
  -4  -1  -8   11.91    0.52
  -4  -1  -8   12.45    0.48
  -4  -1  -8   11.13    0.97
  -4   1  -8   12.01    0.52
   4   1   8   10.48    0.94
   4  -2  -8    3.07    0.20
  -4  -2   8    2.27    0.57
  -4  -2   8    3.35    0.16
  -4  -2   8    2.71    0.22
  -4  -2   8    3.12    0.20
   4   2  -8    1.45    0.82
  -3  -2   8    4.00    2.01
   3  -2  -8    3.58    0.18
  -3  -2   8    3.53    0.41
  -3  -2   8   -1.90    2.38
  -3  -2   8    2.91    0.25
  -3  -2   8    3.77    0.25
  -3  -2   8    3.10    0.47
  -3  -2   8    4.22    0.72
  -3  -2   8    2.86    0.26
   3  -2  -8    3.72    0.28
  -3  -2   8    3.52    0.38
   3  -2  -8    4.13    1.71
   3  -2  -8    3.74    0.25
  -3  -2   8    3.37    0.28
   3  -2  -8    4.50    0.77
   3   2  -8    2.36    2.26
   3   2  -8    3.12    1.41
  -3   2   8    2.79    1.35
  -3   2   8    2.56    0.57
   3   2  -8    3.64    0.59
  -2  -2   8   68.14    3.24
  -2  -2   8   77.81    3.04
  -2  -2   8   77.06    3.34
  -2  -2   8   74.97    3.37
  -2  -2   8   76.44    3.09
   2  -2  -8   84.29    3.10
  -2  -2   8   74.23    3.14
  -2  -2   8   89.89    4.43
  -2  -2   8   79.29    3.00
   2  -2  -8   79.20    3.20
   2  -2  -8   77.29    3.64
  -2  -2   8   80.11    3.09
  -2   2   8   71.60    2.92
   2   2  -8   82.55    4.44
   2   2  -8   75.77    2.97
   2   2  -8   65.41    3.56
   2   2  -8   73.61    3.04
   2   2  -8   72.29    3.46
   1  -2  -8   18.97    0.93
  -1  -2   8   17.91    1.09
   1  -2  -8   18.90    0.77
  -1  -2   8   17.86    1.06
  -1  -2   8   18.09    0.87
   1  -2  -8   17.02    1.24
  -1  -2   8   17.41    0.82
  -1  -2   8   17.91    0.74
   1  -2  -8   17.44    1.25
  -1  -2   8   19.97    1.03
  -1  -2   8   18.42    0.84
   1  -2  -8   18.12    1.22
  -1  -2   8   17.21    1.34
  -1  -2   8   18.01    0.97
  -1   2   8   17.36    0.80
   1   2  -8   18.54    1.02
   1   2  -8   16.74    1.17
   1   2  -8   16.94    0.90
  -1   2   8   17.49    1.03
  -1   2   8   16.38    1.14
   1   2  -8   18.30    1.01
  -1   2   8   16.62    0.87
   1   2  -8   18.79    0.82
   0  -2   8   15.74    0.64
   0  -2  -8   15.06    0.68
   0  -2   8   16.02    1.31
   0  -2  -8   14.67    0.80
   0  -2  -8   15.22    1.02
   0  -2   8   15.42    0.73
   0  -2  -8   14.95    1.06
   0  -2  -8   15.41    0.95
   0  -2   8   14.68    0.80
   0  -2   8   15.72    0.76
   0  -2  -8   15.78    0.66
   0  -2   8   15.87    0.95
   0  -2  -8   15.88    1.03
   0  -2   8   15.04    0.96
   0  -2  -8   15.28    0.73
   0  -2   8   15.47    1.18
   0  -2   8   15.64    0.73
   0   2  -8   14.91    0.86
   0   2  -8   15.82    0.88
   0   2  -8   14.68    0.78
   0   2   8   15.52    0.96
   0   2   8   15.38    0.88
   0   2  -8   13.62    0.97
   0   2   8   14.90    0.70
   0   2   8   14.74    0.68
   0   2   8   14.19    1.05
   0   2   8   14.96    0.91
   0   2  -8   14.66    0.64
   0   2  -8   12.65    0.71
   0   2   8   14.28    0.69
  -1  -2  -8   56.11    2.47
   1  -2   8   56.31    2.74
   1  -2   8   54.46    2.13
   1  -2   8   54.37    2.21
   1  -2   8   54.34    2.20
   1  -2   8   55.96    2.58
   1  -2   8   54.11    2.41
  -1  -2  -8   54.78    2.17
   1  -2   8   56.08    2.26
  -1  -2  -8   54.23    2.14
   1  -2   8   52.67    2.23
   1  -2   8   53.51    2.62
  -1  -2  -8   55.37    2.24
  -1  -2  -8   55.90    2.45
   1  -2   8   54.76    2.52
   1   2   8   53.60    2.09
  -1   2  -8   53.30    2.36
   1   2   8   52.53    2.58
  -1   2  -8   52.27    2.06
   1   2   8   51.09    2.23
  -1   2  -8   50.31    2.25
  -1   2  -8   52.11    2.37
  -1   2  -8   51.02    2.26
   1   2   8   53.55    2.09
   1   2   8   53.13    2.39
  -1   2  -8   50.57    2.26
   2  -2   8   25.33    1.20
  -2  -2  -8   23.49    1.74
   2  -2   8   23.49    1.15
  -2  -2  -8   23.25    1.20
  -2  -2  -8   24.44    1.04
   2  -2   8   24.61    1.88
   2  -2   8   23.10    2.03
   2  -2   8   24.69    1.06
   2  -2   8   22.93    2.29
  -2  -2  -8   22.25    1.59
   2  -2   8   24.41    1.12
  -2  -2  -8   22.22    2.24
   2  -2   8   23.51    2.21
  -2   2  -8   22.65    1.01
   2   2   8   21.03    1.51
   2   2   8   23.39    1.15
   2   2   8   21.70    1.75
   2   2   8   20.90    2.11
  -2   2  -8   21.13    1.64
  -2   2  -8   25.50    2.14
  -2   2  -8   22.59    1.16
  -2   2  -8   25.98    1.76
  -2   2  -8   19.90    1.55
  -3  -2  -8   31.74    1.32
   3  -2   8   31.24    1.31
   3  -2   8   32.83    1.25
  -3  -2  -8   33.14    1.44
  -3  -2  -8   31.62    1.45
  -3  -2  -8   33.30    1.29
  -3  -2  -8   33.19    1.70
  -3  -2  -8   33.27    1.27
   3  -2   8   32.62    1.63
   3   2   8   30.41    1.47
  -3   2  -8   32.06    1.58
   3   2   8   32.22    1.44
  -4  -2  -8   16.97    0.69
  -4  -2  -8   16.26    0.65
  -4   2  -8   15.26    0.65
  -4  -3   8   20.82    0.76
   4  -3  -8   17.14    0.72
  -4  -3   8   16.79    0.70
  -4  -3   8   17.81    0.72
   3  -3  -8   17.17    1.13
   3  -3  -8   17.66    0.71
  -3  -3   8   17.21    1.10
  -3  -3   8   16.74    0.78
  -3  -3   8   17.14    0.92
  -3  -3   8   17.28    0.71
   3  -3  -8   17.17    0.72
  -3  -3   8   16.84    0.84
  -3  -3   8   17.48    0.74
   3  -3  -8   17.62    0.67
  -3  -3   8   17.20    0.71
   3   3  -8   13.60    1.58
  -3   3   8   15.91    0.92
   3   3  -8   15.78    1.11
   2  -3  -8   55.84    2.17
  -2  -3   8   58.73    2.31
  -2  -3   8   57.23    2.24
  -2  -3   8   56.02    2.36
  -2  -3   8   51.60    3.35
   2  -3  -8   55.73    2.17
   2  -3  -8   50.15    3.01
   2  -3  -8   56.87    3.07
  -2  -3   8   54.44    2.51
  -2  -3   8   58.88    2.19
   2  -3  -8   58.26    3.89
  -2  -3   8   57.34    2.17
  -2  -3   8   55.19    2.16
   2  -3  -8   59.97    2.23
   2  -3  -8   56.26    2.41
  -2  -3   8   58.86    2.64
  -2  -3   8   52.19    2.63
  -2   3   8   50.83    2.18
   2   3  -8   50.61    2.65
   2   3  -8   53.15    2.21
   2   3  -8   58.09    3.80
  -2   3   8   56.08    3.18
  -2   3   8   51.33    2.59
  -2   3   8   54.18    2.26
   2   3  -8   52.93    2.55
  -1  -3   8   17.74    1.21
  -1  -3   8   17.61    0.82
   1  -3  -8   15.54    1.35
   1  -3  -8   16.03    0.70
  -1  -3   8   15.03    1.69
  -1  -3   8   15.31    0.67
   1  -3  -8   16.34    0.91
  -1  -3   8   15.63    0.96
   1  -3  -8   15.73    1.47
  -1  -3   8   16.02    0.86
  -1  -3   8   16.27    1.11
  -1  -3   8   15.50    1.07
   1  -3  -8   16.50    0.80
   1  -3  -8   15.68    1.48
  -1  -3   8   16.64    0.79
   1  -3  -8   15.32    1.22
  -1   3   8   15.10    1.10
  -1   3   8   14.59    0.82
   1   3  -8   15.78    1.02
   1   3  -8   16.33    1.33
   1   3  -8   14.16    1.06
  -1   3   8   15.62    1.16
  -1   3   8   14.20    0.74
   1   3  -8   14.54    0.74
   0  -3   8   48.45    2.41
   0  -3   8   45.37    1.97
   0  -3   8   45.61    1.90
   0  -3   8   42.64    2.12
   0  -3   8   46.21    1.88
   0  -3  -8   47.95    1.90
   0  -3  -8   46.43    1.79
   0  -3   8   45.76    2.55
   0  -3   8   46.22    1.90
   0  -3  -8   38.73    2.56
   0  -3  -8   46.04    1.94
   0  -3  -8   44.41    2.26
   0  -3  -8   44.38    2.15
   0  -3  -8   48.84    2.34
   0  -3   8   47.19    2.11
   0  -3   8   45.18    1.77
   0   3   8   42.25    2.15
   0   3   8   41.80    1.98
   0   3  -8   43.90    1.97
   0   3  -8   45.63    1.73
   0   3   8   44.96    2.23
   0   3  -8   43.25    1.92
   0   3   8   41.34    1.77
   0   3   8   43.48    1.94
   0   3  -8   41.26    2.09
   0   3  -8   43.77    1.97
   0   3   8   45.56    1.78
   1  -3   8   74.64    3.05
   1  -3   8   77.66    2.93
  -1  -3  -8   75.16    3.34
  -1  -3  -8   77.21    3.45
  -1  -3  -8   78.06    3.08
   1  -3   8   69.00    4.43
   1  -3   8   79.37    3.10
   1  -3   8   77.97    3.02
  -1  -3  -8   74.71    3.52
  -1  -3  -8   75.86    2.93
   1  -3   8   77.94    3.40
  -1  -3  -8   76.47    2.98
   1  -3   8   74.01    3.03
   1  -3   8   69.43    3.53
   1  -3   8   72.64    3.31
   1  -3   8   78.73    3.08
   1  -3   8   76.23    3.53
   1   3   8   67.77    2.70
   1   3   8   67.58    3.10
  -1   3  -8   66.86    2.96
  -1   3  -8   70.17    2.89
  -1   3  -8   66.62    2.68
  -1   3  -8   66.02    3.12
  -1   3  -8   72.11    2.71
  -1   3  -8   69.48    2.96
   1   3   8   72.59    2.72
  -1   3  -8   63.47    3.39
  -2  -3  -8  109.57    4.27
   2  -3   8  114.45    4.91
   2  -3   8  112.97    4.45
   2  -3   8  109.85    4.27
   2  -3   8  111.10    4.26
   2  -3   8  111.49    5.38
  -2  -3  -8  113.47    4.36
   2  -3   8  103.32    5.76
  -2  -3  -8  106.07    4.25
   2  -3   8  117.30    4.32
   2  -3   8  111.72    5.19
  -2  -3  -8  117.21    4.32
   2  -3   8  107.32    4.23
   2  -3   8  118.27    4.48
  -2  -3  -8  107.92    5.09
   2  -3   8  113.81    4.41
  -2  -3  -8  113.00    4.92
  -2  -3  -8  115.75    4.50
  -2  -3  -8  104.50    4.93
  -2   3  -8   95.43    4.47
  -2   3  -8  100.64    4.38
   2   3   8  106.80    3.86
  -2   3  -8  102.29    3.87
   2   3   8   97.98    3.88
   2   3   8   86.72    4.44
   2   3   8  100.75    5.01
   2   3   8   97.25    4.11
  -2   3  -8   93.34    3.98
  -2   3  -8   98.59    4.35
  -3  -3  -8   37.43    1.65
   3  -3   8   37.09    1.49
   3  -3   8   38.08    1.44
  -3  -3  -8   37.90    1.48
  -3  -3  -8   37.39    1.65
  -3  -3  -8   35.91    1.46
  -3  -3  -8   36.97    1.50
  -3  -3  -8   41.03    2.20
   3   3   8   43.57    1.90
  -3   3  -8   34.29    1.85
  -4  -3  -8    0.52    0.08
  -4  -3  -8    0.30    0.14
  -4  -3  -8    0.14    0.10
  -4   3  -8    0.41    0.08
  -4  -4   8   16.37    0.63
  -4  -4   8   15.26    0.64
   4  -4  -8   16.24    0.64
  -4  -4   8   16.77    0.64
  -4   4   8   15.80    0.61
   4   4  -8   14.51    0.61
   3  -4  -8   27.71    1.51
  -3  -4   8   30.17    1.16
  -3  -4   8   29.81    1.39
   3  -4  -8   30.00    1.14
   3  -4  -8   29.71    1.17
   3  -4  -8   29.18    1.41
  -3  -4   8   28.12    1.23
  -3  -4   8   30.53    1.31
   3  -4  -8   31.07    1.17
  -3  -4   8   29.37    1.17
  -3  -4   8   30.19    1.54
  -3   4   8   26.58    1.23
   3   4  -8   22.16    1.90
   3   4  -8   25.64    1.38
   2  -4  -8   27.60    1.43
  -2  -4   8   27.09    1.38
   2  -4  -8   26.53    1.06
   2  -4  -8   27.69    1.09
  -2  -4   8   28.22    1.27
   2  -4  -8   28.15    1.09
  -2  -4   8   27.60    1.19
   2  -4  -8   27.51    1.17
  -2  -4   8   27.60    1.08
  -2  -4   8   24.96    1.55
  -2  -4   8   27.73    1.12
  -2  -4   8   28.11    1.10
   2  -4  -8   27.94    1.30
  -2   4   8   25.26    1.24
   2   4  -8   24.83    1.19
  -2   4   8   23.59    1.16
  -1  -4   8    2.37    0.38
   1  -4  -8    0.61    1.24
  -1  -4   8    1.38    0.41
  -1  -4   8    1.51    0.72
  -1  -4   8    3.39    1.01
  -1  -4   8    2.60    0.49
   1  -4  -8    2.35    0.25
   1  -4  -8    1.64    0.22
  -1  -4   8    1.74    0.75
   1  -4  -8    2.15    0.22
   1  -4  -8    2.58    0.53
  -1  -4   8    1.81    0.34
   1  -4  -8    2.44    0.80
  -1  -4   8    4.65    1.55
   1  -4  -8    2.49    0.41
  -1  -4   8    2.70    0.27
  -1  -4   8    2.14    0.22
  -1  -4   8    1.83    0.21
  -1  -4   8    2.04    0.23
   1   4  -8    2.55    0.66
  -1   4   8    1.66    0.89
  -1   4   8    2.25    0.32
   1   4  -8    2.64    0.63
  -1   4   8    1.33    0.71
   1   4  -8    2.37    0.29
   1   4  -8    1.68    0.41
   1   4  -8    1.68    1.09
   1   4  -8    2.44    0.78
  -1   4   8    2.45    0.48
   0  -4  -8   22.30    2.18
   0  -4   8   22.79    0.94
   0  -4  -8   22.68    1.52
   0  -4   8   21.58    1.10
   0  -4   8   23.54    1.09
   0  -4   8   23.44    0.94
   0  -4  -8   26.29    1.57
   0  -4  -8   22.30    1.82
   0  -4  -8   22.10    1.11
   0  -4  -8   22.98    0.95
   0  -4   8   22.54    1.22
   0  -4   8   22.41    1.15
   0  -4   8   20.66    1.67
   0  -4   8   23.81    1.21
   0  -4   8   23.07    2.41
   0  -4   8   24.37    2.21
   0  -4   8   23.75    0.94
   0  -4   8   24.49    1.49
   0  -4  -8   21.31    0.94
   0   4   8   21.41    0.95
   0   4  -8   20.41    1.59
   0   4  -8   19.43    0.89
   0   4   8   21.63    1.27
   0   4  -8   18.98    1.43
   0   4  -8   20.14    1.44
   0   4   8   20.40    1.84
   0   4   8   18.76    1.56
   0   4   8   20.67    0.98
   0   4  -8   21.71    1.27
  -1  -4  -8   64.83    2.60
   1  -4   8   65.32    2.49
   1  -4   8   64.43    2.68
  -1  -4  -8   62.18    3.16
  -1  -4  -8   65.67    2.52
  -1  -4  -8   64.36    2.50
   1  -4   8   64.24    2.50
   1  -4   8   65.87    3.17
  -1  -4  -8   61.13    3.24
   1  -4   8   63.92    3.20
   1  -4   8   63.81    2.73
   1  -4   8   65.82    2.52
  -1  -4  -8   64.49    2.71
   1  -4   8   66.04    2.72
   1  -4   8   65.64    2.66
   1   4   8   62.14    2.37
  -1   4  -8   58.43    2.84
   1   4   8   56.04    2.58
  -1   4  -8   57.79    2.92
   1   4   8   56.15    3.30
  -1   4  -8   59.40    2.64
   1   4   8   59.39    2.34
  -1   4  -8   57.12    2.34
  -2  -4  -8    1.89    0.33
   2  -4   8    2.15    0.63
  -2  -4  -8    2.44    0.52
   2  -4   8    2.81    0.60
  -2  -4  -8    2.73    0.30
   2  -4   8    2.15    0.27
  -2  -4  -8    2.31    0.26
  -2  -4  -8    2.32    0.37
   2  -4   8    2.56    0.23
   2  -4   8    2.35    0.43
  -2   4  -8    1.47    0.36
   2   4   8    1.97    0.42
  -2   4  -8    1.92    0.41
   3  -4   8   25.86    1.46
  -3  -4  -8   25.76    1.17
  -3  -4  -8   22.95    1.20
  -3  -4  -8   25.78    1.00
   3  -4   8   25.61    0.97
   3  -4   8   25.60    1.02
  -3  -4  -8   24.99    1.02
  -3  -4  -8   24.93    1.00
  -3  -4  -8   23.46    1.52
   3   4   8   19.92    1.07
  -3   4  -8   20.41    1.28
   3   4   8   23.55    1.12
   3  -5  -8   12.32    0.55
   3  -5  -8   14.36    0.58
   2  -5  -8    6.13    0.30
  -2  -5   8    6.79    0.33
   2  -5  -8    6.71    0.33
  -2  -5   8    6.73    0.64
  -2  -5   8    7.46    0.83
   2  -5  -8    7.31    0.85
  -2  -5   8    6.59    1.10
  -2  -5   8    7.37    0.42
   2  -5  -8    6.94    0.34
   2  -5  -8    6.05    0.49
   2  -5  -8    7.57    0.74
  -2  -5   8    6.52    0.33
  -2   5   8    5.67    0.60
   2   5  -8    5.81    0.67
  -2   5   8    6.12    0.65
  -1  -5   8  111.63    4.46
  -1  -5   8  109.51    4.44
  -1  -5   8  108.49    4.63
  -1  -5   8  114.11    4.28
   1  -5  -8  113.89    4.31
   1  -5  -8  115.71    4.48
  -1  -5   8  110.55    4.50
   1  -5  -8  113.27    4.56
   1   5  -8   95.05    3.66
   1   5  -8   90.46    3.89
   1   5  -8   97.09    3.71
  -1   5   8   91.66    3.77
  -1   5   8   95.94    3.74
   0  -5  -8   31.16    1.28
   0  -5   8   32.65    1.52
   0  -5   8   33.15    1.31
   0  -5  -8   31.34    1.31
   0  -5   8   31.27    1.64
   0  -5   8   32.19    1.50
   0  -5   8   32.20    1.29
   0  -5  -8   33.00    1.55
   0  -5   8   33.38    1.29
   0   5   8   29.07    1.29
   0   5   8   28.21    1.47
   1  -5   8   47.76    2.13
   1  -5   8   48.49    1.87
   1  -5   8   47.24    1.90
   1  -5   8   47.35    2.16
  -1  -5  -8   46.72    1.90
  -1  -5  -8   49.60    1.89
   1  -5   8   47.72    1.87
   1  -5   8   46.95    2.08
  -1  -5  -8   47.43    2.14
   1   5   8   39.84    1.68
  -1   5  -8   40.23    1.67
   2  -5   8    5.07    0.52
   2  -5   8    4.26    0.68
   2  -5   8    5.11    0.29
   2  -5   8    5.08    0.28
  -2  -5  -8    5.33    0.75
  -2  -5  -8    5.33    0.47
  -2  -5  -8    4.91    0.32
  -2  -5  -8    4.96    0.31
   2  -5   8    5.05    0.28
  -2  -5  -8    3.74    0.87
   2  -5   8    4.48    0.75
   2  -5   8    3.83    0.81
  -2   5  -8    4.37    0.52
  -2   5  -8    5.72    0.84
   2   5   8    3.69    0.50
   2   5   8    5.35    0.78
  -3  -5  -8    7.32    0.37
   3  -5   8    6.34    0.27
   3  -5   8    6.28    0.32
  -3  -5  -8    5.89    0.31
   2  -6  -8   17.29    0.71
  -2  -6   8   17.78    0.71
   2  -6  -8   16.71    0.67
  -2  -6   8   17.06    0.69
  -1  -6   8    8.77    0.40
  -1  -6   8    9.12    0.41
  -1  -6   8    9.15    0.41
  -1  -6   8    8.75    0.51
   1  -6  -8    8.10    1.02
   1  -6  -8    8.89    0.52
   1  -6  -8    8.94    0.40
   1  -6  -8    9.30    0.42
  -1  -6   8    9.41    0.81
   1  -6  -8    8.20    1.02
  -1  -6   8    8.09    1.14
  -1   6   8    7.64    0.74
  -1   6   8    8.25    0.65
   1   6  -8    7.35    0.67
   0  -6  -8   13.65    0.67
   0  -6   8   13.91    0.59
   0  -6   8   13.77    0.98
   0  -6  -8   13.65    0.60
   0  -6   8   13.20    0.66
   0  -6   8   13.54    0.58
   0  -6  -8   13.62    1.09
   0  -6   8   13.60    1.13
   0  -6   8   14.12    0.92
   0   6   8   10.98    0.72
   0   6  -8   11.28    1.00
   0   6  -8    9.52    0.75
   1  -6   8    0.16    0.08
  -1  -6  -8    0.04    0.24
   1  -6   8    0.30    0.11
  -1  -6  -8    0.33    0.14
   1  -6   8   -0.16    0.26
   1  -6   8    0.20    0.43
  -1  -6  -8   -0.15    0.56
   1  -6   8    0.37    0.49
  -1   6  -8    1.16    0.43
   1   6   8   -0.04    0.30
   2  -6   8    3.45    0.20
  -2  -6  -8    3.45    0.25
   2  -6   8    3.43    0.22
   2  -6   8    3.34    0.20
  -1  -7   8    0.06    0.06
   1  -7  -8    0.00    0.08
   0  -7  -8    0.36    0.14
   0  -7   8    0.34    0.09
   0  -7   8    0.54    0.10
   1  -7   8   27.90    1.10
   1  -7   8   27.34    1.10
  -1  -7  -8   29.35    1.11
  -4   0   9   16.97    0.65
   4   0  -9   16.00    1.64
  -4   0   9   17.28    0.69
   4   0  -9   17.02    0.69
  -4   0   9   17.17    1.03
  -3   0   9    7.36    0.61
   3   0  -9    7.34    0.38
  -3   0   9    7.57    0.31
   3   0  -9    7.50    0.95
  -3   0   9    6.03    0.69
  -3   0   9    6.77    0.38
  -3   0   9   12.48    1.90
   3   0  -9    7.84    2.70
   3   0  -9    7.48    1.26
  -2   0   9   56.15    2.42
  -2   0   9   52.05    2.87
   2   0  -9   56.25    2.31
   2   0  -9   54.95    2.15
  -2   0   9   54.96    2.22
  -2   0   9   53.96    2.48
  -2   0   9   56.85    2.21
   2   0  -9   55.72    2.67
   2   0  -9   51.93    2.42
  -2   0   9   53.91    2.26
   1   0  -9   14.58    0.99
  -1   0   9   15.29    0.95
   1   0  -9   14.21    0.79
   1   0  -9   14.02    0.65
   1   0  -9   11.59    1.48
  -1   0   9   15.60    1.19
   1   0  -9   15.48    0.90
  -1   0   9   16.11    1.29
  -1   0   9   14.62    0.91
  -1   0   9   14.76    0.74
   1   0  -9   12.53    1.39
  -1   0   9   14.67    0.71
  -1   0   9   15.21    0.66
   1   0  -9   17.37    1.16
   0   0   9    6.34    1.00
   0   0  -9    8.50    0.82
   0   0  -9    8.76    0.65
   0   0  -9    9.04    0.58
   0   0   9    9.67    0.84
   0   0   9    8.42    0.68
   0   0  -9    7.37    0.70
   0   0  -9    8.29    0.43
   0   0  -9    8.58    0.49
   0   0   9    8.13    0.48
   0   0   9    8.35    0.46
  -1   0  -9   26.39    1.57
  -1   0  -9   30.14    1.48
  -1   0  -9   30.37    1.48
   1   0   9   29.32    1.54
   1   0   9   29.67    1.22
   1   0   9   29.94    1.44
  -1   0  -9   28.80    1.18
   1   0   9   26.66    1.80
  -1   0  -9   25.90    1.29
   1   0   9   29.50    1.22
   2   0   9  147.31    5.87
  -2   0  -9  142.20    5.84
   2   0   9  145.24    5.50
  -2   0  -9  141.13    5.87
  -2   0  -9  142.71    5.48
   2   0   9  134.80    6.21
  -3   0  -9    0.63    0.16
  -3   0  -9    0.57    0.09
  -3   0  -9    0.85    0.30
   3   0   9    0.85    0.30
  -4   0  -9    8.93    0.43
  -4  -1   9    5.70    0.69
   4  -1  -9    5.26    0.27
  -4  -1   9    5.17    0.22
  -4  -1   9    5.15    0.27
  -4   1   9    5.49    0.28
   4   1  -9    5.03    0.27
   4   1  -9    4.96    1.34
  -3  -1   9    2.89    0.23
  -3  -1   9    2.69    0.48
  -3  -1   9    3.51    1.44
   3  -1  -9    3.19    1.80
  -3  -1   9    2.81    0.17
   3  -1  -9    2.20    0.23
   3  -1  -9    1.87    0.48
  -3   1   9    2.43    0.15
  -3   1   9    2.70    0.55
  -3   1   9    2.72    1.66
   3   1  -9    2.59    0.39
  -3   1   9    1.95    0.26
   3   1  -9    2.59    0.24
  -2  -1   9    1.74    0.62
  -2  -1   9    0.70    0.17
  -2  -1   9    1.18    1.06
   2  -1  -9    2.01    0.99
  -2  -1   9    0.51    0.20
  -2  -1   9    2.11    0.67
  -2  -1   9    0.34    0.82
  -2  -1   9    0.66    0.27
  -2  -1   9    0.86    0.23
   2  -1  -9    0.29    0.29
   2   1  -9    0.74    1.22
  -2   1   9    0.42    0.22
   2   1  -9    1.09    0.38
   2   1  -9    0.52    0.28
   2   1  -9    0.41    0.82
   2   1  -9    1.41    0.64
   2   1  -9    0.61    0.15
   2   1  -9    1.69    1.07
  -1  -1   9   18.52    0.99
  -1  -1   9   17.05    0.84
   1  -1  -9   17.91    0.89
   1  -1  -9   17.66    1.19
  -1  -1   9   18.15    0.72
  -1  -1   9   17.23    0.81
  -1  -1   9   17.21    0.79
  -1  -1   9   16.97    1.33
  -1  -1   9   17.38    1.16
  -1  -1   9   15.34    0.95
  -1  -1   9   17.57    1.06
   1  -1  -9   16.75    0.97
   1   1  -9   17.72    0.82
  -1   1   9   14.95    0.80
   1   1  -9   16.65    1.18
   1   1  -9   16.42    0.99
  -1   1   9   15.34    1.03
   1   1  -9   15.40    0.86
   1   1  -9   16.09    0.71
  -1   1   9   16.19    0.76
   1   1  -9   19.21    1.15
   1   1  -9   17.90    1.51
  -1   1   9   15.44    1.22
   0  -1  -9    0.11    0.21
   0  -1  -9    0.36    0.57
   0  -1   9    0.35    0.51
   0  -1   9    0.11    0.15
   0  -1   9    0.29    0.43
   0  -1   9    0.06    0.14
   0  -1   9    0.18    0.48
   0  -1   9    0.83    0.62
   0  -1   9    0.19    0.14
   0  -1  -9    0.62    0.43
   0  -1  -9   -0.27    0.45
   0  -1   9   -0.10    0.36
   0  -1  -9    0.51    0.37
   0  -1  -9    0.05    0.15
   0  -1  -9    0.09    0.10
   0   1  -9   -0.28    0.45
   0   1   9    0.24    0.36
   0   1   9    0.04    0.14
   0   1  -9   -0.09    0.34
   0   1  -9    0.07    0.18
   0   1   9   -0.55    0.55
   0   1  -9   -0.04    0.10
   0   1   9   -0.41    0.43
   0   1   9    0.20    0.22
   0   1   9   -0.34    0.43
   0   1   9    0.22    0.15
   0   1  -9   -0.25    0.38
   0   1  -9    0.16    0.19
   1  -1   9  124.55    5.23
   1  -1   9  124.29    4.70
  -1  -1  -9  121.37    4.91
   1  -1   9  118.38    5.09
  -1  -1  -9  110.17    4.78
   1  -1   9  119.36    5.15
   1  -1   9  125.74    4.71
   1  -1   9  121.62    4.64
  -1  -1  -9  121.86    4.73
   1  -1   9  125.03    4.87
   1  -1   9  122.26    4.96
  -1  -1  -9  120.87    4.67
  -1  -1  -9  117.09    4.92
  -1  -1  -9  120.65    4.92
   1  -1   9  120.99    4.74
  -1  -1  -9  130.21    4.67
  -1   1  -9  118.52    4.76
  -1   1  -9  124.47    4.74
   1   1   9  118.42    4.67
   1   1   9  117.48    4.53
  -1   1  -9  114.42    4.61
  -1   1  -9  113.94    4.66
   1   1   9  113.18    4.68
  -1   1  -9  113.26    4.84
   1   1   9  116.22    4.54
  -1   1  -9  120.24    4.51
   1   1   9  121.27    4.56
   1   1   9  115.63    5.01
   1   1   9  118.89    4.78
  -2  -1  -9   47.78    1.87
   2  -1   9   37.44    3.08
   2  -1   9   45.02    1.99
  -2  -1  -9   47.38    2.42
   2  -1   9   45.76    2.80
   2  -1   9   46.84    2.48
   2  -1   9   50.96    1.95
  -2  -1  -9   43.20    2.35
   2   1   9   37.14    2.73
  -2   1  -9   46.31    1.76
  -2   1  -9   43.13    2.27
   2   1   9   45.26    1.85
  -2   1  -9   45.68    2.81
  -2   1  -9   42.16    2.28
   2   1   9   43.39    2.32
  -2   1  -9   38.78    1.91
  -3  -1  -9   14.05    0.81
  -3  -1  -9   13.59    0.59
  -3  -1  -9   13.94    0.65
   3  -1   9   13.10    0.90
  -3   1  -9   12.24    0.82
  -3   1  -9   12.20    0.61
   3   1   9   13.27    0.78
  -4  -1  -9    9.29    0.51
  -4  -2   9    0.16    0.06
  -4  -2   9    0.05    0.08
  -4  -2   9   -0.02    0.13
   4  -2  -9    0.12    0.09
  -4  -2   9   -0.38    0.35
   4   2  -9    0.17    0.12
   4   2  -9   -0.74    0.84
  -3  -2   9    8.03    0.89
  -3  -2   9   10.75    0.46
  -3  -2   9   10.32    0.56
  -3  -2   9    9.46    0.49
  -3  -2   9    9.89    0.43
   3  -2  -9    9.58    0.46
  -3  -2   9    9.23    0.66
   3  -2  -9   10.60    0.94
   3  -2  -9    9.85    0.40
  -3   2   9    8.95    0.70
   3   2  -9    8.68    1.06
   3   2  -9    6.95    1.35
  -2  -2   9   28.85    1.53
  -2  -2   9   28.45    1.82
  -2  -2   9   29.57    1.27
  -2  -2   9   28.46    1.15
  -2  -2   9   26.23    2.36
   2  -2  -9   28.87    1.37
   2  -2  -9   27.53    2.03
  -2  -2   9   22.79    1.60
  -2  -2   9   27.90    1.32
  -2  -2   9   27.61    1.80
   2   2  -9   25.86    2.11
   2   2  -9   25.95    2.01
   2   2  -9   25.72    2.69
  -2   2   9   27.26    1.69
  -2   2   9   26.61    1.22
   2   2  -9   26.31    1.60
   2   2  -9   27.91    1.30
   2   2  -9   28.09    1.39
   1  -2  -9   35.48    1.98
  -1  -2   9   34.70    1.47
  -1  -2   9   36.29    1.77
  -1  -2   9   36.38    1.67
   1  -2  -9   35.78    1.41
  -1  -2   9   34.09    1.51
   1  -2  -9   33.71    1.93
  -1  -2   9   32.98    2.05
  -1  -2   9   37.02    1.76
   1  -2  -9   34.09    1.96
  -1  -2   9   35.93    1.49
  -1  -2   9   33.28    1.61
  -1  -2   9   36.03    1.38
   1  -2  -9   34.60    1.56
   1   2  -9   35.04    1.81
   1   2  -9   36.39    2.27
  -1   2   9   28.29    1.45
   1   2  -9   30.69    1.63
   1   2  -9   36.31    1.40
  -1   2   9   32.93    1.39
   1   2  -9   34.09    1.48
   1   2  -9   31.78    1.59
  -1   2   9   31.18    1.82
   1   2  -9   32.15    1.32
  -1   2   9   33.20    1.66
  -1   2   9   29.94    1.78
   0  -2  -9   26.77    1.12
   0  -2   9   26.81    1.17
   0  -2   9   25.74    1.24
   0  -2   9   25.96    1.48
   0  -2   9   25.23    1.80
   0  -2  -9   26.14    1.42
   0  -2   9   26.41    1.07
   0  -2   9   28.59    1.18
   0  -2  -9   26.45    1.24
   0  -2  -9   27.70    1.57
   0  -2   9   26.28    1.67
   0  -2   9   26.42    1.19
   0  -2  -9   27.25    1.50
   0  -2  -9   27.34    1.18
   0  -2  -9   27.37    1.56
   0  -2  -9   27.35    1.09
   0  -2   9   27.99    1.42
   0   2  -9   24.89    1.49
   0   2  -9   24.89    1.11
   0   2   9   24.89    1.07
   0   2   9   25.11    1.32
   0   2  -9   25.48    1.32
   0   2   9   25.56    1.11
   0   2  -9   25.92    1.30
   0   2  -9   24.70    1.04
   0   2   9   25.77    1.35
   0   2   9   25.74    1.41
   0   2   9   24.61    1.55
   0   2   9   25.27    1.08
   0   2  -9   22.74    1.18
  -1  -2  -9   19.47    1.33
  -1  -2  -9   19.41    0.88
  -1  -2  -9   18.47    1.56
  -1  -2  -9   20.53    0.85
   1  -2   9   20.19    0.94
  -1  -2  -9   19.51    1.32
   1  -2   9   20.14    0.94
  -1  -2  -9   19.27    0.96
   1  -2   9   19.32    0.97
   1  -2   9   20.18    0.84
   1  -2   9   20.05    1.02
   1  -2   9   18.85    1.70
   1  -2   9   18.36    1.64
   1  -2   9   19.08    1.67
   1  -2   9   20.85    1.52
   1  -2   9   18.41    1.29
  -1   2  -9   19.11    1.24
   1   2   9   18.09    1.16
  -1   2  -9   17.13    0.94
  -1   2  -9   17.10    0.94
  -1   2  -9   17.61    1.19
  -1   2  -9   18.44    0.80
   1   2   9   18.32    0.84
  -1   2  -9   17.51    1.33
   1   2   9   18.15    1.62
  -1   2  -9   18.16    1.16
  -1   2  -9   14.77    1.30
   1   2   9   18.81    0.86
   1   2   9   19.77    1.35
  -2  -2  -9    2.00    1.05
  -2  -2  -9    3.81    0.40
   2  -2   9    2.93    1.49
  -2  -2  -9    2.71    0.27
  -2  -2  -9    2.23    1.57
   2  -2   9    2.30    0.47
   2  -2   9    4.21    1.26
  -2  -2  -9    3.73    0.35
   2  -2   9    3.40    0.22
   2  -2   9    3.80    0.36
   2  -2   9    3.35    0.63
  -2  -2  -9    3.01    0.97
  -2  -2  -9    2.39    0.45
  -2  -2  -9    3.11    0.38
   2  -2   9    2.60    0.53
   2  -2   9    2.57    1.43
   2   2   9    1.06    1.37
   2   2   9    2.95    0.43
  -2   2  -9    1.60    0.91
  -2   2  -9    3.23    1.02
   2   2   9    2.01    0.96
   2   2   9    2.99    0.48
  -2   2  -9    3.41    0.41
  -2   2  -9    6.10    1.27
   2   2   9    2.80    0.98
  -2   2  -9    2.83    0.64
   3  -2   9   64.22    2.62
  -3  -2  -9   69.17    2.76
   3  -2   9   68.50    2.58
   3  -2   9   69.18    2.93
  -3  -2  -9   67.79    2.61
  -3  -2  -9   68.24    2.59
  -3  -2  -9   69.21    2.77
   3   2   9   59.30    2.65
  -3   2  -9   62.67    2.72
   3   2   9   66.55    2.58
  -4  -2  -9   12.41    0.49
  -4  -2  -9   12.40    0.53
  -4   2  -9   11.00    0.47
   4  -3  -9   10.19    0.42
  -4  -3   9    9.82    0.40
  -4  -3   9    9.89    0.43
  -4  -3   9   10.10    0.42
   4   3  -9   10.01    0.43
  -3  -3   9   70.67    2.87
  -3  -3   9   73.17    2.80
  -3  -3   9   72.10    2.81
  -3  -3   9   77.15    3.02
   3  -3  -9   72.37    2.78
   3  -3  -9   75.63    2.81
   3  -3  -9   73.10    2.81
  -3  -3   9   73.22    2.79
  -3   3   9   86.77    3.62
  -2  -3   9    0.16    0.43
  -2  -3   9   -0.13    0.24
  -2  -3   9    0.98    1.65
   2  -3  -9    0.28    0.23
  -2  -3   9    0.29    0.11
   2  -3  -9    0.19    0.12
  -2  -3   9    1.05    0.95
  -2  -3   9    0.16    0.17
  -2  -3   9    0.01    0.20
  -2  -3   9    0.93    0.91
   2  -3  -9   -0.11    0.30
   2  -3  -9    1.50    1.32
   2  -3  -9    0.22    0.14
   2  -3  -9    0.04    0.07
  -2  -3   9    0.42    0.12
   2  -3  -9   -0.26    0.26
  -2   3   9    0.63    0.38
   2   3  -9    0.17    0.29
  -2   3   9    0.21    0.25
   2   3  -9   -0.79    1.15
   2   3  -9   -1.09    1.81
   2   3  -9    0.33    0.48
  -2   3   9   -0.34    1.00
   2   3  -9   -1.05    0.89
   1  -3  -9   67.26    2.60
  -1  -3   9   60.89    2.85
  -1  -3   9   61.80    2.79
  -1  -3   9   64.03    2.42
  -1  -3   9   61.88    2.54
   1  -3  -9   61.31    3.13
  -1  -3   9   61.86    3.31
  -1  -3   9   59.67    2.75
   1  -3  -9   63.96    2.44
  -1  -3   9   63.07    2.52
   1  -3  -9   58.13    3.30
   1   3  -9   54.82    2.82
   1   3  -9   59.82    2.24
   1   3  -9   57.46    2.50
   1   3  -9   56.34    2.40
  -1   3   9   56.90    2.58
  -1   3   9   51.57    2.32
   1   3  -9   53.77    2.50
  -1   3   9   56.13    2.75
  -1   3   9   54.32    2.27
   0  -3   9   71.91    2.67
   0  -3   9   67.42    2.86
   0  -3  -9   60.16    3.67
   0  -3  -9   67.30    2.83
   0  -3  -9   68.76    2.79
   0  -3  -9   70.54    3.28
   0  -3   9   71.71    2.80
   0  -3   9   70.07    2.78
   0  -3  -9   64.34    3.09
   0  -3  -9   71.34    2.69
   0  -3   9   70.02    2.79
   0  -3   9   74.08    3.22
   0   3  -9   59.06    2.54
   0   3   9   61.39    3.06
   0   3  -9   65.58    2.98
   0   3  -9   63.98    2.63
   0   3  -9   64.03    2.79
   0   3   9   64.49    2.53
   0   3  -9   67.09    2.77
   0   3   9   60.48    2.77
   0   3   9   61.36    2.83
   0   3   9   62.73    2.52
   0   3  -9   62.00    2.47
  -1  -3  -9   23.70    1.78
   1  -3   9   24.50    1.91
  -1  -3  -9   23.77    1.03
  -1  -3  -9   24.15    1.70
   1  -3   9   24.73    1.17
  -1  -3  -9   25.77    1.43
   1  -3   9   24.74    2.17
  -1  -3  -9   21.44    1.85
  -1  -3  -9   24.23    1.09
   1  -3   9   24.49    1.67
   1  -3   9   25.55    2.13
  -1   3  -9   23.70    1.52
   1   3   9   21.75    1.97
  -1   3  -9   23.92    1.61
   1   3   9   20.85    1.37
  -1   3  -9   22.12    1.44
  -1   3  -9   21.85    1.48
   1   3   9   21.04    0.99
   1   3   9   21.94    1.01
   1   3   9   21.99    1.68
  -1   3  -9   21.93    0.98
   2  -3   9   92.73    3.51
  -2  -3  -9   93.94    3.65
  -2  -3  -9   84.05    4.37
   2  -3   9   89.08    4.80
  -2  -3  -9   94.00    3.56
   2  -3   9   88.32    5.03
  -2  -3  -9   95.03    3.61
  -2  -3  -9   86.21    4.34
   2  -3   9   94.52    3.55
  -2  -3  -9   87.91    4.74
  -2  -3  -9   95.85    3.80
  -2  -3  -9   93.60    3.53
   2  -3   9   95.19    3.72
   2  -3   9   93.66    3.54
   2  -3   9   97.20    3.79
   2  -3   9   92.30    3.60
  -2   3  -9   78.54    4.13
   2   3   9   72.14    3.67
   2   3   9   77.86    4.73
   2   3   9   80.42    4.07
   2   3   9   88.59    3.29
  -2   3  -9   85.88    3.43
  -2   3  -9   74.40    3.97
   2   3   9   94.44    3.30
  -2   3  -9   83.32    3.41
  -3  -3  -9   65.72    2.63
  -3  -3  -9   64.87    2.47
   3  -3   9   63.43    2.44
   3  -3   9   66.51    2.81
  -3  -3  -9   60.53    2.84
  -3  -3  -9   64.61    2.49
  -3  -3  -9   63.82    2.45
   3  -3   9   62.60    2.48
  -3  -3  -9   65.85    2.61
   3   3   9   56.74    2.45
  -3   3  -9   56.43    2.57
   3   3   9   61.77    2.42
  -4  -3  -9    2.21    0.17
  -4  -3  -9    1.81    0.13
  -4   3  -9    1.75    0.15
  -4  -4   9   38.34    1.45
  -4  -4   9   37.38    1.44
  -4   4   9   35.95    1.37
  -3  -4   9    4.87    0.26
   3  -4  -9    4.95    0.70
  -3  -4   9    6.66    0.86
   3  -4  -9    4.98    0.21
   3  -4  -9    4.97    0.26
  -3  -4   9    4.87    0.25
  -3  -4   9    4.62    0.42
   3  -4  -9    4.58    0.26
  -3   4   9    3.29    0.62
   3   4  -9    4.14    0.47
   3   4  -9    4.63    0.83
   3   4  -9    3.02    0.99
   2  -4  -9  128.58    5.16
  -2  -4   9  144.40    5.04
   2  -4  -9  128.65    5.04
   2  -4  -9  130.19    5.27
  -2  -4   9  127.58    5.00
   2  -4  -9  129.38    5.04
  -2  -4   9  116.96    5.34
   2  -4  -9  146.02    5.07
  -2  -4   9  127.51    5.20
  -2   4   9  116.50    4.67
  -2   4   9  116.72    4.61
   2   4  -9  118.66    4.64
  -1  -4   9    2.76    0.22
  -1  -4   9    2.31    0.21
   1  -4  -9    2.10    0.45
   1  -4  -9    1.93    0.38
  -1  -4   9    1.82    0.36
  -1  -4   9    3.19    0.67
   1  -4  -9    1.06    0.94
  -1  -4   9    2.35    0.26
  -1  -4   9    3.57    1.82
   1  -4  -9    2.47    0.23
  -1  -4   9    2.09    0.41
   1  -4  -9    3.04    0.30
  -1  -4   9    3.38    1.11
  -1  -4   9    2.36    0.40
  -1  -4   9    3.83    0.94
  -1  -4   9    2.72    0.26
   1  -4  -9    2.21    0.22
  -1  -4   9    1.19    0.93
   1   4  -9    2.43    0.91
   1   4  -9    2.34    0.42
   1   4  -9    2.26    0.32
  -1   4   9    3.81    1.09
   1   4  -9    2.25    1.85
  -1   4   9    1.43    1.44
   1   4  -9    2.78    0.87
   1   4  -9    2.07    0.45
  -1   4   9    3.39    0.99
  -1   4   9    1.86    0.41
   1   4  -9    0.91    1.19
   0  -4   9   13.95    0.91
   0  -4  -9   13.92    0.64
   0  -4   9   13.62    0.60
   0  -4   9   13.56    0.92
   0  -4  -9   13.44    1.48
   0  -4  -9   14.78    1.84
   0  -4   9   14.20    0.63
   0  -4   9   14.78    1.53
   0  -4   9   12.70    0.59
   0  -4   9   12.01    2.31
   0  -4   9   16.43    1.67
   0  -4   9   13.62    0.60
   0  -4   9   16.75    2.06
   0  -4   9   14.54    0.81
   0  -4  -9   12.58    0.95
   0  -4  -9   13.96    2.26
   0  -4   9   13.67    0.79
   0  -4  -9   13.64    0.83
   0  -4  -9   13.11    0.60
   0   4  -9   11.68    0.72
   0   4   9   12.71    1.83
   0   4  -9   12.91    1.43
   0   4  -9   10.79    1.25
   0   4   9   13.27    0.76
   0   4   9   10.30    1.88
   0   4  -9   12.50    1.67
   0   4  -9   11.09    1.43
   0   4  -9   12.92    0.64
   0   4   9   11.08    1.23
   0   4  -9   12.55    0.87
   0   4   9   12.92    0.70
  -1  -4  -9   29.82    1.40
  -1  -4  -9   27.98    1.13
  -1  -4  -9   21.46    2.30
   1  -4   9   28.74    2.42
  -1  -4  -9   27.19    2.30
   1  -4   9   27.80    1.12
  -1  -4  -9   28.33    1.28
  -1  -4  -9   27.78    1.17
   1  -4   9   27.61    1.32
   1  -4   9   29.32    2.26
   1  -4   9   25.54    2.73
   1  -4   9   29.10    1.42
   1  -4   9   27.49    1.12
   1  -4   9   27.95    1.17
  -1   4  -9   24.14    2.01
  -1   4  -9   23.50    2.06
   1   4   9   25.90    1.15
  -1   4  -9   24.07    1.78
   1   4   9   22.95    1.65
   1   4   9   23.01    2.66
   1   4   9   24.48    1.11
  -2  -4  -9   83.42    3.24
  -2  -4  -9   85.54    3.26
   2  -4   9   81.23    3.44
   2  -4   9   84.35    3.26
   2  -4   9   89.91    3.55
   2  -4   9   83.47    3.25
  -2  -4  -9   86.31    3.56
   2  -4   9   81.91    3.32
  -2  -4  -9   86.76    3.33
   2  -4   9   84.73    3.22
  -2  -4  -9   84.78    3.38
   2   4   9   79.78    3.05
  -2   4  -9   71.72    3.19
   2   4   9   75.87    3.04
   3  -4   9   13.79    0.56
  -3  -4  -9   13.95    0.87
   3  -4   9   14.27    1.22
  -3  -4  -9   14.79    0.59
   3  -4   9   13.50    0.61
  -3  -4  -9   14.35    0.62
  -3  -4  -9   14.64    1.32
   3   4   9   10.48    0.86
  -3   4  -9   13.85    1.11
   3   4   9   12.62    0.85
   3  -5  -9    9.21    0.39
  -3  -5   9    8.95    0.39
   3  -5  -9    9.30    0.40
   3  -5  -9    9.33    0.36
  -3  -5   9    8.70    0.39
   2  -5  -9   16.62    0.68
  -2  -5   9   16.36    0.95
  -2  -5   9   16.28    0.66
   2  -5  -9   16.34    0.83
  -2  -5   9   15.99    0.67
   2  -5  -9   16.30    0.67
  -2  -5   9   15.79    1.35
  -2  -5   9   16.37    1.10
  -2  -5   9   15.45    0.73
   2  -5  -9   18.28    1.12
   2  -5  -9   15.94    1.02
   2  -5  -9   15.87    0.64
  -2   5   9   14.80    0.87
   2   5  -9   14.70    0.93
   2   5  -9   14.86    0.75
  -2   5   9   13.35    0.97
   1  -5  -9    5.64    0.63
  -1  -5   9    5.22    0.30
   1  -5  -9    4.39    0.40
   1  -5  -9    4.72    0.28
  -1  -5   9    4.79    0.28
  -1  -5   9    5.40    0.36
  -1  -5   9    3.70    0.89
  -1  -5   9    5.89    0.59
  -1  -5   9    4.66    0.80
  -1  -5   9    4.27    0.27
   1  -5  -9    4.92    0.84
   1  -5  -9    4.65    0.28
  -1  -5   9    4.76    0.69
  -1   5   9    4.71    0.60
  -1   5   9    4.06    0.59
   1   5  -9    4.75    0.55
   1   5  -9    4.52    0.43
   1   5  -9    3.35    0.57
   0  -5   9   50.27    2.39
   0  -5  -9   51.91    2.10
   0  -5   9   54.27    2.06
   0  -5   9   57.60    2.71
   0  -5   9   52.23    2.27
   0  -5   9   52.27    2.27
   0  -5  -9   51.99    2.06
   0  -5   9   52.65    2.06
   0  -5  -9   53.87    2.32
   0  -5   9   53.85    2.09
   0   5   9   45.31    1.90
   0   5  -9   46.62    2.07
   0   5  -9   44.94    1.91
   0   5  -9   41.39    1.90
  -1  -5  -9   16.96    1.11
   1  -5   9   18.38    0.76
   1  -5   9   20.22    1.48
  -1  -5  -9   18.13    0.84
  -1  -5  -9   18.15    0.77
   1  -5   9   17.03    1.03
   1  -5   9   17.67    0.76
   1  -5   9   18.04    0.84
   1   5   9   13.84    0.85
  -1   5  -9   15.91    1.00
  -2  -5  -9    2.94    0.48
  -2  -5  -9    3.23    0.25
  -2  -5  -9    2.37    0.63
   2  -5   9    2.76    0.58
   2  -5   9    3.78    0.24
   2  -5   9    3.98    0.54
   2  -5   9    3.44    0.21
  -2  -5  -9    3.38    0.26
   2  -5   9    3.39    0.22
  -2   5  -9    2.57    0.52
   2   5   9    3.51    0.51
  -2   5  -9    3.14    0.66
  -2   5  -9    3.19    0.59
  -3  -5  -9    2.90    0.19
   3  -5   9    3.05    0.20
  -3  -5  -9    2.86    0.19
  -3  -5  -9    2.68    0.22
   3  -5   9    2.76    0.14
   2  -6  -9   20.41    0.83
  -2  -6   9   20.77    0.84
   2  -6  -9   21.75    0.84
  -2  -6   9   20.70    0.82
   2  -6  -9   21.28    0.81
  -1  -6   9    8.26    1.22
   1  -6  -9    9.02    0.39
  -1  -6   9    9.45    0.44
   1  -6  -9    9.22    0.41
   1  -6  -9    8.07    0.55
  -1  -6   9    9.58    0.87
  -1  -6   9    8.04    0.52
  -1  -6   9    8.79    0.40
   1   6  -9    8.44    0.71
  -1   6   9    6.81    0.70
   0  -6   9    8.22    1.08
   0  -6   9   10.13    0.81
   0  -6  -9   10.21    1.00
   0  -6  -9    8.50    0.54
   0  -6   9    9.80    0.43
   0  -6  -9    9.46    0.43
   0  -6   9    8.40    0.54
   0  -6   9    9.64    0.42
   0   6  -9    6.43    0.99
   0   6   9    7.33    0.66
   0   6  -9    6.80    0.65
   1  -6   9    6.00    0.52
   1  -6   9    5.36    1.02
  -1  -6  -9    5.59    0.31
   1  -6   9    5.44    0.28
   1  -6   9    5.74    0.74
  -1  -6  -9    5.54    0.49
   1  -6   9    5.72    0.29
  -1   6  -9    4.15    0.60
   1   6   9    4.05    0.57
  -1   6  -9    4.85    0.94
  -1   6  -9    3.95    0.72
   2  -6   9    5.92    0.28
   2  -6   9    6.07    0.27
   2  -6   9    6.21    0.30
  -2  -6  -9    6.12    0.32
  -1  -7   9    5.00    0.25
   1  -7  -9    5.04    0.28
   0  -7  -9   21.27    0.82
   0  -7   9   19.77    0.81
   0  -7   9   19.99    0.80
   4   0 -10   20.26    0.81
  -3   0  10    0.34    0.18
  -3   0  10    0.46    0.07
  -3   0  10    0.71    0.15
  -3   0  10    1.23    0.43
   3   0 -10    0.85    0.52
   3   0 -10    0.56    0.15
  -3   0  10   -0.02    0.32
  -2   0  10    2.46    1.40
  -2   0  10    3.65    0.79
   2   0 -10    2.02    0.78
  -2   0  10    2.33    0.48
   2   0 -10    2.50    0.91
   2   0 -10    2.98    0.78
   2   0 -10    2.98    0.34
  -2   0  10    1.96    0.37
  -1   0  10    0.92    0.71
  -1   0  10    0.22    0.18
  -1   0  10   -0.03    0.19
   1   0 -10    0.03    0.21
   1   0 -10    0.09    0.12
   1   0 -10   -0.29    0.60
  -1   0  10    0.42    0.47
   1   0 -10    0.25    0.44
   0   0 -10    7.16    0.57
   0   0 -10    5.91    0.85
   0   0  10   10.27    2.02
   0   0  10    8.74    0.80
   0   0 -10    7.96    0.54
   0   0 -10    6.63    0.96
   0   0 -10    7.49    0.42
   0   0 -10    6.48    0.73
   0   0  10    7.63    0.95
   0   0  10    7.37    0.48
   0   0  10    7.86    0.47
   1   0  10  191.60    7.29
   1   0  10  159.87    7.50
  -1   0 -10  176.93    7.33
  -1   0 -10  174.32    7.07
   1   0  10  185.72    7.00
   1   0  10  186.97    7.00
  -1   0 -10  193.93    7.25
   1   0  10  188.99    7.19
  -1   0 -10  180.34    7.23
  -1   0 -10  186.29    6.97
   2   0  10   11.32    1.58
   2   0  10    8.05    1.71
  -2   0 -10    8.84    1.52
  -2   0 -10    9.83    0.57
  -2   0 -10    9.52    0.41
  -2   0 -10    8.59    1.33
  -2   0 -10    9.09    0.45
   2   0  10   10.27    0.62
  -3   0 -10    0.51    0.32
  -3   0 -10    0.25    0.07
  -3   0 -10    0.20    0.14
   3   0  10    0.09    0.31
  -4   0 -10   14.81    0.62
   4  -1 -10    4.27    0.23
  -4  -1  10    4.17    0.19
  -4  -1  10    4.51    0.27
   4   1 -10    3.96    0.23
  -3  -1  10    8.10    1.45
   3  -1 -10    8.07    0.42
  -3  -1  10    8.29    0.47
  -3  -1  10    6.91    0.64
  -3  -1  10    8.17    0.37
   3  -1 -10    8.78    0.93
  -3   1  10    6.88    0.68
   3   1 -10    6.16    0.41
   3   1 -10    4.74    1.24
  -3   1  10    6.57    0.43
  -2  -1  10   12.15    0.70
   2  -1 -10   12.02    1.58
  -2  -1  10   11.41    0.94
  -2  -1  10   12.95    2.07
  -2  -1  10    9.33    1.28
  -2  -1  10   13.25    1.35
   2  -1 -10   12.79    0.83
  -2  -1  10   13.17    0.61
  -2   1  10   11.04    0.64
   2   1 -10   10.33    2.64
   2   1 -10   11.78    1.25
   2   1 -10   10.71    1.68
   2   1 -10    9.69    2.15
  -2   1  10   10.33    1.24
   1  -1 -10   68.13    3.00
   1  -1 -10   69.26    2.80
  -1  -1  10   73.56    2.84
   1  -1 -10   74.87    3.25
  -1  -1  10   70.71    3.08
  -1  -1  10   74.11    2.87
  -1  -1  10   72.04    2.88
  -1  -1  10   75.86    2.78
  -1  -1  10   71.74    2.99
  -1  -1  10   65.15    2.96
  -1  -1  10   73.35    3.34
  -1  -1  10   71.13    3.20
   1  -1 -10   75.45    2.95
   1   1 -10   71.84    3.50
   1   1 -10   69.95    2.80
   1   1 -10   70.42    2.93
  -1   1  10   71.25    2.76
   1   1 -10   62.45    2.83
   1   1 -10   70.26    3.11
   1   1 -10   70.90    2.70
  -1   1  10   68.52    3.14
  -1   1  10   69.92    2.75
  -1   1  10   67.67    2.96
   1   1 -10   66.83    3.15
   0  -1  10    6.37    0.91
   0  -1  10    7.51    1.08
   0  -1  10    7.37    0.46
   0  -1  10    7.03    0.83
   0  -1  10    6.31    0.67
   0  -1 -10    6.09    0.88
   0  -1 -10    7.15    0.48
   0  -1 -10    4.31    1.04
   0  -1 -10    6.84    0.40
   0  -1 -10    6.16    0.97
   0  -1  10    6.68    0.49
   0  -1  10    7.50    1.44
   0  -1  10    7.28    0.41
   0  -1  10    6.80    0.53
   0  -1 -10    6.91    0.45
   0  -1 -10    6.62    0.76
   0  -1 -10    6.36    0.56
   0   1  10    7.57    0.81
   0   1 -10    6.39    0.93
   0   1  10    6.96    0.62
   0   1  10    7.23    0.47
   0   1 -10    7.74    0.55
   0   1 -10    6.93    0.55
   0   1  10    6.60    0.45
   0   1 -10    7.47    0.76
   0   1 -10    7.36    0.82
   0   1  10    7.33    1.25
   0   1 -10    6.83    0.40
   0   1 -10    6.52    0.76
   0   1  10    7.04    0.96
   1  -1  10   46.79    1.92
  -1  -1 -10   47.10    1.87
  -1  -1 -10   46.10    2.23
   1  -1  10   44.82    2.19
   1  -1  10   46.57    2.37
   1  -1  10   47.19    2.63
  -1  -1 -10   51.93    2.99
  -1  -1 -10   45.33    2.22
   1  -1  10   46.31    1.91
  -1  -1 -10   45.62    1.87
  -1  -1 -10   44.88    1.94
  -1   1 -10   44.33    2.16
  -1   1 -10   46.25    1.92
  -1   1 -10   45.34    1.80
   1   1  10   43.45    1.88
  -1   1 -10   45.67    2.13
   1   1  10   43.69    1.82
   1   1  10   45.08    2.29
   1   1  10   38.77    2.52
  -1   1 -10   46.40    2.29
   1   1  10   47.17    2.23
   2  -1  10   34.02    1.47
   2  -1  10   34.29    1.29
  -2  -1 -10   32.57    2.06
  -2  -1 -10   32.09    1.32
  -2  -1 -10   33.00    1.30
   2  -1  10   39.44    2.85
   2  -1  10   30.86    2.29
  -2  -1 -10   32.70    2.20
  -2  -1 -10   34.27    1.44
   2   1  10   29.64    2.20
  -2   1 -10   32.53    1.29
  -2   1 -10   32.28    2.10
   2   1  10   30.09    2.85
   2   1  10   33.11    1.41
  -2   1 -10   33.53    2.19
  -2   1 -10   34.67    1.40
  -3  -1 -10   26.35    1.23
  -3  -1 -10   26.45    1.00
  -3  -1 -10   25.77    1.03
   3  -1  10   23.38    1.34
  -3   1 -10   24.32    1.23
   3   1  10   24.79    1.19
  -3   1 -10   24.27    1.00
  -4  -1 -10   22.99    0.91
  -4  -2  10   12.46    0.53
   4  -2 -10   12.66    0.53
  -4  -2  10   13.21    0.51
   4   2 -10   12.96    0.54
  -3  -2  10   29.21    1.17
   3  -2 -10   30.55    1.13
  -3  -2  10   29.81    1.37
   3  -2 -10   30.35    1.18
  -3  -2  10   29.38    1.15
  -3  -2  10   28.52    1.27
   3  -2 -10   31.15    1.58
  -3  -2  10   28.39    1.54
  -3  -2  10   30.41    1.18
   3   2 -10   26.78    1.19
   3   2 -10   28.13    1.09
  -3   2  10   27.38    1.08
  -3   2  10   26.82    1.31
   3   2 -10   26.96    1.64
   2  -2 -10  103.11    4.06
  -2  -2  10  105.39    4.67
  -2  -2  10  110.92    4.12
   2  -2 -10  109.74    4.10
  -2  -2  10  107.81    4.29
   2  -2 -10  109.70    4.34
  -2  -2  10  103.94    4.08
  -2  -2  10  107.36    4.09
  -2  -2  10  110.61    4.67
  -2  -2  10   98.87    4.40
  -2  -2  10  110.22    4.22
  -2  -2  10  109.57    4.09
   2  -2 -10  108.14    4.90
  -2  -2  10  108.97    4.24
  -2  -2  10  107.64    4.10
  -2  -2  10  109.83    4.51
  -2  -2  10  104.80    5.17
   2  -2 -10  108.01    4.09
   2   2 -10  105.09    4.13
   2   2 -10  105.87    3.94
   2   2 -10   89.11    5.38
   2   2 -10   98.54    4.73
  -2   2  10   99.14    4.36
   2   2 -10  102.75    4.08
  -2   2  10  106.00    4.02
   2   2 -10  100.60    4.30
   2   2 -10  106.73    4.67
   1  -2 -10   80.11    2.99
  -1  -2  10   76.76    3.22
   1  -2 -10   80.88    3.86
   1  -2 -10   70.55    4.29
  -1  -2  10   75.89    3.08
   1  -2 -10   78.86    3.15
  -1  -2  10   73.64    3.18
   1  -2 -10   75.58    3.52
  -1  -2  10   77.31    2.95
  -1  -2  10   79.37    3.67
   1  -2 -10   80.00    3.06
  -1  -2  10   77.10    3.35
  -1  -2  10   76.03    3.05
  -1  -2  10   79.26    3.04
  -1  -2  10   64.36    3.63
   1   2 -10   76.72    3.90
  -1   2  10   84.15    3.61
   1   2 -10   74.48    3.43
   1   2 -10   72.67    3.05
   1   2 -10   77.19    3.27
  -1   2  10   72.12    2.96
   1   2 -10   76.05    2.98
   1   2 -10   72.90    3.24
   1   2 -10   71.80    2.89
  -1   2  10   68.18    3.03
   0  -2  10   34.39    1.79
   0  -2 -10   35.40    1.41
   0  -2  10   34.67    1.50
   0  -2 -10   34.19    1.79
   0  -2  10   30.68    2.26
   0  -2 -10   34.96    1.88
   0  -2  10   34.91    1.94
   0  -2 -10   35.46    1.56
   0  -2 -10   35.56    1.98
   0  -2  10   37.37    2.11
   0  -2  10   33.79    1.49
   0  -2  10   33.87    1.59
   0  -2 -10   34.31    1.43
   0  -2 -10   33.84    1.49
   0  -2 -10   35.56    2.08
   0  -2  10   36.82    1.39
   0  -2  10   35.35    1.49
   0   2 -10   33.53    1.65
   0   2 -10   33.87    1.42
   0   2  10   30.97    1.77
   0   2  10   34.03    2.05
   0   2 -10   31.78    1.87
   0   2  10   33.17    1.38
   0   2 -10   34.59    1.72
   0   2  10   32.53    1.43
   0   2  10   33.68    1.81
   0   2 -10   30.46    1.49
   0   2  10   31.78    1.37
   0   2 -10   31.24    1.61
   0   2 -10   32.47    1.34
   0   2  10   31.89    1.68
  -1  -2 -10   26.90    1.66
   1  -2  10   21.41    1.89
   1  -2  10   27.19    1.21
   1  -2  10   24.55    2.19
  -1  -2 -10   27.44    1.14
   1  -2  10   27.67    1.10
   1  -2  10   23.04    2.13
  -1  -2 -10   23.42    1.66
   1  -2  10   26.05    1.19
  -1  -2 -10   26.16    2.12
   1  -2  10   26.21    1.30
   1  -2  10   30.17    2.18
  -1  -2 -10   27.45    1.12
  -1  -2 -10   25.89    1.23
   1   2  10   24.20    1.65
  -1   2 -10   25.22    1.20
  -1   2 -10   26.37    1.72
   1   2  10   24.50    1.08
  -1   2 -10   25.54    1.05
  -1   2 -10   22.65    1.21
   1   2  10   24.25    1.12
   1   2  10   22.89    2.02
   1   2  10   20.41    1.57
  -1   2 -10   23.21    1.72
  -1   2 -10   25.56    1.54
  -1   2 -10   25.18    1.56
  -2  -2 -10   10.62    0.63
  -2  -2 -10    9.61    0.91
   2  -2  10   10.05    0.52
  -2  -2 -10    8.20    1.41
   2  -2  10   10.99    0.90
   2  -2  10    9.86    0.44
  -2  -2 -10   11.22    0.65
  -2  -2 -10   10.54    0.48
   2  -2  10   12.34    2.33
   2  -2  10    6.75    1.97
   2  -2  10   11.13    0.74
   2  -2  10    6.47    1.73
  -2  -2 -10    9.67    0.45
  -2   2 -10    6.93    1.46
  -2   2 -10    9.77    0.61
  -2   2 -10    8.34    0.88
  -2   2 -10   10.84    2.36
   2   2  10   13.07    2.70
   2   2  10    9.68    0.62
  -2   2 -10    9.58    0.47
   2   2  10    9.85    0.73
   2   2  10   11.80    1.87
  -2   2 -10   11.44    1.68
   3  -2  10   35.38    1.34
  -3  -2 -10   34.81    1.57
  -3  -2 -10   34.91    1.36
  -3  -2 -10   35.41    1.38
  -4  -2 -10    9.00    0.40
  -4  -2 -10    8.95    0.36
  -4  -3  10    4.20    0.19
  -4  -3  10    4.23    0.22
   4  -3 -10    4.33    0.22
  -4  -3  10    4.55    0.22
   4   3 -10    4.29    0.23
  -3  -3  10   24.69    0.99
  -3  -3  10   23.31    1.08
   3  -3 -10   25.41    1.00
  -3  -3  10   25.70    1.00
  -3  -3  10   25.76    1.41
  -3  -3  10   25.13    0.98
   3  -3 -10   25.27    0.96
   3  -3 -10   25.53    1.49
   3  -3 -10   25.99    1.26
  -3  -3  10   25.05    1.22
   3   3 -10   18.50    1.69
   3   3 -10   21.87    1.02
  -3   3  10   22.94    1.15
   3   3 -10   25.98    1.42
  -2  -3  10   20.55    0.84
  -2  -3  10   20.43    1.14
  -2  -3  10   21.41    0.90
  -2  -3  10   20.27    1.12
  -2  -3  10   18.42    1.33
  -2  -3  10   21.50    1.04
  -2  -3  10   21.97    0.86
   2  -3 -10   21.69    1.05
   2  -3 -10   20.88    0.82
   2  -3 -10   21.04    0.85
  -2  -3  10   20.93    0.87
   2  -3 -10   21.12    1.18
   2  -3 -10   21.59    0.86
  -2   3  10   19.89    1.01
   2   3 -10   20.59    1.12
   2   3 -10   19.17    0.90
   2   3 -10   20.77    1.27
  -1  -3  10    3.19    0.82
  -1  -3  10    2.31    0.26
  -1  -3  10    3.04    0.90
   1  -3 -10    2.18    0.19
  -1  -3  10    2.50    0.23
   1  -3 -10    2.71    0.43
  -1  -3  10    2.40    1.40
  -1  -3  10    2.82    0.68
   1  -3 -10    2.24    0.23
   1  -3 -10    3.05    0.55
  -1  -3  10    2.17    0.21
  -1  -3  10    2.47    0.27
   1  -3 -10    2.58    1.01
  -1  -3  10    3.22    0.45
   1  -3 -10    0.92    1.11
   1  -3 -10    2.47    0.33
  -1  -3  10    2.71    0.90
   1  -3 -10    2.24    0.21
   1   3 -10    2.57    0.96
   1   3 -10    2.10    0.77
   1   3 -10    1.93    0.85
   1   3 -10    2.08    0.41
  -1   3  10    3.20    0.93
   1   3 -10    2.72    1.48
  -1   3  10    2.77    0.57
   1   3 -10    1.81    0.27
   1   3 -10    1.62    0.34
  -1   3  10    1.64    1.29
  -1   3  10    2.17    0.44
  -1   3  10    1.91    0.97
   0  -3  10    0.40    0.16
   0  -3  10    0.35    0.17
   0  -3  10    0.16    0.22
   0  -3  10   -0.64    0.73
   0  -3 -10    0.50    0.80
   0  -3  10    0.41    0.25
   0  -3 -10    1.02    1.09
   0  -3  10   -0.43    0.83
   0  -3 -10    0.63    0.17
   0  -3  10    2.27    1.21
   0  -3  10    0.42    0.32
   0  -3 -10    0.48    0.26
   0  -3 -10    1.74    1.04
   0  -3 -10    0.00    0.47
   0  -3 -10    0.50    0.19
   0  -3  10    0.78    1.08
   0  -3  10    0.53    0.23
   0   3  10    2.40    0.87
   0   3  10    0.30    0.73
   0   3 -10   -0.05    0.67
   0   3  10    0.51    0.26
   0   3 -10    0.42    0.91
   0   3 -10   -0.02    0.65
   0   3 -10    0.20    0.14
   0   3  10    0.88    1.11
   0   3 -10    0.72    0.32
   0   3 -10    0.58    0.62
   0   3  10    0.32    0.25
   1  -3  10   33.24    1.51
  -1  -3 -10   31.78    1.30
  -1  -3 -10   32.18    1.35
   1  -3  10   30.92    1.41
   1  -3  10   30.46    1.25
   1  -3  10   29.89    2.66
  -1  -3 -10   32.84    1.47
  -1  -3 -10   30.54    2.23
  -1  -3 -10   29.47    1.25
  -1  -3 -10   28.37    1.24
   1  -3  10   30.61    1.24
   1  -3  10   31.00    2.68
   1  -3  10   32.33    1.44
   1  -3  10   35.05    2.12
   1  -3  10   31.57    1.29
   1  -3  10   31.77    2.57
  -1  -3 -10   30.39    2.38
   1  -3  10   28.70    1.21
  -1  -3 -10   31.12    2.11
  -1   3 -10   27.78    1.41
   1   3  10   28.32    2.12
  -1   3 -10   30.31    1.38
  -1   3 -10   27.02    1.91
   1   3  10   26.64    1.78
  -1   3 -10   29.66    1.22
  -1   3 -10   29.71    2.12
  -1   3 -10   28.63    1.95
  -1   3 -10   26.88    1.87
   1   3  10   24.25    2.46
   1   3  10   30.08    1.26
   1   3  10   28.70    1.28
   2  -3  10   27.89    1.40
   2  -3  10   29.35    1.47
  -2  -3 -10   27.67    1.24
  -2  -3 -10   27.76    1.27
   2  -3  10   28.19    1.14
   2  -3  10   28.08    1.09
  -2  -3 -10   27.99    1.48
  -2  -3 -10   26.28    1.12
  -2  -3 -10   27.94    1.15
  -2  -3 -10   27.28    1.09
   2  -3  10   28.16    1.12
   2   3  10   25.70    1.26
   2   3  10   26.62    1.21
  -2   3 -10   29.33    1.46
  -2   3 -10   23.20    1.44
  -3  -3 -10   36.60    1.78
   3  -3  10   39.78    2.02
  -3  -3 -10   39.70    2.27
  -3  -3 -10   40.52    1.55
  -3  -3 -10   41.38    1.58
  -3  -3 -10   40.82    1.57
  -3  -3 -10   40.85    1.76
   3  -3  10   41.56    1.58
   3  -3  10   40.13    1.53
   3   3  10   29.44    1.62
  -3   3 -10   34.94    1.73
  -3  -4  10   17.15    0.68
   3  -4 -10   15.25    1.04
  -3  -4  10   15.13    0.80
  -3  -4  10   17.39    1.22
  -3  -4  10   17.83    0.70
   3  -4 -10   18.17    0.67
   3  -4 -10   18.06    0.70
   3  -4 -10   18.60    0.70
  -3  -4  10   18.04    0.69
   3  -4 -10   16.09    1.22
   3   4 -10   15.25    0.80
  -3   4  10   15.27    0.92
   3   4 -10   14.85    1.17
  -2  -4  10   25.33    1.00
   2  -4 -10   23.63    1.47
  -2  -4  10   25.53    1.64
  -2  -4  10   25.20    1.07
  -2  -4  10   25.31    1.01
  -2  -4  10   27.90    1.37
  -2  -4  10   25.33    1.22
   2  -4 -10   25.70    1.25
   2  -4 -10   25.67    1.01
   2  -4 -10   25.07    1.01
   2  -4 -10   24.78    0.98
   2   4 -10   23.81    1.23
  -2   4  10   22.90    1.15
   2   4 -10   22.83    1.04
   1  -4 -10    5.39    0.43
  -1  -4  10    6.09    0.31
  -1  -4  10    5.39    0.69
  -1  -4  10    5.35    0.85
  -1  -4  10    5.47    0.38
  -1  -4  10    5.90    0.34
   1  -4 -10    5.84    0.31
   1  -4 -10    6.20    0.59
   1  -4 -10    5.94    0.31
  -1  -4  10    6.35    0.63
   1  -4 -10    5.03    0.28
   1  -4 -10    5.45    0.74
  -1  -4  10    5.35    0.52
  -1  -4  10    5.89    0.30
  -1   4  10    4.24    0.66
   1   4 -10    5.55    0.74
   1   4 -10    5.27    0.40
   1   4 -10    5.19    0.51
  -1   4  10    5.12    0.54
   0  -4 -10    2.57    1.16
   0  -4 -10    1.46    1.60
   0  -4  10    3.36    1.24
   0  -4  10    1.99    0.22
   0  -4 -10    1.98    0.31
   0  -4 -10    2.15    0.50
   0  -4  10    1.68    0.22
   0  -4 -10    2.08    0.22
   0  -4  10    2.01    0.21
   0  -4  10    1.76    0.29
   0  -4  10    1.96    0.32
   0  -4  10    1.47    0.44
   0  -4  10   -0.42    1.71
   0  -4  10    0.75    1.17
   0  -4  10    1.05    0.36
   0  -4  10    1.53    0.34
   0  -4 -10    1.53    0.48
   0  -4  10   -2.06    2.07
   0   4 -10    1.99    0.34
   0   4 -10    1.56    0.39
   0   4 -10    0.92    1.26
   0   4 -10    2.92    1.98
   0   4 -10   -0.62    1.10
   0   4  10    0.44    0.95
   0   4 -10    2.01    0.37
   0   4  10    4.44    1.58
   0   4  10    1.88    0.46
   0   4 -10    1.98    0.97
   1  -4  10   16.86    0.80
   1  -4  10   16.89    0.97
   1  -4  10   17.49    1.08
  -1  -4 -10   17.13    0.81
   1  -4  10   16.81    0.72
  -1  -4 -10   17.38    0.73
   1  -4  10   17.16    0.72
  -1  -4 -10   15.95    1.01
  -1   4 -10   13.35    0.90
   1   4  10   14.94    0.81
  -1   4 -10   15.45    1.02
   2  -4  10    7.85    0.80
   2  -4  10    8.75    0.70
   2  -4  10    7.80    0.40
   2  -4  10    7.82    0.91
   2  -4  10    7.70    0.36
   2  -4  10    8.02    0.39
  -2  -4 -10    8.40    0.42
  -2  -4 -10    7.64    0.58
  -2  -4 -10    8.64    0.73
  -2  -4 -10    7.52    0.94
  -2  -4 -10    7.75    0.40
   2   4  10    6.79    0.62
   2   4  10    7.54    0.66
  -2   4 -10    6.46    1.03
  -2   4 -10    6.91    0.90
  -2   4 -10    4.75    1.00
  -3  -4 -10    9.60    0.41
  -3  -4 -10    9.82    0.45
  -3  -4 -10    9.80    0.42
   3  -4  10    9.29    0.43
   3  -4  10    9.38    0.39
  -3  -5  10   12.05    0.48
  -3  -5  10   11.27    0.48
   3  -5 -10   12.71    0.49
  -3  -5  10   11.25    0.47
   2  -5 -10   32.11    1.24
  -2  -5  10   32.62    1.60
   2  -5 -10   30.20    1.55
   2  -5 -10   34.37    1.65
  -2  -5  10   32.30    1.24
  -2  -5  10   27.13    1.85
   2  -5 -10   32.27    1.22
   2  -5 -10   33.06    1.25
  -2  -5  10   33.34    1.24
  -2  -5  10   31.25    1.49
   2  -5 -10   32.13    1.43
  -2  -5  10   29.42    1.29
   2   5 -10   24.71    1.33
   2   5 -10   28.77    1.16
  -2   5  10   24.25    1.40
  -2   5  10   26.20    1.27
   1  -5 -10  139.62    5.18
  -1  -5  10  135.32    5.30
   1  -5 -10  136.09    5.41
   1  -5 -10  131.35    5.10
   1  -5 -10  140.71    5.34
  -1  -5  10  129.50    5.13
  -1  -5  10  131.54    5.49
  -1  -5  10  131.32    5.09
  -1  -5  10  133.48    5.34
  -1  -5  10  138.02    5.11
  -1  -5  10  132.63    5.31
  -1  -5  10  138.37    5.11
   1  -5 -10  130.50    5.09
   1  -5 -10  135.00    5.11
  -1   5  10  115.17    4.73
  -1   5  10  118.95    4.78
   1   5 -10  116.87    4.65
   1   5 -10  124.54    4.72
   1   5 -10  126.17    4.87
   0  -5  10    0.41    0.13
   0  -5  10   -0.40    0.68
   0  -5  10    0.22    0.10
   0  -5  10    0.13    0.49
   0  -5  10    0.38    0.30
   0  -5 -10    0.30    0.62
   0  -5 -10    0.40    0.13
   0  -5  10    0.04    0.64
   0  -5  10    0.25    0.14
   0   5 -10   -0.42    0.46
   0   5 -10    0.20    0.37
  -1  -5 -10    7.80    0.39
   1  -5  10    7.35    0.37
   1  -5  10    8.09    0.53
   1  -5  10    7.98    0.37
   1  -5  10    5.96    0.94
  -1  -5 -10    7.92    0.86
   1  -5  10    7.26    0.73
  -1  -5 -10    6.52    0.51
  -1   5 -10    7.16    0.74
   1   5  10    7.01    0.60
  -1   5 -10    7.25    0.89
  -1   5 -10    7.42    0.82
  -2  -5 -10   25.10    1.62
   2  -5  10   30.94    1.11
   2  -5  10   26.41    1.62
  -2  -5 -10   27.68    1.11
  -2  -5 -10   26.84    1.09
   2  -5  10   27.53    1.07
  -2  -5 -10   26.57    1.23
   2  -5  10   28.45    1.10
   2   5  10   20.84    1.11
  -2   5 -10   22.56    1.37
  -3  -5 -10    4.61    0.24
  -3  -5 -10    4.67    0.22
   3  -5  10    5.00    0.20
  -3  -5 -10    4.86    0.26
  -2  -6  10    3.25    0.20
   2  -6 -10    3.38    0.22
   2  -6 -10    3.49    0.18
   2  -6 -10    3.61    0.16
  -2  -6  10    3.39    0.20
   1  -6 -10   12.25    0.52
   1  -6 -10   12.68    0.54
   1  -6 -10   12.21    0.50
  -1  -6  10   12.47    0.53
  -1  -6  10   12.70    0.52
   0  -6  10   50.18    1.87
   0  -6  10   47.05    1.94
   0  -6  10   44.87    2.64
   0  -6  10   48.35    1.86
   0  -6 -10   51.67    1.87
   0  -6 -10   46.48    1.95
   1  -6  10    0.63    0.11
   1  -6  10    0.75    0.15
  -1  -6 -10    0.77    0.13
   2  -6  10    8.98    0.37
  -2  -6 -10    8.10    0.38
   2  -6  10    8.30    0.34
   2  -6  10    7.98    0.35
  -4   0  11   12.49    0.55
   4   0 -11   14.16    0.56
   3   0 -11   27.10    1.53
  -3   0  11   25.30    1.31
  -3   0  11   26.21    1.00
   3   0 -11   25.89    1.04
  -3   0  11   25.68    1.04
   2   0 -11    0.34    0.29
  -2   0  11    0.25    0.91
   2   0 -11    1.40    1.03
  -2   0  11   -0.07    0.16
  -2   0  11    0.09    0.07
  -2   0  11    0.41    0.26
   2   0 -11    0.24    0.16
  -2   0  11   -0.10    0.34
   2   0 -11   -0.10    0.21
   1   0 -11   79.83    3.53
  -1   0  11   84.50    3.35
  -1   0  11   89.36    3.82
   1   0 -11   82.69    3.30
   1   0 -11   90.39    3.85
  -1   0  11   83.58    3.87
   1   0 -11   84.14    3.44
  -1   0  11   84.36    3.36
   0   0  11    0.64    0.73
   0   0  11    0.18    0.58
   0   0 -11    0.60    0.54
   0   0 -11    0.11    0.23
   0   0 -11    0.42    0.73
   0   0  11    0.09    0.20
  -1   0 -11    2.45    0.79
   1   0  11    4.49    0.88
  -1   0 -11    2.71    0.55
  -1   0 -11    4.18    0.83
   1   0  11    4.43    0.90
   1   0  11    3.37    0.60
  -1   0 -11    3.77    0.33
  -1   0 -11    3.48    1.00
   1   0  11    3.04    0.49
   1   0  11    1.94    1.44
  -2   0 -11  233.56    8.56
   2   0  11  239.64    8.72
  -2   0 -11  226.00    8.58
   2   0  11  210.87    9.65
  -2   0 -11  215.44    9.15
  -2   0 -11  235.04    8.70
  -2   0 -11  227.24    9.18
   3   0  11    5.63    0.69
  -3   0 -11    6.09    0.33
  -3   0 -11    5.61    0.67
  -4   0 -11    0.56    0.13
   4  -1 -11    2.74    0.17
  -4  -1  11    2.07    0.17
  -4  -1  11    2.51    0.12
   4   1 -11    2.41    0.18
  -3  -1  11   48.16    1.80
  -3  -1  11   47.54    1.77
  -3  -1  11   42.94    1.99
   3  -1 -11   46.22    1.80
   3  -1 -11   47.19    2.19
   3   1 -11   42.51    3.20
   3   1 -11   45.88    1.76
  -3   1  11   46.33    1.76
  -3   1  11   46.48    1.97
  -2  -1  11    8.21    0.64
  -2  -1  11    8.49    0.42
  -2  -1  11   10.15    1.56
  -2  -1  11    8.47    0.37
   2  -1 -11    9.11    1.77
   2  -1 -11    8.96    0.41
  -2  -1  11    7.68    0.55
  -2  -1  11    7.58    0.41
   2  -1 -11   10.38    0.75
  -2  -1  11    8.87    0.64
   2  -1 -11    8.26    0.35
  -2  -1  11   12.41    1.95
  -2  -1  11    8.58    0.77
  -2   1  11    7.64    0.58
   2   1 -11    7.87    1.13
  -2   1  11    8.11    0.39
  -2   1  11    5.87    0.99
   2   1 -11    8.97    0.78
   2   1 -11    7.99    1.43
   2   1 -11    7.79    0.49
   2   1 -11    6.28    1.41
  -1  -1  11   24.83    2.05
  -1  -1  11   24.42    1.54
  -1  -1  11   24.43    1.10
   1  -1 -11   21.86    1.49
  -1  -1  11   23.17    1.95
   1  -1 -11   23.95    1.18
  -1  -1  11   25.55    1.01
  -1  -1  11   21.18    1.32
   1  -1 -11   21.23    1.69
   1  -1 -11   24.53    1.03
  -1  -1  11   24.93    1.11
  -1  -1  11   24.55    1.14
  -1   1  11   23.16    1.14
   1   1 -11   23.95    1.25
   1   1 -11   24.13    1.42
   1   1 -11   22.68    1.23
  -1   1  11   23.17    1.98
   1   1 -11   24.10    1.82
  -1   1  11   24.87    1.09
   1   1 -11   25.26    1.04
  -1   1  11   25.05    1.49
   0  -1 -11   39.91    2.03
   0  -1 -11   42.46    2.15
   0  -1  11   42.48    1.76
   0  -1  11   41.65    2.07
   0  -1 -11   44.02    2.24
   0  -1 -11   41.52    1.82
   0  -1 -11   41.90    1.69
   0  -1 -11   42.38    1.75
   0  -1  11   42.58    1.68
   0  -1  11   40.42    1.75
   0   1  11   40.40    2.11
   0   1  11   37.73    2.46
   0   1  11   39.66    1.93
   0   1 -11   39.24    1.71
   0   1 -11   38.13    1.73
   0   1  11   39.60    1.63
   0   1 -11   41.90    2.01
   0   1 -11   37.22    1.59
   0   1  11   39.55    1.64
   0   1 -11   37.78    2.63
   1  -1  11   -0.26    0.21
  -1  -1 -11    1.00    0.79
  -1  -1 -11   -1.21    0.74
   1  -1  11   -0.02    0.27
   1  -1  11   -0.29    0.89
   1  -1  11   -0.49    0.89
  -1   1 -11    0.24    0.28
  -1   1 -11    0.15    0.66
   1   1  11    0.04    0.21
   1   1  11    0.26    1.33
  -1   1 -11    0.56    0.91
   1   1  11   -0.16    0.85
  -2  -1 -11   47.32    2.91
   2  -1  11   55.87    2.01
   2  -1  11   54.78    2.21
   2  -1  11   52.06    3.22
  -2  -1 -11   55.21    2.18
  -2  -1 -11   54.44    2.05
  -2  -1 -11   53.99    2.02
   2  -1  11   44.65    3.80
  -2   1 -11   47.56    2.94
  -2   1 -11   49.23    2.89
   2   1  11   43.89    3.78
   2   1  11   48.25    2.89
  -2   1 -11   54.36    2.08
   2   1  11   53.39    2.09
  -2   1 -11   51.27    1.95
  -3  -1 -11    9.09    0.73
   3  -1  11    8.29    0.84
  -3  -1 -11    8.38    0.41
  -3  -1 -11    8.22    0.36
  -3   1 -11    7.42    0.84
  -3   1 -11    8.98    0.42
   3   1  11    8.93    0.71
  -4  -1 -11   23.14    0.91
  -4  -2  11    4.71    0.24
   4  -2 -11    4.75    0.23
  -4  -2  11    4.64    0.20
   4   2 -11    4.25    0.23
   3  -2 -11   17.28    1.17
  -3  -2  11   15.83    1.20
  -3  -2  11   17.00    0.65
  -3  -2  11   16.85    0.68
  -3  -2  11   16.50    0.67
  -3  -2  11   15.62    0.94
   3  -2 -11   16.68    0.68
  -3   2  11   15.71    0.64
   3   2 -11   13.65    1.49
   3   2 -11   16.00    0.65
  -3   2  11   14.34    0.92
   3   2 -11   15.89    0.80
  -2  -2  11  123.38    4.77
  -2  -2  11  129.53    4.55
  -2  -2  11  117.99    4.54
  -2  -2  11  122.90    4.68
  -2  -2  11  116.55    4.52
   2  -2 -11  124.02    4.55
  -2  -2  11  112.23    5.88
  -2  -2  11  106.48    5.07
  -2  -2  11  127.49    4.56
  -2  -2  11  126.67    4.72
  -2  -2  11  124.58    4.59
  -2  -2  11  109.49    5.17
   2  -2 -11  122.29    4.82
  -2  -2  11  104.78    5.38
   2   2 -11  116.67    4.51
  -2   2  11  118.09    4.39
   2   2 -11  100.21    5.30
   2   2 -11  107.27    6.26
   2   2 -11  109.72    5.35
   2   2 -11  102.30    4.72
   2   2 -11  114.06    4.30
  -2   2  11  112.28    4.84
   2   2 -11  116.30    4.49
  -1  -2  11   46.24    2.33
   1  -2 -11   48.38    1.91
  -1  -2  11   44.49    2.30
  -1  -2  11   46.38    1.94
   1  -2 -11   43.86    1.76
   1  -2 -11   45.98    2.01
   1  -2 -11   44.35    2.60
  -1  -2  11   46.99    2.87
  -1  -2  11   42.04    2.50
  -1  -2  11   41.87    1.75
  -1  -2  11   46.40    1.91
  -1  -2  11   44.74    1.77
  -1  -2  11   46.36    1.79
   1   2 -11   45.82    1.94
   1   2 -11   44.23    3.16
  -1   2  11   43.99    1.89
   1   2 -11   51.97    2.05
   1   2 -11   47.22    2.61
   1   2 -11   43.38    1.83
   1   2 -11   42.35    2.21
  -1   2  11   44.58    2.31
   1   2 -11   45.75    2.51
   0  -2  11    2.91    0.33
   0  -2 -11    3.78    0.45
   0  -2 -11    4.23    1.00
   0  -2  11    4.29    1.52
   0  -2 -11    4.97    1.55
   0  -2  11    1.66    0.77
   0  -2 -11    3.72    0.38
   0  -2  11    3.79    1.09
   0  -2  11    2.91    0.72
   0  -2 -11    2.99    0.54
   0  -2 -11    3.34    0.38
   0  -2 -11    3.57    1.14
   0  -2  11    3.48    0.47
   0  -2  11    3.02    0.51
   0  -2 -11    1.25    1.10
   0   2 -11    4.45    1.30
   0   2  11    2.92    0.81
   0   2  11    2.86    0.40
   0   2 -11    3.24    0.49
   0   2  11    2.60    0.55
   0   2 -11    1.89    0.79
   0   2 -11    3.72    0.93
   0   2 -11    2.71    0.71
   0   2  11    2.71    0.45
   0   2 -11    2.10    0.49
   0   2  11    2.45    1.07
  -1  -2 -11   22.30    3.03
  -1  -2 -11   29.08    1.35
   1  -2  11   24.36    2.75
  -1  -2 -11   28.00    1.23
  -1  -2 -11   27.13    1.09
   1  -2  11   30.41    1.30
   1  -2  11   28.49    1.09
   1  -2  11   29.48    1.56
  -1  -2 -11   29.85    1.23
  -1  -2 -11   27.80    1.17
  -1  -2 -11   25.76    1.12
   1  -2  11   27.69    1.13
   1  -2  11   28.00    1.98
   1  -2  11   29.52    1.32
   1  -2  11   30.17    2.28
  -1  -2 -11   25.17    1.97
  -1  -2 -11   28.59    1.94
  -1   2 -11   27.56    1.82
   1   2  11   24.96    3.17
  -1   2 -11   26.40    1.33
  -1   2 -11   26.57    2.12
   1   2  11   27.70    1.92
   1   2  11   24.58    2.49
   1   2  11   26.07    1.25
  -1   2 -11   27.30    1.37
   1   2  11   27.07    1.19
  -1   2 -11   27.26    2.17
  -1   2 -11   27.76    1.16
  -2  -2 -11   12.24    0.80
   2  -2  11   11.05    0.84
   2  -2  11   11.77    0.50
  -2  -2 -11   13.50    1.20
  -2  -2 -11   11.66    0.50
   2  -2  11   13.32    1.22
  -2  -2 -11   12.00    0.54
  -2  -2 -11   11.79    0.71
  -2   2 -11   10.86    0.50
  -2   2 -11    9.72    1.42
  -2   2 -11   10.69    0.67
   2   2  11   10.77    0.69
   2   2  11   11.22    0.93
  -3  -2 -11    4.91    0.28
  -3  -2 -11    4.66    0.63
  -3  -2 -11    5.13    0.24
   3   2  11    5.45    0.64
  -4  -2 -11    3.70    0.21
   4  -3 -11    2.85    0.16
  -4  -3  11    2.66    0.16
  -4  -3  11    2.68    0.13
  -3  -3  11   45.81    1.75
   3  -3 -11   46.02    1.75
  -3  -3  11   45.09    1.74
   3  -3 -11   46.04    2.17
  -3  -3  11   46.87    2.10
   3  -3 -11   44.93    1.97
  -3  -3  11   39.54    1.82
  -3  -3  11   46.28    1.72
  -3  -3  11   43.17    1.94
   3  -3 -11   48.33    1.71
  -3   3  11   42.70    1.60
  -3   3  11   42.66    1.81
   3   3 -11   38.28    2.06
   3   3 -11   41.08    1.71
  -2  -3  11   15.32    1.01
   2  -3 -11   16.02    0.91
  -2  -3  11   15.16    0.74
  -2  -3  11   16.65    0.71
  -2  -3  11   15.93    0.89
   2  -3 -11   14.58    0.71
  -2  -3  11   18.72    0.76
   2  -3 -11   16.38    1.05
  -2  -3  11   14.94    1.27
  -2  -3  11   15.42    1.01
   2  -3 -11   16.45    0.68
   2   3 -11   14.52    1.13
  -2   3  11   15.09    0.85
   2   3 -11   12.83    0.99
   2   3 -11   14.42    0.71
   1  -3 -11   14.43    2.38
   1  -3 -11   13.29    0.56
  -1  -3  11   13.90    0.81
  -1  -3  11   13.59    0.65
  -1  -3  11   13.71    1.75
   1  -3 -11   13.49    0.59
  -1  -3  11   13.24    0.88
   1  -3 -11   14.17    0.60
   1  -3 -11   14.18    0.81
  -1  -3  11   13.74    0.60
  -1  -3  11   13.08    2.07
   1  -3 -11   14.41    0.73
  -1  -3  11   14.00    0.61
  -1  -3  11   13.45    1.06
  -1  -3  11   16.99    1.81
  -1  -3  11   13.38    0.59
   1  -3 -11   15.20    0.95
  -1  -3  11   14.16    0.79
   1   3 -11   10.74    1.43
   1   3 -11   10.39    1.76
  -1   3  11   12.41    0.75
   1   3 -11   14.73    2.85
   1   3 -11   12.21    0.64
  -1   3  11   11.76    1.67
   1   3 -11   13.39    0.78
   1   3 -11   11.86    2.06
  -1   3  11   13.10    0.92
   1   3 -11   12.01    0.90
   0  -3  11   19.81    0.84
   0  -3  11   20.98    0.86
   0  -3 -11   21.14    1.06
   0  -3  11   21.12    0.90
   0  -3  11   20.38    1.04
   0  -3  11   23.00    2.04
   0  -3  11   23.80    1.84
   0  -3 -11   18.11    2.08
   0  -3  11   20.62    0.85
   0  -3 -11   19.97    0.85
   0  -3 -11   20.08    0.82
   0  -3 -11   19.23    2.21
   0  -3  11   19.80    1.21
   0  -3  11   21.29    2.56
   0  -3  11   17.61    2.64
   0  -3 -11   24.20    2.53
   0  -3  11   20.55    1.04
   0  -3 -11   21.68    0.94
   0  -3 -11   20.93    1.15
   0  -3  11   20.87    1.07
   0   3  11   18.93    2.39
   0   3  11   22.36    1.79
   0   3 -11   17.20    1.66
   0   3 -11   17.36    1.59
   0   3 -11   17.28    1.51
   0   3 -11   15.04    2.00
   0   3  11   19.20    1.00
   0   3 -11   19.87    0.98
   0   3 -11   18.96    0.87
   0   3 -11   19.25    1.08
   0   3  11   18.64    1.90
   0   3  11   17.25    0.93
   1  -3  11    0.71    0.40
  -1  -3 -11    0.45    0.37
   1  -3  11    0.14    1.95
   1  -3  11    0.36    0.30
   1  -3  11    0.83    0.28
  -1  -3 -11    0.79    0.11
   1  -3  11    0.94    0.16
  -1  -3 -11    0.46    0.19
  -1  -3 -11   -0.85    1.48
  -1  -3 -11   -0.88    1.75
   1  -3  11    1.19    1.32
   1  -3  11    0.63    0.14
  -1  -3 -11    0.87    0.26
   1  -3  11    0.76    0.12
  -1  -3 -11    0.77    0.26
  -1  -3 -11    2.04    1.32
  -1  -3 -11    0.42    0.16
   1  -3  11    0.46    0.34
   1  -3  11    1.49    1.88
  -1   3 -11    0.32    0.35
  -1   3 -11    2.39    1.11
  -1   3 -11    1.16    0.40
  -1   3 -11   -0.45    1.29
  -1   3 -11    0.47    0.21
   1   3  11    4.25    1.98
   1   3  11   -1.12    1.44
   1   3  11   -0.14    1.10
   1   3  11    0.78    0.30
  -1   3 -11    2.50    1.36
   2  -3  11    2.81    0.61
   2  -3  11    2.53    0.26
   2  -3  11    2.71    0.27
  -2  -3 -11    2.69    0.21
   2  -3  11    3.28    0.19
  -2  -3 -11    2.68    0.25
  -2  -3 -11    2.21    0.34
  -2  -3 -11    4.02    0.88
  -2  -3 -11    3.12    0.30
  -2   3 -11    1.82    0.49
   2   3  11    1.65    0.43
  -3  -3 -11    5.08    0.72
  -3  -3 -11    5.52    0.28
  -3  -3 -11    5.41    0.25
  -3  -3 -11    5.04    0.34
   3   3  11    5.34    0.68
  -3  -4  11    6.40    0.28
  -3  -4  11    6.14    0.30
  -3  -4  11    6.26    0.30
   3  -4 -11    6.66    0.26
   3  -4 -11    6.61    0.30
  -2  -4  11    2.07    0.24
   2  -4 -11    1.74    0.17
  -2  -4  11    1.96    0.43
   2  -4 -11    1.40    0.50
   2  -4 -11    1.76    0.39
  -2  -4  11    2.21    0.54
  -2  -4  11    2.38    0.35
  -2  -4  11    1.90    0.18
   2  -4 -11    2.14    0.18
   2  -4 -11    2.07    0.13
  -2  -4  11    2.10    0.18
   2   4 -11    1.93    0.38
   2   4 -11    1.45    0.45
  -2   4  11    1.04    0.38
  -1  -4  11   80.03    3.23
   1  -4 -11   78.22    3.02
  -1  -4  11   77.56    3.26
  -1  -4  11   77.51    3.05
  -1  -4  11   79.90    3.20
   1  -4 -11   81.44    3.11
   1  -4 -11   77.30    3.22
  -1  -4  11   83.31    3.03
   1  -4 -11   74.11    2.99
  -1  -4  11   79.15    3.03
   1  -4 -11   80.55    3.02
  -1  -4  11   76.74    3.40
   1  -4 -11   80.07    3.34
  -1  -4  11   78.62    3.01
  -1   4  11   72.94    2.96
   1   4 -11   72.58    3.08
  -1   4  11   74.58    3.05
   1   4 -11   71.87    2.95
   1   4 -11   72.87    2.88
   0  -4  11    3.15    0.55
   0  -4  11    2.71    0.38
   0  -4 -11    3.67    0.40
   0  -4  11    3.66    0.38
   0  -4  11    4.20    0.79
   0  -4 -11    3.75    0.34
   0  -4  11    2.55    0.46
   0  -4  11    4.00    0.30
   0  -4  11    3.51    0.57
   0  -4 -11    2.67    0.58
   0   4 -11    2.63    0.43
   0   4 -11    2.71    0.51
   0   4 -11    1.96    0.43
   0   4  11    3.48    0.58
   1  -4  11    5.17    0.29
   1  -4  11    5.39    0.30
   1  -4  11    5.39    0.66
  -1  -4 -11    4.83    0.32
   1  -4  11    5.74    0.83
   1  -4  11    5.10    0.50
  -1  -4 -11    5.74    0.76
  -1  -4 -11    4.54    0.47
   1  -4  11    4.89    0.30
   1   4  11    4.92    0.59
  -1   4 -11    3.83    0.76
  -1   4 -11    4.88    0.30
  -1   4 -11    5.02    0.72
  -1   4 -11    4.37    0.71
  -1   4 -11    4.38    0.81
  -2  -4 -11    0.96    0.42
  -2  -4 -11    1.25    0.18
  -2  -4 -11    1.42    0.23
   2  -4  11    1.32    0.20
   2  -4  11    1.68    0.19
   2  -4  11    1.82    0.56
  -2  -4 -11    1.41    0.38
  -2  -4 -11    1.41    0.21
   2  -4  11    1.10    0.56
   2  -4  11    1.50    0.15
  -2  -4 -11    0.73    0.58
  -2   4 -11    0.22    0.48
   2   4  11    0.64    0.41
  -2   4 -11   -0.14    0.65
  -3  -4 -11    5.60    0.25
  -3  -4 -11    5.40    0.30
  -3  -4 -11    5.59    0.28
   3  -4  11    5.75    0.23
   3  -5 -11    2.07    0.15
   3  -5 -11    2.02    0.10
  -3  -5  11    2.15    0.14
  -3  -5  11    2.23    0.14
  -3   5  11    1.71    0.12
  -2  -5  11   10.12    0.42
   2  -5 -11    8.66    0.43
   2  -5 -11    9.66    0.45
   1  -5 -11   14.80    0.60
  -1  -5  11   14.33    0.60
  -1  -5  11   14.60    1.01
  -1  -5  11   11.98    1.25
   1  -5 -11   15.42    0.98
   1  -5 -11   13.74    0.56
  -1  -5  11   13.28    0.68
   1  -5 -11   13.62    0.59
  -1  -5  11   14.02    1.07
   1  -5 -11   12.78    1.16
  -1  -5  11   14.80    0.60
   1  -5 -11   14.44    0.76
  -1  -5  11   14.13    0.58
  -1  -5  11   14.26    0.94
   1   5 -11   12.85    0.73
  -1   5  11   12.23    0.92
   1   5 -11   14.45    0.83
  -1   5  11   10.62    0.87
   1   5 -11   13.23    1.06
   0  -5  11    5.34    0.30
   0  -5  11    4.85    0.28
   0  -5 -11    5.62    0.47
   0  -5 -11    5.06    0.29
   0  -5  11    4.61    0.44
   0  -5  11    4.71    0.67
   0  -5 -11    4.32    0.74
   0  -5  11    5.03    0.29
   0  -5  11    6.07    0.97
   0   5  11    5.18    0.66
   0   5 -11    4.66    0.62
   1  -5  11    8.87    0.38
   1  -5  11    8.50    0.40
   1  -5  11    8.27    0.63
   1  -5  11    8.47    0.40
  -1  -5 -11    8.16    0.41
  -1  -5 -11    8.05    0.93
   1  -5  11    9.35    0.81
  -1  -5 -11    8.10    0.60
   1  -5  11    8.74    1.06
   1   5  11    6.37    0.66
  -1   5 -11    7.35    0.86
  -1   5 -11    6.40    0.96
   2  -5  11    0.22    0.10
  -2  -5 -11   -0.03    0.13
   2  -5  11    0.32    0.11
   2  -5  11    0.33    0.08
  -2  -5 -11    0.22    0.10
  -1  -6  11    3.91    0.22
  -1  -6  11    4.17    0.24
   1  -6 -11    4.37    0.25
  -1  -6  11    3.88    0.22
   0  -6 -11   30.57    1.22
   0  -6  11   31.96    1.24
   0  -6 -11   32.54    1.25
   0  -6  11   31.90    1.24
   1  -6  11    8.84    0.40
   1  -6  11    8.82    0.38
   1  -6  11    9.37    0.39
  -1  -6 -11    8.89    0.41
   4   0 -12    3.19    0.18
  -3   0  12    0.35    0.14
  -3   0  12    0.50    0.50
   3   0 -12    0.90    0.60
   3   0 -12    0.08    0.13
   2   0 -12    5.53    0.53
  -2   0  12    4.44    1.19
  -2   0  12    5.62    0.57
   2   0 -12    5.43    0.71
  -2   0  12    3.80    0.81
   2   0 -12    6.46    1.46
   2   0 -12    5.90    0.32
  -2   0  12    6.06    0.26
  -2   0  12    6.00    0.32
   1   0 -12    8.35    1.14
   1   0 -12    8.95    0.65
  -1   0  12    7.91    0.40
  -1   0  12    8.87    1.44
  -1   0  12    8.45    0.57
  -1   0  12    8.24    0.35
   1   0 -12    7.59    0.54
   1   0 -12    8.01    1.51
  -1   0  12    8.90    0.65
  -1   0  12    9.56    1.26
   1   0 -12    7.81    0.69
   0   0 -12    2.15    0.87
   0   0  12    2.01    0.97
   0   0  12    3.11    0.46
   0   0 -12    2.87    0.69
   0   0  12    2.77    0.48
   0   0  12    4.05    0.87
   1   0  12    1.36    1.07
  -1   0 -12    0.40    0.11
   1   0  12    0.32    0.38
  -1   0 -12    0.26    0.86
  -1   0 -12    0.44    0.09
   1   0  12    0.00    0.20
  -1   0 -12    0.45    0.17
  -1   0 -12    0.12    0.32
  -2   0 -12   14.37    0.77
  -2   0 -12   14.12    0.56
   2   0  12   13.44    0.84
  -2   0 -12   14.15    0.61
   3   0  12    3.50    0.72
  -3   0 -12    3.98    0.26
  -4   0 -12    3.49    0.21
   4  -1 -12    8.89    0.38
  -4  -1  12    8.96    0.38
   4   1 -12    9.44    0.40
  -3  -1  12   28.50    1.09
  -3  -1  12   28.56    1.06
  -3  -1  12   27.90    1.10
   3  -1 -12   27.38    1.09
   3  -1 -12   26.10    1.57
  -3   1  12   27.35    1.08
  -3   1  12   26.67    1.35
   3   1 -12   27.48    1.07
  -2  -1  12   52.93    2.02
   2  -1 -12   50.99    2.30
  -2  -1  12   52.07    2.00
   2  -1 -12   51.70    2.01
  -2  -1  12   52.21    2.19
  -2  -1  12   52.77    1.98
  -2  -1  12   50.99    2.26
   2   1 -12   51.05    3.35
  -2   1  12   51.22    1.96
   2   1 -12   50.63    2.24
  -2   1  12   49.57    2.12
   2   1 -12   50.47    2.04
   1  -1 -12   52.66    2.86
  -1  -1  12   53.77    2.21
  -1  -1  12   52.36    2.05
   1  -1 -12   51.71    2.05
  -1  -1  12   54.81    3.10
  -1  -1  12   52.35    2.05
  -1  -1  12   53.50    2.22
  -1  -1  12   50.93    2.63
   1  -1 -12   54.46    2.20
   1  -1 -12   53.30    2.01
   1  -1 -12   53.24    2.29
  -1  -1  12   52.99    2.02
   1   1 -12   49.26    2.44
  -1   1  12   53.42    2.56
  -1   1  12   50.13    2.41
   1   1 -12   49.83    2.22
   1   1 -12   46.77    2.86
  -1   1  12   52.04    1.97
  -1   1  12   52.71    2.11
   1   1 -12   52.46    2.05
   0  -1  12   18.33    0.69
   0  -1 -12   18.17    0.90
   0  -1 -12   16.43    0.98
   0  -1 -12   16.54    1.73
   0  -1  12   20.93    1.88
   0  -1  12   17.97    0.90
   0  -1 -12   16.55    0.68
   0  -1  12   15.28    0.80
   0  -1 -12   16.25    1.46
   0  -1  12   15.81    1.47
   0  -1  12   17.49    0.73
   0  -1  12   17.68    0.88
   0   1 -12   15.62    0.78
   0   1 -12   18.24    0.99
   0   1 -12   17.40    1.75
   0   1  12   18.11    1.75
   0   1  12   16.37    1.03
   0   1  12   15.71    0.90
   0   1 -12   16.14    1.29
   0   1  12   18.60    1.47
  -1  -1 -12    3.30    0.37
  -1  -1 -12    2.84    0.25
   1  -1  12    3.74    0.48
  -1  -1 -12    3.01    1.20
   1  -1  12    4.14    1.26
   1  -1  12    2.83    0.29
   1  -1  12    3.80    0.55
  -1  -1 -12    1.54    0.91
   1  -1  12    3.48    0.20
   1  -1  12    2.33    1.19
  -1  -1 -12    3.18    0.19
  -1   1 -12    3.26    0.25
   1   1  12    2.71    1.15
  -1   1 -12    4.20    0.65
  -1   1 -12    5.38    0.99
  -1   1 -12    3.32    0.34
  -1   1 -12    3.51    1.25
   1   1  12    3.89    0.46
   2  -1  12   42.63    1.72
   2  -1  12   45.03    1.94
  -2  -1 -12   49.02    1.80
  -2  -1 -12   45.00    1.74
  -2  -1 -12   44.52    1.89
   2   1  12   44.41    1.85
  -2   1 -12   44.54    1.82
  -2   1 -12   40.92    1.71
  -3  -1 -12   29.77    1.42
   3  -1  12   29.48    1.54
  -3  -1 -12   31.33    1.20
  -3  -1 -12   31.03    1.17
   3   1  12   29.59    1.40
  -3   1 -12   29.66    1.49
  -3   1 -12   30.39    1.18
  -4  -2  12    0.39    0.06
  -4  -2  12    0.24    0.07
   4  -2 -12    0.18    0.06
   4   2 -12    0.65    0.15
   3  -2 -12   11.27    0.48
   3  -2 -12   13.61    1.07
  -3  -2  12   10.90    0.48
  -3  -2  12   11.49    0.88
  -3  -2  12   10.84    0.45
  -3  -2  12   11.21    0.48
  -3  -2  12    9.60    1.17
   3   2 -12   10.07    0.71
  -3   2  12   10.98    0.82
  -3   2  12   10.77    0.46
   2  -2 -12  147.13    6.08
   2  -2 -12  153.77    5.98
  -2  -2  12  156.43    5.85
  -2  -2  12  140.43    5.86
  -2  -2  12  150.24    5.95
  -2  -2  12  170.78    5.87
  -2  -2  12  172.38    5.81
  -2  -2  12  145.47    5.85
  -2  -2  12  149.18    5.98
  -2  -2  12  146.56    6.02
   2   2 -12  144.42    5.74
   2   2 -12  134.32    5.55
   2   2 -12  139.46    5.75
  -2   2  12  159.35    5.57
  -2   2  12  144.27    5.63
  -1  -2  12   18.99    0.79
  -1  -2  12   17.30    1.29
   1  -2 -12   19.65    1.09
   1  -2 -12   21.10    2.15
   1  -2 -12   18.61    0.79
  -1  -2  12   19.17    0.78
  -1  -2  12   19.53    0.86
  -1  -2  12   16.20    2.50
  -1  -2  12   19.67    0.97
  -1  -2  12   19.26    1.73
  -1  -2  12   19.37    0.98
   1  -2 -12   19.35    0.98
   1  -2 -12   19.28    0.75
  -1  -2  12   17.94    0.75
  -1  -2  12   19.48    1.02
   1   2 -12   18.28    1.09
   1   2 -12   22.02    2.15
   1   2 -12   18.44    1.09
  -1   2  12   17.06    1.72
  -1   2  12   17.69    0.77
   1   2 -12   19.65    1.55
  -1   2  12   18.93    0.95
   1   2 -12   19.04    0.86
   0  -2  12    0.51    0.28
   0  -2  12    0.71    0.12
   0  -2  12    3.07    1.00
   0  -2  12    1.76    1.36
   0  -2  12    0.43    0.27
   0  -2 -12    0.69    0.18
   0  -2  12    0.94    0.18
   0  -2  12    0.99    0.49
   0  -2 -12    0.26    1.11
   0  -2  12    0.66    0.27
   0  -2 -12    0.63    0.09
   0  -2 -12    0.98    0.37
   0  -2 -12    0.67    0.37
   0  -2  12    0.87    0.34
   0  -2 -12    0.75    0.24
   0  -2 -12    1.12    0.31
   0  -2 -12    1.22    2.01
   0  -2 -12    0.41    1.28
   0   2 -12    0.13    0.31
   0   2 -12    0.52    0.17
   0   2  12    0.72    0.18
   0   2  12    0.13    0.27
   0   2 -12    0.66    0.31
   0   2 -12    0.63    0.69
   0   2  12    2.48    1.29
   0   2  12    0.62    0.27
   0   2  12    1.15    0.44
   0   2  12    2.05    1.10
   0   2 -12   -0.75    0.98
  -1  -2 -12    0.30    0.08
  -1  -2 -12    0.97    0.37
   1  -2  12    2.98    1.40
   1  -2  12   -0.02    0.17
  -1  -2 -12   -0.15    0.21
   1  -2  12   -0.14    0.26
   1  -2  12   -1.15    1.55
  -1  -2 -12   -0.01    1.28
  -1  -2 -12   -1.29    1.28
   1  -2  12    0.09    0.33
  -1  -2 -12    0.21    0.13
  -1  -2 -12    0.33    0.41
   1  -2  12    0.30    0.10
   1   2  12   -0.07    0.41
   1   2  12    2.25    2.06
  -1   2 -12    0.12    0.13
  -1   2 -12   -1.11    1.23
   1   2  12   -1.22    1.34
  -1   2 -12    0.57    1.17
  -1   2 -12    0.02    0.18
  -1   2 -12    0.08    0.32
  -2  -2 -12   31.14    1.23
  -2  -2 -12   31.45    1.42
  -2  -2 -12   32.00    1.26
   2  -2  12   32.44    1.22
   2  -2  12   31.50    1.51
   2   2  12   30.30    1.38
  -2   2 -12   29.94    1.19
  -2   2 -12   29.96    1.35
  -3  -2 -12   11.73    0.47
  -3  -2 -12   11.62    0.82
  -3  -2 -12   12.04    0.51
   3   2  12   10.27    0.79
  -3  -3  12   30.76    1.13
  -3  -3  12   28.25    1.09
   3  -3 -12   28.05    1.11
   3  -3 -12   25.56    1.37
  -3  -3  12   29.22    1.12
  -3   3  12   27.72    1.15
  -3   3  12   31.56    1.57
  -2  -3  12    9.78    1.28
  -2  -3  12    8.20    0.39
  -2  -3  12    8.11    0.41
  -2  -3  12    8.27    0.37
  -2  -3  12    8.95    0.39
   2  -3 -12    8.41    0.76
   2  -3 -12    8.32    0.39
   2   3 -12    9.50    0.74
   2   3 -12    8.00    1.00
   2   3 -12    9.52    1.24
  -1  -3  12   14.27    0.59
  -1  -3  12   12.85    0.90
   1  -3 -12   14.92    1.01
  -1  -3  12   13.90    0.83
  -1  -3  12   13.28    0.87
  -1  -3  12   13.48    0.58
   1  -3 -12   14.50    0.84
  -1  -3  12   13.91    0.57
  -1  -3  12   12.19    1.17
  -1  -3  12   13.91    0.60
  -1  -3  12   13.21    0.68
   1  -3 -12   13.77    0.59
   1   3 -12   12.88    0.85
   1   3 -12   12.35    0.93
  -1   3  12   13.25    0.77
   1   3 -12   12.32    0.66
   0  -3 -12    4.24    0.23
   0  -3  12    3.05    0.88
   0  -3  12    5.03    0.28
   0  -3  12    4.20    0.61
   0  -3 -12    4.25    0.29
   0  -3  12    4.07    0.27
   0  -3  12    3.86    0.44
   0  -3  12    4.63    0.62
   0  -3 -12    4.32    0.49
   0  -3  12    4.43    0.25
   0  -3  12    4.39    0.59
   0  -3 -12    4.26    0.57
   0  -3  12    4.67    0.28
   0  -3 -12    3.54    0.78
   0   3  12    3.95    0.69
   0   3 -12    4.43    0.42
   0   3 -12    4.12    0.61
   0   3 -12    1.85    1.78
   0   3  12    4.99    0.58
   0   3  12    3.79    0.30
   0   3 -12    3.37    0.62
  -1  -3 -12   11.17    0.70
  -1  -3 -12    9.73    0.86
  -1  -3 -12    9.85    0.49
   1  -3  12   11.74    0.71
   1  -3  12   12.14    0.86
   1  -3  12   10.28    0.80
   1  -3  12   10.67    1.05
  -1  -3 -12   10.87    0.73
  -1   3 -12   10.34    0.89
  -1   3 -12   10.85    0.62
  -1   3 -12   10.67    0.97
   1   3  12    9.88    0.80
   1   3  12    9.82    0.73
  -1   3 -12   10.23    0.92
   2  -3  12   11.51    1.30
  -2  -3 -12   10.23    0.47
   2  -3  12    9.80    0.49
  -2  -3 -12   10.46    0.44
   2  -3  12   10.18    0.43
  -2  -3 -12   12.34    0.85
   2  -3  12    9.88    0.50
  -2  -3 -12    9.68    0.74
  -2  -3 -12   11.00    0.50
   2   3  12    7.81    0.92
  -2   3 -12    9.72    0.43
  -2   3 -12    7.48    1.28
   2   3  12    8.59    0.73
  -3  -3 -12    0.50    0.07
  -3  -3 -12    0.53    0.11
  -3   3 -12    0.26    0.10
  -3  -4  12    5.12    0.24
  -3  -4  12    4.82    0.21
   3  -4 -12    4.72    0.23
  -3  -4  12    4.65    0.24
  -3   4  12    4.66    0.23
  -2  -4  12    1.25    0.20
  -2  -4  12    1.22    0.15
  -2  -4  12    1.14    0.16
  -2  -4  12    0.98    0.29
  -2  -4  12    1.27    0.15
   2  -4 -12    0.98    0.45
  -2  -4  12    1.60    0.41
   2  -4 -12    1.55    0.16
  -2   4  12    1.36    0.40
   2   4 -12    1.90    0.53
  -1  -4  12    0.82    0.30
  -1  -4  12    0.79    0.14
  -1  -4  12    1.01    0.17
  -1  -4  12    1.00    0.16
  -1  -4  12    0.39    0.30
  -1  -4  12    0.70    0.36
  -1  -4  12    0.45    0.45
   1  -4 -12    0.79    0.37
   1  -4 -12    0.92    0.16
   1  -4 -12    1.36    0.49
   1  -4 -12    1.07    0.43
  -1  -4  12   -0.02    0.58
   1   4 -12    0.85    0.41
  -1   4  12    0.94    0.69
   1   4 -12    0.63    0.29
  -1   4  12    0.91    0.41
   1   4 -12    1.17    0.39
   0  -4 -12   28.79    1.15
   0  -4 -12   28.08    1.11
   0  -4  12   27.73    2.05
   0  -4  12   28.53    1.15
   0  -4  12   27.75    1.13
   0  -4  12   26.05    1.12
   0  -4  12   28.46    1.43
   0  -4  12   30.55    1.42
   0  -4 -12   31.20    1.30
   0  -4  12   29.09    1.22
   0  -4  12   27.96    1.14
   0  -4  12   30.66    1.69
   0  -4 -12   28.90    1.43
   0   4 -12   25.81    1.20
   0   4 -12   23.85    1.47
   0   4  12   25.29    1.55
   0   4 -12   26.89    1.43
   1  -4  12    5.08    0.30
   1  -4  12    5.27    0.27
   1  -4  12    5.27    0.30
  -1  -4 -12    4.62    0.55
  -1  -4 -12    4.52    0.78
   1  -4  12    7.08    0.98
   1  -4  12    5.08    0.57
   1  -4  12    5.73    0.71
  -1  -4 -12    5.17    0.32
  -1  -4 -12    5.57    0.27
  -1   4 -12    4.68    0.28
  -1   4 -12    4.74    0.82
  -1   4 -12    5.29    0.84
  -1   4 -12    3.52    0.79
   1   4  12    4.53    0.69
   2  -4  12    5.81    0.31
   2  -4  12    5.94    0.38
  -2  -4 -12    5.86    0.79
  -2  -4 -12    6.32    0.34
  -2  -4 -12    8.10    1.45
   2  -4  12    5.04    0.25
  -2  -4 -12    5.38    0.27
  -2  -4 -12    5.33    0.32
  -2   4 -12    4.85    1.10
  -3  -4 -12    3.13    0.19
  -3  -4 -12    3.11    0.23
  -3  -4 -12    3.30    0.16
  -3   4 -12    2.68    0.24
  -2  -5  12    0.51    0.09
   2  -5 -12    0.50    0.09
   2  -5 -12    0.60    0.08
  -2  -5  12    0.48    0.09
  -2  -5  12    0.36    0.08
  -1  -5  12   23.43    0.91
  -1  -5  12   20.76    1.28
   1  -5 -12   24.19    1.31
   1  -5 -12   23.12    0.93
  -1  -5  12   21.59    1.63
  -1  -5  12   23.67    0.93
  -1  -5  12   21.57    1.02
  -1  -5  12   25.39    1.27
  -1  -5  12   23.46    0.92
   1   5 -12   22.87    1.69
   1   5 -12   18.77    1.11
   1   5 -12   17.66    1.01
   0  -5  12   15.83    0.64
   0  -5  12   13.88    0.96
   0  -5 -12   16.93    0.61
   0  -5  12   16.45    0.64
   0  -5  12   14.94    1.34
   0  -5  12   13.09    1.04
   0  -5  12   14.17    0.77
   0  -5 -12   15.27    0.64
   0  -5 -12   14.99    0.83
   0  -5  12   15.35    0.63
   0   5 -12   14.85    0.91
   0   5 -12   15.18    1.04
   1  -5  12   18.08    1.33
   1  -5  12   18.08    0.74
  -1  -5 -12   17.33    0.71
   1  -5  12   17.11    0.71
   1  -5  12   17.46    0.73
  -1  -5 -12   18.25    0.74
  -1  -5 -12   19.73    1.67
   2  -5  12    4.73    0.21
  -2  -5 -12    4.15    0.24
  -2  -5 -12    4.84    0.22
   2  -5  12    4.58    0.23
   2  -5  12    4.77    0.25
  -1  -6  12    2.21    0.15
   1  -6 -12    2.07    0.12
  -1  -6  12    2.34    0.19
   1  -6 -12    1.83    0.17
  -1  -6  12    2.12    0.15
  -1   6  12    2.26    0.19
   0  -6 -12   13.92    0.56
   0  -6  12   13.21    0.54
   0  -6 -12   13.02    0.53
   0  -6  12   13.64    0.56
   0  -6  12   13.34    0.55
   1  -6  12    6.56    0.30
   1  -6  12    6.99    0.29
  -1  -6 -12    7.05    0.32
   1  -6  12    6.83    0.31
   4   0 -13   23.79    0.92
   3   0 -13    7.74    1.15
  -3   0  13    7.70    0.90
  -3   0  13    9.83    0.42
   3   0 -13    9.67    0.41
  -2   0  13   98.29    3.92
   2   0 -13   98.51    4.02
  -1   0  13    5.29    0.31
   1   0 -13    5.61    0.62
   1   0 -13    5.29    0.44
  -1   0  13    5.52    0.64
  -1   0  13    3.47    1.62
  -1   0  13    5.69    0.25
  -1   0  13    5.48    0.55
  -1   0  13    5.46    0.35
   1   0 -13    5.78    1.24
   1   0 -13    4.34    1.01
   0   0 -13  100.63    4.35
   0   0 -13   98.31    4.06
   0   0 -13  103.99    3.92
   0   0 -13   94.67    4.60
   0   0  13   98.39    3.83
   0   0  13   99.87    4.65
   0   0 -13  100.18    3.82
   0   0  13   98.97    4.42
   0   0  13  105.43    3.98
   0   0  13  103.94    3.98
   0   0  13   99.85    3.79
  -1   0 -13   69.22    2.70
   1   0  13   71.43    3.77
   1   0  13   71.88    2.86
  -1   0 -13   67.35    3.47
   1   0  13   70.33    2.91
  -1   0 -13   71.31    2.66
  -1   0 -13   69.15    3.04
  -1   0 -13   72.12    2.81
  -2   0 -13   -0.18    0.23
   2   0  13    0.18    0.31
  -3   0 -13   38.15    2.02
  -3   0 -13   35.64    1.43
   4  -1 -13    1.66    0.12
   4   1 -13    1.51    0.15
   3  -1 -13   14.81    0.59
   3  -1 -13   11.71    1.21
  -3  -1  13   15.05    0.60
  -3  -1  13   14.56    0.56
   3   1 -13   14.23    0.58
  -3   1  13   14.44    0.59
  -3   1  13   13.24    0.96
   2  -1 -13   46.78    2.01
  -2  -1  13   49.53    1.78
   2  -1 -13   46.04    1.81
   2  -1 -13   45.68    2.12
  -2  -1  13   47.55    1.82
  -2  -1  13   46.13    2.02
  -2  -1  13   45.03    1.81
  -2  -1  13   46.68    2.10
  -2   1  13   45.59    1.77
  -2   1  13   45.93    1.95
   2   1 -13   45.44    2.08
   2   1 -13   44.84    1.87
   1  -1 -13   49.82    2.16
   1  -1 -13   50.79    2.06
  -1  -1  13   49.45    2.09
   1  -1 -13   48.67    1.85
  -1  -1  13   46.46    3.36
   1  -1 -13   46.03    1.88
  -1  -1  13   48.99    1.88
  -1  -1  13   44.08    2.70
   1  -1 -13   51.29    2.97
   1  -1 -13   46.14    1.97
  -1  -1  13   49.12    1.89
  -1  -1  13   47.77    2.06
  -1  -1  13   51.19    1.85
  -1   1  13   45.91    1.76
   1   1 -13   43.71    2.43
  -1   1  13   46.48    1.96
   1   1 -13   41.95    2.95
   1   1 -13   49.22    1.87
  -1   1  13   40.33    2.55
   1   1 -13   44.41    2.03
  -1   1  13   45.77    1.92
   0  -1 -13   10.71    0.63
   0  -1  13   14.02    1.68
   0  -1 -13   11.90    1.72
   0  -1 -13   12.20    2.08
   0  -1  13   11.58    0.74
   0  -1 -13   12.01    0.83
   0  -1  13   11.26    0.51
   0  -1 -13   10.93    0.45
   0  -1  13   11.51    0.46
   0  -1  13   10.71    0.50
   0  -1  13   11.19    0.72
   0  -1 -13   10.07    0.50
   0  -1  13   10.15    1.60
   0   1 -13    8.40    1.40
   0   1  13   11.39    0.71
   0   1  13   10.85    0.50
   0   1  13   10.22    1.76
   0   1 -13    9.09    1.44
   0   1  13    9.44    1.60
   0   1  13   10.84    0.73
   0   1 -13   11.54    0.85
   0   1 -13   11.82    0.59
  -1  -1 -13    4.62    0.28
  -1  -1 -13    4.78    0.47
   1  -1  13    5.49    0.67
   1  -1  13    4.73    0.59
   1  -1  13    4.68    0.33
   1  -1  13    4.91    0.24
  -1  -1 -13    4.74    0.23
  -1   1 -13    4.96    0.28
  -1   1 -13    4.72    0.72
   1   1  13    4.80    0.56
  -1   1 -13    5.44    0.44
  -2  -1 -13    4.39    0.28
  -2  -1 -13    4.13    0.54
  -2  -1 -13    4.60    0.22
   2  -1  13    5.24    1.08
   2   1  13    5.54    0.81
  -2   1 -13    3.89    0.59
  -2   1 -13    4.41    0.27
  -3  -1 -13   32.84    1.29
  -3   1 -13   30.39    1.19
  -3  -2  13    2.35    0.23
   3  -2 -13    1.00    0.83
  -3  -2  13    2.14    0.12
   3  -2 -13    1.82    0.15
  -3   2  13   -0.26    0.51
  -2  -2  13   38.51    1.49
  -2  -2  13   40.10    1.50
  -2  -2  13   38.93    1.47
  -2  -2  13   38.70    1.78
   2  -2 -13   37.97    1.46
   2  -2 -13   36.89    1.72
   2  -2 -13   37.33    1.49
  -2  -2  13   38.28    1.50
   2   2 -13   39.26    1.61
  -2   2  13   36.24    1.66
  -2   2  13   36.40    1.46
  -1  -2  13   17.51    0.71
   1  -2 -13   16.94    0.95
  -1  -2  13   16.38    0.94
  -1  -2  13   16.20    0.85
  -1  -2  13   17.21    0.67
   1  -2 -13   17.34    0.67
   1  -2 -13   16.78    0.71
  -1  -2  13   15.42    0.99
  -1  -2  13   18.47    0.72
   1  -2 -13   17.20    1.07
  -1   2  13   15.65    0.90
   1   2 -13   16.16    1.20
   1   2 -13   17.62    1.05
  -1   2  13   16.50    0.69
   1   2 -13   16.69    0.81
   0  -2  13    2.81    0.53
   0  -2 -13    3.63    0.70
   0  -2 -13    2.78    0.48
   0  -2 -13    3.46    0.59
   0  -2 -13    2.99    0.30
   0  -2 -13    3.20    0.18
   0  -2  13    3.36    0.55
   0  -2 -13    3.94    1.85
   0  -2  13    3.05    0.19
   0  -2  13    2.76    0.24
   0  -2  13    2.90    0.25
   0  -2 -13    2.32    0.28
   0  -2  13    2.79    1.78
   0   2 -13    2.50    0.37
   0   2  13    2.58    0.36
   0   2  13    2.69    0.40
   0   2  13    2.60    0.24
   0   2 -13    2.01    0.41
   0   2  13    4.65    1.59
  -1  -2 -13    7.68    0.43
  -1  -2 -13    6.73    0.32
   1  -2  13    6.65    0.69
   1  -2  13    6.49    0.31
   1  -2  13    5.89    0.69
  -1  -2 -13    7.35    0.57
   1  -2  13    6.49    0.39
  -1   2 -13    6.08    0.49
  -1   2 -13    6.88    0.83
   1   2  13    6.71    0.61
  -2  -2 -13   49.18    1.89
  -2  -2 -13   49.23    2.06
  -2  -2 -13   48.33    1.86
   2  -2  13   49.91    1.85
   2  -2  13   46.95    2.13
  -2   2 -13   47.31    1.83
   2   2  13   46.64    2.01
  -2   2 -13   48.15    1.99
  -3  -2 -13    9.33    0.41
  -3  -2 -13    9.19    0.37
   3  -3 -13    1.77    0.15
  -3  -3  13    1.71    0.16
  -3  -3  13    1.88    0.16
  -3  -3  13    1.65    0.11
  -3   3  13    1.89    0.15
  -2  -3  13    5.27    0.29
  -2  -3  13    5.13    0.24
  -2  -3  13    4.82    0.74
  -2  -3  13    6.01    0.84
   2  -3 -13    4.72    0.26
   2  -3 -13    5.32    0.77
   2  -3 -13    5.03    0.63
  -2  -3  13    5.10    0.27
   2  -3 -13    5.18    0.22
  -2  -3  13    3.77    0.59
  -2  -3  13    4.10    0.55
  -2  -3  13    5.23    0.27
  -2   3  13    4.59    0.26
   2   3 -13    5.99    0.50
   2   3 -13    5.25    0.88
   2   3 -13    5.37    1.10
  -2   3  13    4.19    0.58
   1  -3 -13   20.44    1.27
   1  -3 -13   20.05    0.85
  -1  -3  13   21.62    1.14
  -1  -3  13   23.35    1.18
  -1  -3  13   17.42    1.49
  -1  -3  13   21.03    1.13
   1  -3 -13   21.33    1.12
  -1  -3  13   20.85    0.84
   1  -3 -13   21.73    0.82
  -1  -3  13   20.66    0.85
  -1  -3  13   21.23    0.82
  -1  -3  13   21.22    0.96
  -1  -3  13   20.47    0.86
  -1   3  13   18.94    0.99
   1   3 -13   19.64    0.90
   1   3 -13   16.71    1.16
   1   3 -13   18.72    1.14
  -1   3  13   18.24    0.76
   0  -3 -13   33.87    1.49
   0  -3  13   31.42    1.45
   0  -3 -13   29.66    1.61
   0  -3 -13   29.98    1.16
   0  -3  13   29.92    1.19
   0  -3  13   30.94    1.20
   0  -3 -13   29.42    1.46
   0  -3  13   30.00    1.29
   0  -3  13   30.02    1.75
   0  -3  13   29.79    1.46
   0  -3 -13   29.64    1.20
   0  -3  13   30.24    1.16
   0  -3  13   26.65    1.48
   0  -3  13   28.67    1.18
   0   3 -13   26.13    1.38
   0   3  13   26.60    1.29
   0   3 -13   26.30    1.16
   0   3  13   21.97    1.51
   0   3  13   25.89    1.03
   0   3 -13   27.37    1.34
  -1  -3 -13    2.20    0.25
   1  -3  13    1.65    0.59
   1  -3  13    2.16    0.16
  -1  -3 -13    2.00    0.16
   1  -3  13    1.85    0.22
  -1  -3 -13    2.99    0.97
   1  -3  13    1.97    0.49
  -1  -3 -13    2.33    0.59
  -1  -3 -13    1.88    0.25
   1  -3  13    2.18    0.25
   1   3  13    1.76    0.42
  -1   3 -13    1.82    0.19
   2  -3  13   12.90    0.62
  -2  -3 -13   10.63    0.52
   2  -3  13   11.56    0.46
  -2  -3 -13   11.88    0.85
  -2  -3 -13   11.20    0.47
  -2  -3 -13   11.68    0.50
   2   3  13    9.92    0.80
  -2   3 -13    9.63    0.46
  -3  -3 -13    4.16    0.23
  -3  -3 -13    4.00    0.22
  -3  -4  13    0.84    0.12
  -3  -4  13    0.77    0.08
   3  -4 -13    0.85    0.10
  -3  -4  13    0.75    0.10
  -3   4  13    0.99    0.10
   2  -4 -13   11.21    1.10
  -2  -4  13   11.21    0.47
  -2  -4  13   11.67    0.50
   2  -4 -13   11.54    0.49
  -2  -4  13   11.83    0.49
   2  -4 -13   12.28    0.46
   2   4 -13   12.56    0.85
  -2   4  13   10.66    0.48
  -2   4  13   13.01    1.14
   1  -4 -13    3.05    0.20
   1  -4 -13    2.79    0.16
   1  -4 -13    2.13    0.59
  -1  -4  13    2.99    0.67
  -1  -4  13    3.09    0.22
  -1  -4  13    3.09    0.21
  -1  -4  13    2.88    0.21
  -1  -4  13    3.08    0.47
  -1  -4  13    2.91    0.19
  -1  -4  13    4.19    0.78
   1  -4 -13    3.06    0.64
  -1   4  13    2.54    0.19
   1   4 -13    2.63    0.49
   1   4 -13    1.96    0.51
   1   4 -13    2.22    0.31
  -1   4  13    2.10    0.45
   0  -4 -13    1.99    0.15
   0  -4 -13    2.63    0.52
   0  -4  13    2.07    0.36
   0  -4  13    1.25    0.43
   0  -4 -13    2.27    0.21
   0  -4  13    2.02    0.19
   0  -4  13    1.50    0.47
   0  -4  13    1.98    0.49
   0  -4  13    2.72    0.70
   0  -4  13    1.85    0.17
   0  -4 -13    1.73    0.43
   0  -4  13    2.21    0.19
   0  -4  13    2.31    0.20
   0   4 -13    1.73    0.31
   0   4 -13    1.74    0.46
   0   4  13    1.40    0.57
   0   4 -13    1.94    0.44
  -1  -4 -13   20.83    0.83
   1  -4  13   19.91    0.82
   1  -4  13   20.35    0.83
  -1  -4 -13   21.05    1.28
   1  -4  13   20.04    0.79
   1  -4  13   19.43    1.58
  -1  -4 -13   20.86    1.08
   1  -4  13   19.82    1.15
  -1  -4 -13   19.80    0.79
  -1   4 -13   18.41    0.74
  -1   4 -13   16.07    1.34
  -1   4 -13   20.61    1.24
  -2  -4 -13    1.00    0.12
   2  -4  13    1.14    0.19
  -2  -4 -13    1.13    0.19
   2  -4  13    0.90    0.10
   2  -4  13    1.02    0.17
  -2  -4 -13    1.37    0.17
  -2  -5  13    9.52    0.41
   2  -5 -13    9.96    0.38
  -2  -5  13    9.92    0.41
   2  -5 -13   10.07    0.41
  -2  -5  13    9.25    0.39
  -2   5  13    8.96    0.37
  -1  -5  13    4.60    0.26
  -1  -5  13    4.99    0.26
  -1  -5  13    4.97    0.26
   1  -5 -13    4.74    0.22
   1  -5 -13    5.28    0.27
  -1  -5  13    4.72    0.24
  -1   5  13    4.40    0.23
   0  -5  13    0.53    0.10
   0  -5  13    0.71    0.10
   0  -5  13    0.60    0.18
   0  -5 -13    0.70    0.08
   1  -5  13    0.05    0.09
   1  -5  13    0.18    0.07
  -1  -5 -13    0.06    0.11
   1  -5  13    0.02    0.10
  -1  -5 -13    0.10    0.07
  -3   0  14    8.34    0.40
   3   0 -14    7.15    0.37
   2   0 -14    1.35    0.21
   2   0 -14    0.99    0.63
  -2   0  14    1.43    0.11
  -1   0  14    3.20    0.17
   1   0 -14    2.54    0.41
   1   0 -14    2.51    0.48
  -1   0  14    2.73    0.50
  -1   0  14    2.62    0.22
  -1   0  14    4.05    0.66
   0   0  14   44.56    1.92
   0   0 -14   41.76    2.03
   0   0 -14   45.01    1.83
   0   0 -14   45.26    1.72
   0   0  14   45.80    1.92
   0   0  14   43.66    1.73
  -1   0 -14   31.59    1.43
   1   0  14   32.95    1.51
  -1   0 -14   34.93    1.35
  -2   0 -14    1.79    0.35
   2   0  14    1.68    0.38
  -2   0 -14    2.33    0.19
  -3   0 -14    0.21    0.10
   3  -1 -14   34.48    1.25
  -3  -1  14   29.07    1.20
  -3  -1  14   29.13    1.17
  -3   1  14   30.86    1.09
   3   1 -14   23.87    1.07
  -2  -1  14   20.68    1.32
  -2  -1  14   19.81    1.10
   2  -1 -14   20.95    1.22
   2  -1 -14   20.30    0.84
   2  -1 -14   22.71    1.16
  -2  -1  14   21.35    0.85
  -2  -1  14   20.90    0.81
  -2  -1  14   20.45    0.84
  -2   1  14   19.24    0.76
   2   1 -14   19.66    1.17
  -2   1  14   19.19    1.00
   2   1 -14   15.94    0.95
  -1  -1  14   93.28    3.67
   1  -1 -14   88.37    3.66
  -1  -1  14   90.84    3.69
   1  -1 -14   93.24    3.77
  -1   1  14   88.89    3.49
   1   1 -14   81.49    3.41
   1   1 -14   90.04    3.60
   0  -1 -14   42.90    1.78
   0  -1  14   42.88    1.63
   0  -1  14   41.26    1.86
   0  -1  14   43.39    1.67
   0  -1 -14   43.85    1.97
   0  -1 -14   43.20    1.63
   0  -1 -14   42.78    1.66
   0  -1  14   41.43    1.86
   0   1  14   40.73    1.63
   0   1 -14   41.55    1.94
   0   1  14   41.75    1.82
   0   1 -14   42.91    1.73
   0   1  14   42.53    1.82
  -1  -1 -14   34.13    1.35
   1  -1  14   33.93    1.62
   1  -1  14   34.68    1.58
  -1  -1 -14   35.00    1.49
   1  -1  14   34.45    1.32
  -1  -1 -14   34.72    1.32
   1  -1  14   34.26    1.36
   1   1  14   33.34    1.55
  -1   1 -14   35.14    1.48
  -1   1 -14   34.62    1.73
   2  -1  14    3.96    0.73
  -2  -1 -14    3.61    0.23
  -2  -1 -14    3.57    0.55
  -2  -1 -14    3.53    0.18
  -2   1 -14    3.31    0.57
  -2   1 -14    3.53    0.23
   2   1  14    2.70    0.41
  -3  -1 -14   19.99    0.80
  -3   1 -14   19.81    0.79
  -3  -2  14    0.37    0.11
  -3  -2  14    0.17    0.05
  -3  -2  14   -0.02    0.10
   3  -2 -14    0.11    0.08
  -3   2  14    0.20    0.10
  -2  -2  14   19.14    0.77
  -2  -2  14   18.92    0.74
   2  -2 -14   20.05    1.15
  -2  -2  14   19.17    1.21
  -2  -2  14   19.28    0.78
   2  -2 -14   18.66    0.77
   2  -2 -14   18.41    1.06
  -2  -2  14   18.71    1.10
  -2   2  14   18.45    0.97
  -2   2  14   17.46    0.71
   2   2 -14   16.64    0.89
   2   2 -14   17.40    1.15
   1  -2 -14   14.93    0.66
  -1  -2  14   15.86    0.67
  -1  -2  14   16.86    1.01
  -1  -2  14   16.18    0.93
   1  -2 -14   15.46    0.95
   1  -2 -14   15.11    1.08
  -1  -2  14   16.49    0.63
   1  -2 -14   16.00    0.62
  -1  -2  14   16.27    0.67
   1   2 -14   16.90    1.04
   1   2 -14   14.01    0.78
  -1   2  14   15.25    0.88
  -1   2  14   14.68    0.63
   0  -2  14    9.02    0.71
   0  -2 -14    8.60    0.44
   0  -2  14    9.19    0.37
   0  -2 -14    8.55    0.71
   0  -2 -14    8.43    0.44
   0  -2 -14    9.28    0.37
   0  -2 -14    8.30    0.83
   0  -2  14    9.00    0.42
   0  -2 -14    8.08    0.95
   0  -2  14    7.65    0.74
   0   2  14    8.18    0.41
   0   2 -14    7.42    0.87
   0   2  14    9.08    0.74
   0   2  14    7.67    0.81
   0   2 -14    8.99    0.53
   1  -2  14   84.77    3.60
   1  -2  14   77.60    3.05
  -1  -2 -14   78.85    3.02
  -1  -2 -14   77.07    3.04
   1  -2  14   79.85    3.01
   1   2  14   67.00    3.03
  -1   2 -14   73.39    2.68
  -1   2 -14   69.90    3.11
   2  -2  14   20.76    1.21
  -2  -2 -14   20.02    0.78
  -2  -2 -14   19.56    1.06
  -2  -2 -14   19.89    0.81
  -2   2 -14   16.86    1.06
  -2   2 -14   19.75    0.76
   2   2  14   18.93    1.06
  -3  -2 -14   15.36    0.62
  -3  -3  14    2.21    0.16
   3  -3 -14    2.50    0.15
  -3  -3  14    2.39    0.12
  -3  -3  14    2.14    0.16
  -3   3  14    1.86    0.12
   2  -3 -14    1.86    0.56
   2  -3 -14    2.16    0.12
  -2  -3  14    1.93    0.62
   2  -3 -14    1.76    0.43
   2  -3 -14    2.39    0.17
  -2  -3  14    1.70    0.50
  -2  -3  14    2.39    0.18
  -2  -3  14    2.29    0.18
  -2  -3  14    2.26    0.14
  -2   3  14    1.33    0.39
   2   3 -14    1.51    0.70
   2   3 -14    1.05    0.28
  -1  -3  14   14.19    0.61
   1  -3 -14   15.83    1.12
  -1  -3  14   13.72    0.86
  -1  -3  14   13.37    1.00
   1  -3 -14   14.23    0.61
  -1  -3  14   14.77    0.60
  -1  -3  14   14.14    0.61
   1  -3 -14   15.41    0.95
  -1  -3  14   13.27    0.93
  -1  -3  14   14.94    0.58
   1  -3 -14   14.73    0.57
  -1   3  14   13.29    0.57
   1   3 -14   14.67    1.02
  -1   3  14   13.93    0.86
   1   3 -14   13.83    0.75
   1   3 -14   12.59    1.25
   0  -3  14    3.32    0.64
   0  -3 -14    3.47    0.55
   0  -3  14    4.16    0.74
   0  -3 -14    4.61    0.21
   0  -3 -14    4.38    0.28
   0  -3  14    4.35    0.26
   0  -3  14    4.43    0.21
   0  -3  14    3.97    0.29
   0  -3  14    4.55    0.26
   0   3 -14    2.87    0.51
   0   3  14    3.99    0.26
   0   3 -14    3.77    0.45
  -1  -3 -14    9.55    0.44
  -1  -3 -14    9.49    0.40
   1  -3  14    9.53    0.96
   1  -3  14    9.24    0.44
  -1  -3 -14    9.18    0.46
   1  -3  14   10.23    0.86
  -1  -3 -14   11.27    1.11
   1  -3  14    9.68    0.40
  -1   3 -14    8.60    0.38
   1   3  14    9.67    1.01
  -1   3 -14    7.37    0.64
  -1   3 -14    8.42    1.05
  -2  -3 -14    1.38    0.18
   2  -3  14    1.46    0.11
  -2   3 -14    1.97    0.21
   2  -4 -14    2.94    0.13
  -2  -4  14    2.70    0.19
  -2  -4  14    2.89    0.19
  -2  -4  14    2.70    0.18
  -2  -4  14    2.57    0.15
   2  -4 -14    2.97    0.17
  -2   4  14    2.65    0.16
  -1  -4  14    2.51    0.27
  -1  -4  14    2.10    0.57
  -1  -4  14    0.96    0.49
   1  -4 -14    1.03    0.49
  -1  -4  14    1.99    0.17
  -1  -4  14    1.62    0.15
  -1  -4  14    2.06    0.17
   1  -4 -14    1.88    0.12
   1  -4 -14    1.75    0.16
  -1   4  14    1.70    0.19
   1   4 -14    1.17    0.31
   1   4 -14    0.82    0.50
   0  -4  14    7.34    0.34
   0  -4 -14    7.32    0.90
   0  -4  14    6.88    0.34
   0  -4  14    5.97    0.99
   0  -4  14    6.72    0.30
   0  -4  14    6.99    0.77
   0  -4 -14    7.14    0.30
   0  -4 -14    6.79    0.34
   0   4 -14    8.99    0.66
   1  -4  14    1.06    0.12
   1  -4  14    1.09    0.19
  -1  -4 -14    0.99    0.19
   1  -4  14    0.84    0.16
  -1   4 -14    1.03    0.17
   2  -4  14    2.64    0.13
  -2  -4 -14    2.36    0.21
  -2  -4 -14    2.23    0.19
  -2  -4 -14    2.52    0.14
   1  -5 -14    5.06    0.25
   1  -5 -14    4.96    0.21
  -1  -5  14    4.93    0.24
  -1  -5  14    4.93    0.25
  -1  -5  14    4.62    0.22
  -1  -5  14    4.93    0.24
  -1   5  14    4.34    0.21
   0  -5  14    4.08    0.22
   0  -5 -14    4.12    0.24
   0  -5 -14    3.83    0.18
   0  -5  14    3.89    0.22
   0  -5  14    3.95    0.19
   0   5 -14    3.64    0.21
   1  -5  14    0.32    0.06
   1  -5  14    0.18    0.09
  -1  -5 -14    0.31    0.06
   1  -5  14    0.30    0.08
  -1  -5 -14    0.15    0.10
  -3   0  15    0.34    0.11
   3   0 -15   -0.04    0.09
  -2   0  15    8.01    0.73
  -2   0  15    9.61    0.43
   2   0 -15   10.81    0.88
  -1   0  15  175.69    6.88
  -1   0  15  183.76    7.09
   1   0 -15  185.84    6.87
   0   0 -15   40.21    1.65
   0   0  15   39.04    1.74
   0   0  15   39.12    1.75
   0   0 -15   38.35    1.52
   0   0  15   38.87    1.53
   0   0 -15   38.66    1.86
  -1   0 -15    1.05    0.28
   1   0  15    1.29    0.34
  -1   0 -15    0.86    0.13
   2   0  15   20.80    1.21
  -2   0 -15   22.27    1.10
  -2   0 -15   21.61    0.86
  -3   0 -15   10.53    0.44
  -3  -1  15   12.80    0.53
   3  -1 -15   13.11    0.53
  -3   1  15   13.40    0.55
  -2  -1  15    7.16    0.35
  -2  -1  15    7.36    0.30
   2  -1 -15    6.41    0.85
  -2  -1  15    7.19    0.34
  -2  -1  15    8.18    0.75
   2  -1 -15    6.54    0.84
  -2  -1  15    6.92    1.10
   2  -1 -15    7.42    0.34
   2   1 -15    7.53    0.72
  -2   1  15    6.93    0.34
  -2   1  15    7.79    0.69
   2   1 -15    7.09    0.84
  -1  -1  15   25.33    1.36
   1  -1 -15   24.56    1.38
  -1  -1  15   26.48    0.98
  -1  -1  15   25.22    1.02
  -1   1  15   25.29    0.98
   1   1 -15   23.61    1.38
   0  -1 -15   13.33    0.51
   0  -1  15   12.01    0.89
   0  -1  15   12.31    0.54
   0  -1 -15   11.48    0.74
   0  -1 -15   11.90    0.53
   0  -1  15   12.14    0.49
   0  -1  15   12.04    0.86
   0   1  15   12.52    0.88
   0   1  15   11.63    0.54
   0   1 -15   13.87    1.09
   0   1 -15   12.04    0.53
   0   1  15   14.62    1.15
   0   1 -15   12.19    0.69
  -1  -1 -15   50.14    1.87
   1  -1  15   50.74    2.15
   1  -1  15   48.33    1.91
  -1  -1 -15   48.67    2.06
  -1  -1 -15   49.41    1.91
  -1   1 -15   46.49    1.83
   1   1  15   48.05    2.06
  -1   1 -15   48.05    1.98
  -2  -1 -15   10.41    0.79
   2  -1  15   11.22    0.99
  -2  -1 -15   11.09    0.47
   2   1  15   10.88    0.88
  -2   1 -15   10.40    0.45
  -2   1 -15   10.59    0.79
  -3  -1 -15   16.97    0.67
  -3   1 -15   18.92    0.76
  -3  -2  15    6.64    0.26
   3  -2 -15    6.30    0.29
  -3   2  15    5.35    0.24
  -2  -2  15    6.87    1.11
  -2  -2  15    8.25    0.36
   2  -2 -15    8.37    0.36
  -2  -2  15    8.13    0.32
   2  -2 -15    7.66    0.91
  -2  -2  15    8.41    0.37
  -2  -2  15    6.98    0.85
   2  -2 -15    6.40    0.82
  -2   2  15    7.51    0.32
   2   2 -15    6.27    0.69
  -2   2  15    7.62    0.69
   2   2 -15    6.17    0.92
  -1  -2  15   10.15    0.47
  -1  -2  15    9.85    0.92
  -1  -2  15   10.43    0.47
   1  -2 -15   11.15    0.43
   1  -2 -15   10.75    0.47
  -1  -2  15   10.67    0.43
  -1  -2  15   10.46    0.82
   1  -2 -15   11.55    0.96
   1  -2 -15   11.08    0.90
   1   2 -15   10.32    0.86
  -1   2  15    9.87    0.44
   1   2 -15    9.25    0.64
  -1   2  15    9.83    0.74
   0  -2 -15    2.30    0.29
   0  -2 -15    2.13    0.24
   0  -2  15    2.49    0.49
   0  -2  15    1.86    0.21
   0  -2 -15    1.49    0.61
   0  -2  15    1.89    0.14
   0  -2 -15    2.13    0.14
   0   2  15    2.06    0.55
   0   2  15    2.64    0.21
   0   2 -15    2.17    0.41
  -1  -2 -15   13.44    0.57
   1  -2  15   13.26    0.96
  -1  -2 -15   12.50    0.86
   1  -2  15   13.43    1.00
   1  -2  15   13.78    0.57
   1  -2  15   13.59    0.53
  -1  -2 -15   13.42    0.53
  -1   2 -15   11.89    1.23
  -1   2 -15   13.73    0.77
   1   2  15   13.79    0.94
  -1   2 -15   12.99    0.55
  -2  -2 -15   29.82    1.14
  -2  -2 -15   27.85    1.10
  -2   2 -15   26.80    1.05
  -2  -3  15    1.83    0.12
  -2  -3  15    1.66    0.17
   2  -3 -15    1.65    0.16
  -2  -3  15    1.75    0.18
  -2  -3  15    1.77    0.17
  -2   3  15    1.54    0.14
  -1  -3  15   14.92    0.58
  -1  -3  15   14.71    1.05
   1  -3 -15   12.62    1.20
  -1  -3  15   14.31    0.97
   1  -3 -15   15.55    1.04
   1  -3 -15   14.72    0.61
  -1  -3  15   14.68    0.60
   1  -3 -15   14.99    0.57
  -1  -3  15   14.73    0.61
  -1   3  15   13.84    0.58
  -1   3  15   14.31    0.92
   1   3 -15   13.95    1.07
   0  -3 -15   20.10    0.84
   0  -3  15   20.31    0.80
   0  -3 -15   20.58    0.80
   0  -3  15   20.21    0.84
   0  -3  15   21.54    1.18
   0  -3  15   21.52    1.21
   0   3 -15   18.10    0.90
   0   3 -15   18.40    1.19
  -1  -3 -15   12.21    0.49
   1  -3  15   12.87    0.55
   1  -3  15   12.03    0.48
  -1  -3 -15   11.13    0.54
  -1  -3 -15   12.63    0.53
  -1   3 -15   11.22    0.48
  -2  -3 -15    8.25    0.34
  -2  -3 -15    8.72    0.37
  -2   3 -15    7.47    0.35
  -2  -4  15    3.10    0.20
  -2  -4  15    3.60    0.19
  -2  -4  15    3.47    0.20
   2  -4 -15    3.55    0.19
  -2  -4  15    3.17    0.16
  -2   4  15    2.96    0.16
   1  -4 -15   23.08    0.86
  -1  -4  15   22.76    0.89
  -1  -4  15   22.48    0.89
  -1  -4  15   22.12    0.87
  -1  -4  15   21.83    0.89
   1  -4 -15   22.71    0.89
  -1   4  15   21.17    0.83
   0  -4  15    7.24    0.30
   0  -4  15    7.11    0.34
   0  -4 -15    7.22    0.30
   0  -4 -15    6.88    0.35
   0  -4  15    7.24    0.35
   0   4 -15    7.08    0.32
  -1  -4 -15    0.87    0.18
   1  -4  15    1.05    0.10
  -1  -4 -15    1.07    0.10
   1  -4  15    1.69    0.27
   1  -4  15    1.14    0.14
  -1   4 -15    1.08    0.15
  -3   0  16    5.40    0.25
  -2   0  16    2.92    0.19
   2   0 -16    5.06    1.13
  -1   0  16    1.27    0.42
  -1   0  16    2.25    0.19
   1   0 -16    2.18    0.19
   1   0 -16    3.26    0.69
   0   0 -16  155.40    6.01
   0   0 -16  169.02    5.91
   0   0 -16  152.02    6.16
   0   0  16  152.50    5.90
   0   0  16  149.79    6.07
  -1   0 -16    0.04    0.09
  -1   0 -16   -0.43    0.26
   1   0  16    0.11    0.36
  -2   0 -16    9.87    0.43
  -3  -1  16    0.47    0.10
  -3   1  16    0.55    0.09
   2  -1 -16   19.77    0.76
  -2  -1  16   17.88    0.80
  -2   1  16   20.18    0.82
  -1  -1  16    7.79    0.31
  -1  -1  16    7.62    0.36
   1  -1 -16    8.75    0.88
  -1  -1  16    7.26    0.89
  -1  -1  16    7.17    0.74
  -1   1  16    6.86    0.70
   1   1 -16    7.12    0.85
   1   1 -16    7.29    0.58
  -1   1  16    6.93    0.33
   0  -1 -16   49.78    2.11
   0  -1  16   50.00    2.18
   0  -1  16   50.23    2.18
   0  -1  16   51.17    1.94
   0  -1 -16   48.95    2.34
   0  -1 -16   51.08    1.93
   0   1  16   45.26    2.09
   0   1 -16   49.31    1.98
   0   1 -16   49.02    1.84
   0   1  16   46.93    2.09
   0   1  16   48.82    1.85
   0   1 -16   46.81    2.20
   1  -1  16    4.95    0.73
  -1  -1 -16    4.35    0.25
  -1  -1 -16    4.61    0.64
   1  -1  16    4.61    0.36
  -1   1 -16    2.97    0.52
   1   1  16    4.92    0.78
  -1   1 -16    4.15    0.23
  -2  -1 -16    0.30    0.09
  -2   1 -16    0.33    0.09
  -2  -2  16   15.30    0.59
  -2  -2  16   15.73    0.63
   2  -2 -16   15.00    0.62
  -2   2  16   13.75    0.56
  -1  -2  16   23.78    1.25
  -1  -2  16   23.77    0.91
  -1  -2  16   22.75    1.34
   1  -2 -16   24.72    1.40
  -1  -2  16   23.57    0.95
  -1   2  16   19.64    1.15
   1   2 -16   22.60    1.02
   1   2 -16   20.17    1.30
  -1   2  16   21.93    0.84
   0  -2  16    5.34    0.74
   0  -2 -16    3.94    0.18
   0  -2  16    2.92    0.48
   0  -2  16    3.60    0.23
   0  -2  16    3.78    0.18
   0   2 -16    5.39    0.90
   0   2 -16    3.66    0.49
   0   2  16    3.85    0.24
   0   2 -16    3.77    0.22
  -1  -2 -16    9.66    0.40
   1  -2  16    9.83    0.44
  -1   2 -16    9.11    0.41
  -1   2 -16   10.72    0.80
  -2  -2 -16    0.36    0.09
  -2   2 -16    0.21    0.08
  -2  -3  16    1.97    0.15
  -2  -3  16    2.27    0.16
   2  -3 -16    2.41    0.16
  -2  -3  16    2.20    0.13
  -2   3  16    2.25    0.14
  -1  -3  16   22.54    0.90
   1  -3 -16   22.33    0.89
  -1  -3  16   22.04    0.87
   1  -3 -16   23.17    0.86
  -1   3  16   21.97    0.87
   0  -3 -16    3.85    0.26
   0  -3 -16    4.39    0.20
   0  -3  16    4.84    0.33
   1  -3  16    7.15    0.33
   1  -3  16    7.11    0.29
  -1  -3 -16    7.13    0.29
  -1  -3 -16    7.28    0.35
  -1   3 -16    6.52    0.30
   1  -4 -16    0.21    0.10
   1  -4 -16    0.20    0.04
  -1  -4  16    0.25    0.05
  -1  -4  16    0.27    0.08
  -1   4  16    0.19    0.09
   0  -4  16   11.37    0.46
   0  -4 -16   12.06    0.46
   0  -4 -16   11.91    0.50
   0  -4  16   11.66    0.50
   0   4 -16   10.91    0.44
  -2   0  17    0.32    0.09
   1   0 -17    1.01    0.17
  -1   0  17   -0.34    0.58
   0   0 -17   12.03    0.86
   0   0 -17   15.23    0.60
   0   0  17   15.66    0.62
   0   0  17   14.69    1.35
  -1   0 -17    5.95    0.34
  -2   0 -17    3.63    0.20
  -2  -1  17    1.83    0.14
  -2   1  17    1.85    0.14
   2   1 -17    1.77    0.16
  -1  -1  17   13.68    0.58
   0  -1  17   24.84    1.64
   0  -1 -17   22.80    0.93
   0  -1  17   20.29    0.93
   0   1 -17   18.66    0.75
   0   1 -17   17.84    1.05
   0   1  17   19.39    0.76
  -1  -1 -17   18.62    0.75
  -1   1 -17   17.55    0.70
  -2  -1 -17    0.35    0.07
  -2   1 -17    0.25    0.08
   2  -2 -17    0.16    0.14
  -2  -2  17    0.00    0.08
   2   2 -17    0.11    0.07
  -2   2  17    0.25    0.08
  -1  -2  17    2.30    0.18
  -1  -2  17    2.64    0.13
  -1   2  17    2.81    0.18
   1   2 -17    2.60    0.17
   0  -2  17   10.66    0.46
   0   2 -17   10.43    0.44
   0   2  17   10.39    0.45
   1  -2  17    8.92    0.39
  -1  -2 -17    9.07    0.39
  -1   2 -17    9.16    0.39
  -1  -3  17    9.15    0.36
  -1  -3  17    8.95    0.39
   1  -3 -17    9.00    0.39
  -1   3  17    9.04    0.39
   1   3 -17    9.39    0.38
   0  -3  17   11.88    0.46
   0  -3  17   11.66    0.49
   0   3 -17   11.37    0.46
   1  -3  17    2.01    0.18
  -1   3 -17    1.70    0.14
  -1   0  18    3.08    0.18
   1   0 -18    3.01    0.20
   0   0  18    0.00    0.11
   0   0 -18   -0.03    0.07
  -1   0 -18   16.33    0.65
  -1  -1  18    0.77    0.12
   1   1 -18    0.64    0.08
  -1   1  18    0.52    0.10
   0  -1 -18    4.51    0.24
   0  -1  18    4.73    0.24
   0   1  18    4.48    0.24
   0   1 -18    4.73    0.23
  -1  -1 -18    4.48    0.23
  -1   1 -18    4.62    0.23
  -1  -2  18   16.84    0.67
   1   2 -18   17.58    0.69
  -1   2  18   17.64    0.69
   0  -2  18   26.09    1.02
   0   2 -18   25.42    0.98
   0   0   0    0.00    0.00
;
_shelx_hkl_checksum              53474
loop_
_space_group_symop_operation_xyz
'x, y, z'
'-x, y+1/2, -z'
loop_
_atom_site_label
_atom_site_type_symbol
_atom_site_fract_x
_atom_site_fract_y
_atom_site_fract_z
_atom_site_U_iso_or_equiv
_atom_site_adp_type
_atom_site_occupancy
_atom_site_site_symmetry_order
_atom_site_calc_flag
_atom_site_refinement_flags_posn
_atom_site_refinement_flags_adp
C1 C -0.5149(5) -0.5548(4) -0.84099(14) 0.0155(5) Uani 1 1 d . .
C2 C -0.7119(5) -0.3814(4) -0.84388(15) 0.0150(5) Uani 1 1 d . .
C3 C -0.7320(5) -0.2692(4) -0.91699(14) 0.0176(5) Uani 1 1 d . .
H3 H -0.6238 -0.3056 -0.9644 0.021 Uiso 1 1 calc R U
C4 C -0.9113(5) -0.1039(4) -0.92013(15) 0.0200(6) Uani 1 1 d . .
H4 H -0.9263 -0.0271 -0.9698 0.024 Uiso 1 1 calc R U
C5 C -1.0683(5) -0.0508(4) -0.85083(17) 0.0211(6) Uani 1 1 d . .
H5 H -1.1922 0.0616 -0.8535 0.025 Uiso 1 1 calc R U
C6 C -1.0457(5) -0.1606(4) -0.77760(16) 0.0181(5) Uani 1 1 d . .
H6 H -1.1519 -0.1223 -0.7301 0.022 Uiso 1 1 calc R U
C7 C -0.8676(5) -0.3270(4) -0.77363(15) 0.0160(5) Uani 1 1 d . .
C8 C -0.8364(5) -0.4513(4) -0.69606(15) 0.0163(5) Uani 1 1 d . .
H8 H -1.0245 -0.4460 -0.6653 0.020 Uiso 1 1 calc R U
C9 C -0.7710(5) -0.6603(4) -0.71872(15) 0.0158(5) Uani 1 1 d . .
H9 H -0.9489 -0.7154 -0.7499 0.019 Uiso 1 1 calc R U
C10 C -0.6935(5) -0.7933(4) -0.64498(15) 0.0178(5) Uani 1 1 d . .
H10A H -0.6253 -0.9223 -0.6650 0.021 Uiso 1 1 calc R U
H10B H -0.5336 -0.7346 -0.6087 0.021 Uiso 1 1 calc R U
C11 C -0.9145(6) -0.9488(4) -0.53234(16) 0.0254(6) Uani 1 1 d . .
H11A H -0.8497 -1.0755 -0.5539 0.038 Uiso 1 1 calc R U
H11B H -1.1023 -0.9654 -0.5046 0.038 Uiso 1 1 calc R U
H11C H -0.7640 -0.8981 -0.4918 0.038 Uiso 1 1 calc R U
O1 O -0.5211(4) -0.6728(3) -0.77247(10) 0.0174(4) Uani 1 1 d . .
O2 O -0.3419(4) -0.5940(3) -0.89393(10) 0.0206(4) Uani 1 1 d . .
O3 O -0.9541(4) -0.8149(3) -0.59994(11) 0.0211(4) Uani 1 1 d . .
F1 F -0.6005(3) -0.3762(2) -0.64381(8) 0.0213(4) Uani 1 1 d . .
loop_
_atom_site_aniso_label
_atom_site_aniso_U_11
_atom_site_aniso_U_22
_atom_site_aniso_U_33
_atom_site_aniso_U_23
_atom_site_aniso_U_13
_atom_site_aniso_U_12
C1 0.0153(10) 0.0159(13) 0.0151(12) -0.0015(10) -0.0008(9) -0.0007(10)
C2 0.0141(10) 0.0138(12) 0.0170(11) -0.0014(9) -0.0015(8) -0.0031(9)
C3 0.0182(11) 0.0184(14) 0.0161(12) -0.0003(10) 0.0006(9) -0.0015(10)
C4 0.0216(12) 0.0189(14) 0.0191(12) 0.0041(10) -0.0028(9) -0.0004(10)
C5 0.0218(12) 0.0138(14) 0.0271(14) -0.0016(10) -0.0036(10) 0.0028(10)
C6 0.0185(11) 0.0171(13) 0.0188(12) -0.0059(9) -0.0005(9) 0.0009(10)
C7 0.0152(11) 0.0154(14) 0.0171(11) -0.0024(10) -0.0019(9) -0.0008(9)
C8 0.0158(11) 0.0180(13) 0.0150(12) -0.0007(10) 0.0005(9) 0.0007(10)
C9 0.0140(10) 0.0172(13) 0.0164(11) 0.0009(9) 0.0028(9) 0.0012(10)
C10 0.0171(11) 0.0180(12) 0.0186(12) 0.0014(10) 0.0019(9) 0.0013(10)
C11 0.0332(14) 0.0228(15) 0.0207(13) 0.0062(11) 0.0067(10) 0.0023(12)
O1 0.0174(8) 0.0184(10) 0.0167(8) 0.0021(7) 0.0036(7) 0.0049(7)
O2 0.0231(9) 0.0196(9) 0.0195(9) -0.0013(8) 0.0057(7) 0.0035(8)
O3 0.0207(8) 0.0235(10) 0.0194(8) 0.0073(8) 0.0035(6) 0.0038(7)
F1 0.0254(8) 0.0214(8) 0.0167(7) -0.0032(6) -0.0043(6) -0.0010(6)
loop_
_atom_type_symbol
_atom_type_description
_atom_type_scat_dispersion_real
_atom_type_scat_dispersion_imag
_atom_type_scat_source
C C 0.0181 0.0091 'International Tables Vol C Tables 4.2.6.8 and 6.1.1.4'
H H 0.0000 0.0000 'International Tables Vol C Tables 4.2.6.8 and 6.1.1.4'
F F 0.0727 0.0534 'International Tables Vol C Tables 4.2.6.8 and 6.1.1.4'
O O 0.0492 0.0322 'International Tables Vol C Tables 4.2.6.8 and 6.1.1.4'
loop_
_geom_angle_atom_site_label_1
_geom_angle_atom_site_label_2
_geom_angle_atom_site_label_3
_geom_angle
O2 C1 O1 117.9(2)
O2 C1 C2 124.3(2)
O1 C1 C2 117.77(19)
C3 C2 C7 120.4(2)
C3 C2 C1 118.9(2)
C7 C2 C1 120.7(2)
C4 C3 C2 119.6(2)
C4 C3 H3 120.2
C2 C3 H3 120.2
C5 C4 C3 120.1(2)
C5 C4 H4 119.9
C3 C4 H4 119.9
C4 C5 C6 120.5(2)
C4 C5 H5 119.8
C6 C5 H5 119.8
C5 C6 C7 120.0(2)
C5 C6 H6 120.0
C7 C6 H6 120.0
C6 C7 C2 119.4(2)
C6 C7 C8 122.2(2)
C2 C7 C8 118.5(2)
F1 C8 C7 108.66(19)
F1 C8 C9 109.47(19)
C7 C8 C9 110.56(19)
F1 C8 H8 109.4
C7 C8 H8 109.4
C9 C8 H8 109.4
O1 C9 C8 111.31(19)
O1 C9 C10 105.29(19)
C8 C9 C10 115.1(2)
O1 C9 H9 108.3
C8 C9 H9 108.3
C10 C9 H9 108.3
O3 C10 C9 106.67(19)
O3 C10 H10A 110.4
C9 C10 H10A 110.4
O3 C10 H10B 110.4
C9 C10 H10B 110.4
H10A C10 H10B 108.6
O3 C11 H11A 109.5
O3 C11 H11B 109.5
H11A C11 H11B 109.5
O3 C11 H11C 109.5
H11A C11 H11C 109.5
H11B C11 H11C 109.5
C1 O1 C9 118.96(18)
C10 O3 C11 111.86(19)
loop_
_geom_bond_atom_site_label_1
_geom_bond_atom_site_label_2
_geom_bond_distance
C1 O2 1.205(3)
C1 O1 1.358(3)
C1 C2 1.481(3)
C2 C3 1.394(3)
C2 C7 1.398(3)
C3 C4 1.389(4)
C3 H3 0.9500
C4 C5 1.386(4)
C4 H4 0.9500
C5 C6 1.387(4)
C5 H5 0.9500
C6 C7 1.392(4)
C6 H6 0.9500
C7 C8 1.501(3)
C8 F1 1.419(3)
C8 C9 1.505(4)
C8 H8 1.0000
C9 O1 1.449(3)
C9 C10 1.514(3)
C9 H9 1.0000
C10 O3 1.413(3)
C10 H10A 0.9900
C10 H10B 0.9900
C11 O3 1.418(3)
C11 H11A 0.9800
C11 H11B 0.9800
C11 H11C 0.9800
loop_
_geom_torsion_atom_site_label_1
_geom_torsion_atom_site_label_2
_geom_torsion_atom_site_label_3
_geom_torsion_atom_site_label_4
_geom_torsion
O2 C1 C2 C3 9.2(4)
O1 C1 C2 C3 -173.6(2)
O2 C1 C2 C7 -168.6(2)
O1 C1 C2 C7 8.6(3)
C7 C2 C3 C4 -0.9(4)
C1 C2 C3 C4 -178.7(2)
C2 C3 C4 C5 0.2(4)
C3 C4 C5 C6 0.7(4)
C4 C5 C6 C7 -0.9(4)
C5 C6 C7 C2 0.2(4)
C5 C6 C7 C8 -179.8(2)
C3 C2 C7 C6 0.7(4)
C1 C2 C7 C6 178.5(2)
C3 C2 C7 C8 -179.4(2)
C1 C2 C7 C8 -1.6(3)
C6 C7 C8 F1 -88.5(3)
C2 C7 C8 F1 91.5(2)
C6 C7 C8 C9 151.3(2)
C2 C7 C8 C9 -28.6(3)
F1 C8 C9 O1 -67.4(2)
C7 C8 C9 O1 52.3(3)
F1 C8 C9 C10 52.3(2)
C7 C8 C9 C10 171.96(19)
O1 C9 C10 O3 -168.78(19)
C8 C9 C10 O3 68.3(3)
O2 C1 O1 C9 -164.8(2)
C2 C1 O1 C9 17.8(3)
C8 C9 O1 C1 -49.0(3)
C10 C9 O1 C1 -174.34(19)
C9 C10 O3 C11 175.7(2)
