#------------------------------------------------------------------------------
#$Date: 2019-11-25 23:17:32 +0200 (Mon, 25 Nov 2019) $
#$Revision: 242034 $
#$URL: file:///home/coder/svn-repositories/cod/cif/4/13/19/4131990.cif $
#------------------------------------------------------------------------------
#
# This file is available in the Crystallography Open Database (COD),
# http://www.crystallography.net/
#
# All data on this site have been placed in the public domain by the
# contributors.
#
data_4131990
loop_
_publ_author_name
'Karak, Suvendu'
'Kumar, Sushil'
'Pachfule, Pradip'
'Banerjee, Rahul'
_publ_section_title
;
 Porosity Prediction through Hydrogen Bonding in Covalent Organic
 Frameworks.
;
_journal_issue                   15
_journal_name_full               'Journal of the American Chemical Society'
_journal_page_first              5138
_journal_page_last               5145
_journal_paper_doi               10.1021/jacs.7b13558
_journal_volume                  140
_journal_year                    2018
_chemical_formula_moiety         'C6 H7 Cl N3 O2, C6 H5 O4 S'
_chemical_formula_sum            'C12 H12 Cl N3 O6 S'
_chemical_formula_weight         361.76
_space_group_crystal_system      triclinic
_space_group_IT_number           2
_space_group_name_Hall           '-P 1'
_space_group_name_H-M_alt        'P -1'
_atom_sites_solution_hydrogens   mixed
_audit_creation_method           SHELXL-2016/6
_cell_angle_alpha                90.408(5)
_cell_angle_beta                 107.029(6)
_cell_angle_gamma                94.769(5)
_cell_formula_units_Z            2
_cell_length_a                   7.4388(5)
_cell_length_b                   8.5190(4)
_cell_length_c                   12.2969(9)
_cell_measurement_reflns_used    2602
_cell_measurement_temperature    293(2)
_cell_measurement_theta_max      25.00
_cell_measurement_theta_min      3.00
_cell_volume                     742.12(9)
_computing_structure_refinement  'SHELXL-2016/6 (Sheldrick, 2016)'
_diffrn_ambient_temperature      293(2)
_diffrn_measured_fraction_theta_full 0.998
_diffrn_measured_fraction_theta_max 0.998
_diffrn_measurement_device_type  'Supernova (Mo) X0ray source'
_diffrn_measurement_method       '\w scans'
_diffrn_radiation_type           MoK\a
_diffrn_radiation_wavelength     0.71073
_diffrn_reflns_av_R_equivalents  0.0206
_diffrn_reflns_av_unetI/netI     0.0337
_diffrn_reflns_Laue_measured_fraction_full 0.998
_diffrn_reflns_Laue_measured_fraction_max 0.998
_diffrn_reflns_limit_h_max       8
_diffrn_reflns_limit_h_min       -8
_diffrn_reflns_limit_k_max       10
_diffrn_reflns_limit_k_min       -7
_diffrn_reflns_limit_l_max       14
_diffrn_reflns_limit_l_min       -14
_diffrn_reflns_number            4787
_diffrn_reflns_point_group_measured_fraction_full 0.998
_diffrn_reflns_point_group_measured_fraction_max 0.998
_diffrn_reflns_theta_full        24.992
_diffrn_reflns_theta_max         24.992
_diffrn_reflns_theta_min         2.914
_diffrn_source                   'fine focus sealed tube'
_exptl_absorpt_coefficient_mu    0.434
_exptl_absorpt_correction_T_max  0.917
_exptl_absorpt_correction_T_min  0.905
_exptl_absorpt_correction_type   multi-scan
_exptl_absorpt_process_details   Crysalispro
_exptl_crystal_colour            colorless
_exptl_crystal_density_diffrn    1.619
_exptl_crystal_description       block
_exptl_crystal_F_000             372
_exptl_crystal_size_max          0.230
_exptl_crystal_size_mid          0.220
_exptl_crystal_size_min          0.200
_refine_diff_density_max         0.347
_refine_diff_density_min         -0.322
_refine_diff_density_rms         0.056
_refine_ls_extinction_method     none
_refine_ls_goodness_of_fit_ref   1.097
_refine_ls_hydrogen_treatment    mixed
_refine_ls_matrix_type           full
_refine_ls_number_parameters     232
_refine_ls_number_reflns         2602
_refine_ls_number_restraints     1
_refine_ls_restrained_S_all      1.097
_refine_ls_R_factor_all          0.0444
_refine_ls_R_factor_gt           0.0385
_refine_ls_shift/su_max          0.001
_refine_ls_shift/su_mean         0.000
_refine_ls_structure_factor_coef Fsqd
_refine_ls_weighting_details
'w=1/[\s^2^(Fo^2^)+(0.0551P)^2^+0.2531P] where P=(Fo^2^+2Fc^2^)/3'
_refine_ls_weighting_scheme      calc
_refine_ls_wR_factor_gt          0.1071
_refine_ls_wR_factor_ref         0.1122
_reflns_Friedel_coverage         0.000
_reflns_number_gt                2279
_reflns_number_total             2602
_reflns_threshold_expression     'I > 2\s(I)'
_cod_data_source_file            ja7b13558_si_004.cif
_cod_data_source_block           PSA-Pa-Cl-NO2
_cod_original_cell_volume        742.12(8)
_cod_database_code               4131990
_shelx_shelxl_version_number     2016/6
_shelx_space_group_comment
;
The symmetry employed for this shelxl refinement is uniquely defined
by the following loop, which should always be used as a source of
symmetry information in preference to the above space-group names.
They are only intended as comments.
;
_shelx_estimated_absorpt_t_min   0.907
_shelx_estimated_absorpt_t_max   0.918
_shelx_res_file
;
TITL 56-3 in P -1
    shelx.res
    created by SHELXL-2016/6 at 15:09:40 on 05-Sep-2017
CELL  0.71073   7.4388   8.5190  12.2969   90.408  107.029   94.769
ZERR     2.00   0.0005   0.0004   0.0009    0.005    0.006    0.005
LATT   1
SFAC  C    H    N    O    S    CL
UNIT  24   24   6    12   2    2
MERG   2
OMIT     0.00  50.00
DFIX     0.900   0.020 N2 H2A
FMAP   2
PLAN   25
SIZE     0.20   0.22   0.23
ACTA
BOND   $H
CONF
L.S.  10
TEMP    20.00
WGHT    0.055100    0.253100
FVAR       5.62965
C1    1    0.944226    0.871274   -0.346414    11.00000    0.03570    0.02893 =
         0.03308    0.00386    0.00164    0.00054
C2    1    1.022272    0.858446   -0.230278    11.00000    0.04920    0.02747 =
         0.03380   -0.00352    0.00294    0.00076
AFIX  43
H2    2    1.045488    0.947496   -0.182351    11.00000   -1.20000
AFIX   0
C3    1    1.065313    0.714332   -0.185975    11.00000    0.04934    0.03421 =
         0.02499   -0.00012    0.00172    0.00327
AFIX  43
H3    2    1.118128    0.706565   -0.107894    11.00000   -1.20000
AFIX   0
C4    1    1.031430    0.580549   -0.255533    11.00000    0.02904    0.03002 =
         0.02862    0.00329    0.00635    0.00163
C5    1    0.953851    0.593258   -0.371601    11.00000    0.04923    0.03004 =
         0.02720   -0.00358    0.00394    0.00126
AFIX  43
H5    2    0.929745    0.503852   -0.419244    11.00000   -1.20000
AFIX   0
C6    1    0.912058    0.738312   -0.416989    11.00000    0.05527    0.03646 =
         0.02721    0.00268   -0.00161   -0.00006
AFIX  43
H6    2    0.862136    0.746608   -0.495242    11.00000   -1.20000
AFIX   0
C7    1    0.594555    0.639359   -0.176157    11.00000    0.02681    0.02782 =
         0.02916    0.00272    0.00674    0.00445
C8    1    0.508615    0.625834   -0.293764    11.00000    0.03651    0.02861 =
         0.02860   -0.00312    0.00973   -0.00215
C9    1    0.441516    0.753473   -0.354447    11.00000    0.04400    0.03888 =
         0.02550    0.00301    0.00180   -0.00160
AFIX  43
H9    2    0.384459    0.740823   -0.432480    11.00000   -1.20000
AFIX   0
C10   1    0.456430    0.903386   -0.302073    11.00000    0.03745    0.03241 =
         0.03900    0.00875    0.00598    0.00334
C11   1    0.552690    0.913757   -0.184543    11.00000    0.03417    0.02553 =
         0.03720   -0.00064    0.00761    0.00433
C12   1    0.617982    0.782876   -0.123146    11.00000    0.03459    0.03070 =
         0.02423    0.00050    0.00350    0.00468
AFIX  43
H12   2    0.677991    0.793941   -0.045351    11.00000   -1.20000
AFIX   0
N1    3    0.653334    0.500873   -0.111063    11.00000    0.03567    0.02611 =
         0.02939    0.00155    0.00773    0.00572
N2    3    0.383768    1.023998   -0.365445    11.00000    0.07217    0.03793 =
         0.04297    0.00937   -0.01126    0.00753
N3    3    0.584561    1.060571   -0.120539    11.00000    0.05055    0.02749 =
         0.04707   -0.00199    0.00957    0.00346
O1    4    0.893719    1.010558   -0.395578    11.00000    0.06733    0.02896 =
         0.04332    0.00607   -0.00597    0.00364
O2    4    0.950398    0.354181   -0.133185    11.00000    0.05240    0.04941 =
         0.07994    0.03263    0.03911    0.02149
O3    4    1.275332    0.420497   -0.118361    11.00000    0.03816    0.04092 =
         0.03234    0.00285    0.00404    0.01047
O4    4    1.070503    0.285793   -0.288119    11.00000    0.06945    0.03046 =
         0.03852   -0.00477    0.00419    0.00622
O5    4    0.506190    1.174360   -0.166549    11.00000    0.08522    0.02827 =
         0.07640   -0.00003    0.00323    0.01902
O6    4    0.686332    1.068818   -0.023301    11.00000    0.10436    0.04247 =
         0.04618   -0.01399   -0.00785    0.00719
S1    5    1.083925    0.395642   -0.195892    11.00000    0.03359    0.02720 =
         0.03014    0.00358    0.00835    0.00574
CL1   6    0.484210    0.444848   -0.361483    11.00000    0.07931    0.03358 =
         0.03434   -0.00800    0.01724   -0.00502
H1A   2    0.754760    0.454519   -0.126311    11.00000    0.04475
H1B   2    0.691518    0.531170   -0.036628    11.00000    0.02838
H1C   2    0.554087    0.425954   -0.122834    11.00000    0.06303
H1D   2    0.945586    1.098186   -0.343729    11.00000    0.07954
H2A   2    0.372558    1.108614   -0.328707    11.00000    0.07918
H2B   2    0.309923    0.993697   -0.427255    11.00000    0.04392
HKLF    4




REM  56-3 in P -1
REM R1 =  0.0385 for    2279 Fo > 4sig(Fo)  and  0.0444 for all    2602 data
REM    232 parameters refined using      1 restraints

END

WGHT      0.0549      0.2506

REM Highest difference peak  0.347,  deepest hole -0.322,  1-sigma level  0.056
Q1    1   1.0572  0.4966 -0.2205  11.00000  0.05    0.35
Q2    1   0.5104  0.6281 -0.2346  11.00000  0.05    0.26
Q3    1   0.9728  0.2979 -0.2666  11.00000  0.05    0.22
Q4    1   0.9357  0.2843 -0.3156  11.00000  0.05    0.22
Q5    1   1.2275  0.3244 -0.0494  11.00000  0.05    0.21
Q6    1   1.0746  0.7017 -0.0695  11.00000  0.05    0.20
Q7    1   1.3088  0.3297 -0.1051  11.00000  0.05    0.20
Q8    1   0.9399  0.4879 -0.4861  11.00000  0.05    0.20
Q9    1   0.9661  0.5740 -0.2986  11.00000  0.05    0.19
Q10   1   0.7886  0.7423 -0.4886  11.00000  0.05    0.18
Q11   1   0.7961  1.0493 -0.0614  11.00000  0.05    0.18
Q12   1   0.5857  0.8553 -0.1666  11.00000  0.05    0.18
Q13   1   0.4864  0.9116 -0.2354  11.00000  0.05    0.17
Q14   1   0.7478  0.9620  0.0164  11.00000  0.05    0.17
Q15   1   1.0214  0.4225 -0.1028  11.00000  0.05    0.17
Q16   1   0.4159  0.6738 -0.3205  11.00000  0.05    0.17
Q17   1   0.9430  0.4253 -0.0978  11.00000  0.05    0.17
Q18   1   1.0958  0.2378 -0.3055  11.00000  0.05    0.17
Q19   1   0.4142  0.8227 -0.3127  11.00000  0.05    0.17
Q20   1   0.9939  0.3040 -0.1228  11.00000  0.05    0.17
Q21   1   1.0720  1.0007 -0.0364  11.00000  0.05    0.17
Q22   1   0.5942  1.1474 -0.1628  11.00000  0.05    0.16
Q23   1   0.4071  1.0983 -0.3416  11.00000  0.05    0.16
Q24   1   0.9386  0.9507 -0.1866  11.00000  0.05    0.16
Q25   1   0.8781  0.7840 -0.3687  11.00000  0.05    0.16
;
_shelx_res_checksum              22218
_shelx_hkl_file
;
   0   0  -2 209307. 2588.82   2
   0   0  -3 814.461 64.6766   2
   0   0  -4 219155. 2837.65   2
   0   0  -5 21457.1 496.424   2
   0   0  -6 27130.2 620.344   2
   0   0  -7 2989.75 198.632   2
   0   0  -8 7613.08 344.309   2
   0   0  -9 167.197 57.2737   2
   0   0 -10 3029.69 251.940   2
   0   0 -11 10363.6 511.313   2
   0   0  11 11665.3 536.250   1
   0   0 -12 9182.13 505.645   2
   0   0  12 10282.8 530.073   1
   0   0  13 10750.5 579.343   1
   0   0  14 1020.42 189.184   1
   0   0  15 1435.76 236.435   1
   0  -1  14 56.2264 65.3247   1
   0  -1  13 6770.53 461.731   1
   0   1 -12 1406.81 191.640   2
   0  -1  12 1547.46 207.470   1
   0   1 -11 16662.4 643.265   2
   0   1 -10 10.6638 33.7174   2
   0   1  -9 550.510 96.2459   2
   0   1  -8 1638.48 153.826   2
   0   1  -7 3203.31 199.953   2
   0   1  -6 1496.83 123.906   2
   0  -1   5 11913.8 216.101   3
   0   1  -5 12457.2 345.919   2
   0   1  -4 9476.25 173.873   8
   0  -1   4 9796.92 185.547   3
   0   1  -4 9600.29 270.542   2
   0   1  -3 14624.2 237.080   8
   0   1  -3 14058.9 307.012   2
   0   1  -3 14586.5 241.821   3
   0  -1   3 14233.4 243.749   3
   0   1  -2 399.214 36.0013   2
   0  -1   2 478.056 32.4360   3
   0   1  -2 387.784 29.3552   3
   0   1  -2 361.159 37.4596   5
   0  -1   1 86.5677 14.1011   7
   0  -1  -1 10324.0 187.363   2
   0   1   2 121486. 1529.33   8
   0  -1  -2 122992. 1596.10   2
   0   1   2 127034. 1541.70   3
   0  -1  -3 17508.4 371.613   2
   0   1   3 18220.9 288.033   3
   0   1   3 18414.4 281.690   8
   0  -1  -3 18655.5 292.130   3
   0  -1  -4 16188.1 387.965   2
   0   1   4 16113.3 254.326   8
   0  -1  -4 16532.2 268.808   3
   0  -1  -5 455.503 64.4176   2
   0  -1  -5 450.488 30.1534   3
   0  -1  -6 699.072 86.9621   2
   0  -1  -7 7149.18 315.311   2
   0  -1  -8 190.326 54.6723   2
   0  -1  -9 75.7269 41.8703   2
   0   1   9 6.54502 16.6524   1
   0  -1 -10 308.133 81.8443   2
   0   1  10 432.089 93.6840   1
   0  -1 -11 1435.82 184.882   2
   0   1  11 1402.36 178.588   1
   0   1  12 3522.18 304.150   1
   0   1  13 833.800 158.346   1
   0   1  14 676.674 151.315   1
   0   1  15 157.699 76.6357   1
   0  -2  14 2750.06 310.111   1
   0  -2  13 2764.56 296.720   1
   0  -2  12 43.0399 42.7559   1
   0   2 -12 39.3850 27.8056   2
   0   2 -11 6406.63 387.742   2
   0   2 -10 681.828 112.318   2
   0   2  -9 33.0837 28.2500   2
   0   2  -8 28.6716 18.3626   2
   0  -2   7 7583.81 201.365   3
   0   2  -7 7067.44 303.293   2
   0   2  -6 231.101 48.7855   2
   0  -2   6 277.793 35.6661   3
   0  -2   5 1759.16 92.1442   3
   0   2  -5 1620.28 115.919   2
   0   2  -5 1752.88 86.3672   3
   0   2  -5 1673.50 81.3755   8
   0   2  -4 42081.8 719.866   2
   0   2  -4 43358.0 646.896   8
   0   2  -4 43642.3 662.383   3
   0  -2   4 43302.9 670.085   3
   0   2  -3 13347.0 320.131   5
   0  -2   3 12915.4 301.563   2
   0   2  -3 13701.2 277.203   8
   0   2  -3 13382.4 295.083   2
   0  -2   3 13488.8 288.659   3
   0   2  -3 13955.2 289.818   3
   0  -2   3 13497.6 336.644   5
   0  -2   2 18496.5 353.728   3
   0  -2   2 18905.7 380.189   5
   0   2  -2 18476.7 482.494   4
   0   2  -2 18627.8 322.997   2
   0   2  -2 18283.2 354.217   3
   0   2  -2 18113.7 355.974   5
   0  -2   2 18497.8 366.606   7
   0   2  -1 42736.5 813.559   4
   0   2  -1 43519.9 638.492   5
   0   2  -1 44979.0 586.671   2
   0   2  -1 43972.9 677.334   3
   0   2  -1 44402.5 634.826   7
   0  -2   1 44520.5 671.597   5
   0   2   0 59485.5 877.170   3
   0   2   0 60504.8 824.262   5
   0  -2   0 62517.3 853.003   5
   0   2   1 52390.7 968.402   6
   0   2   1 52295.5 779.642   3
   0   2   1 53394.0 701.378   2
   0   2   2 399.795 34.6933   1
   0   2   2 401.956 37.3282   2
   0   2   2 423.751 43.0855   3
   0   2   2 353.030 36.6233   8
   0   2   2 383.538 70.0774   6
   0   2   3 29926.1 501.623   3
   0   2   3 29523.2 486.663   8
   0  -2  -3 29842.8 554.491   2
   0  -2  -3 31321.0 511.034   3
   0   2   3 31121.0 511.438   1
   0   2   3 30054.1 523.956   2
   0   2   4 17570.1 332.125   8
   0   2   4 18323.6 348.542   3
   0  -2  -4 18738.9 357.528   3
   0   2   4 18572.7 400.736   1
   0  -2  -4 18362.1 436.059   2
   0   2   5 31002.6 611.352   1
   0   2   5 29271.0 480.317   8
   0  -2  -5 29080.5 640.546   2
   0  -2  -5 31499.2 511.790   3
   0  -2  -6 1999.45 155.695   2
   0   2   6 1926.89 82.9643   8
   0   2   6 1920.03 139.900   1
   0  -2  -6 1928.18 91.1381   3
   0  -2  -7 10449.2 404.075   2
   0   2   7 10664.4 377.636   1
   0  -2  -7 10373.8 233.102   3
   0   2   8 57726.7 1117.21   1
   0  -2  -8 54395.0 1161.54   2
   0   2   9 2183.12 194.657   1
   0  -2  -9 2518.74 221.508   2
   0   2  10 361.882 88.2141   1
   0   2  11 43.7942 44.2476   1
   0   2  12 6367.51 409.874   1
   0   2  13 1751.26 230.304   1
   0   2  14 740.624 159.620   1
   0   2  15 479.623 139.713   1
   0  -3  14 2215.01 283.028   1
   0  -3  13 1279.33 202.173   1
   0   3 -12 7885.67 464.270   2
   0  -3  12 9464.70 530.857   1
   0   3 -11 1598.02 189.525   2
   0   3 -10 435.975 91.3122   2
   0   3  -9 11103.6 443.529   2
   0   3  -8 750.449 102.591   2
   0   3  -7 6392.24 286.910   2
   0   3  -6 12720.9 318.741   3
   0   3  -6 13072.8 311.380   8
   0   3  -6 13067.5 389.500   2
   0   3  -5 53223.9 842.072   3
   0   3  -5 52226.8 885.723   2
   0   3  -5 51194.4 819.833   8
   0   3  -4 12517.6 318.307   3
   0   3  -4 12312.8 343.875   5
   0   3  -4 12473.3 314.723   2
   0   3  -4 12966.7 310.601   8
   0   3  -3 111986. 1565.01   3
   0  -3   3 113558. 1605.14   7
   0  -3   3 111885. 1631.00   5
   0   3  -3 111726. 1864.51   4
   0   3  -3 111178. 1498.30   2
   0   3  -3 112249. 1565.64   5
   0   3  -3 112372. 1541.65   8
   0  -3   2 20596.0 453.013   5
   0   3  -2 21000.5 440.592   3
   0   3  -2 20454.8 404.196   5
   0   3  -2 19715.8 587.924   4
   0   3  -2 21171.6 352.677   2
   0   3  -1 32654.0 595.031   3
   0   3  -1 32779.0 535.341   7
   0   3  -1 32454.2 528.556   5
   0  -3   1 33450.5 586.260   5
   0   3  -1 31711.4 760.519   4
   0   3  -1 31954.4 448.920   2
   0   3   0 9782.51 227.207   5
   0   3   0 9058.72 268.013   3
   0  -3   0 10300.8 257.428   5
   0   3   1 12088.9 212.754   2
   0   3   1 11900.8 275.408   5
   0   3   1 11514.1 308.157   3
   0   3   1 11842.3 444.355   6
   0   3   2 7527.34 223.830   8
   0   3   2 7358.98 363.088   6
   0   3   2 7616.06 184.257   2
   0   3   2 7423.54 178.836   1
   0   3   2 7505.77 236.894   3
   0   3   3 81283.6 1207.54   3
   0   3   3 81909.3 1183.30   8
   0   3   3 82987.4 1157.70   1
   0   3   3 83512.2 1165.71   2
   0   3   3 82916.0 1589.10   6
   0   3   4 3245.66 139.504   8
   0   3   4 3396.45 152.687   1
   0   3   4 3351.33 151.465   3
   0   3   4 3207.06 268.537   6
   0   3   5 7345.18 230.908   3
   0   3   5 6955.60 209.703   8
   0   3   5 7182.90 254.629   1
   0   3   6 14447.7 414.096   1
   0   3   6 13488.4 314.325   8
   0   3   7 1563.86 92.0300   8
   0   3   7 1825.71 148.643   1
   0  -3  -8 21375.1 439.862   3
   0   3   8 21420.5 610.254   1
   0   3   9 407.627 91.5350   1
   0   3  10 12521.5 518.527   1
   0   3  11 2192.02 226.926   1
   0   3  12 5402.38 381.102   1
   0   3  13 1250.61 201.989   1
   0   3  14 4393.68 393.938   1
   0   3  15 619.021 150.866   1
   0  -4  13 128.239 78.4094   1
   0  -4  12 4411.69 367.214   1
   0   4 -12 3403.84 299.766   2
   0   4 -11 218.774 72.5315   2
   0   4 -10 5688.20 342.074   2
   0   4  -9 4167.22 267.317   2
   0   4  -8 1079.25 124.329   2
   0   4  -7 12727.0 417.785   2
   0   4  -6 223.037 46.4238   2
   0   4  -6 194.922 41.4515   3
   0   4  -5 22781.1 784.990   4
   0   4  -5 22561.1 513.017   3
   0   4  -5 22722.0 502.373   2
   0   4  -4 60349.6 1006.66   3
   0   4  -4 60598.4 933.324   2
   0   4  -4 59401.1 1333.86   4
   0   4  -4 59692.2 1004.99   5
   0   4  -3 13708.7 295.970   2
   0   4  -3 13747.2 379.107   3
   0   4  -3 12957.8 540.696   4
   0   4  -3 14172.7 355.343   5
   0   4  -2 55353.0 858.025   5
   0   4  -2 53791.0 1212.72   4
   0   4  -2 55792.3 765.213   2
   0   4  -2 54970.9 944.484   3
   0  -4   2 54555.3 957.072   5
   0   4  -1 1898.79 98.9227   5
   0   4  -1 1683.09 123.745   3
   0   4  -1 1707.34 56.8985   2
   0   4  -1 1935.24 103.952   7
   0  -4   1 2072.95 130.201   5
   0  -4   0 6405.61 217.888   5
   0   4   0 5889.04 181.506   5
   0   4   0 5533.72 230.139   3
   0   4   1 50876.1 796.491   5
   0   4   1 50953.1 679.606   2
   0   4   1 50083.9 887.660   3
   0   4   2 25414.6 536.074   8
   0   4   2 25816.5 560.277   3
   0   4   2 26192.0 430.620   2
   0   4   2 25694.7 798.803   6
   0   4   2 25888.6 522.256   5
   0   4   3 13915.5 305.688   1
   0   4   3 14231.9 319.762   2
   0   4   3 14256.9 370.862   8
   0   4   3 14250.4 608.862   6
   0   4   3 14379.3 391.395   3
   0   4   4 465.242 64.2800   3
   0   4   4 450.043 108.596   6
   0   4   4 374.320 54.3728   8
   0   4   4 417.428 53.2860   1
   0   4   5 10988.4 580.956   6
   0   4   5 10784.9 331.104   3
   0   4   5 10842.6 329.379   1
   0   4   5 10479.6 304.436   8
   0   4   6 32161.2 616.454   8
   0   4   6 31871.6 693.903   1
   0   4   6 30171.5 1059.29   6
   0   4   7 1555.74 106.875   8
   0   4   7 1829.97 154.576   1
   0   4   8 18249.2 565.391   1
   0   4   9 1974.21 187.246   1
   0   4  10 1780.27 193.030   1
   0   4  11 12.3899 27.7250   1
   0   4  12 1238.27 184.549   1
   0   4  13 189.282 111.005   1
   0  -5  13 27.6903 35.2234   1
   0  -5  12 2450.36 277.450   1
   0   5 -11 29.2165 22.4435   2
   0   5 -10 849.295 129.881   2
   0   5  -9 5435.69 312.326   2
   0   5  -8 4755.19 268.679   2
   0   5  -7 1221.39 200.009   4
   0   5  -7 1567.11 137.759   2
   0   5  -7 1480.45 121.599   8
   0   5  -6 1789.11 235.648   4
   0   5  -6 1920.43 140.013   2
   0   5  -6 1929.33 146.460   3
   0   5  -6 1836.54 136.664   8
   0   5  -5 22843.4 542.001   8
   0   5  -5 22165.7 837.955   4
   0   5  -5 22429.8 559.447   3
   0   5  -5 22488.9 501.843   2
   0   5  -4 34313.8 682.836   5
   0   5  -4 33827.0 1037.30   4
   0   5  -4 33967.4 702.331   8
   0   5  -4 33369.9 604.868   2
   0   5  -4 33819.6 725.650   3
   0   5  -3 9203.61 501.138   4
   0   5  -3 10574.5 310.602   5
   0   5  -3 10064.6 351.352   3
   0   5  -3 10085.3 334.717   8
   0   5  -3 10233.6 242.273   2
   0   5  -2 3834.64 209.228   3
   0   5  -2 3455.23 105.684   2
   0  -5   2 3709.02 210.316   5
   0   5  -2 3718.25 159.572   5
   0  -5   1 11040.2 356.316   5
   0   5  -1 11114.4 370.615   3
   0   5  -1 10531.3 273.275   5
   0   5  -1 11023.8 291.753   7
   0   5   0 11650.8 380.696   3
   0   5   0 11668.1 281.137   5
   0   5   1 3230.97 87.8049   2
   0   5   1 3438.19 196.585   3
   0   5   1 3538.28 147.831   5
   0   5   2 21008.1 514.557   8
   0   5   2 20932.8 774.047   6
   0   5   2 21143.6 538.958   3
   0   5   2 20739.4 460.779   5
   0   5   2 21518.1 369.130   2
   0   5   3 813.111 147.390   6
   0   5   3 768.251 84.9419   5
   0   5   3 737.358 86.6896   8
   0   5   3 805.183 97.5469   3
   0   5   3 839.857 66.8545   2
   0   5   4 641.561 140.518   6
   0   5   4 613.918 82.5841   3
   0   5   4 578.601 73.6933   8
   0   5   4 557.390 57.0369   1
   0   5   5 2120.20 270.124   6
   0   5   5 2710.08 153.276   1
   0   5   5 2657.97 161.495   8
   0   5   5 2483.05 168.635   3
   0   5   6 3236.84 188.277   1
   0   5   6 3559.11 366.469   6
   0   5   6 3391.70 183.854   8
   0   5   7 6211.48 253.224   8
   0   5   7 6522.78 303.441   1
   0   5   7 6177.70 510.757   6
   0   5   8 127.232 49.8606   1
   0   5   8 94.1527 96.1332   6
   0   5   9 2425.22 213.001   1
   0   5   9 2719.25 377.995   6
   0   5  10 43.0320 30.7999   1
   0   5  10 131.280 87.9342   6
   0   5  11 2034.10 365.209   6
   0   5  12 23.2420 49.2668   6
   0   6 -12 620.654 173.623   4
   0  -6  12 700.015 154.067   1
   0   6 -11 2298.77 336.283   4
   0  -6  11 2595.82 283.150   1
   0   6 -10 2421.88 222.406   2
   0   6 -10 1789.65 287.983   4
   0   6  -9 708.006 112.113   2
   0   6  -9 875.229 197.568   4
   0   6  -8 1120.03 208.608   4
   0   6  -8 1082.09 126.793   2
   0   6  -8 1055.44 111.767   8
   0   6  -7 81.3316 37.7889   2
   0   6  -7 133.690 38.1091   8
   0   6  -6 6742.37 499.749   4
   0   6  -6 6242.00 263.421   2
   0   6  -6 6530.18 293.449   8
   0   6  -6 6737.41 310.012   3
   0   6  -5 1687.78 151.910   3
   0   6  -5 1647.44 143.415   8
   0   6  -5 1623.18 115.470   2
   0   6  -5 1454.52 222.256   4
   0   6  -4 5844.45 444.023   4
   0   6  -4 5849.79 199.910   2
   0   6  -4 6048.40 279.564   8
   0   6  -4 6336.99 299.152   3
   0   6  -3 958.359 63.3787   2
   0   6  -3 854.029 102.173   8
   0   6  -3 900.883 87.1818   5
   0   6  -3 808.534 105.751   3
   0   6  -2 1907.72 153.263   8
   0   6  -2 2013.00 119.984   5
   0   6  -2 2016.27 165.095   3
   0  -6   1 1177.06 115.088   5
   0   6  -1 1185.57 84.0241   5
   0   6  -1 1039.10 118.607   3
   0   6  -1 1157.44 88.9047   7
   0   6  -1 968.855 108.157   8
   0   6   0 17818.7 505.257   8
   0  -6   0 18080.9 305.446   1
   0   6   0 19028.8 380.249   5
   0  -6   0 18412.2 353.063   1
   0   6   0 17446.0 524.012   3
   0   6   1 712.263 62.3383   5
   0   6   1 724.062 100.176   3
   0   6   1 730.316 92.6117   8
   0   6   2 18272.6 326.590   2
   0   6   2 18961.8 550.414   3
   0   6   2 19700.9 429.108   5
   0   6   2 18867.2 521.353   8
   0   6   3 2562.93 175.505   8
   0   6   3 2567.56 187.543   3
   0   6   3 2350.15 113.499   2
   0   6   3 2940.99 166.805   5
   0   6   4 9731.16 355.947   8
   0   6   4 8972.39 575.506   6
   0   6   4 9883.96 360.171   5
   0   6   4 9327.50 371.595   3
   0   6   5 30.0167 24.5152   3
   0   6   5-3.71394 22.9085   8
   0   6   6 174.339 103.647   6
   0   6   6 6.57562 21.6340   8
   0   6   7 4721.87 240.885   8
   0   6   7 4750.86 470.654   6
   0   6   8 27.9936 66.4748   6
   0   6   9 4289.56 487.746   6
   0   6  10 961.971 238.374   6
   0   6  11 961.629 251.029   6
   0  -7  12 68.5030 51.2042   1
   0   7 -11 2515.24 374.931   4
   0  -7  11 2462.49 275.356   1
   0   7 -10 89.3893 94.2784   4
   0  -7  10 256.835 88.1562   1
   0   7  -9 7683.27 624.607   4
   0   7  -8-16.6643 47.6333   4
   0   7  -7 874.208 111.602   8
   0   7  -7 1155.44 232.112   4
   0   7  -6 127.661 93.9352   4
   0   7  -6 323.280 71.3767   8
   0   7  -5 14469.9 789.276   4
   0   7  -5 14899.6 522.831   3
   0   7  -5 16493.1 521.943   8
   0   7  -4 5342.87 299.884   3
   0   7  -4 5444.96 289.041   8
   0   7  -3 72.5560 32.3004   8
   0   7  -3 56.5307 31.6257   3
   0   7  -2 4676.73 189.584   5
   0   7  -2 4641.54 261.662   8
   0   7  -2 4498.90 273.251   3
   0   7  -1 39207.4 916.801   3
   0   7  -1 37642.9 872.277   8
   0   7  -1 39911.9 707.352   7
   0   7  -1 40819.0 674.451   5
   0   7   0 3438.20 239.318   3
   0   7   0 4128.99 192.331   7
   0   7   0 3488.02 225.903   8
   0   7   0 3818.32 142.199   5
   0   7   1 1405.84 82.3533   5
   0   7   1 1326.27 146.367   3
   0   7   1 1590.36 149.608   8
   0   7   2 28334.7 713.426   8
   0   7   2 29007.8 757.851   3
   0   7   3 19286.6 602.405   3
   0   7   3 19373.5 568.743   8
   0   7   4 1000.90 199.467   6
   0   7   4 936.792 117.935   8
   0   7   4 843.770 118.513   3
   0   7   5 126.547 85.5327   6
   0   7   5 137.044 43.8351   8
   0   7   6 54.3262 27.4247   8
   0   7   6 216.604 102.696   6
   0   7   7 9742.87 714.812   6
   0   7   7 9754.16 386.509   8
   0   7   8 1729.29 316.107   6
   0   7   9 2157.48 367.720   6
   0   7  10 3283.24 469.078   6
   0  -8  11 2944.50 307.371   1
   0   8 -10 2230.54 368.450   4
   0  -8  10 2103.02 247.196   1
   0   8  -9 4113.06 495.865   4
   0   8  -8 2234.69 357.040   4
   0   8  -7 2010.87 186.030   8
   0   8  -7 1816.67 306.859   4
   0   8  -6 117.704 89.1626   4
   0   8  -6 146.571 45.3368   8
   0   8  -5 2325.71 201.468   8
   0   8  -4 1596.70 176.139   3
   0   8  -4 1450.58 160.530   8
   0   8  -3 25.5564 20.1997   8
   0   8  -3-5.55994 16.6287   3
   0   8  -2 5572.67 332.587   3
   0   8  -2 5570.43 316.840   8
   0   8  -1 7209.50 380.276   3
   0   8  -1 7848.10 373.996   8
   0   8   0 195.611 54.8580   3
   0   8   0 133.658 52.1969   8
   0   8   1 1329.90 159.467   3
   0   8   1 1369.45 152.363   8
   0   8   2 908.219 121.984   8
   0   8   2 997.928 136.735   3
   0   8   3 3115.43 246.176   3
   0   8   3 2744.16 216.626   8
   0   8   4 63.2133 25.1133   8
   0   8   5 143.970 101.637   6
   0   8   5 37.0612 30.9299   8
   0   8   6 1528.72 160.737   8
   0   8   6 1746.11 306.627   6
   0   8   7 1732.98 313.150   6
   0   8   7 1596.79 164.930   8
   0   8   8 1525.60 306.872   6
   0   8   9 2924.53 438.113   6
   0   9  -8 1998.67 349.525   4
   0   9  -6 39.2394 43.7000   8
   0   9  -5 307.894 77.6795   8
   0   9  -4 3023.18 247.312   8
   0   9  -3 5291.91 329.959   8
   0   9  -2 3087.23 248.240   8
   0   9  -2 2859.13 253.920   3
   0   9  -1 1752.06 187.145   8
   0   9  -1 1593.34 188.915   3
   0   9   0 1266.76 158.007   8
   0   9   0 1257.20 168.473   3
   0   9   1 8413.15 416.836   8
   0   9   1 7756.11 425.427   3
   0   9   2 185.009 68.9917   8
   0   9   3 7432.33 388.163   8
   0   9   4 2139.55 204.393   8
   0   9   5 235.133 69.1965   8
   0   9   6 27.1223 26.6012   8
   0   9   7 3043.31 439.017   6
   0  10  -5 588.709 118.732   8
   0  10  -4 1453.30 181.273   8
   0  10  -3 3734.67 293.957   8
   0  10  -2-33.2828 41.6895   8
   0  10  -1 1445.94 180.056   8
   0  10   0 429.078 96.8915   8
   0  10   1 324.293 81.7092   8
   0  10   2 3246.32 272.925   8
   0  10   3 698.846 130.782   8
   0  10   4 213.817 71.7067   8
   0  10   5 196.530 66.5950   8
  -1  10   5 739.789 146.919   3
  -1  10   4 2862.63 275.381   3
  -1  10   3 5858.01 394.756   3
  -1  10   2 7.76536 48.4424   3
  -1  10   1 3490.44 299.043   3
  -1  10   0 6338.95 406.489   3
  -1  10  -1 3150.66 283.144   3
  -1  10  -2 686.282 139.575   3
  -1  10  -3 1414.83 187.019   3
  -1  10  -4 1711.40 210.243   3
  -1  10  -5 1304.02 183.917   3
  -1   9   8 377.567 157.380   6
  -1   9   7 3542.90 466.989   6
  -1   9   7 3670.84 295.939   3
  -1   9   6 502.970 108.817   3
  -1   9   5 2834.58 255.837   3
  -1   9   4 61.9443 33.2561   3
  -1   9   3 20.6641 21.5117   3
  -1   9   2 4006.02 300.112   3
  -1   9   1 1683.74 194.471   3
  -1   9   0 4700.27 326.224   3
  -1   9  -1 30.2061 43.4927   3
  -1   9  -2 1185.79 160.950   3
  -1   9  -3 150.143 64.8535   3
  -1   9  -4 1089.00 155.613   3
  -1   9  -5 382.900 93.1911   3
  -1   9  -6 477.140 103.163   3
  -1   9  -7 2127.05 352.907   4
  -1   9  -8 181.806 108.341   4
  -1   8   9-111.198 87.7925   6
  -1   8   8-30.4372 28.2760   3
  -1   8   8 46.4206 57.8498   6
  -1   8   7 4231.47 485.872   6
  -1   8   7 4776.53 313.320   3
  -1   8   6 1219.13 156.444   3
  -1   8   6 900.832 216.260   6
  -1   8   5 4759.13 308.304   3
  -1   8   4 2313.70 216.577   3
  -1   8   3 84.4295 44.2434   8
  -1   8   3 45.7713 14.1719   3
  -1   8   2 2526.72 222.048   3
  -1   8   2 2477.00 205.878   8
  -1   8   1 1153.85 147.923   3
  -1   8   1 916.206 123.927   8
  -1   8   0 14628.9 552.205   3
  -1   8   0 15250.0 529.921   8
  -1   8  -1 150.854 52.3922   3
  -1   8  -1 213.969 65.7150   8
  -1   8  -2 64.2201 19.0432   8
  -1   8  -2 139.498 52.8502   3
  -1   8  -3 237.165 76.6922   3
  -1   8  -4 3552.49 261.802   3
  -1   8  -5 2428.67 216.057   3
  -1   8  -6 409.411 90.0586   3
  -1   8  -6 477.520 147.384   4
  -1   8  -7 892.889 129.400   3
  -1   8  -7 646.602 177.626   4
  -1   8  -8 126.110 83.3206   4
  -1   8  -9 3190.83 430.257   4
  -1   7  11 4797.88 578.408   6
  -1   7  10 1853.53 348.094   6
  -1   7   9 354.632 144.263   6
  -1   7   8 343.302 149.222   6
  -1   7   8 285.100 70.7957   3
  -1   7   7 27.5823 38.0637   3
  -1   7   7 65.5198 60.2042   6
  -1   7   6 2311.01 327.715   6
  -1   7   6 3299.66 235.404   3
  -1   7   5 2054.80 186.041   3
  -1   7   5 1902.34 287.572   6
  -1   7   4 4913.02 287.935   3
  -1   7   4 4548.86 257.105   8
  -1   7   3 261.443 65.9569   3
  -1   7   3 194.350 50.5240   8
  -1   7   2 24815.8 694.776   3
  -1   7   2 24625.8 655.471   8
  -1   7   1 28525.2 764.563   3
  -1   7   1 28896.2 718.095   8
  -1   7   0 4265.21 265.977   3
  -1   7   0 4190.36 247.096   8
  -1   7  -1 34442.8 856.904   3
  -1   7  -1 35271.1 815.564   8
  -1   7  -1 34720.6 774.810   7
  -1   7  -2 5143.86 293.009   3
  -1   7  -2 5197.41 275.767   8
   1  -7   2 4702.59 217.614   1
  -1   7  -3 383.225 75.9962   8
   1  -7   3 418.136 70.0236   1
  -1   7  -3 366.969 78.7974   3
  -1   7  -4 319.627 72.9777   3
  -1   7  -4 164.610 82.7258   4
   1  -7   4 236.476 57.7144   1
  -1   7  -5 12155.6 463.311   3
   1  -7   5 11906.4 461.067   1
  -1   7  -5 12610.2 732.322   4
  -1   7  -6 86.6976 69.7546   4
  -1   7  -6 35.5500 26.9050   3
   1  -7   6 14.5016 25.3827   1
  -1   7  -7 6163.22 321.609   3
  -1   7  -7 6118.17 529.425   4
   1  -7   7 6204.18 369.538   1
  -1   7  -8 1058.16 131.433   3
  -1   7  -8 1033.30 225.148   4
   1  -7   8 971.309 154.155   1
  -1   7  -9 714.322 186.326   4
   1  -7   9 614.960 129.130   1
   1  -7  10 93.7718 60.1223   1
  -1   7 -10 27.6418 34.2648   4
   1  -7  11 3702.68 355.548   1
  -1   7 -11 3152.96 419.673   4
   1  -7  12 4504.16 416.613   1
  -1   6  12 872.004 239.982   6
  -1   6  11 99.6491 84.3699   6
  -1   6  10 1408.42 289.145   6
  -1   6   9 27.6129 34.4394   6
  -1   6   8 2436.54 343.740   6
  -1   6   8 2715.45 196.947   3
  -1   6   7 1360.38 248.088   6
  -1   6   7 1205.54 130.785   3
  -1   6   6 9064.61 369.705   3
  -1   6   6 8835.41 609.806   6
  -1   6   5 10918.8 410.276   3
  -1   6   5 10539.9 639.218   6
  -1   6   4 14419.7 722.478   6
  -1   6   4 14019.6 435.337   8
  -1   6   4 13775.7 295.158   5
  -1   6   4 12686.5 253.632   5
  -1   6   4 14200.9 472.964   3
  -1   6   3 1530.03 134.712   8
  -1   6   3 1734.72 155.413   3
  -1   6   2 1227.14 130.745   3
  -1   6   2 1014.30 110.460   8
  -1   6   1 28102.5 708.525   3
  -1   6   1 29720.7 679.805   8
  -1   6   0 142.602 47.5871   3
   1  -6   0 44.6185 11.7884   1
  -1   6   0 121.922 46.0974   8
  -1   6  -1 38305.3 827.551   7
   1  -6   1 41245.4 721.884   5
  -1   6  -1 39594.7 871.522   3
  -1   6  -1 39174.5 826.563   8
   1  -6   1 39704.2 687.284   1
  -1   6  -2 1324.01 125.333   7
   1  -6   2 1465.15 114.472   1
  -1   6  -2 1322.88 126.035   8
  -1   6  -2 1569.05 147.512   3
   1  -6   2 1399.74 118.854   5
  -1   6  -3 95.8376 67.2406   4
  -1   6  -3 55.6698 30.7896   8
   1  -6   3 67.2559 30.2121   1
  -1   6  -3 67.8529 37.6014   3
   1  -6   4 1079.45 118.419   1
  -1   6  -4 1270.84 131.483   3
  -1   6  -4 811.321 162.730   4
  -1   6  -5 5904.13 290.128   3
   1  -6   5 5759.08 300.742   1
  -1   6  -5 5715.09 452.910   4
  -1   6  -6 1355.32 135.832   3
  -1   6  -6 1153.55 207.154   4
   1  -6   6 1229.02 147.023   1
  -1   6  -7 375.728 125.222   4
  -1   6  -7 508.093 82.0996   3
   1  -6   7 714.893 119.457   1
  -1   6  -8 5434.82 273.540   3
  -1   6  -8 5312.38 470.822   4
   1  -6   8 5125.95 345.640   1
  -1   6  -9 1451.73 255.681   4
   1  -6   9 1651.73 207.358   1
   1  -6  10 96.2950 52.2039   1
  -1   6 -10 85.8931 63.1282   4
  -1   6 -11 1440.02 267.507   4
   1  -6  11 1336.30 208.859   1
   1  -6  12 3850.45 380.534   1
  -1   5  13 243.141 135.196   6
  -1   5  12 10331.4 829.610   6
  -1   5  11 752.562 212.897   6
  -1   5  10 2868.54 392.836   6
  -1   5  10 3505.33 245.814   1
  -1   5   9 776.333 93.3316   3
  -1   5   9 740.905 189.184   6
  -1   5   9 635.564 96.7409   1
  -1   5   8 1384.63 125.450   3
  -1   5   8 1408.72 250.216   6
  -1   5   8 1088.44 112.324   1
  -1   5   7 856.266 88.4523   1
  -1   5   7 997.633 106.964   3
  -1   5   7 788.807 175.155   6
  -1   5   6 8952.15 334.945   3
  -1   5   6 8125.69 547.826   6
  -1   5   6 8207.03 258.022   1
  -1   5   5 13876.0 690.208   6
  -1   5   5 14238.9 435.096   3
  -1   5   5 13488.2 323.836   5
  -1   5   5 12913.9 294.682   1
  -1   5   4 94.9476 28.7298   8
  -1   5   4 73.8868 18.1750   5
  -1   5   4 83.9837 34.3283   3
  -1   5   4 30.6277 27.4888   6
  -1   5   3 24748.5 877.233   6
  -1   5   3 25634.5 615.582   3
  -1   5   3 26049.8 583.777   8
  -1   5   2 5258.34 250.525   3
  -1   5   2 5069.06 229.641   8
  -1   5   1 16485.1 466.588   3
   1  -5   0 826.359 58.9752   1
  -1   5   0 1178.64 114.820   3
   1  -5   1 15435.8 358.717   1
  -1   5  -1 15346.4 453.029   7
  -1   5  -1 15702.0 453.288   3
   1  -5   1 16325.3 372.364   5
   1  -5   2 1531.89 113.681   5
  -1   5  -2 1397.03 182.528   4
  -1   5  -2 1807.00 142.025   3
  -1   5  -2 1511.53 126.307   7
  -1   5  -2 1598.38 126.384   8
   1  -5   2 1547.47 112.058   1
  -1   5  -3 1081.92 103.717   8
  -1   5  -3 1127.02 171.309   4
  -1   5  -3 940.441 104.592   3
   1  -5   3 1184.54 108.612   1
  -1   5  -4 1462.65 198.321   4
   1  -5   4 1081.67 113.751   1
  -1   5  -4 1299.77 121.524   3
   1  -5   5 769.760 103.900   1
  -1   5  -5 735.088 146.096   4
  -1   5  -5 752.821 92.2518   3
  -1   5  -6 59.5882 62.1102   4
  -1   5  -6 75.3514 28.0572   3
   1  -5   6 142.711 47.9261   1
   1  -5   7 1622.21 177.507   1
  -1   5  -7 1540.66 129.315   3
  -1   5  -8 857.793 97.0267   3
   1  -5   8 890.518 137.711   1
   1  -5   9 857.397 146.034   1
   1  -5  10 2031.35 235.032   1
   1  -5  11 794.203 158.961   1
   1  -5  12 1119.77 196.027   1
  -1   4  13 726.039 136.115   1
  -1   4  12 4943.25 337.950   1
  -1   4  11 424.415 91.7362   1
   1  -4 -10 63.2929 35.0974   2
  -1   4  10 63.7324 37.6013   1
   1  -4  -9 5232.74 312.487   2
  -1   4   9 5518.15 226.085   3
  -1   4   9 5150.41 275.159   1
  -1   4   8 13370.7 425.225   1
  -1   4   8 13879.5 382.042   3
   1  -4  -8 13429.7 476.017   2
   1  -4  -7 3722.47 221.171   2
  -1   4   7 3654.88 361.405   6
  -1   4   7 4103.54 196.475   3
  -1   4   7 3731.76 193.452   1
  -1   4   6 1370.65 101.933   1
   1  -4  -6 1442.11 123.768   2
  -1   4   6 1417.51 212.560   6
  -1   4   6 1372.19 112.725   3
  -1   4   5 9836.06 254.917   1
  -1   4   5 9459.58 270.685   5
  -1   4   5 9754.05 315.513   3
   1  -4  -5 9249.51 298.598   2
  -1   4   5 8864.85 514.137   6
  -1   4   4 19888.3 749.978   6
   1  -4  -4 19914.2 428.105   2
  -1   4   4 20391.2 388.074   5
  -1   4   4 20729.9 357.643   1
  -1   4   4 20103.7 485.068   3
  -1   4   3 3016.75 166.698   3
   1  -4  -3 3111.44 124.534   2
  -1   4   3 3212.63 161.503   8
  -1   4   3 3256.98 102.226   5
  -1   4   3 3232.08 274.128   6
  -1   4   2 10110.2 295.806   8
  -1   4   2 9733.72 460.856   6
  -1   4   2 9341.27 298.649   3
  -1   4   1 2400.93 146.358   3
   1  -4   0 34979.3 543.681   5
   1  -4   0 35697.1 574.343   1
  -1   4  -1 119556. 1772.12   3
   1  -4   1 124714. 1685.77   1
  -1   4  -1 123091. 1821.27   7
   1  -4   1 126164. 1649.73   5
  -1   4  -2 2175.14 206.315   4
  -1   4  -2 2276.07 141.681   3
   1  -4   2 2278.62 131.201   1
  -1   4  -2 2349.30 152.637   7
   1  -4   2 2360.21 96.0841   2
   1  -4   2 2238.72 123.283   5
   1  -4   3 793.648 66.1519   2
  -1   4  -3 947.800 92.5973   3
   1  -4   3 820.580 87.1425   1
  -1   4  -3 919.240 136.436   4
  -1   4  -4 13883.1 574.944   4
   1  -4   4 14074.8 428.668   1
  -1   4  -4 13633.8 380.697   3
   1  -4   5 94.8368 36.8290   1
  -1   4  -5 77.0698 25.1478   3
  -1   4  -6 1518.29 117.189   3
   1  -4   6 1328.15 143.585   1
   1  -4   7 31245.4 835.976   1
  -1   4  -7 31853.5 637.316   3
   1  -4   8 12212.1 515.296   1
  -1   4  -8 11537.4 334.792   3
   1  -4   9 17114.4 656.038   1
   1  -4  10 1260.84 184.359   1
   1  -4  11 948.213 165.033   1
   1  -4  12 3707.48 349.228   1
   1  -4  13 3344.94 356.140   1
  -1   3  15-20.0743 34.5407   1
  -1   3  14 312.358 101.659   1
  -1   3  13 129.200 64.9881   1
   1  -3 -12 6479.08 421.819   2
  -1   3  12 7346.42 413.985   1
   1  -3 -11 9459.93 477.375   2
  -1   3  11 9794.97 453.275   1
   1  -3 -10 1206.67 154.435   2
  -1   3   9 51389.1 808.536   3
   1  -3  -9 49863.5 1084.47   2
   1  -3  -8 7088.19 325.309   2
  -1   3   8 7337.33 232.023   3
  -1   3   7 4281.88 174.864   3
   1  -3  -7 3688.38 213.787   2
   1  -3  -6 7271.88 281.725   2
  -1   3   6 7498.01 240.600   3
  -1   3   5 29465.3 559.025   3
   1  -3  -5 29350.8 592.355   2
  -1   3   5 30811.0 917.750   6
  -1   3   4 224893. 2923.82   3
   1  -3  -4 231142. 2903.44   2
  -1   3   4 225599. 2870.86   5
  -1   3   4 229378. 3449.86   6
   1  -3  -3 88528.2 1231.86   2
  -1   3   3 88911.6 1314.11   3
  -1   3   3 92201.5 1197.45   5
  -1   3   3 92585.4 1680.35   6
  -1   3   2 3278.85 234.459   6
   1  -3  -2 3477.88 105.724   2
  -1   3   2 3154.06 151.969   3
  -1   3   1 5529.54 204.073   3
   1  -3  -1 5402.17 109.365   2
   1  -3   0 67099.2 927.462   1
   1  -3   0 65576.9 854.827   5
  -1   3   0 66282.8 1025.53   3
  -1   3  -1 15972.8 382.889   3
  -1   3  -1 16718.7 507.070   4
  -1   3  -1 16125.9 420.112   7
   1  -3   1 16833.2 276.443   2
   1  -3   1 16971.1 310.348   5
   1  -3   1 15816.3 348.704   1
  -1   3  -2 88798.2 1360.60   7
   1  -3   2 87940.0 1251.43   5
  -1   3  -2 89203.0 1299.02   3
   1  -3   2 89891.8 1198.50   2
  -1   3  -2 91042.8 1536.23   4
   1  -3   2 88162.3 1298.63   1
   1  -3   3 2809.70 127.451   2
   1  -3   3 2817.82 158.443   1
  -1   3  -3 2560.30 135.484   3
   1  -3   4 926.316 99.3578   1
  -1   3  -4 779.698 73.2325   3
   1  -3   5 58.9858 29.2228   1
  -1   3  -5 74.6158 23.1977   3
   1  -3   6 3680.40 235.384   1
  -1   3  -6 3781.04 163.004   3
   1  -3   7 33852.9 852.023   1
  -1   3  -7 33743.7 604.550   3
   1  -3   8 13102.9 523.505   1
  -1   3  -8 12734.9 308.027   3
   1  -3   9 29203.7 866.153   1
   1  -3  10 1833.52 215.195   1
   1  -3  11 851.495 158.917   1
   1  -3  12 53.7619 43.7144   1
   1  -3  13 7966.29 545.368   1
  -1   2  15 503.713 134.367   1
   1  -2 -14 105.023 54.2934   2
  -1   2  14 118.436 87.2130   1
   1  -2 -13 1675.95 218.128   2
  -1   2  13 2182.08 242.244   1
   1  -2 -12 3502.57 296.180   2
   1  -2 -11 4025.15 295.075   2
   1  -2 -10 6297.16 344.745   2
   1  -2  -9 2668.64 206.766   2
  -1   2   8 278.474 33.1174   3
   1  -2  -8 203.632 54.3785   2
  -1   2   7 7464.11 198.690   3
   1  -2  -7 7000.23 292.207   2
   1  -2  -6 92.5051 32.5399   2
   1  -2  -6 156.689 25.5207   8
  -1   2   6 133.943 23.8540   3
  -1   2   5 2542.53 115.661   3
   1  -2  -5 2608.20 144.670   2
   1  -2  -5 2824.87 112.041   8
  -1   2   4 45094.7 714.373   3
   1  -2  -4 44115.9 743.025   2
   1  -2  -4 46744.3 688.014   8
   1  -2  -4 45380.7 720.377   3
  -1   2   4 45249.2 742.066   5
   1  -2  -3 2765.98 117.099   2
   1  -2  -3 2969.91 116.200   8
  -1   2   3 2757.65 122.274   3
  -1   2   3 2858.82 113.702   5
   1  -2  -3 2827.17 125.565   3
  -1   2   3 2649.09 197.122   6
  -1   2   2 52599.1 724.575   5
   1  -2  -2 52135.2 740.514   2
   1  -2  -2 53103.2 695.799   5
   1  -2  -2 52790.8 774.528   8
  -1   2   2 51937.4 1003.46   6
  -1   2   2 51366.2 800.219   3
  -1   2   1 57228.5 780.884   1
   1  -2  -1 56039.8 823.597   8
  -1   2   1 56311.5 851.794   3
  -1   2   1 57751.4 1022.91   6
  -1   2   0 151715. 1916.71   1
  -1   2   0 151095. 1989.05   3
   1  -2   0 152842. 1953.83   8
   1  -2   0 151920. 1945.74   1
  -1   2  -1 5080.28 215.641   4
   1  -2   1 4986.24 156.491   8
  -1   2  -1 4975.78 169.273   3
   1  -2   1 5022.69 168.717   1
   1  -2   2 78736.1 1130.54   3
   1  -2   2 79158.2 1247.27   7
   1  -2   2 79916.9 1097.61   2
   1  -2   2 77975.4 1091.52   8
   1  -2   2 78858.7 1163.92   1
  -1   2  -2 77726.1 1116.87   3
   1  -2   3 22472.6 407.980   8
   1  -2   3 22043.5 493.276   1
   1  -2   3 22370.5 442.798   2
   1  -2   3 22105.6 431.919   3
  -1   2  -3 22479.4 424.355   3
   1  -2   4 9836.68 257.278   3
  -1   2  -4 9373.04 240.883   3
   1  -2   4 10017.6 236.260   8
   1  -2   4 9435.26 325.023   1
  -1   2  -5 520.603 49.6560   3
   1  -2   5 541.584 49.3974   8
   1  -2   5 567.464 82.9966   1
  -1   2  -6 3765.51 134.899   3
   1  -2   6 3728.51 131.782   8
   1  -2   6 3550.42 227.641   1
  -1   2  -7 6357.63 174.130   3
   1  -2   7 5930.10 316.658   1
  -1   2  -8 389.176 35.6171   3
   1  -2   8 376.553 83.1265   1
   1  -2   9 5719.26 354.207   1
   1  -2  10 141.657 59.6813   1
   1  -2  11 537.980 121.718   1
   1  -2  12 2268.77 265.793   1
   1  -2  13 177.110 82.3473   1
   1  -2  14 2028.38 284.709   1
  -1   1  15 2259.81 278.987   1
   1  -1 -15 1732.23 247.761   2
   1  -1 -14-192.420 78.6657   2
  -1   1  14 113.079 73.8996   1
   1  -1 -13 640.725 130.952   2
   1  -1 -12 223.193 77.1696   2
   1  -1 -11 12054.6 512.048   2
   1  -1 -10 715.190 113.379   2
   1  -1  -9 4911.83 276.949   2
   1  -1  -8 13742.0 448.362   2
   1  -1  -7 83.6340 28.5643   2
   1  -1  -7 80.5962 12.6466   8
  -1   1   7 49.9634 11.2467   3
   1  -1  -6 10168.1 323.118   2
   1  -1  -6 10390.9 185.222   8
   1  -1  -5 758.017 43.8218   8
  -1   1   5 698.475 48.3800   3
   1  -1  -5 792.959 79.0455   2
   1  -1  -4 14587.6 334.458   5
   1  -1  -4 14518.5 342.784   2
  -1   1   4 14719.1 282.029   3
   1  -1  -3 7467.17 209.379   2
   1  -1  -3 7456.29 200.332   5
  -1   1   3 7424.91 181.919   3
  -1   1   2 46255.3 677.475   3
   1  -1  -2 47574.2 682.270   5
   1  -1  -1 4008.54 125.852   5
  -1   1   1 3944.93 158.697   6
  -1   1   1 4025.05 124.744   3
  -1   1   0 55.9537 16.0507   3
  -1   1   0 52.4062 14.0331   4
   1  -1   0 52.4055 14.9801   1
   1  -1   1 128756. 1762.72   7
   1  -1   1 128914. 1718.15   1
  -1   1  -1 130407. 1651.35   3
   1  -1   2 12245.6 315.203   1
   1  -1   2 12925.6 339.769   7
  -1   1  -2 12885.6 254.852   3
   1  -1   3 45737.8 808.245   1
  -1   1  -3 47275.4 677.173   3
   1  -1   4 28709.5 623.179   1
  -1   1  -4 29212.7 455.665   3
   1  -1   5 1910.80 75.5366   8
  -1   1  -5 2040.09 80.9864   3
   1  -1   5 1992.55 151.027   1
  -1   1  -6 449.178 33.3502   3
   1  -1   6 530.137 83.9363   1
   1  -1   6 451.702 34.2468   8
   1  -1   7 12887.7 225.282   8
  -1   1  -7 13353.3 212.417   3
   1  -1   8 222.483 66.6741   1
   1  -1   9 6017.96 357.566   1
   1  -1  10 1174.71 163.870   1
   1  -1  11 6719.45 433.610   1
   1  -1  12 914.014 171.759   1
   1  -1  13 189.404 82.1932   1
   1  -1  14 4412.29 417.664   1
   1   0 -15 3828.57 367.498   2
  -1   0  15 4784.67 413.238   1
   1   0 -14 207.378 77.9640   2
   1   0 -13 367.820 99.2292   2
   1   0 -12 146.163 66.9077   2
   1   0 -11 2440.53 220.755   2
   1   0 -10 14899.9 534.550   2
   1   0  -9 537.332 91.7682   2
   1   0  -8 71.9836 31.5476   2
   1   0  -7 804.919 93.2007   2
  -1   0   7 314.679 23.6402   3
   1   0  -6 37651.4 733.364   2
   1   0  -5 29437.6 583.561   2
   1   0  -5 29101.7 591.638   5
   1   0  -4 69475.7 1037.63   5
   1   0  -4 65779.4 1020.73   2
   1   0  -3 2089.41 109.449   5
   1   0  -2 598.815 54.6310   5
   1   0   1 1859.24 101.747   1
   1   0   1 1744.50 93.6117   7
   1   0   2 28694.1 548.421   1
   1   0   3 98386.4 1450.27   1
   1   0   4 45756.3 848.347   1
   1   0   5 15136.8 445.670   1
   1   0   6 20602.7 539.942   1
  -1   0  -6 12943.9 215.138   3
   1   0   7 367.587 76.2131   1
   1   0   8 17241.1 586.375   1
   1   0   9 1979.98 201.236   1
   1   0  10 1204.87 170.683   1
   1   0  11 1028.25 165.303   1
   1   0  12 1693.81 226.911   1
   1   0  13 1614.64 234.640   1
   1   0  14 839.798 176.859   1
  -1  -1  15 2274.88 290.598   1
   1   1 -15 2020.43 260.946   2
   1   1 -14 450.217 113.408   2
   1   1 -13 4940.64 355.852   2
   1   1 -12 1300.07 173.815   2
   1   1 -11 698.708 118.195   2
   1   1 -10 3800.03 254.763   2
   1   1  -9 6525.19 315.127   2
  -1  -1   8 4554.64 114.614   3
   1   1  -8 4212.61 99.7888   8
   1   1  -7 14557.9 253.486   8
   1   1  -7 15153.5 439.744   2
  -1  -1   7 14997.5 270.843   3
   1   1  -6 16960.0 463.514   5
   1   1  -6 17477.0 450.057   2
  -1  -1   6 17149.1 303.261   3
   1   1  -5 15.7501 16.0653   2
   1   1  -5-2.74637 15.5245   5
   1   1  -4 27169.0 551.801   5
   1   1  -4 26873.4 524.588   2
   1   1  -3 161999. 2173.57   5
   1   1  -2 21771.3 454.225   5
   1   1  -1 24756.1 475.561   4
   1   1  -1 26171.5 505.993   5
   1   1   0 66682.2 1019.70   5
  -1  -1   0 65313.7 868.850   7
   1   1   0 65974.1 955.123   6
   1   1   0 66147.2 882.139   7
   1   1   1 43252.3 723.874   1
   1   1   2 21985.9 467.048   1
  -1  -1  -3 17405.3 395.013   1
   1   1   3 17266.4 429.341   1
   1   1   4 1156.19 107.711   1
  -1  -1  -5 1360.79 65.2032   3
   1   1   5 1328.78 125.127   1
   1   1   6 25615.7 659.886   1
  -1  -1  -6 26915.2 410.356   3
   1   1   7 298.167 24.7957   8
  -1  -1  -7 277.756 22.9627   3
   1   1   7 259.009 65.2147   1
   1   1   8 8148.41 392.767   1
   1   1   9 2370.18 221.086   1
   1   1  10 10624.2 510.843   1
   1   1  11 334.868 95.7276   1
   1   1  12 94.8279 57.0630   1
   1   1  13 154.058 80.3854   1
   1   1  14 1046.35 205.605   1
   1   2 -15 1666.96 240.530   2
   1   2 -14 2082.97 247.593   2
   1   2 -13 24.2413 36.5212   2
   1   2 -12-18.9642 22.7482   2
   1   2 -11 977.227 137.009   2
   1   2 -10 5763.69 317.096   2
   1   2  -9 6872.91 322.874   2
   1   2  -9 6401.68 164.818   8
  -1  -2   8 50.0156 16.1204   3
   1   2  -8 5.48507 7.55521   8
   1   2  -8 21.3130 22.4443   2
   1   2  -7 9811.11 344.588   2
   1   2  -7 9413.80 357.943   5
  -1  -2   7 9467.34 243.113   3
   1   2  -7 9577.15 228.889   8
  -1  -2   6 1053.38 73.7276   3
   1   2  -6 1028.09 106.905   5
   1   2  -6 1019.50 99.4465   2
   1   2  -5 16092.2 404.500   2
  -1  -2   5 16352.8 342.390   3
   1   2  -5 16219.2 434.463   5
  -1  -2   4 104.832 22.1057   3
   1   2  -4 105.783 31.2516   5
   1   2  -4 130.630 28.4731   2
   1   2  -3 35983.6 682.231   5
  -1  -2   3 35060.8 582.949   3
  -1  -2   2 82389.1 1308.03   5
   1   2  -2 84211.3 1270.84   5
   1   2  -2 83522.8 1355.05   4
   1   2  -1 83831.6 1269.92   5
  -1  -2   1 82907.9 1296.08   5
  -1  -2   0 81.3652 22.3973   1
   1   2   0 68.4732 25.3146   5
   1   2   0 48.8312 20.9255   6
   1   2   1 5347.29 201.632   1
  -1  -2  -1 5619.39 195.820   1
   1   2   1 5984.03 263.671   6
  -1  -2  -2 58046.3 868.516   3
   1   2   2 58804.2 960.630   1
  -1  -2  -2 58580.0 908.511   1
  -1  -2  -3 973.454 70.7625   3
   1   2   3 991.341 94.5964   1
  -1  -2  -3 1033.46 82.4368   1
  -1  -2  -4 14491.5 314.914   3
   1   2   4 13436.5 409.478   1
  -1  -2  -5 3227.25 131.398   3
   1   2   5 3037.47 194.881   1
   1   2   6 226.090 31.2012   8
   1   2   6 235.971 59.4026   1
  -1  -2  -6 209.040 30.5108   3
   1   2   7 4681.50 278.309   1
  -1  -2  -7 4862.13 154.280   3
   1   2   7 5211.51 153.366   8
   1   2   8 4004.37 275.889   1
   1   2   8 3665.77 118.963   8
  -1  -2  -8 3797.72 126.350   3
   1   2   9 4063.10 297.996   1
   1   2  10 75.6155 46.9073   1
   1   2  11 3881.13 332.006   1
   1   2  12 44.4119 39.6601   1
   1   2  13 245.612 93.3885   1
   1   2  14 304.126 111.365   1
   1   3 -14 1846.50 230.538   2
   1   3 -13 664.182 133.810   2
   1   3 -12 551.278 111.050   2
   1   3 -11 7782.29 398.433   2
   1   3 -10 119.291 48.7933   2
   1   3  -9 34189.3 595.327   8
   1   3  -9 34654.8 813.965   2
   1   3  -8 128.494 28.9087   8
   1   3  -8 147.453 45.3256   2
   1   3  -7 1506.08 97.7672   8
   1   3  -7 1539.64 131.177   2
   1   3  -7 1447.81 139.459   5
   1   3  -6 165.899 46.6405   5
   1   3  -6 155.342 36.8236   2
   1   3  -6 177.801 34.0530   8
   1   3  -5 6334.91 268.046   5
   1   3  -5 6646.09 244.501   2
   1   3  -5 7204.06 228.668   8
   1   3  -4 16440.3 390.473   2
   1   3  -4 16923.3 579.798   4
   1   3  -4 16940.1 444.018   5
   1   3  -3 15400.3 413.327   5
   1   3  -3 15180.1 525.437   4
  -1  -3   2 34653.1 502.498   7
  -1  -3   2 35920.7 764.580   5
   1   3  -2 35863.2 700.109   5
   1   3  -2 35492.7 841.158   4
   1   3  -1 5419.37 228.701   5
  -1  -3   1 5466.48 286.436   6
  -1  -3   1 5580.32 254.680   5
   1   3   0 28670.6 612.927   5
   1   3   1 1356.34 118.984   5
   1   3   1 1394.53 146.859   6
  -1  -3  -1 1394.68 96.8745   1
   1   3   2 92311.6 1396.36   1
   1   3   2 93908.8 1681.89   6
  -1  -3  -2 93320.8 1327.92   1
  -1  -3  -3 11211.0 297.094   1
   1   3   3 10594.5 346.704   1
   1   3   3 11364.4 495.436   6
   1   3   4 49066.4 932.651   1
   1   3   5 2887.22 138.380   8
   1   3   5 2843.50 193.654   1
   1   3   6 1622.80 100.016   8
   1   3   6 1379.58 142.448   1
   1   3   7 40943.9 957.850   1
   1   3   7 40759.5 685.096   8
   1   3   8 3354.49 140.389   8
   1   3   8 3338.47 255.751   1
   1   3   9 49593.2 1197.13   1
   1   3  10 295.417 81.3261   1
   1   3  11 1115.35 177.561   1
   1   3  12 106.362 46.6055   1
   1   3  13 479.991 134.882   1
   1   3  14 1603.58 261.411   1
   1   4 -14 6843.21 458.497   2
   1   4 -13 1672.82 208.964   2
   1   4 -12 24.3529 21.1674   2
   1   4 -11 1445.64 169.783   2
   1   4 -10 25217.9 718.170   2
   1   4  -9 26019.0 687.573   2
   1   4  -8 5655.05 277.122   2
   1   4  -7 14611.4 438.569   2
   1   4  -7 15253.7 491.239   5
   1   4  -6 2610.54 259.012   4
   1   4  -6 2222.65 147.222   2
   1   4  -6 2426.67 175.809   5
   1   4  -5 4425.82 327.172   4
   1   4  -5 4252.01 226.101   5
   1   4  -5 4435.28 199.632   2
   1   4  -4 2383.18 158.755   5
   1   4  -4 2596.86 241.408   4
   1   4  -4 2392.41 132.989   2
  -1  -4   4 2519.57 134.888   7
  -1  -4   3 2688.00 120.983   7
   1   4  -3 2579.38 236.609   4
   1   4  -3 3041.26 177.563   5
   1   4  -2 79398.4 1285.83   5
  -1  -4   1 4760.71 253.271   5
   1   4  -1 4432.92 215.155   5
   1   4   0 2115.91 149.522   5
  -1  -4   0 2515.61 145.826   1
   1   4   1 33911.3 908.448   6
   1   4   1 33391.4 734.669   5
  -1  -4  -1 34088.2 626.598   1
   1   4   2 17729.2 439.014   8
   1   4   2 17298.9 650.756   6
   1   4   2 17914.1 520.890   5
  -1  -4  -2 17600.1 387.061   1
  -1  -4  -3 4260.58 167.713   1
   1   4   3 4255.50 193.798   8
   1   4   3 4098.59 206.195   1
   1   4   3 4311.95 328.716   6
   1   4   4 11702.0 338.956   8
   1   4   4 12097.1 397.711   1
   1   4   4 11174.0 571.313   6
   1   4   5 11884.7 339.298   8
   1   4   5 11550.4 416.634   1
   1   4   5 11882.5 618.643   6
   1   4   6 1425.66 147.706   1
   1   4   6 1463.33 223.485   6
   1   4   6 1565.35 114.214   8
   1   4   7 20769.2 471.176   8
   1   4   7 19007.5 623.523   1
   1   4   8 1193.98 96.5950   8
   1   4   8 1192.85 153.917   1
   1   4   9 2299.00 229.310   1
   1   4  10 1067.70 165.804   1
   1   4  11 7100.81 461.860   1
   1   4  12 254.582 108.396   1
   1   5 -14 161.427 66.8133   2
   1   5 -13 877.129 148.261   2
   1   5 -12 115.221 55.4796   2
   1   5 -11 319.700 82.0419   2
   1   5 -10 407.567 62.5724   8
   1   5 -10 243.057 70.6228   2
   1   5  -9 849.540 94.2445   8
   1   5  -9 794.778 173.047   4
   1   5  -9 971.882 121.859   2
   1   5  -8 19.5460 22.1146   8
   1   5  -8-0.57468 20.8001   4
   1   5  -7 5787.20 253.937   8
   1   5  -7 5421.46 289.289   5
   1   5  -7 5547.30 258.161   2
   1   5  -7 5380.50 423.863   4
   1   5  -6 14.6494 17.3918   8
   1   5  -6 15.2956 40.2636   4
   1   5  -6-0.07270 15.7519   5
   1   5  -6 13.1891 17.6589   2
   1   5  -5 2519.44 164.530   8
   1   5  -5 2458.51 274.001   4
  -1  -5   5 2441.20 162.842   7
   1   5  -5 2409.22 145.182   2
   1   5  -5 2426.50 174.767   5
   1   5  -4 5382.95 245.290   8
   1   5  -4 5163.22 245.550   5
   1   5  -4 5505.79 206.748   2
   1   5  -4 5323.71 389.975   4
   1   5  -3 420.211 67.6578   5
   1   5  -3 305.331 93.5397   4
   1   5  -3 374.280 63.4022   8
   1   5  -2 9846.15 343.087   5
   1   5  -1 7200.42 290.649   5
   1   5   0 1970.81 149.594   5
  -1  -5   0 1796.34 128.338   1
   1   5   1 171.887 44.7639   8
   1   5   1 146.675 41.6374   5
  -1  -5  -1 164.036 34.8358   1
   1   5   2 8894.51 362.334   5
   1   5   2 8919.24 319.544   8
  -1  -5  -2 8588.58 241.295   1
   1   5   2 8623.36 485.592   6
   1   5   3 6174.64 259.985   8
   1   5   3 6387.23 323.164   5
   1   5   3 6351.29 434.189   6
  -1  -5  -3 6262.26 201.211   1
   1   5   4 264.962 56.2414   1
   1   5   4 300.290 94.0796   6
   1   5   4 377.624 62.8376   8
   1   5   5 19289.0 558.406   1
   1   5   5 19395.6 500.610   8
   1   5   5 19753.0 864.557   6
   1   5   6 0.42747 36.9619   6
   1   5   6 35.9022 30.4128   1
   1   5   6 26.0028 17.0032   8
   1   5   7 172.697 42.1748   8
   1   5   7 160.549 49.2737   1
   1   5   7 140.576 75.6803   6
   1   5   8 3264.51 260.410   1
   1   5   8 3130.86 181.084   8
   1   5   8 3133.40 389.170   6
   1   5   9 1067.07 155.475   1
   1   5   9 993.405 236.869   6
   1   5  10 7520.03 676.238   6
   1   5  11 782.146 234.832   6
   1   5  12 122.342 105.835   6
   1   6 -14 820.091 159.881   2
   1   6 -13 1544.28 210.840   2
   1   6 -12 812.419 139.045   2
   1   6 -12 758.759 193.544   4
   1   6 -11 753.945 186.455   4
   1   6 -11 411.419 94.4737   2
   1   6 -10 521.147 151.581   4
   1   6 -10 777.012 117.471   2
   1   6 -10 870.738 105.545   8
   1   6  -9 40.4891 25.2808   8
   1   6  -9-3.57516 17.3788   2
   1   6  -9 48.7617 51.5834   4
   1   6  -8 8798.48 607.100   4
   1   6  -8 9401.93 368.363   2
   1   6  -8 9031.32 352.800   8
   1   6  -7 78.0500 38.0456   5
   1   6  -7-22.4920 41.0225   4
   1   6  -7 78.9961 34.4081   2
   1   6  -7 57.4496 34.0310   8
   1   6  -6 10336.9 335.661   2
   1   6  -6 10266.3 397.911   5
   1   6  -6 10123.4 619.025   4
   1   6  -6 10193.3 378.103   8
   1   6  -5 1304.14 129.341   8
   1   6  -5 1037.74 92.6562   2
   1   6  -5 995.150 115.805   5
   1   6  -4 165.796 44.8076   5
   1   6  -4 191.541 79.9631   4
   1   6  -4 129.140 43.3430   8
   1   6  -4 99.0157 24.9724   2
   1   6  -3 14313.7 327.082   2
   1   6  -3 14246.7 452.059   8
   1   6  -3 13587.4 422.714   5
   1   6  -2 12824.4 409.020   5
   1   6  -2 13600.7 438.773   8
   1   6  -1 10452.0 378.023   8
   1   6  -1 10261.7 360.368   5
   1   6   0-3.05550 10.7671   5
  -1  -6   0 19.7153 14.5640   1
   1   6   0-7.09767 17.9920   8
   1   6   0 6.12984 4.89616   7
   1   6   1 1113.27 117.873   8
  -1  -6  -1 1021.09 78.1740   1
   1   6   1 916.251 110.735   5
   1   6   2 235.907 59.7617   5
   1   6   2 383.599 66.6873   8
   1   6   3 15942.7 540.821   5
   1   6   3 16261.0 486.235   8
   1   6   3 15305.9 740.703   6
   1   6   4 5344.48 265.213   8
   1   6   4 5213.77 442.986   6
   1   6   4 5255.57 316.030   5
   1   6   5 5531.52 271.848   8
   1   6   5 7153.84 539.578   6
   1   6   6 8207.41 608.974   6
   1   6   6 7825.93 326.115   8
   1   6   7 1934.73 302.292   6
   1   6   7 1528.95 137.358   8
   1   6   8 741.972 195.093   6
   1   6   8 1144.03 119.709   8
   1   6   9 1892.29 331.172   6
   1   6  10 2166.06 376.280   6
   1   6  11 1041.68 266.985   6
   1   7 -11 235.536 106.443   4
   1   7 -10 664.742 185.035   4
   1   7 -10 703.526 103.094   8
   1   7  -9 2044.59 176.562   8
   1   7  -9 2012.90 314.169   4
   1   7  -8 5645.44 298.703   8
   1   7  -8 4866.08 486.614   4
   1   7  -7 8557.01 372.874   8
   1   7  -7 7679.00 595.091   4
   1   7  -7 8985.68 395.141   5
   1   7  -6 3665.59 237.632   5
   1   7  -6 3592.52 394.756   4
   1   7  -6 3633.24 237.383   8
   1   7  -6 3721.88 191.053   2
   1   7  -5 171.729 51.2549   8
   1   7  -5 222.126 58.3286   5
   1   7  -5 176.178 37.7593   2
   1   7  -4 35.0416 21.0133   5
   1   7  -4 9.31287 18.9905   8
   1   7  -4-1.34446 12.9610   2
   1   7  -3 15245.1 454.394   5
   1   7  -3 15975.7 520.534   8
   1   7  -3 14833.9 321.565   2
   1   7  -2 17637.6 550.296   8
   1   7  -2 16764.6 475.948   5
   1   7  -1 9552.42 396.714   8
   1   7  -1 10040.0 353.872   5
   1   7   0 24945.0 611.074   5
   1   7   0 23430.5 656.555   8
   1   7   1 10.5670 18.5526   8
   1   7   1 22.0183 16.4318   5
   1   7   2 477.994 82.2933   5
   1   7   2 573.957 95.0593   8
   1   7   3 904.233 119.483   5
   1   7   3 1149.42 130.690   8
   1   7   4 4486.54 435.500   6
   1   7   4 4740.72 299.229   5
   1   7   5 5013.54 479.671   6
   1   7   5 3280.07 224.189   8
   1   7   6 6420.34 567.108   6
   1   7   6 6288.94 314.369   8
   1   7   7 19.1885 45.8255   6
   1   7   7-0.91822 22.3103   8
   1   7   8 170.673 28.3628   6
   1   7   9 386.573 193.402   6
   1   7  10 11470.8 906.929   6
   1   8 -10-10.6189 36.4099   4
   1   8  -9 1734.59 317.088   4
   1   8  -9 1532.22 166.649   8
   1   8  -8 1619.61 298.702   4
   1   8  -8 1466.85 164.658   8
   1   8  -7 5261.67 312.517   8
   1   8  -7 5219.66 523.597   4
   1   8  -6 1575.68 166.771   8
   1   8  -6 1412.21 151.545   5
   1   8  -5 641.170 97.0257   5
   1   8  -5 524.082 98.8689   8
   1   8  -4 2715.53 221.822   8
   1   8  -4 2718.60 188.415   5
   1   8  -3 684.967 112.197   8
   1   8  -2 388.555 84.6156   8
   1   8  -1 666.127 105.910   8
   1   8   0 3522.67 250.648   8
   1   8   1 2387.00 205.491   8
   1   8   2 18.3611 19.7279   8
   1   8   3 1158.63 142.350   8
   1   8   4 2154.61 197.694   8
   1   8   5 3943.15 265.900   8
   1   8   5 5666.46 537.416   6
   1   8   6 3588.18 256.709   8
   1   8   6 3000.67 406.378   6
   1   8   7 201.726 110.013   6
   1   8   7 45.4139 39.1588   8
   1   8   8 294.326 148.490   6
   1   8   9 126.421 97.7010   6
   1   9  -9 1301.86 164.821   8
   1   9  -8 79.9360 49.2893   8
   1   9  -7 7094.97 392.124   8
   1   9  -6 103.005 62.0392   8
   1   9  -5 1664.48 187.726   8
   1   9  -4 1751.42 189.760   8
   1   9  -3 4554.98 309.682   8
   1   9  -2 895.018 135.498   8
   1   9  -1 2798.14 237.732   8
   1   9   0 3168.53 252.541   8
   1   9   1 141.823 53.8838   8
   1   9   2 780.370 128.283   8
   1   9   3 125.110 46.8138   8
   1   9   4 1986.05 201.419   8
   1   9   5 2970.10 251.220   8
   1   9   6 3073.15 254.084   8
   1   9   7 400.405 86.0092   8
   1   9   7 367.755 148.250   6
   1  10  -8 1491.06 188.704   8
   1  10  -7 4218.94 325.427   8
   1  10  -6 1046.34 160.324   8
   1  10  -5 3458.62 290.089   8
   1  10  -4 989.103 158.791   8
   1  10  -3 89.1908 47.8639   8
   1  10  -2 7777.64 435.651   8
   1  10  -1 189.664 69.9811   8
   1  10   0 3217.42 273.627   8
   1  10   1 3346.89 282.840   8
   1  10   2 62.3544 42.0854   8
   1  10   3 752.593 129.026   8
   1  10   4 2929.06 262.731   8
   1  10   5 3516.26 294.907   8
   1  10   6 198.123 69.8555   8
  -2  10   8 867.051 165.879   3
  -2  10   7 145.393 68.4634   3
  -2  10   6 287.116 88.2083   3
  -2  10   5 728.372 143.827   3
  -2  10   4 5233.81 375.866   3
  -2  10   3 92.7785 37.4803   3
  -2  10   2 4075.45 328.229   3
  -2  10   1 2120.79 238.716   3
  -2  10   0 1731.17 213.069   3
  -2  10  -1 4531.35 342.976   3
  -2  10  -2 722.920 135.361   3
  -2  10  -3 1320.03 184.300   3
  -2  10  -4 260.541 72.8252   3
  -2  10  -5 28.4297 40.1449   3
  -2  10  -6 760.783 142.487   3
  -2  10  -7 130.776 61.0950   3
  -2   9   8 2657.42 414.135   6
  -2   9   8 2592.40 250.669   3
  -2   9   7 575.978 118.133   3
  -2   9   6 241.878 77.1119   3
  -2   9   5 1373.22 180.753   3
  -2   9   4 1642.42 195.447   3
  -2   9   3 5644.60 369.214   3
  -2   9   2 5414.13 356.012   3
  -2   9   1 995.082 154.664   3
  -2   9   0 1519.84 188.366   3
  -2   9  -1 10547.8 500.804   3
  -2   9  -2 28.6027 18.9631   3
  -2   9  -3 2468.24 239.320   3
  -2   9  -4-3.72098 35.0261   3
  -2   9  -5 9.87771 26.5510   3
  -2   9  -6 682.881 125.478   3
  -2   9  -7 44.2729 30.2458   3
  -2   9  -7 58.3563 65.6811   4
  -2   8  10 3592.37 491.158   6
  -2   8   9 323.138 142.413   6
  -2   8   8 102.512 48.0497   3
  -2   8   8 50.6894 80.0022   6
  -2   8   7 2965.04 247.936   3
  -2   8   7 2432.89 363.419   6
  -2   8   6 66.1404 47.8970   3
  -2   8   5 1139.72 155.048   3
  -2   8   4 1084.15 147.471   3
  -2   8   3 3172.20 254.447   3
  -2   8   2 2774.87 237.776   3
  -2   8   1 2190.64 209.169   3
  -2   8   0 3746.67 274.150   3
  -2   8   0 3653.53 266.046   7
  -2   8  -1 834.838 122.706   7
  -2   8  -1 1062.26 145.491   3
  -2   8  -2 161.185 64.6684   3
  -2   8  -2 73.2203 37.1692   7
  -2   8  -3 3749.38 276.280   3
  -2   8  -4 226.928 70.9766   3
  -2   8  -5 343.484 87.9445   3
  -2   8  -5 472.083 162.543   4
  -2   8  -6 360.052 83.8699   3
  -2   8  -6 463.771 156.788   4
  -2   8  -7 473.146 94.0840   3
  -2   8  -7 344.332 139.873   4
  -2   8  -8 6217.03 351.253   3
  -2   8  -8 6117.99 585.240   4
  -2   8  -9 1754.41 317.973   4
  -2   7  11 340.095 151.578   6
  -2   7  10 2850.32 420.037   6
  -2   7   9 4818.07 297.919   3
  -2   7   9 4471.22 509.992   6
  -2   7   8 2718.51 221.217   3
  -2   7   8 2248.07 346.272   6
  -2   7   7 2530.74 348.332   6
  -2   7   7 3322.09 245.476   3
  -2   7   6 31.7628 28.5614   3
  -2   7   6 41.0483 48.1000   6
  -2   7   5 13820.8 514.015   3
  -2   7   5 13555.9 772.433   6
  -2   7   4 3810.11 257.664   3
  -2   7   3 36382.2 889.956   3
  -2   7   2 916.571 122.194   3
  -2   7   1 10848.3 442.119   3
  -2   7   0 1324.54 150.382   3
  -2   7  -1 14315.5 528.349   7
  -2   7  -1 15218.4 528.283   3
   2  -7   2 3882.50 228.339   1
  -2   7  -2 3889.48 257.876   7
  -2   7  -2 4161.01 264.748   3
  -2   7  -3 3047.55 227.872   3
  -2   7  -3 3195.18 234.979   7
   2  -7   3 3176.42 226.825   1
  -2   7  -4 118.615 39.8781   3
  -2   7  -4-1.06566 53.5326   4
   2  -7   4 69.2381 24.4810   1
  -2   7  -5 4456.22 279.036   3
  -2   7  -5 3822.36 396.368   4
   2  -7   5 3844.85 286.225   1
   2  -7   6 598.924 115.967   1
  -2   7  -6 781.033 189.729   4
  -2   7  -6 901.807 123.061   3
  -2   7  -7 1570.12 163.381   3
  -2   7  -7 1332.95 248.002   4
   2  -7   7 1717.24 215.423   1
   2  -7   8 982.443 170.633   1
  -2   7  -8 1448.59 154.583   3
  -2   7  -8 1270.27 250.194   4
  -2   7  -9 2024.48 320.691   4
   2  -7   9 2376.60 279.685   1
  -2   7 -10 1377.66 271.247   4
   2  -7  10 1736.90 253.050   1
   2  -7  11 79.0484 57.6425   1
  -2   6  12 78.6664 77.7020   6
  -2   6  11-16.0098 83.8783   6
  -2   6  10 2234.74 356.551   6
  -2   6   9 1653.10 158.794   3
   2  -6  -9 1587.52 166.597   2
  -2   6   9 1475.20 274.463   6
  -2   6   8 132.584 46.3360   3
  -2   6   8 156.402 67.2603   6
   2  -6  -8 62.3703 34.4229   2
  -2   6   7 2146.06 179.187   3
   2  -6  -7 2154.19 165.381   2
  -2   6   7 2108.60 301.341   6
   2  -6  -6 1946.94 140.323   2
  -2   6   6 1723.88 260.738   6
  -2   6   6 1947.85 170.051   3
  -2   6   5 3580.68 229.751   3
   2  -6  -5 3789.18 176.652   2
  -2   6   5 3522.47 361.877   6
  -2   6   4 7653.11 520.936   6
  -2   6   4 6797.12 322.288   3
   2  -6  -4 7605.27 222.581   2
  -2   6   3 18733.6 556.234   3
  -2   6   2 29120.4 719.071   3
  -2   6   1 24192.6 641.738   3
   2  -6   0 2973.39 159.893   1
  -2   6   0 2565.51 192.524   3
   2  -6   1 2017.21 147.156   1
  -2   6  -1 1943.14 164.628   3
   2  -6   2 6294.50 294.339   1
  -2   6  -2 7217.56 323.814   3
  -2   6  -3 3741.89 343.474   4
   2  -6   3 3663.32 236.218   1
  -2   6  -3 3454.72 222.349   3
  -2   6  -3 3670.22 245.868   7
   2  -6   4 22112.7 664.031   1
  -2   6  -4 22928.0 903.443   4
  -2   6  -4 21525.1 604.082   3
  -2   6  -5 580.751 90.8703   3
   2  -6   5 582.781 104.879   1
  -2   6  -5 644.430 152.600   4
  -2   6  -6 988.694 191.542   4
   2  -6   6 1044.14 150.786   1
  -2   6  -6 1072.06 124.347   3
  -2   6  -7 624.321 148.486   4
  -2   6  -7 636.643 96.2542   3
   2  -6   7 556.343 120.116   1
  -2   6  -8 164.318 46.4556   3
   2  -6   8 113.691 62.7346   1
  -2   6  -9 3832.38 416.033   4
   2  -6   9 3739.20 341.508   1
  -2   6 -10 211.535 92.3619   4
   2  -6  10-43.6963 43.4843   1
   2  -6  11 1742.70 258.185   1
  -2   5  13 1106.38 270.402   6
  -2   5  12 56.5516 63.9593   6
   2  -5 -12-51.2482 53.0402   2
   2  -5 -11 172.460 63.3073   2
  -2   5  11-55.4749 59.7730   6
  -2   5  10 1322.44 262.729   6
  -2   5  10 1331.42 139.689   1
   2  -5 -10 784.344 123.518   2
   2  -5  -9 3342.65 233.890   2
  -2   5   9 3848.21 222.915   3
  -2   5   9 4223.73 443.168   6
  -2   5   8 255.905 105.258   6
  -2   5   8 304.553 60.7206   3
   2  -5  -8 413.225 75.1434   2
  -2   5   7 4190.74 403.296   6
   2  -5  -7 3720.57 212.034   2
  -2   5   7 4402.00 235.793   3
  -2   5   6 1008.02 195.086   6
   2  -5  -6 850.063 90.8344   2
  -2   5   6 770.297 95.5316   3
  -2   5   6 783.352 82.5068   5
   2  -5  -5 93.8047 24.8312   2
  -2   5   5 105.814 25.3434   5
  -2   5   5 70.8853 31.6987   3
  -2   5   5 72.1988 58.7358   6
  -2   5   4 17968.2 506.438   3
  -2   5   4 18286.4 761.506   6
  -2   5   4 16758.0 327.501   1
   2  -5  -4 18516.2 378.977   2
  -2   5   3 1669.47 142.250   3
   2  -5  -3 1744.00 85.1706   2
   2  -5  -2 26894.0 409.900   2
  -2   5   2 27315.3 655.833   3
  -2   5   1 4604.84 239.467   3
   2  -5   0 6153.42 237.900   1
  -2   5   0 5802.54 267.675   3
   2  -5   0 5050.54 113.105   2
   2  -5   1 419.145 66.0504   1
  -2   5  -1 600.642 84.5255   3
   2  -5   1 482.516 39.5807   2
   2  -5   1 466.657 48.5053   5
   2  -5   2 34112.5 564.508   2
   2  -5   2 34284.8 754.496   1
  -2   5  -2 34477.1 995.434   4
  -2   5  -2 33490.7 741.398   3
  -2   5  -3 10129.2 520.403   4
   2  -5   3 9549.79 383.085   1
  -2   5  -3 9678.01 355.936   3
  -2   5  -4 8432.48 485.732   4
   2  -5   4 8330.71 378.712   1
  -2   5  -4 8345.79 325.344   3
  -2   5  -5 5030.58 386.225   4
  -2   5  -5 4455.88 233.128   3
   2  -5   5 4592.52 295.345   1
   2  -5   6 308.090 84.7708   1
  -2   5  -6 344.330 64.8375   3
  -2   5  -6 372.990 103.769   4
   2  -5   7 8132.63 443.665   1
  -2   5  -7 8046.55 320.227   3
   2  -5   8 318.860 85.4411   1
  -2   5  -8 323.392 61.0706   3
   2  -5   9 4516.10 367.277   1
   2  -5  10 991.153 182.613   1
   2  -5  11 23.1557 53.3282   1
   2  -5  12 266.780 103.551   1
   2  -4 -14 89.1597 54.3067   2
  -2   4  13 686.655 126.828   1
   2  -4 -13 440.781 107.744   2
   2  -4 -12 1285.76 174.794   2
   2  -4 -11 887.913 132.960   2
   2  -4 -10 625.190 105.918   2
   2  -4  -9 601.578 98.0675   2
  -2   4   9 737.572 180.603   6
  -2   4   9 734.321 83.8256   3
   2  -4  -8 14427.2 462.099   2
  -2   4   8 14819.2 417.169   3
  -2   4   8 14687.8 752.978   6
  -2   4   7 200.251 45.7034   3
  -2   4   7 166.834 67.6576   6
   2  -4  -7 231.328 50.6777   2
   2  -4  -6 4546.86 211.106   2
  -2   4   6 4446.17 369.111   6
  -2   4   6 4600.15 222.275   3
  -2   4   5 448.289 68.6933   3
  -2   4   5 559.071 123.731   6
   2  -4  -5 562.240 66.2044   2
  -2   4   5 517.568 64.7233   5
  -2   4   4 13203.2 318.733   5
   2  -4  -4 13712.4 329.428   2
  -2   4   4 12560.3 391.915   3
  -2   4   4 12925.8 585.140   6
  -2   4   3 11758.5 246.723   5
  -2   4   3 12417.0 300.260   1
   2  -4  -3 13518.8 294.269   2
  -2   4   3 12454.7 547.115   6
  -2   4   3 13045.2 394.769   3
  -2   4   2 17321.9 470.059   3
  -2   4   2 17415.4 348.330   1
  -2   4   1 85.7550 31.6195   3
  -2   4   1 65.9876 17.9301   1
  -2   4   0 14710.3 334.887   1
   2  -4   0 14502.0 396.467   1
  -2   4   0 14737.9 426.603   3
  -2   4  -1 812.395 120.844   4
   2  -4   1 653.112 81.1263   1
  -2   4  -1 821.859 108.000   7
  -2   4  -1 734.717 88.0334   3
  -2   4  -2 40633.0 798.112   3
   2  -4   2 38775.9 822.196   1
  -2   4  -2 39869.0 987.496   4
   2  -4   2 41133.5 683.178   2
  -2   4  -3 19457.0 670.344   4
  -2   4  -3 19953.7 502.664   3
   2  -4   3 19129.5 552.628   1
   2  -4   4 6524.52 324.449   1
  -2   4  -4 6905.43 272.885   3
  -2   4  -5 27188.6 602.534   3
   2  -4   5 26599.4 746.954   1
   2  -4   6 9089.99 434.534   1
  -2   4  -6 9105.02 309.426   3
   2  -4   7 16153.7 625.691   1
  -2   4  -7 16093.7 428.727   3
  -2   4  -8 4288.76 204.188   3
   2  -4   8 4107.42 323.260   1
   2  -4   9 2412.14 263.873   1
   2  -4  10 1381.70 208.977   1
   2  -4  11 1227.12 209.005   1
   2  -4  12 347.128 116.524   1
  -2   3  15 3566.66 340.153   1
   2  -3 -15 3367.06 342.757   2
  -2   3  14 2557.00 269.256   1
   2  -3 -14 2411.06 269.049   2
   2  -3 -13 3687.77 308.408   2
   2  -3 -12 2097.02 217.410   2
   2  -3 -11 522.933 100.623   2
   2  -3 -10 15141.5 533.879   2
   2  -3  -9 5785.25 296.931   2
  -2   3   9 5616.93 216.484   3
   2  -3  -8 20231.8 561.317   2
  -2   3   8 20369.3 469.271   3
  -2   3   7 3486.70 175.704   3
   2  -3  -7 3626.34 202.750   2
   2  -3  -6 12512.7 372.400   2
  -2   3   6 11918.4 571.259   6
  -2   3   6 12636.8 361.020   3
   2  -3  -5 22793.7 499.447   2
  -2   3   5 21147.4 504.703   5
  -2   3   5 22067.8 507.015   3
  -2   3   5 21938.2 752.536   6
  -2   3   4 2064.41 125.517   5
   2  -3  -4 2179.48 123.514   2
  -2   3   4 2282.22 217.174   6
   2  -3  -4 2287.69 106.051   5
  -2   3   4 2334.05 144.254   3
  -2   3   3 9969.98 261.699   5
  -2   3   3 11041.2 455.962   6
  -2   3   3 9966.43 306.019   3
  -2   3   2 7981.93 267.447   3
  -2   3   2 7981.52 244.707   1
  -2   3   1 21768.0 480.298   3
  -2   3   1 21527.0 433.627   1
   2  -3  -1 23396.6 549.047   4
   2  -3   0 1121.96 101.035   1
  -2   3   0 1186.49 99.6729   3
   2  -3   0 1179.99 110.650   4
  -2   3   0 1135.62 88.2582   1
  -2   3  -1 59287.6 989.012   3
   2  -3   1 60821.1 1038.61   1
  -2   3  -1 60901.2 1128.09   4
  -2   3  -1 59081.4 965.990   1
  -2   3  -1 59263.8 1117.83   7
  -2   3  -2 6032.86 283.371   7
   2  -3   2 5845.55 267.367   1
  -2   3  -2 6293.28 307.838   4
  -2   3  -2 5895.58 232.005   3
   2  -3   3 111756. 1771.72   1
  -2   3  -3 111208. 1625.97   3
  -2   3  -4 7580.76 264.559   3
   2  -3   4 7464.81 341.488   1
  -2   3  -5 7199.42 257.264   3
   2  -3   5 7190.18 354.345   1
  -2   3  -6 3513.34 170.134   3
   2  -3   6 2682.48 227.310   1
  -2   3  -7 12033.3 326.502   3
   2  -3   7 12293.6 529.263   1
   2  -3   8-22.1269 48.2208   1
  -2   3  -8 30.3302 22.9069   3
   2  -3   9 384.057 95.6585   1
   2  -3  10 6930.45 463.803   1
   2  -3  11 94.7021 66.9927   1
   2  -3  12 3094.57 345.346   1
   2  -3  13-68.6731 58.2832   1
  -2   2  16 199.121 84.6256   1
   2  -2 -15 3413.96 336.393   2
   2  -2 -14 645.532 137.553   2
   2  -2 -13 826.073 144.614   2
   2  -2 -12 1274.26 167.842   2
   2  -2 -11 535.502 101.235   2
   2  -2 -10 19462.3 609.320   2
  -2   2   9 15.4314 13.3633   3
   2  -2  -9 23.2983 13.9517   8
   2  -2  -9 4.77337 24.2080   2
  -2   2   8 39750.8 686.802   3
   2  -2  -8 38652.1 835.639   2
   2  -2  -8 38421.3 635.166   8
   2  -2  -7 11566.5 382.247   2
  -2   2   7 11646.3 309.949   3
   2  -2  -7 11302.7 277.008   8
   2  -2  -6 6763.52 267.001   2
  -2   2   6 6711.87 229.400   3
   2  -2  -6 6493.61 248.118   5
   2  -2  -5 4480.50 187.418   5
   2  -2  -5 4718.32 206.440   2
  -2   2   5 4717.68 189.735   3
  -2   2   4 5510.96 300.920   6
  -2   2   4 4780.32 210.057   5
   2  -2  -4 5135.53 187.258   5
  -2   2   4 4846.18 192.875   3
  -2   2   3 24034.6 512.878   5
   2  -2  -3 23549.6 476.195   5
  -2   2   3 24578.7 643.114   6
  -2   2   3 24306.7 497.832   3
   2  -2  -2 269.743 41.6418   5
  -2   2   2 349.682 64.0203   6
  -2   2   2 259.162 43.0305   3
  -2   2   2 275.691 42.8114   5
   2  -2  -2 225.290 54.0533   6
  -2   2   1 6890.95 231.774   3
  -2   2   1 6965.79 247.169   1
   2  -2  -1 7177.04 227.135   4
   2  -2  -1 7572.11 310.082   6
   2  -2  -1 6850.06 239.132   5
  -2   2   0 518.190 59.4901   3
   2  -2   0 498.544 68.3983   1
  -2   2   0 504.678 61.0403   4
  -2   2   0 539.231 65.2316   1
  -2   2  -1 1474.56 111.413   1
   2  -2   1 1467.77 121.611   1
  -2   2  -1 1483.30 101.355   3
  -2   2  -2 12360.9 320.028   3
   2  -2   2 11966.0 392.006   1
   2  -2   3 9516.48 362.306   1
  -2   2  -3 9419.53 272.914   3
   2  -2   4 6232.70 307.517   1
  -2   2  -4 6440.71 218.936   3
   2  -2   5 821.771 116.206   1
  -2   2  -5 883.988 76.2146   3
  -2   2  -6 7000.08 225.462   3
   2  -2   6 6688.54 357.688   1
  -2   2  -7 3759.10 152.763   3
   2  -2   7 3449.17 269.591   1
  -2   2  -8 25.3072 13.2694   3
   2  -2   8-15.1237 29.4161   1
   2  -2   9 325.132 94.8693   1
   2  -2  10 325.478 95.6737   1
   2  -2  11-9.12037 25.4358   1
   2  -2  12 3165.09 349.525   1
   2  -2  13 276.909 108.063   1
   2  -1 -15 132.397 66.4863   2
   2  -1 -14 1411.88 198.211   2
   2  -1 -13 67.3434 32.9899   2
   2  -1 -12 1226.16 162.790   2
   2  -1 -11 1305.40 155.831   2
   2  -1 -10 55.5279 30.1654   2
   2  -1  -9 1082.93 63.1035   8
   2  -1  -9 1264.76 136.002   2
  -2   1   9 1256.24 79.5710   3
   2  -1  -8 6332.73 295.533   2
   2  -1  -8 6348.27 290.640   5
  -2   1   8 6470.34 202.793   3
   2  -1  -7 8379.23 322.413   2
  -2   1   7 8893.79 247.485   3
   2  -1  -7 8288.35 319.961   5
   2  -1  -6 16.3254 15.1974   2
   2  -1  -6 6.54905 19.8600   5
   2  -1  -5 21642.7 496.280   5
  -2   1   4 2877.24 171.280   5
   2  -1  -4 2776.35 153.943   5
  -2   1   3 3004.46 169.012   5
   2  -1  -3 3061.49 161.593   5
   2  -1  -2 256.111 49.0619   5
  -2   1   2 233.339 41.6305   6
   2  -1  -1 5236.39 224.613   5
   2  -1  -1 5439.43 200.246   6
   2  -1   0 1988.39 141.382   1
   2  -1   1 16002.2 444.685   1
   2  -1   2 446.314 71.0748   1
   2  -1   3 22.3390 14.4498   1
   2  -1   4 10738.4 408.971   1
  -2   1  -5 8.47347 11.9301   3
   2  -1   5 66.4340 38.6046   1
   2  -1   6 6743.61 357.129   1
  -2   1  -6 6995.33 206.984   3
  -2   1  -7 411.565 42.8657   3
   2  -1   7 441.334 93.8623   1
   2  -1   8 2023.27 215.904   1
  -2   1  -8 1889.94 84.5673   3
   2  -1   9 9296.25 500.394   1
   2  -1  10 9765.00 546.228   1
   2  -1  11 6614.89 470.262   1
   2  -1  12-17.6608 34.8470   1
   2  -1  13-82.1393 63.1603   1
   2   0 -15 228.612 84.5968   2
   2   0 -14 6563.22 426.153   2
   2   0 -13 1579.40 198.271   2
   2   0 -12 8795.11 438.078   2
   2   0 -11 216.197 69.7054   2
   2   0 -10 457.201 85.0929   2
   2   0  -9 627.249 96.1320   2
   2   0  -8 171.783 50.7880   2
   2   0  -8 147.506 48.6988   5
   2   0  -7 42162.4 855.714   2
   2   0  -7 42481.3 864.704   5
   2   0  -6 30976.7 675.610   2
   2   0  -6 32019.0 691.740   5
   2   0  -5 2412.32 158.883   5
   2   0  -4 2617.14 162.741   5
   2   0  -3 71601.6 1182.51   5
   2   0  -2 999999. 12160.8   5
   2   0  -1 117351. 1758.34   5
   2   0   0 442348. 5617.46   1
   2   0   1 1720.38 139.061   1
   2   0   1 1981.29 136.939   7
   2   0   2 9119.17 341.968   1
   2   0   3 21413.4 581.991   1
   2   0   4 41173.0 913.996   1
   2   0   5 26853.2 732.466   1
   2   0   6 3583.29 259.364   1
   2   0   7 55.8392 23.4058   1
  -2   0  -8 75.6267 15.4517   3
   2   0   8 99.9864 52.4129   1
   2   0   9 12168.8 578.268   1
   2   0  10 12.2521 27.8739   1
   2   0  11 16263.0 752.264   1
   2   0  12 697.111 160.857   1
   2   0  13-23.0855 30.6780   1
   2   1 -15 143.541 70.0568   2
   2   1 -14 6215.25 411.063   2
   2   1 -13 3738.44 299.372   2
   2   1 -12 3308.08 262.805   2
   2   1 -11 3685.93 264.979   2
   2   1 -10 260.973 65.4749   2
   2   1  -9 2232.84 182.898   2
   2   1  -9 1826.32 171.778   5
   2   1  -8 174.651 49.9484   5
   2   1  -8 255.437 59.5950   2
   2   1  -7 9652.78 370.648   5
   2   1  -7 10189.4 363.654   2
   2   1  -6 2974.86 191.582   5
   2   1  -5 10786.4 374.522   5
   2   1  -4 10517.0 367.317   5
   2   1  -3 136243. 2022.55   5
   2   1  -2 23608.2 586.819   5
   2   1  -2 23428.2 489.129   4
  -2  -1   1 216623. 2802.41   4
   2   1  -1 214480. 2980.07   5
   2   1   0 27731.4 659.871   5
  -2  -1   0 27389.3 528.013   7
   2   1   1 336.431 60.4989   1
  -2  -1  -1 326.740 48.1823   7
   2   1   1 333.574 52.1890   7
   2   1   2 31366.8 724.028   1
   2   1   3 38247.3 843.103   1
   2   1   4 2381.30 190.644   1
   2   1   5 15591.7 544.249   1
   2   1   6 9531.06 438.190   1
   2   1   7 5174.91 333.943   1
   2   1   8 1537.87 191.232   1
   2   1   9 8430.62 481.296   1
   2   1  10 43.4305 33.8911   1
   2   1  11 5689.34 443.671   1
   2   1  12 236.325 91.1739   1
   2   1  13-208.559 96.0744   1
   2   2 -15 1019.36 175.777   2
   2   2 -14 878.367 152.255   2
   2   2 -13 2874.11 262.128   2
   2   2 -12 1550.83 180.097   2
   2   2 -11 5312.56 318.108   2
   2   2 -10 135.581 58.2036   5
   2   2 -10 98.1153 23.9397   8
   2   2 -10 64.1791 19.5484   2
   2   2  -9 76.7547 41.9449   5
   2   2  -9 85.2458 38.2109   2
   2   2  -8 4049.86 236.958   2
   2   2  -8 4154.85 254.114   5
   2   2  -7 16161.9 508.609   5
   2   2  -7 15526.8 469.351   2
   2   2  -6 15296.7 480.545   5
   2   2  -5 5615.07 277.873   5
   2   2  -4 1865.06 161.970   4
   2   2  -4 1721.99 149.225   5
   2   2  -3 114.210 37.3271   5
   2   2  -3 203.796 49.8911   4
   2   2  -2 81879.5 1406.79   5
  -2  -2   2 83338.6 1358.21   4
   2   2  -1 1480.83 138.839   5
  -2  -2   1 1613.76 134.599   4
  -2  -2   1 1541.56 83.8423   7
  -2  -2   1 1671.09 119.283   6
  -2  -2   0 1992.31 152.902   1
   2   2   0 1947.53 162.304   5
   2   2   0 1864.86 133.575   6
   2   2   1 87464.8 1461.50   1
   2   2   1 88170.3 1298.40   7
   2   2   1 89290.0 1457.12   6
   2   2   2 9373.50 366.451   1
   2   2   2 9626.09 307.192   7
   2   2   3 2833.03 202.566   1
   2   2   4 429.256 81.8205   1
   2   2   5 30751.0 811.452   1
   2   2   6 15864.1 585.800   1
   2   2   7 23852.0 774.510   1
   2   2   8 122.832 61.9950   1
   2   2   9 934.897 159.974   1
   2   2  10 3316.28 328.654   1
   2   2  11 294.819 101.234   1
   2   2  12 1801.78 265.948   1
   2   2  13 785.332 185.992   1
   2   3 -15 1073.09 183.730   2
   2   3 -14 665.288 134.983   2
   2   3 -13 1775.07 204.276   2
   2   3 -12 1843.30 199.901   2
   2   3 -11 26.5695 25.3077   2
   2   3 -10 3765.36 273.340   5
   2   3 -10 3731.47 165.843   8
   2   3 -10 3667.73 252.803   2
   2   3  -9 308.022 75.4463   5
   2   3  -9 333.772 49.4674   8
   2   3  -9 361.601 73.0703   2
   2   3  -8 8139.14 342.537   2
   2   3  -8 7772.94 363.416   5
   2   3  -7 295.746 62.7713   2
   2   3  -7 321.128 72.0197   5
   2   3  -6 47294.3 981.861   5
   2   3  -5-22.5156 27.6077   5
   2   3  -5-1.90873 20.5892   4
   2   3  -4 4776.30 260.965   5
   2   3  -4 4276.68 281.246   4
   2   3  -3 2764.00 218.679   4
   2   3  -3 2662.51 193.572   5
   2   3  -2 1475.35 144.039   5
   2   3  -1 2171.25 175.145   5
  -2  -3   1 2387.98 182.445   6
  -2  -3   0 320.661 69.3623   6
   2   3   0 282.469 62.5249   6
   2   3   0 297.584 70.0343   5
   2   3   1 10827.1 433.519   5
   2   3   1 10968.1 289.486   7
   2   3   1 11380.3 444.897   6
   2   3   2 532.899 85.2705   1
   2   3   2 562.474 68.4199   7
   2   3   2 581.702 105.794   6
   2   3   3 353.773 75.0919   1
   2   3   3 376.509 90.9230   6
   2   3   4 6727.65 343.947   1
   2   3   5 21825.0 682.088   1
   2   3   6 1737.94 188.275   1
   2   3   7 25719.8 809.342   1
   2   3   8 4925.78 356.832   1
   2   3   9 4018.96 337.686   1
   2   3  10 910.876 169.297   1
   2   3  11 581.952 143.978   1
   2   3  12 5139.80 447.703   1
   2   3  13 339.241 126.364   1
   2   4 -14 146.297 60.1805   2
   2   4 -13 192.108 70.6387   2
   2   4 -12 6522.48 378.022   2
   2   4 -11 748.705 123.564   2
   2   4 -10 9077.46 437.936   5
   2   4 -10 8878.06 400.162   2
   2   4  -9 10512.6 456.078   5
   2   4  -9 10531.7 418.303   2
   2   4  -8 1490.01 160.290   5
   2   4  -8 1298.47 134.488   2
   2   4  -7 6303.88 287.901   2
   2   4  -7 5829.55 412.593   4
   2   4  -7 6702.10 333.314   5
   2   4  -6 86125.5 1410.57   2
   2   4  -6 86639.2 1795.52   4
   2   4  -6 85446.4 1521.68   5
   2   4  -5 2980.99 269.877   4
   2   4  -5 3082.05 216.734   5
   2   4  -4 50979.7 1247.86   4
   2   4  -4 53110.0 1074.71   5
   2   4  -3 335.446 67.8485   5
   2   4  -2 4532.45 263.081   5
   2   4  -1 1894.62 174.654   5
   2   4   0 15910.3 533.375   5
   2   4   1 33874.1 864.184   5
   2   4   1 35123.3 603.634   7
   2   4   1 34332.5 926.997   6
   2   4   2 23147.6 707.077   5
   2   4   2 21494.0 753.786   6
   2   4   3 486.039 88.1027   1
   2   4   3 423.069 104.681   6
   2   4   4 11188.0 456.269   1
   2   4   4 10839.4 572.982   6
   2   4   5 18855.8 639.661   1
   2   4   5 18882.1 811.373   6
   2   4   6 41706.1 1059.96   1
   2   4   7 24965.2 814.527   1
   2   4   7 24506.7 564.111   8
   2   4   8 797.740 143.068   1
   2   4   9 3.78028 18.9556   1
   2   4  10 2961.61 309.491   1
   2   4  11 664.163 153.466   1
   2   4  12 580.154 149.450   1
   2   5 -14 1.22146 27.9084   2
   2   5 -13 562.278 117.219   2
   2   5 -12 1330.82 170.173   2
   2   5 -11 1638.96 265.609   4
   2   5 -11 1852.49 189.508   2
   2   5 -10 64.2314 40.9415   5
   2   5 -10 191.179 85.3644   4
   2   5 -10 180.472 44.7505   8
   2   5 -10 264.821 70.2955   2
   2   5  -9-4.15577 21.2236   5
   2   5  -9 78.3530 32.2555   8
   2   5  -9 28.0297 47.5498   4
   2   5  -9-5.83117 17.7904   2
   2   5  -8 8207.33 319.909   8
   2   5  -8 7509.22 334.438   2
   2   5  -8 6871.76 498.006   4
   2   5  -8 7704.01 387.056   5
   2   5  -7 18793.4 531.734   2
   2   5  -7 18244.7 803.948   4
   2   5  -7 19431.2 610.820   5
   2   5  -7 19861.6 531.401   8
   2   5  -6 3510.89 206.941   8
   2   5  -6 3595.56 338.337   4
   2   5  -6 3339.39 199.284   2
   2   5  -6 3503.51 239.420   5
   2   5  -5 6680.08 452.195   4
   2   5  -5 6779.54 336.806   5
   2   5  -4 420.481 81.2955   5
   2   5  -4 275.658 89.1725   4
   2   5  -3 11846.6 456.849   5
   2   5  -2 2103.90 183.553   5
   2   5  -1 3016.24 225.257   5
   2   5   0 166.115 48.7327   5
   2   5   1 78.0168 19.2190   7
   2   5   1 37.3000 30.7406   5
   2   5   2 7569.52 461.136   6
   2   5   2 7407.90 393.726   5
   2   5   3 3697.68 288.442   5
   2   5   3 3790.16 341.216   6
   2   5   4 556.135 99.5236   1
   2   5   4 405.955 116.546   6
   2   5   5 1072.07 145.527   1
   2   5   5 1213.95 120.912   8
   2   5   5 1025.42 195.005   6
   2   5   6 3074.84 261.140   1
   2   5   6 3623.38 209.258   8
   2   5   6 3428.20 376.827   6
   2   5   7 1333.50 126.512   8
   2   5   7 1010.92 158.299   1
   2   5   7 1300.43 241.833   6
   2   5   8 1354.18 191.379   1
   2   5   8 1637.52 289.223   6
   2   5   9 290.465 92.8228   1
   2   5   9-3.11547 30.3470   6
   2   5  10 554.948 189.516   6
   2   5  11 558.454 204.932   6
   2   6 -14 13.2452 30.8962   2
   2   6 -13 216.682 78.8540   2
   2   6 -12 1059.82 157.164   2
   2   6 -12 867.186 212.974   4
   2   6 -11 1591.01 281.787   4
   2   6 -11 1694.28 183.227   2
   2   6 -10 5355.34 274.847   8
   2   6 -10 5094.64 343.054   5
   2   6 -10 5162.14 489.433   4
   2   6 -10 5093.01 302.887   2
   2   6  -9 145.329 63.6228   5
   2   6  -9 231.999 61.7998   8
   2   6  -9 280.391 114.365   4
   2   6  -9 186.656 60.2859   2
   2   6  -8 3368.08 372.969   4
   2   6  -8 3816.42 232.984   8
   2   6  -8 3217.44 216.725   2
   2   6  -8 3421.51 257.660   5
   2   6  -7 11745.8 692.006   4
   2   6  -7 11256.2 417.597   8
   2   6  -7 11955.7 407.876   2
   2   6  -7 11349.6 472.247   5
   2   6  -6 698.034 89.7421   2
   2   6  -6 706.338 110.337   5
   2   6  -6 727.870 100.878   8
   2   6  -5 8207.72 545.454   4
   2   6  -5 7984.09 347.006   8
   2   6  -5 7918.02 373.064   5
   2   6  -4 21.6116 25.9292   5
   2   6  -4 85.9412 36.9056   8
   2   6  -3 67.0879 30.0362   5
   2   6  -3 117.816 42.4010   8
   2   6  -2-7.92251 17.7916   8
   2   6  -2-30.5919 32.1641   5
   2   6  -1 3387.04 243.830   5
   2   6  -1 3063.84 207.615   8
   2   6   0 3483.03 252.774   5
   2   6   0 3629.64 227.924   8
   2   6   1 299.423 75.6015   5
   2   6   1 301.977 64.0374   8
   2   6   2 12380.3 527.570   5
   2   6   2 12824.6 444.698   8
   2   6   2 11770.5 630.956   6
   2   6   3 15.2183 21.8600   8
   2   6   3 15.5640 20.4449   5
   2   6   4 704.429 165.892   6
   2   6   4 419.688 77.5119   8
   2   6   4 685.920 132.017   5
   2   6   5 1736.67 156.050   8
   2   6   5 2385.36 318.897   6
   2   6   6 3883.93 236.850   8
   2   6   6 3944.12 429.020   6
   2   6   7 4461.57 255.691   8
   2   6   7 3899.38 445.730   6
   2   6   8 104.937 78.8220   6
   2   6   9 438.156 177.856   6
   2   6  10 878.064 248.285   6
   2   7 -11 5707.07 567.271   4
   2   7 -10 257.797 65.7255   8
   2   7 -10 561.528 169.356   4
   2   7  -9 1053.44 154.573   5
   2   7  -9 1160.14 142.550   8
   2   7  -9 1014.41 232.554   4
   2   7  -8 165.007 57.3244   8
   2   7  -8 31.1586 58.1686   4
   2   7  -8 102.234 44.8202   5
   2   7  -8 82.0359 38.7631   2
   2   7  -7 12025.7 759.192   4
   2   7  -7 13424.2 493.991   8
   2   7  -7 13461.3 435.694   2
   2   7  -7 12497.0 505.530   5
   2   7  -6 806.688 120.333   5
   2   7  -6 869.034 98.1590   2
   2   7  -6 1213.64 141.614   8
   2   7  -5 15028.1 517.810   8
   2   7  -5 14597.8 416.179   2
   2   7  -5 13973.9 513.850   5
   2   7  -4 4012.38 257.903   8
   2   7  -4 3574.92 247.820   5
   2   7  -3 13764.2 491.861   8
   2   7  -3 13207.5 494.268   5
   2   7  -2 243.463 54.9131   5
   2   7  -2 327.262 82.2906   8
   2   7  -1 12679.4 470.222   8
   2   7  -1 11887.4 477.186   5
   2   7   0 21572.5 675.594   5
   2   7   0 22156.5 643.554   8
   2   7   1 1525.29 157.777   8
   2   7   1 1317.04 158.860   5
   2   7   2 12195.1 522.985   5
   2   7   2 12293.1 471.579   8
   2   7   3 463.741 100.951   5
   2   7   3 507.874 95.5294   8
   2   7   3 225.727 86.2866   6
   2   7   4 113.127 43.2371   8
   2   7   4 162.878 63.8780   5
   2   7   4 267.461 99.7934   6
   2   7   5 6461.95 554.207   6
   2   7   5 6520.68 434.056   5
   2   7   6 398.891 85.3944   8
   2   7   6 419.458 152.904   6
   2   7   7 5437.21 307.959   8
   2   7   7 5554.53 559.100   6
   2   7   8 274.182 130.203   6
   2   7   9 181.719 121.013   6
   2   8 -10 475.516 172.730   4
   2   8 -10 510.955 100.537   8
   2   8  -9 5760.05 335.110   8
   2   8  -9 5594.13 574.790   4
   2   8  -9 6120.09 374.904   5
   2   8  -8 38.8534 28.8040   5
   2   8  -8 66.0203 90.3842   4
   2   8  -8 5.22169 18.9129   8
   2   8  -7 2055.86 199.768   8
   2   8  -7 1825.64 192.234   5
   2   8  -6 1250.17 155.881   8
   2   8  -6 1077.19 140.454   5
   2   8  -5 840.165 119.884   5
   2   8  -5 961.117 134.294   8
   2   8  -4 5317.85 306.378   5
   2   8  -4 5282.65 319.483   8
   2   8  -3 10704.1 460.345   8
   2   8  -3 9684.84 420.161   5
   2   8  -2 1110.19 145.934   8
   2   8  -2 1030.99 134.090   5
   2   8  -1 82.7985 38.5191   8
   2   8   0 2514.06 217.569   8
   2   8   1 62.3266 41.8578   8
   2   8   2 8004.14 393.546   8
   2   8   3 536.359 99.6603   8
   2   8   4 236.370 66.9416   8
   2   8   5 150.858 55.1063   8
   2   8   5 278.040 125.854   6
   2   8   6 846.878 130.020   8
   2   8   6 750.563 205.972   6
   2   8   7 4798.10 543.144   6
   2   8   7 5466.29 330.014   8
   2   8   8-31.9581 54.0395   6
   2   9  -9 1502.98 182.130   8
   2   9  -8 236.515 69.9315   8
   2   9  -7 67.5147 51.3139   8
   2   9  -6 2795.32 248.184   8
   2   9  -5 261.420 83.6762   8
   2   9  -4 3606.07 281.266   8
   2   9  -3 1201.27 161.796   8
   2   9  -2 346.786 90.4276   8
   2   9  -1 1805.31 200.271   8
   2   9   0 702.552 123.040   8
   2   9   1 8433.43 436.323   8
   2   9   2 123.890 59.2193   8
   2   9   3 5605.10 354.302   8
   2   9   4 186.823 61.6450   8
   2   9   5 1082.12 154.534   8
   2   9   6 95.6869 56.0878   8
   2   9   6-127.027 93.0853   6
   2  10  -6 1488.67 194.721   8
   2  10  -5 368.025 92.3141   8
   2  10  -4 2604.41 252.177   8
   2  10  -3 329.772 96.3346   8
   2  10  -2 190.433 72.2602   8
   2  10  -1 45.2911 47.9895   8
   2  10   0 303.142 82.6017   8
   2  10   1 1464.73 189.872   8
   2  10   2 40.7578 41.4616   8
   2  10   3 539.086 124.643   8
  -3  10   7 3303.14 307.989   3
  -3  10   6 267.482 89.3188   3
  -3  10   5 1761.88 223.067   3
  -3  10   4 1964.62 235.309   3
  -3  10   3 4808.84 368.467   3
  -3  10   2-3.89976 20.5499   3
  -3  10   1 5517.69 391.197   3
  -3  10   0 20.1794 42.3451   3
  -3  10  -1 1953.03 231.668   3
  -3  10  -2 1551.04 204.507   3
  -3  10  -3 271.919 96.3059   3
  -3  10  -4 4693.74 356.285   3
  -3   9   8 183.043 74.0226   3
  -3   9   7 5959.61 399.423   3
  -3   9   6 15.4091 32.3955   3
  -3   9   5 2067.99 228.845   3
  -3   9   4 356.712 94.0542   3
  -3   9   3 3950.68 309.074   3
  -3   9   2 428.975 103.011   3
  -3   9   1 3345.09 291.630   7
  -3   9   1 3616.10 294.304   3
  -3   9   0 1439.86 189.431   7
  -3   9   0 1085.44 162.503   3
  -3   9  -1 1503.52 186.860   3
  -3   9  -2 705.070 131.330   3
  -3   9  -3 52.8504 44.9859   3
  -3   9  -4 2384.87 239.765   3
  -3   9  -5 197.046 75.9509   3
  -3   9  -6 948.042 148.525   3
  -3   9  -7 214.775 72.5311   3
  -3   9  -7 98.4161 77.7428   4
  -3   8  10-0.35578 52.2553   6
  -3   8   9 646.019 120.628   3
  -3   8   9 876.442 226.936   6
  -3   8   8 39.8279 41.6060   3
  -3   8   8 256.453 120.520   6
  -3   8   7 6325.13 378.217   3
  -3   8   6 697.984 125.028   3
  -3   8   5 423.728 95.4103   3
  -3   8   4 21.4702 19.3336   3
  -3   8   3 2206.31 213.010   3
  -3   8   2 9994.60 464.378   3
  -3   8   1 3090.83 251.426   3
  -3   8   0 4308.85 298.847   3
  -3   8   0 4003.00 311.365   7
  -3   8  -1 35.3559 17.9726   3
  -3   8  -1 76.8253 46.0054   7
  -3   8  -2 216.160 73.4689   7
  -3   8  -2 285.951 77.4275   3
  -3   8  -3 1465.16 182.274   7
  -3   8  -3 1780.81 190.740   3
  -3   8  -4 4006.62 292.156   3
  -3   8  -5 712.808 186.340   4
  -3   8  -5 771.221 129.138   3
  -3   8  -6 1523.08 275.062   4
  -3   8  -6 1540.28 180.883   3
  -3   8  -7 760.926 126.426   3
  -3   8  -7 745.681 202.156   4
  -3   8  -8 443.008 136.600   4
  -3   8  -9-5.69819 34.7213   4
  -3   7  11 1426.61 301.965   6
  -3   7  10 53.6160 50.9042   6
  -3   7   9 63.4746 39.0192   3
  -3   7   9 71.0398 69.6151   6
  -3   7   8 84.1359 46.8476   3
  -3   7   8 16.1587 25.7324   6
  -3   7   7-15.5314 32.7079   6
  -3   7   7-34.4842 30.2234   3
  -3   7   6 803.485 121.107   3
  -3   7   6 958.752 206.991   6
  -3   7   5 496.618 96.6647   3
  -3   7   4 6287.86 344.841   3
  -3   7   3 7699.23 379.386   3
  -3   7   2 5124.32 305.328   3
  -3   7   1 24003.0 704.879   3
  -3   7   0 7785.71 378.733   3
  -3   7  -1 3398.35 277.433   7
  -3   7  -1 3674.90 255.630   3
  -3   7  -2 1788.64 196.026   7
  -3   7  -2 1725.10 173.667   3
   3  -7   3 1683.47 188.565   1
  -3   7  -3 1985.58 208.125   7
  -3   7  -3 1887.43 180.128   3
   3  -7   4 813.202 137.557   1
  -3   7  -4 679.212 161.417   4
  -3   7  -4 675.781 108.212   3
  -3   7  -5 11925.1 711.278   4
   3  -7   5 11839.6 571.393   1
  -3   7  -5 11411.8 465.045   3
   3  -7   6 1716.34 224.517   1
  -3   7  -6 1245.58 233.787   4
  -3   7  -6 1517.61 164.172   3
  -3   7  -7 1650.48 276.852   4
  -3   7  -7 1951.90 187.235   3
   3  -7   7 1277.32 205.340   1
  -3   7  -8 868.698 206.550   4
   3  -7   8 1539.78 234.566   1
  -3   7  -9 501.694 157.349   4
   3  -7   9 606.298 157.288   1
  -3   7 -10 3315.01 428.796   4
   3  -7  10 4209.51 434.781   1
  -3   6  13 1812.48 356.816   6
  -3   6  12 885.411 247.335   6
  -3   6  11 1159.33 257.645   6
  -3   6  10 7.97394 58.3582   6
  -3   6   9 1139.17 237.270   6
   3  -6  -9 1292.52 139.080   2
  -3   6   9 1156.58 137.433   3
   3  -6  -8 5224.41 268.156   2
  -3   6   8 5376.19 299.779   3
  -3   6   8 6142.07 529.194   6
   3  -6  -7 848.620 96.7370   2
  -3   6   7 846.017 116.129   3
  -3   6   7 782.963 182.625   6
   3  -6  -6 17318.2 436.240   2
  -3   6   6 16714.3 829.961   6
  -3   6   6 16090.2 545.996   3
  -3   6   5 562.530 92.5429   3
   3  -6  -5 567.726 64.9195   2
  -3   6   5 603.258 147.423   6
  -3   6   4 51.8139 33.0693   3
   3  -6  -4 12.1595 11.1283   2
  -3   6   3 10379.8 423.434   3
   3  -6  -3 10862.7 253.706   2
   3  -6  -2 12023.0 255.467   2
  -3   6   2 11842.7 451.450   3
  -3   6   1 15359.5 518.895   3
   3  -6   0 2954.49 146.788   5
   3  -6   0 3009.26 210.008   1
   3  -6   1 7022.53 344.028   1
  -3   6  -1 6666.74 379.478   7
  -3   6  -1 6813.96 332.273   3
  -3   6  -2 49.5486 31.6230   3
  -3   6  -2-6.93824 31.4358   7
   3  -6   2-25.7581 23.2716   1
   3  -6   3 401.134 87.6675   1
  -3   6  -3 406.523 85.3539   3
  -3   6  -3 404.105 112.636   4
  -3   6  -3 370.388 86.2543   7
  -3   6  -4-0.83252 26.3635   3
   3  -6   4 32.1274 34.8979   1
  -3   6  -4 25.4398 50.4850   4
  -3   6  -5 4415.21 394.500   4
   3  -6   5 4270.55 332.282   1
  -3   6  -5 4285.82 257.167   3
  -3   6  -6 1887.40 268.786   4
   3  -6   6 1805.14 231.235   1
  -3   6  -6 1434.25 147.832   3
   3  -6   7 9190.03 543.525   1
  -3   6  -7 8163.17 573.336   4
  -3   6  -7 8730.09 376.222   3
  -3   6  -8 462.790 138.294   4
   3  -6   8 681.212 155.243   1
  -3   6  -9 172.423 99.9513   4
   3  -6   9 177.993 85.2290   1
   3  -6  10 4277.03 425.629   1
  -3   6 -10 3676.72 423.344   4
   3  -6  11 444.626 152.535   1
   3  -5 -14 1596.92 221.086   2
   3  -5 -13 2644.68 260.739   2
  -3   5  13 2767.64 421.075   6
   3  -5 -12 4009.06 303.787   2
  -3   5  12 3696.59 463.711   6
   3  -5 -11 51.3593 37.8194   2
  -3   5  11 22.1470 43.4319   6
   3  -5 -10 436.973 86.9176   2
  -3   5  10 620.780 179.734   6
  -3   5   9 94.0361 41.5761   3
   3  -5  -9 55.7328 31.4251   2
  -3   5   9 59.1821 55.0961   6
   3  -5  -8 8474.65 345.687   2
  -3   5   8 8388.93 591.538   6
  -3   5   8 8245.15 354.297   3
  -3   5   7 80.2868 35.2159   3
  -3   5   7 193.140 96.2418   6
   3  -5  -7 75.4929 27.0043   2
   3  -5  -6 14572.1 410.398   2
  -3   5   6 13572.8 697.659   6
  -3   5   6 14620.5 486.327   3
  -3   5   5 1985.55 126.222   5
  -3   5   5 1820.88 138.933   1
   3  -5  -5 2082.49 134.834   2
  -3   5   5 1975.44 246.976   6
  -3   5   5 2024.77 171.029   3
  -3   5   4 3949.89 242.634   3
   3  -5  -4 4183.62 180.406   2
  -3   5   4 3639.38 182.483   1
  -3   5   3 1881.79 120.874   1
  -3   5   3 2041.51 169.087   3
  -3   5   2 1607.33 109.809   1
   3  -5  -2 1316.45 56.5980   5
  -3   5   2 1452.41 142.980   3
   3  -5  -1 4484.95 173.434   5
  -3   5   1 4375.33 249.743   3
   3  -5   0 1542.70 149.834   1
  -3   5   0 1636.13 151.286   3
  -3   5  -1 139.372 45.4870   3
  -3   5  -1 36.4761 31.2497   7
   3  -5   1 99.3594 42.3346   1
   3  -5   2 2.17894 11.9239   1
  -3   5  -2 33.1183 16.6468   3
  -3   5  -2 21.9380 35.6632   4
  -3   5  -2 15.9439 19.3412   7
  -3   5  -3-35.8537 24.2694   3
   3  -5   3 25.4291 30.8091   1
  -3   5  -3 70.7183 50.6573   4
  -3   5  -3 25.4819 17.6051   7
  -3   5  -4 960.323 113.320   3
  -3   5  -4 1054.66 143.142   7
  -3   5  -4 1003.72 166.208   4
   3  -5   4 906.922 139.559   1
  -3   5  -5 513.168 81.8833   3
  -3   5  -5 562.798 131.622   4
   3  -5   5 596.103 117.847   1
   3  -5   6 1383.01 192.808   1
  -3   5  -6 1344.15 207.364   4
  -3   5  -6 1235.71 128.073   3
  -3   5  -7 1039.11 115.504   3
   3  -5   7 854.503 159.645   1
   3  -5   8 752.831 158.013   1
  -3   5  -8 811.303 100.007   3
   3  -5   9 211.313 78.9454   1
   3  -5  10 1171.17 218.144   1
   3  -5  11 299.897 114.939   1
   3  -4 -15-65.6139 50.2237   2
   3  -4 -14 589.938 123.249   2
   3  -4 -13 96.6139 47.5061   2
   3  -4 -12 1775.21 196.818   2
  -3   4  12 1421.42 273.845   6
  -3   4  11 664.329 175.435   6
   3  -4 -11 467.437 93.3546   2
   3  -4 -10 1259.67 147.304   2
  -3   4  10 1114.92 115.198   3
  -3   4  10 1466.75 250.536   6
  -3   4   9 276.522 59.3943   3
  -3   4   9 341.194 122.230   6
   3  -4  -9 252.586 60.5494   2
   3  -4  -8 2239.23 174.401   2
  -3   4   8 2419.83 293.083   6
  -3   4   8 2170.66 168.052   3
   3  -4  -7 7904.34 317.378   2
  -3   4   7 7536.48 501.886   6
  -3   4   7 8043.13 331.561   3
  -3   4   6 4586.58 246.245   3
   3  -4  -6 4824.61 229.417   2
  -3   4   6 4494.08 368.354   6
   3  -4  -6 4859.77 194.904   5
  -3   4   5 4707.96 228.286   5
  -3   4   5 4929.08 363.357   6
  -3   4   5 4951.30 254.793   3
   3  -4  -5 5300.84 187.293   5
  -3   4   4 773.180 81.5829   5
  -3   4   4 662.965 86.3982   1
  -3   4   4 724.850 135.215   6
  -3   4   4 840.437 100.869   3
   3  -4  -4 754.692 63.4463   5
  -3   4   3 504.958 79.8512   3
  -3   4   3 486.840 69.8061   1
   3  -4  -3 339.013 44.8480   5
  -3   4   2 402.463 68.4695   3
  -3   4   2 409.519 62.7325   1
   3  -4  -2 279.029 44.2226   5
   3  -4  -1 26313.9 586.823   5
  -3   4   1 27654.6 647.886   3
   3  -4   0 1910.93 167.060   1
  -3   4   0 1688.54 142.657   3
   3  -4   1 9055.49 394.473   1
  -3   4  -1 10012.7 431.504   4
  -3   4  -1 9499.06 350.507   3
   3  -4   2 395.825 81.2904   1
  -3   4  -2 518.783 77.5135   3
  -3   4  -2 728.145 117.206   4
  -3   4  -2 641.649 107.774   7
  -3   4  -3 457.910 74.5612   3
  -3   4  -3 407.302 84.1504   7
   3  -4   3 439.496 89.4556   1
  -3   4  -3 495.071 100.863   4
   3  -4   4 12541.2 527.360   1
  -3   4  -4 12296.2 407.079   3
   3  -4   5 11161.5 526.759   1
  -3   4  -5 11959.9 401.176   3
   3  -4   6 6878.18 427.291   1
  -3   4  -6 6974.85 294.343   3
   3  -4   7 5502.35 400.887   1
  -3   4  -7 5660.18 256.919   3
   3  -4   8 993.928 177.704   1
  -3   4  -8 935.598 98.5804   3
   3  -4   9 94.3007 63.7053   1
   3  -4  10-111.174 68.2269   1
   3  -4  11 795.297 181.995   1
   3  -3 -15 167.899 76.7519   2
   3  -3 -14 1025.71 169.228   2
   3  -3 -13 13.8140 33.9481   2
   3  -3 -12 3419.52 271.927   2
   3  -3 -11 24828.4 741.823   2
  -3   3  10 669.030 84.6631   3
   3  -3 -10 691.165 106.418   2
  -3   3   9 12438.3 391.244   3
   3  -3  -9 11395.4 437.164   2
   3  -3  -8 33.8800 26.6346   5
  -3   3   8 11.4377 14.0366   3
  -3   3   8 101.565 67.1729   6
   3  -3  -8 34.7151 27.8695   2
   3  -3  -7 32931.8 693.812   5
   3  -3  -7 32786.2 739.101   2
  -3   3   7 31497.2 1012.99   6
  -3   3   7 32986.8 708.732   3
  -3   3   6 13720.8 608.073   6
   3  -3  -6 14317.2 394.932   5
  -3   3   6 14423.0 432.109   3
  -3   3   5 97593.8 1875.52   6
   3  -3  -5 101190. 1477.03   5
  -3   3   5 97222.3 1549.55   3
  -3   3   4 3774.44 210.866   5
  -3   3   4 4169.03 288.682   6
   3  -3  -4 3988.12 188.785   5
  -3   3   4 3993.91 214.428   3
   3  -3  -3 2087.18 138.807   5
  -3   3   3 2048.50 144.672   5
  -3   3   3 1929.66 143.879   3
   3  -3  -2 3766.98 198.232   5
   3  -3  -2 3691.09 193.182   4
  -3   3   2 3470.69 195.895   3
   3  -3  -1 6955.44 292.206   5
  -3   3   1 6857.12 279.394   3
   3  -3   0 6772.67 322.481   1
  -3   3   0 6427.32 279.453   4
  -3   3   0 6358.99 267.601   3
  -3   3  -1-4.06404 14.8889   3
  -3   3  -1 18.1764 18.0185   4
   3  -3   1 21.0110 24.8799   1
   3  -3   2 35926.0 884.504   1
  -3   3  -2 37033.5 747.451   3
  -3   3  -3 4907.97 236.425   3
   3  -3   3 6024.35 336.800   1
  -3   3  -4 42.4624 25.8612   3
   3  -3   4 63.8537 42.8904   1
   3  -3   5 33954.0 963.091   1
  -3   3  -5 34928.6 710.155   3
   3  -3   6 63134.0 1462.55   1
  -3   3  -6 64470.4 1097.79   3
   3  -3   7 21246.0 803.534   1
  -3   3  -7 21526.8 519.904   3
  -3   3  -8 20410.7 484.844   3
   3  -3   8 19452.2 807.329   1
   3  -3   9 339.208 105.822   1
   3  -3  10 3085.28 340.380   1
   3  -3  11 5275.79 470.283   1
   3  -3  12 1250.84 238.281   1
   3  -2 -15-88.4253 55.1186   2
   3  -2 -14 614.955 129.706   2
   3  -2 -13 79.4177 54.8842   2
   3  -2 -12 8756.53 441.168   2
   3  -2 -11 1748.77 187.077   2
   3  -2 -10 11165.5 455.643   2
  -3   2  10 11460.5 347.408   3
  -3   2   9 5857.32 246.042   3
   3  -2  -9 6489.56 323.003   2
   3  -2  -9 6441.74 310.927   5
   3  -2  -8 6446.82 309.933   2
   3  -2  -8 6649.80 301.072   5
  -3   2   8 6767.44 268.239   3
   3  -2  -7 7625.00 326.156   2
  -3   2   7 7888.73 292.436   3
   3  -2  -7 7918.46 316.219   5
   3  -2  -6 306.116 58.7857   5
  -3   2   6 316.039 56.3291   3
  -3   2   5 23830.4 711.155   6
   3  -2  -5 24357.0 586.568   5
   3  -2  -4 1268.34 119.627   5
  -3   2   4 1128.90 132.083   6
   3  -2  -3 153.629 42.3922   5
  -3   2   3 81.1102 24.7468   5
  -3   2   3 106.467 33.4369   6
   3  -2  -2 1126.38 114.875   5
   3  -2  -2 1024.19 73.1986   4
   3  -2  -2 1192.41 124.382   6
   3  -2  -1 25002.2 638.188   5
   3  -2  -1 26760.9 659.492   6
   3  -2   0 3644.94 236.274   1
  -3   2   0 2786.20 145.020   4
   3  -2   1 7035.89 343.356   1
   3  -2   2 53097.5 1129.21   1
  -3   2  -3 868.653 89.3771   3
   3  -2   3 739.838 115.759   1
   3  -2   4 4459.50 300.521   1
  -3   2  -4 4042.84 198.930   3
   3  -2   5 7803.15 423.654   1
  -3   2  -5 7563.55 273.404   3
   3  -2   6 5571.45 374.303   1
  -3   2  -6 5304.34 223.622   3
   3  -2   7 4094.17 335.440   1
  -3   2  -7 3728.47 179.303   3
   3  -2   8 5084.28 396.596   1
  -3   2  -8 5197.69 208.083   3
   3  -2   9 550.193 136.324   1
   3  -2  10 65.5415 58.4990   1
   3  -2  11 1000.87 201.201   1
   3  -2  12 222.513 95.3418   1
   3  -1 -15 294.364 98.7249   2
   3  -1 -14 415.729 108.103   2
   3  -1 -13 811.840 142.579   2
   3  -1 -12 10.6388 35.6203   2
   3  -1 -11 11905.7 494.824   2
  -3   1  10 170.710 36.7155   3
   3  -1 -10 241.884 60.1584   5
   3  -1 -10 321.130 77.6266   2
   3  -1  -9 12781.1 472.662   2
   3  -1  -9 13077.7 473.566   5
   3  -1  -8 1441.64 142.133   5
   3  -1  -8 1462.11 146.858   2
   3  -1  -7 2874.99 195.458   5
   3  -1  -6 13586.0 446.409   5
   3  -1  -5 33927.6 768.118   5
  -3   1   4 936.891 102.521   6
   3  -1  -4 1084.27 118.414   5
   3  -1  -3 19868.2 561.529   5
  -3   1   3 19856.7 471.008   6
   3  -1  -2 1853.85 159.530   5
   3  -1  -2 1888.46 120.645   6
   3  -1  -1 11888.9 434.908   5
   3  -1   0 7297.35 345.403   1
   3  -1   1 27093.8 730.522   1
   3  -1   2 5.49728 26.3945   1
   3  -1   3 38696.9 954.092   1
   3  -1   4 3695.24 273.409   1
   3  -1   5 6814.99 394.450   1
   3  -1   6 1495.46 192.697   1
   3  -1   7 10052.4 532.468   1
  -3   1  -7 10136.3 297.607   3
   3  -1   8 1205.47 193.189   1
   3  -1   9 3199.83 329.744   1
   3  -1  10 127.937 84.1131   1
   3  -1  11 106.206 80.8732   1
   3  -1  12 1857.48 290.533   1
   3   0 -15 168.652 76.3957   2
   3   0 -14 2197.26 236.391   2
   3   0 -13 299.946 87.8597   2
   3   0 -12 1585.75 184.822   2
   3   0 -11 4596.10 302.170   2
   3   0 -11 4852.07 311.557   5
   3   0 -10 7037.82 359.254   2
   3   0 -10 7343.76 369.913   5
   3   0  -9 17160.8 560.552   2
   3   0  -9 17596.1 572.554   5
   3   0  -8 13620.6 477.645   2
   3   0  -8 13966.0 487.753   5
   3   0  -7 6610.24 322.840   5
   3   0  -6 63183.2 1211.32   5
   3   0  -5 25023.5 670.232   5
   3   0  -4 96.3607 43.1247   5
   3   0  -3 39636.4 895.665   5
   3   0  -3 41067.3 646.593   4
  -3   0   3 39267.3 637.836   6
   3   0  -2 32725.9 791.103   5
   3   0  -1 20098.9 609.722   5
   3   0   0 4949.73 286.501   1
   3   0   0 5426.19 306.018   5
  -3   0   0 5280.39 260.552   7
   3   0   1 37618.1 909.338   1
  -3   0  -1 38480.0 808.616   7
   3   0   2 1880.72 182.851   1
  -3   0  -2 2068.20 162.036   7
   3   0   3 84457.4 1603.56   1
   3   0   4 3438.28 266.845   1
   3   0   5 1489.47 181.525   1
   3   0   6 2932.63 269.173   1
   3   0   7 16279.5 687.993   1
   3   0   8 120.875 72.3441   1
   3   0   9 543.546 146.984   1
   3   0  10 1973.45 277.395   1
   3   0  11 15.3872 29.8623   1
   3   0  12 1038.81 219.189   1
   3   1 -15 1963.21 241.970   2
   3   1 -14-22.4283 26.0615   2
   3   1 -13 921.409 150.019   2
   3   1 -12 2028.92 210.444   2
   3   1 -11 25.3520 32.6323   5
   3   1 -11 18.1547 31.7911   2
   3   1 -10 20792.0 648.351   2
   3   1 -10 19411.2 651.837   5
   3   1  -9 508.740 93.0769   2
   3   1  -9 396.545 87.0677   5
   3   1  -8 613.734 101.580   5
   3   1  -7 3019.55 224.677   5
   3   1  -6 48596.9 1050.80   5
   3   1  -5 1390.17 150.670   5
   3   1  -4 35807.2 862.943   5
   3   1  -4 35148.6 728.358   4
   3   1  -3 11823.0 462.733   5
   3   1  -3 12341.4 355.148   4
   3   1  -2 5953.64 318.044   5
  -3  -1   2 6244.50 226.032   4
   3   1  -1 6445.14 341.505   5
   3   1   0 6445.89 345.115   5
  -3  -1   0 6838.58 275.644   7
   3   1   1 24879.2 714.898   1
  -3  -1  -1 24393.1 581.013   7
   3   1   2 2610.24 220.426   1
   3   1   3 32162.2 878.743   1
   3   1   4 17420.6 639.568   1
   3   1   5 362.603 90.0972   1
   3   1   6 6017.02 393.470   1
   3   1   7 3817.53 325.756   1
   3   1   8 8590.58 517.042   1
   3   1   9 1388.67 217.308   1
   3   1  10 1407.47 234.090   1
   3   1  11 76.3149 59.4706   1
   3   1  12 909.261 199.099   1
   3   2 -15 9.81520 28.6544   2
   3   2 -14 399.760 108.846   2
   3   2 -13 165.050 67.3541   2
   3   2 -12 2716.42 245.375   2
   3   2 -12 2764.47 257.377   5
   3   2 -11 2688.85 230.872   2
   3   2 -11 2566.29 241.714   5
   3   2 -10 14846.1 539.504   2
   3   2 -10 14136.4 556.238   5
   3   2  -9 2997.26 239.566   5
   3   2  -9 2747.58 216.038   2
   3   2  -8 3554.12 254.197   5
   3   2  -7 3657.53 256.179   5
   3   2  -6 16877.5 576.213   5
   3   2  -5 4269.70 263.678   4
   3   2  -5 4353.05 281.582   5
   3   2  -4 5526.96 316.045   5
   3   2  -4 6242.61 305.923   4
   3   2  -3 4324.87 279.612   5
   3   2  -2 3800.12 260.898   5
  -3  -2   2 4281.21 231.310   4
  -3  -2   2 4128.05 175.187   6
   3   2  -1 6773.56 361.939   5
  -3  -2   1 6893.22 253.421   7
   3   2   0 7181.03 381.976   5
  -3  -2   0 7511.11 264.491   7
   3   2   0 7338.55 282.248   6
   3   2   1-16.1849 33.2096   1
   3   2   1 19.0633 20.8904   5
   3   2   1 36.3347 23.8640   6
   3   2   2 25104.9 750.988   1
   3   2   3 2252.52 216.482   1
   3   2   4 3320.19 273.668   1
   3   2   5 2873.00 263.909   1
   3   2   6 10705.7 539.826   1
   3   2   7 335.521 104.339   1
   3   2   8 3633.72 335.320   1
   3   2   9 676.733 153.190   1
   3   2  10 998.097 194.768   1
   3   2  11 127.053 53.5821   1
   3   2  12 293.214 115.906   1
   3   3 -15 12.4100 37.2018   2
   3   3 -14 1757.32 216.011   2
   3   3 -13 654.613 125.173   2
   3   3 -12 58.6555 44.4216   5
   3   3 -12 80.8747 55.8131   2
   3   3 -11 15145.2 574.477   2
   3   3 -11 14406.1 597.303   5
   3   3 -10 6646.48 353.698   2
   3   3 -10 6291.39 372.188   5
   3   3  -9 9407.65 412.772   2
   3   3  -9 9961.93 459.133   5
   3   3  -8 4473.53 296.171   5
   3   3  -7 3790.96 301.974   4
   3   3  -7 4024.56 279.514   5
   3   3  -6 733.261 118.837   5
   3   3  -6 491.592 108.865   4
   3   3  -5 38553.2 984.235   4
   3   3  -5 36561.7 939.467   5
   3   3  -4 4490.52 292.128   5
   3   3  -4 4443.36 293.452   4
   3   3  -3 4764.44 302.130   5
  -3  -3   3 5453.75 272.234   6
   3   3  -2 7058.78 377.410   5
  -3  -3   2 7600.16 232.303   7
  -3  -3   2 7909.40 326.335   6
   3   3  -1 667.164 114.602   5
  -3  -3   1 556.563 56.0221   7
   3   3   0 1796.59 203.003   5
   3   3   0 1657.84 156.166   6
   3   3   1 305.005 84.1674   5
   3   3   1 265.012 66.6407   6
   3   3   2 35067.6 922.660   1
   3   3   2 35700.1 934.001   6
   3   3   3 981.307 153.390   1
   3   3   3 925.393 150.583   6
   3   3   4 574.014 117.009   1
   3   3   5 6478.45 410.523   1
   3   3   6 11829.8 579.082   1
   3   3   7 30459.5 1010.24   1
   3   3   8 5715.35 431.923   1
   3   3   9 3973.04 378.087   1
   3   3  10-102.160 65.8179   1
   3   3  11-130.046 78.4299   1
   3   3  12 203.034 98.2867   1
   3   4 -14 1559.40 203.685   2
   3   4 -13 235.341 76.5940   2
   3   4 -12 7606.99 417.370   2
   3   4 -12 7737.26 451.447   5
   3   4 -11 2884.32 244.325   2
   3   4 -11 2932.91 267.984   5
   3   4 -10 14426.4 538.186   2
   3   4 -10 14643.5 590.372   5
   3   4  -9 18714.8 661.893   5
   3   4  -9 18756.5 607.052   2
   3   4  -9 18765.4 806.443   4
   3   4  -8 849.560 114.423   2
   3   4  -8 845.533 161.945   4
   3   4  -8 1039.23 144.674   5
   3   4  -7 25.6709 28.1407   5
   3   4  -7-31.9135 34.1400   4
   3   4  -6 123.005 55.7304   5
   3   4  -6 189.310 69.7892   4
   3   4  -5 13750.4 612.535   4
   3   4  -5 14687.4 561.180   5
   3   4  -4 22412.5 712.374   5
   3   4  -3 8866.20 427.174   5
  -3  -4   3 8809.69 201.140   7
   3   4  -2 2624.66 234.296   5
   3   4  -1 10461.3 477.663   5
   3   4   0 1515.85 183.164   5
   3   4   1 25355.5 822.878   5
   3   4   1 25802.8 788.717   6
   3   4   2 8642.47 473.418   5
   3   4   2 8164.56 453.046   6
   3   4   3 193.621 62.8592   1
   3   4   3 184.951 74.4080   6
   3   4   4 2501.77 243.838   1
   3   4   4 2362.72 272.306   6
   3   4   5 14099.2 623.041   1
   3   4   5 14517.3 727.289   6
   3   4   6 3694.69 322.735   1
   3   4   7 508.460 126.822   1
   3   4   8 1596.23 230.358   1
   3   4   9 10884.0 642.559   1
   3   4  10 122.965 72.2249   1
   3   4  11 339.964 121.160   1
   3   4  12 99.7349 85.8657   1
   3   5 -14 231.082 81.5147   2
   3   5 -13 1769.21 208.815   2
   3   5 -13 1056.60 224.593   4
   3   5 -12 333.967 90.8767   5
   3   5 -12 188.187 59.7953   2
   3   5 -12 249.943 99.5606   4
   3   5 -11 819.856 146.960   5
   3   5 -11 736.332 178.095   4
   3   5 -11 701.363 120.034   2
   3   5 -10 330.208 91.5871   5
   3   5 -10 143.275 81.3389   4
   3   5 -10 361.298 71.8454   8
   3   5 -10 225.409 65.5089   2
   3   5  -9 3918.69 261.860   2
   3   5  -9 3618.23 286.014   5
   3   5  -8 1064.65 194.546   4
   3   5  -8 1056.16 130.657   2
   3   5  -8 1116.69 151.829   5
   3   5  -7 8710.99 557.065   4
   3   5  -7 8776.59 438.763   5
   3   5  -6 4970.98 406.416   4
   3   5  -6 5553.72 342.392   5
   3   5  -5 2305.63 218.234   5
   3   5  -4 9939.70 470.895   5
   3   5  -3 1559.01 180.205   5
   3   5  -2 13483.5 555.724   5
   3   5  -1 482.895 105.411   5
   3   5   0 214.602 73.0786   5
   3   5   1-26.4515 29.0164   5
   3   5   1 2.34624 28.7101   6
   3   5   2 3709.82 315.277   5
   3   5   2 3446.24 314.876   6
   3   5   3 8319.93 496.306   5
   3   5   3 8247.22 516.435   6
   3   5   4 7511.70 517.684   6
   3   5   5 372.087 98.8608   1
   3   5   5 317.166 123.232   6
   3   5   6 3229.56 303.957   1
   3   5   6 3867.30 414.314   6
   3   5   7 2414.72 272.750   1
   3   5   7 2220.75 181.500   8
   3   5   7 2127.12 323.018   6
   3   5   8 948.786 179.325   1
   3   5   8 787.092 203.219   6
   3   5   9 1039.25 194.086   1
   3   5   9 1136.56 259.687   6
   3   5  10 242.897 138.821   6
   3   5  11-80.9014 84.2624   6
   3   6 -14 95.8518 54.9527   2
   3   6 -13 344.286 133.965   4
   3   6 -13 538.692 116.793   2
   3   6 -12 112.198 57.8410   5
   3   6 -12 40.7816 44.5245   2
   3   6 -11 20.3409 36.9041   5
   3   6 -11 2.96787 30.2122   4
   3   6 -11-2.25293 22.6555   2
   3   6 -10 2390.65 213.866   2
   3   6 -10 2586.10 201.331   8
   3   6 -10 1941.46 299.451   4
   3   6 -10 2310.79 237.898   5
   3   6  -9 1253.53 140.020   8
   3   6  -9 1049.44 219.030   4
   3   6  -9 1130.38 140.400   2
   3   6  -9 1145.65 165.329   5
   3   6  -8 6353.52 326.285   2
   3   6  -8 6197.00 516.153   4
   3   6  -8 6202.97 318.785   8
   3   6  -8 5957.31 372.012   5
   3   6  -7 2230.84 300.976   4
   3   6  -7 1905.31 203.121   5
   3   6  -6 623.620 124.507   5
   3   6  -5 2293.37 221.630   5
   3   6  -4 12981.6 549.994   5
   3   6  -3 1595.38 188.996   5
   3   6  -2 4576.08 322.862   5
   3   6  -1 3267.64 276.649   5
   3   6   0-17.0840 26.5897   5
   3   6   1 3429.62 297.038   5
   3   6   2 457.272 114.647   5
   3   6   2 548.371 136.397   6
   3   6   3 13706.6 655.840   5
   3   6   3 13179.7 703.625   6
   3   6   4 185.980 80.1766   5
   3   6   4 98.5740 69.5266   6
   3   6   5 5791.52 452.243   5
   3   6   5 4553.92 279.988   8
   3   6   5 5870.51 510.473   6
   3   6   6 335.274 134.924   6
   3   6   6 210.683 62.8507   8
   3   6   7 1740.67 301.901   6
   3   6   8 49.8339 75.1280   6
   3   6   9 3904.25 504.776   6
   3   6  10 257.368 138.165   6
   3   7 -11 18.7167 38.0718   5
   3   7 -11 1.54911 35.6116   4
   3   7 -10 2742.65 226.308   8
   3   7 -10 2320.27 351.674   4
   3   7 -10 2606.51 261.776   5
   3   7  -9 354.672 93.1403   5
   3   7  -9 320.649 139.554   4
   3   7  -9 414.429 83.2813   2
   3   7  -9 439.228 92.6107   8
   3   7  -8 6091.86 548.834   4
   3   7  -8 6400.82 344.607   8
   3   7  -8 6330.67 326.526   2
   3   7  -8 5865.80 376.446   5
   3   7  -7 69.0792 38.9295   2
   3   7  -7-1.07442 21.3081   5
   3   7  -7 69.7438 42.5915   8
   3   7  -6 173.613 65.4451   5
   3   7  -6 106.171 47.2436   8
   3   7  -5 2519.43 211.990   8
   3   7  -5 2595.76 242.817   5
   3   7  -4 9110.69 414.084   8
   3   7  -4 9017.33 458.338   5
   3   7  -3 1354.84 175.722   5
   3   7  -2 21829.3 751.225   5
   3   7  -1 40.8955 34.0015   5
   3   7   0 1346.07 183.187   5
   3   7   1 873.704 155.223   5
   3   7   2 53.1764 48.3795   5
   3   7   2 9.04548 31.2933   8
   3   7   3 9475.77 432.996   8
   3   7   3 8004.40 583.420   6
   3   7   4 686.784 159.304   5
   3   7   4 596.444 106.098   8
   3   7   4 743.368 180.100   6
   3   7   5 2374.40 293.543   5
   3   7   5 2801.71 230.252   8
   3   7   5 2396.67 339.832   6
   3   7   6 529.976 144.267   5
   3   7   6 564.100 104.537   8
   3   7   6 483.047 169.088   6
   3   7   7-57.6657 65.9336   6
   3   7   8 3311.18 459.776   6
   3   7   9 287.986 142.755   6
   3   8 -11 200.307 97.6016   5
   3   8 -10 1636.56 318.371   4
   3   8 -10 2076.16 207.718   8
   3   8 -10 2037.31 231.927   5
   3   8  -9 510.866 116.408   5
   3   8  -9 296.137 89.4753   8
   3   8  -8 6433.95 370.961   8
   3   8  -8 5799.68 377.938   5
   3   8  -7 517.698 106.953   5
   3   8  -7 690.281 124.702   8
   3   8  -6-18.9822 46.5343   5
   3   8  -6-20.0692 38.9289   8
   3   8  -5 157.071 59.8705   5
   3   8  -5 224.442 67.3481   8
   3   8  -4 3540.01 269.898   8
   3   8  -4 3622.07 289.877   5
   3   8  -3 402.645 99.9980   5
   3   8  -3 391.355 88.1707   8
   3   8  -2 422.071 96.1987   5
   3   8  -2 397.140 85.4672   8
   3   8  -1 508.497 107.640   5
   3   8  -1 611.173 112.237   8
   3   8   0 132.086 58.5859   5
   3   8   0 136.426 55.3955   8
   3   8   1 92.3334 58.1055   8
   3   8   2 2023.63 208.721   8
   3   8   3 65.9498 33.7698   8
   3   8   4 3303.97 265.491   8
   3   8   5 327.375 84.1298   8
   3   8   5 235.697 113.715   6
   3   8   6 85.7892 43.7719   8
   3   8   6 5.73975 48.3965   6
   3   8   7 1234.77 281.908   6
   3   9 -10 235.934 75.6501   8
   3   9  -9 2102.02 224.776   8
   3   9  -8 527.913 108.079   8
   3   9  -7 2742.67 255.710   8
   3   9  -6 993.119 157.072   8
   3   9  -5 155.468 68.9761   8
   3   9  -4 251.687 82.3351   8
   3   9  -3 4560.14 326.109   8
   3   9  -2 1084.59 160.164   8
   3   9  -1 2369.69 239.882   8
   3   9   0 1202.66 166.720   8
   3   9   1 162.501 69.5199   8
   3   9   2 2174.36 227.676   8
   3   9   3 68.6075 45.8936   8
   3   9   4 4673.90 340.545   8
   3   9   5 1.08163 40.8186   8
   3   9   6 1140.55 170.481   8
  -4   9   9 153.955 67.1828   3
  -4   9   8-66.2452 44.9321   3
  -4   9   7 75.4062 59.2613   3
  -4   9   6 1647.77 207.633   3
  -4   9   5-11.1746 31.7110   3
  -4   9   4 1223.23 176.953   3
  -4   9   3 237.261 79.9509   3
  -4   9   2 114.621 56.2073   3
  -4   9   1 1779.51 230.797   7
  -4   9   1 1831.80 210.080   3
  -4   9   0 179.326 77.7905   3
  -4   9   0 66.6155 30.9752   7
  -4   9  -1 4129.79 343.385   7
  -4   9  -1 4170.54 320.072   3
  -4   9  -2 180.376 68.4508   3
  -4   9  -2 91.1922 56.8265   7
  -4   9  -3 3339.45 304.399   7
  -4   9  -3 2893.91 266.948   3
  -4   9  -4 1537.26 196.193   3
  -4   9  -5 508.864 112.174   3
  -4   9  -6 343.313 94.0319   3
  -4   8  10 2730.39 415.216   6
  -4   8   9-0.78368 17.0941   3
  -4   8   9 17.5008 43.2592   6
  -4   8   8 245.554 78.3958   3
  -4   8   7 73.1192 43.7216   3
  -4   8   6 3885.72 297.184   3
  -4   8   5 82.8507 50.0268   3
  -4   8   4 3220.44 270.463   3
  -4   8   3 90.8471 46.4138   3
  -4   8   2 124.743 50.4500   3
  -4   8   1 38.7901 43.3058   3
  -4   8   0 70.5974 36.5508   3
  -4   8   0 362.700 105.997   7
  -4   8  -1 2858.00 280.422   7
  -4   8  -1 2994.76 255.585   3
  -4   8  -2 274.173 83.8428   3
  -4   8  -2 272.117 84.4495   7
  -4   8  -3 3172.70 294.054   7
  -4   8  -3 3236.02 262.954   3
  -4   8  -4 183.065 66.1812   3
  -4   8  -5 42.9347 38.8194   3
  -4   8  -5 62.9892 77.8756   4
  -4   8  -6 5688.98 531.768   4
  -4   8  -6 5795.27 359.015   3
  -4   8  -7 345.650 87.9343   3
  -4   8  -7 177.864 98.0425   4
  -4   8  -8 767.912 201.293   4
  -4   7  11 228.527 138.146   6
  -4   7  10 6687.04 624.798   6
  -4   7   9 797.712 129.752   3
  -4   7   9 597.621 184.382   6
  -4   7   8 1723.29 192.383   3
  -4   7   8 2078.67 319.640   6
  -4   7   7 2873.77 246.209   3
  -4   7   6 2156.68 210.567   3
  -4   7   5 14133.6 561.888   3
  -4   7   4 2208.21 212.201   3
  -4   7   3 1059.54 147.019   3
  -4   7   2 103.695 49.0946   3
  -4   7   1 7584.20 394.851   3
  -4   7   0 611.686 110.381   3
  -4   7   0 623.723 125.289   7
  -4   7  -1 324.694 80.4422   3
  -4   7  -1 228.288 74.2024   7
  -4   7  -2 1882.10 219.761   7
  -4   7  -2 2479.71 219.213   3
  -4   7  -3 75.9586 35.5252   3
  -4   7  -3 145.572 65.3321   7
   4  -7   3 143.192 63.2573   1
  -4   7  -4 386.927 85.7488   3
  -4   7  -4 536.247 138.991   4
   4  -7   4 424.286 113.906   1
   4  -7   5 458.379 119.282   1
  -4   7  -5 335.697 83.1087   3
  -4   7  -5 196.883 93.7725   4
   4  -7   6 5165.13 434.360   1
  -4   7  -6 4106.43 422.863   4
  -4   7  -6 4740.75 301.241   3
  -4   7  -7 326.898 78.6494   3
   4  -7   7 37.2175 43.8093   1
  -4   7  -7 210.225 93.8716   4
   4  -7   8 4014.45 416.321   1
  -4   7  -8 3095.35 389.206   4
   4  -7   9 1348.41 257.742   1
  -4   7  -9 1117.23 239.548   4
  -4   6  13 620.845 198.401   6
  -4   6  12 185.329 109.132   6
  -4   6  11 312.771 137.127   6
  -4   6  10 2856.14 393.274   6
  -4   6  10 3289.34 249.124   3
  -4   6   9 805.184 120.681   3
  -4   6   9 835.018 199.721   6
  -4   6   8 2462.74 328.377   6
  -4   6   8 2168.32 204.685   3
  -4   6   7 2660.59 331.567   6
  -4   6   7 2959.71 238.073   3
   4  -6  -6 1825.50 140.658   2
  -4   6   6 1863.37 189.236   3
   4  -6  -5 11510.0 358.894   2
  -4   6   5 10773.0 463.746   3
  -4   6   4 334.345 85.9366   3
  -4   6   3 19398.0 636.847   3
  -4   6   2 14304.7 532.091   3
  -4   6   1 3262.57 243.542   3
  -4   6   0 392.130 84.1350   3
   4  -6   0 501.780 98.7416   1
  -4   6  -1 373.178 84.4439   3
   4  -6   1 344.787 84.4026   1
  -4   6  -1 351.226 92.8925   7
   4  -6   2 27926.5 884.881   1
  -4   6  -2 28560.2 903.061   7
  -4   6  -2 29624.5 797.960   3
   4  -6   3 4598.49 352.803   1
  -4   6  -3 4596.70 381.314   4
  -4   6  -3 4689.04 344.217   7
  -4   6  -3 4802.42 294.726   3
  -4   6  -4 7932.15 450.008   7
   4  -6   4 7302.11 463.021   1
  -4   6  -4 6420.48 466.914   4
  -4   6  -4 7051.24 355.963   3
  -4   6  -5 3675.60 253.005   3
   4  -6   5 2625.43 290.700   1
  -4   6  -5 3205.24 336.907   4
  -4   6  -6 3369.70 356.431   4
  -4   6  -6 3973.88 264.229   3
  -4   6  -7 833.528 180.746   4
   4  -6   7 806.997 168.365   1
  -4   6  -7 962.996 127.972   3
   4  -6   8 2092.43 295.030   1
  -4   6  -8 2328.96 316.468   4
   4  -6   9 593.701 171.844   1
  -4   6  -9 435.674 143.147   4
  -4   6 -10-29.2230 43.3544   4
   4  -5 -14 1086.75 176.681   2
  -4   5  14 933.674 249.902   6
   4  -5 -13 1072.53 161.353   2
  -4   5  13 741.253 210.843   6
   4  -5 -12 29.4402 21.1299   2
  -4   5  12 39.5920 65.9880   6
   4  -5 -11 1151.70 150.480   2
  -4   5  11 835.511 204.741   6
   4  -5 -10 1188.57 145.166   2
  -4   5  10 1276.34 147.245   3
  -4   5  10 1211.38 237.994   6
   4  -5  -9 4150.56 259.653   2
  -4   5   9 3710.47 403.235   6
  -4   5   9 4316.21 275.606   3
   4  -5  -8 1128.12 127.230   2
  -4   5   8 885.870 187.759   6
  -4   5   8 1067.77 136.595   3
   4  -5  -7 1064.70 117.206   2
  -4   5   7 1011.99 189.902   6
  -4   5   7 1072.79 134.458   3
  -4   5   6 785.295 158.180   6
   4  -5  -6 650.295 89.1526   2
   4  -5  -6 826.630 76.0940   5
  -4   5   6 1061.52 133.221   3
  -4   5   5 17363.2 569.895   3
   4  -5  -5 17784.4 394.041   5
   4  -5  -4 25.5493 17.5950   5
  -4   5   4 25.7204 28.9011   3
  -4   5   3 7.78978 17.4013   3
   4  -5  -3-14.9302 14.0625   5
   4  -5  -2 9826.11 339.980   5
  -4   5   2 8949.13 388.530   3
  -4   5   1 169.328 53.4414   3
   4  -5  -1 157.997 46.4062   5
  -4   5   0 470.671 85.0677   3
   4  -5   0 433.025 96.9719   1
   4  -5   0 445.695 83.6863   5
   4  -5   1 3548.48 282.845   1
  -4   5  -1 4073.95 312.324   7
  -4   5  -1 3633.35 242.363   3
   4  -5   2 8671.16 465.054   1
  -4   5  -2 9335.01 474.501   7
  -4   5  -2 9063.60 390.765   3
   4  -5   3 2520.52 258.017   1
  -4   5  -3 2197.54 238.304   4
  -4   5  -3 2669.64 251.206   7
  -4   5  -3 2378.58 196.476   3
   4  -5   4 4179.00 343.950   1
  -4   5  -4 4531.08 355.387   4
  -4   5  -4 5285.18 355.629   7
  -4   5  -4 4953.08 284.793   3
   4  -5   5 6945.69 466.886   1
  -4   5  -5 7409.93 476.230   4
  -4   5  -5 7565.95 351.646   3
   4  -5   6 1166.42 195.776   1
  -4   5  -6 973.355 175.495   4
  -4   5  -6 1326.74 143.164   3
   4  -5   7 8141.03 550.548   1
  -4   5  -7 8329.78 363.218   3
   4  -5   8 1153.20 218.015   1
   4  -5   9 83.4914 72.7454   1
   4  -5  10 184.919 95.3400   1
   4  -4 -15 335.917 101.424   2
   4  -4 -14 176.049 70.7389   2
  -4   4  14 75.0459 73.1163   6
   4  -4 -13 2441.55 244.978   2
  -4   4  13 2040.56 331.307   6
  -4   4  12 426.055 131.508   6
   4  -4 -12 554.709 108.433   2
  -4   4  11 481.120 144.466   6
   4  -4 -11 511.683 103.591   2
   4  -4 -10 1505.50 168.780   2
  -4   4  10 1491.81 252.981   6
  -4   4  10 1648.54 159.160   3
   4  -4  -9 12117.4 465.316   2
  -4   4   9 11246.3 671.542   6
  -4   4   9 12018.9 448.091   3
   4  -4  -8 565.119 91.7153   2
   4  -4  -8 560.377 81.9564   5
  -4   4   8 459.650 83.2702   3
  -4   4   8 758.416 166.852   6
   4  -4  -7-9.12440 25.9786   2
   4  -4  -7 38.8236 21.8711   5
  -4   4   7 64.0708 38.9537   3
  -4   4   7 38.8590 24.2212   6
   4  -4  -6 5437.96 243.296   5
  -4   4   6 6291.59 427.095   6
  -4   4   6 5999.89 307.845   3
   4  -4  -5 6797.11 272.865   5
  -4   4   5 6382.45 316.581   3
  -4   4   4 4257.33 253.444   3
   4  -4  -4 4253.97 221.193   5
   4  -4  -3 1809.01 149.595   5
  -4   4   3 1511.06 148.786   3
   4  -4  -2 1449.30 140.908   5
  -4   4   2 1722.61 158.572   3
   4  -4  -1 3113.68 222.736   5
  -4   4   1 3163.48 215.098   3
   4  -4   0 24702.9 720.237   5
   4  -4   0 25118.8 774.705   1
  -4   4   0 26061.5 672.232   3
   4  -4   1 1639.72 189.228   1
  -4   4  -1 1606.66 168.529   4
  -4   4  -1 1681.81 193.006   7
  -4   4  -1 1661.78 154.612   3
   4  -4   2 3051.10 270.432   1
  -4   4  -2 3261.20 252.943   4
  -4   4  -2 3342.03 272.385   7
  -4   4  -2 3204.90 215.968   3
   4  -4   3 10335.0 520.323   1
  -4   4  -3 10358.9 486.099   4
  -4   4  -3 11003.7 508.087   7
  -4   4  -3 10506.1 402.457   3
   4  -4   4 28056.2 931.066   1
  -4   4  -4 29237.4 871.049   7
  -4   4  -4 27489.9 689.070   3
   4  -4   5 10118.9 560.133   1
  -4   4  -5 10807.8 402.227   3
   4  -4   6 4855.41 401.159   1
  -4   4  -6 5038.71 270.283   3
   4  -4   7 981.030 186.368   1
  -4   4  -7 807.593 107.275   3
   4  -4   8 105.764 68.6495   1
   4  -4   9 3172.64 369.679   1
   4  -4  10 359.214 136.183   1
   4  -3 -15 3449.35 323.397   2
   4  -3 -14 83.7511 48.6740   2
   4  -3 -13 556.688 114.154   2
   4  -3 -12 5060.21 342.295   2
   4  -3 -11 5676.04 343.668   2
   4  -3 -10 7457.96 382.106   2
  -4   3  10 7210.49 528.728   6
   4  -3 -10 7369.58 355.311   5
  -4   3  10 8148.54 342.037   3
  -4   3   9 21641.6 890.011   6
  -4   3   9 21367.4 597.467   3
   4  -3  -8 1461.11 152.743   2
  -4   3   8 1699.30 229.095   6
   4  -3  -8 1304.05 133.019   5
  -4   3   8 1473.89 143.696   3
  -4   3   7 1374.17 193.622   6
   4  -3  -7 1404.02 133.714   5
  -4   3   7 1520.89 147.578   3
   4  -3  -6 567.746 88.2396   5
  -4   3   6 521.459 85.6781   3
  -4   3   6 551.402 119.237   6
  -4   3   5 20394.6 578.932   3
  -4   3   5 20046.5 691.348   6
   4  -3  -5 20668.2 577.894   5
   4  -3  -4 1306.27 137.625   5
  -4   3   4 1268.51 131.167   3
   4  -3  -3 73.1323 40.9942   5
  -4   3   3 27.2641 29.9230   3
   4  -3  -3 102.258 32.1022   4
  -4   3   2 344.390 67.1997   3
   4  -3  -2 249.999 65.0311   5
  -4   3   1 1818.85 154.803   3
   4  -3  -1 1842.99 179.597   5
  -4   3   0 10036.8 373.139   3
   4  -3   0 9256.12 449.783   1
  -4   3   0 9835.54 347.507   4
  -4   3  -1 40333.9 861.850   3
   4  -3   1 40300.9 1051.94   1
  -4   3  -1 41976.8 871.013   4
  -4   3  -2 1203.52 124.198   3
   4  -3   2 1341.87 176.466   1
  -4   3  -2 1068.74 150.708   7
   4  -3   3 20433.3 753.403   1
  -4   3  -3 21694.7 714.752   7
  -4   3  -3 21647.7 575.532   3
   4  -3   4 762.947 143.750   1
  -4   3  -4 1031.06 113.971   3
   4  -3   5 4813.74 378.007   1
  -4   3  -5 4948.38 255.224   3
  -4   3  -6 57.4898 30.3715   3
   4  -3   6 56.1992 25.3572   1
   4  -3   7 2599.49 302.579   1
  -4   3  -7 2817.45 186.395   3
   4  -3   8 854.861 179.182   1
   4  -3   9 234.111 99.7952   1
   4  -3  10 1411.58 256.695   1
   4  -3  11 3.29391 27.7088   1
   4  -2 -15 1654.73 223.723   2
   4  -2 -14 1342.13 188.205   2
   4  -2 -13-4.29138 39.1729   2
   4  -2 -12 203.923 59.6573   2
   4  -2 -11 2178.70 213.296   2
   4  -2 -11 1867.25 189.257   5
   4  -2 -10 21134.3 673.962   2
   4  -2 -10 20435.9 645.191   5
  -4   2  10 20211.4 562.391   3
   4  -2  -9 2943.73 229.532   2
   4  -2  -9 3169.12 227.672   5
   4  -2  -8 18068.6 565.857   5
  -4   2   7 7912.70 436.337   6
   4  -2  -7 8501.10 374.282   5
  -4   2   6 274.169 75.8415   6
   4  -2  -6 268.463 67.2474   5
  -4   2   5 5147.03 300.100   6
   4  -2  -5 5353.99 300.211   5
   4  -2  -4 2741.92 213.998   5
  -4   2   4 2492.28 190.121   6
   4  -2  -3 33.1393 35.9299   5
   4  -2  -3 59.2689 13.8752   4
   4  -2  -3 66.7331 26.2760   6
   4  -2  -2 396.002 84.6686   5
   4  -2  -2 427.602 78.6266   6
   4  -2  -1 2312.01 210.869   5
   4  -2   0 147.466 56.2441   1
  -4   2   0 121.052 28.7734   4
   4  -2   1 1949.62 207.442   1
   4  -2   2 220.868 71.0467   1
   4  -2   3 16131.4 660.710   1
  -4   2  -3 16619.5 599.463   7
   4  -2   4 1802.18 219.442   1
  -4   2  -5 20466.6 535.851   3
   4  -2   5 20399.6 801.517   1
  -4   2  -6 49.2329 31.0064   3
   4  -2   6 37.3753 36.3868   1
  -4   2  -7 68.2015 25.1266   3
   4  -2   7 65.0359 47.7058   1
   4  -2   8 33.5906 78.2260   1
   4  -2   9 1362.40 237.580   1
   4  -2  10 911.873 199.077   1
   4  -2  11 1529.84 268.673   1
   4  -1 -15 393.662 117.789   2
   4  -1 -14 1193.62 180.572   2
   4  -1 -13 7.43009 36.7895   2
   4  -1 -12 786.058 130.001   5
   4  -1 -12 580.191 116.966   2
   4  -1 -11 100.349 53.1942   5
   4  -1 -11 100.170 50.2871   2
   4  -1 -10 7349.56 387.863   2
   4  -1 -10 7849.42 399.488   5
   4  -1  -9 38.8582 35.2947   5
   4  -1  -8 13700.7 512.643   5
   4  -1  -7 1854.02 181.225   5
   4  -1  -6 385.453 83.2018   5
  -4   1   6 305.294 71.6032   6
   4  -1  -5-15.3168 30.3748   5
  -4   1   5 52.7341 30.3031   6
   4  -1  -4 4037.60 273.830   5
  -4   1   4 3921.03 197.968   6
   4  -1  -3 1591.15 173.671   5
   4  -1  -2 121.343 52.5842   5
   4  -1  -2 74.4311 25.5416   6
   4  -1  -1 4988.11 319.999   5
   4  -1   0 1027.51 147.465   1
   4  -1   0 1102.68 151.566   5
  -4   1   0 816.985 120.807   7
   4  -1   1 1018.80 154.309   1
  -4   1  -1 842.141 123.652   7
   4  -1   2 8059.82 446.037   1
  -4   1  -2 8035.17 389.468   7
   4  -1   3 4875.10 356.675   1
  -4   1  -3 5185.46 312.094   7
   4  -1   4 9826.01 525.030   1
   4  -1   5 619.327 134.171   1
   4  -1   6 156.358 73.7042   1
  -4   1  -7 1205.70 112.907   3
   4  -1   7 1456.00 225.436   1
   4  -1   8 12543.5 694.398   1
   4  -1   9 1466.31 243.392   1
   4  -1  10 1078.29 216.018   1
   4  -1  11 41.6445 61.0001   1
   4   0 -15-65.1909 53.9047   2
   4   0 -14 5888.83 406.261   2
   4   0 -13 75.3837 36.2250   5
   4   0 -13 40.4068 49.5554   2
   4   0 -12 1117.26 161.938   2
   4   0 -12 1254.14 170.284   5
   4   0 -11 419.916 92.3944   2
   4   0 -11 374.308 92.8130   5
   4   0 -10 1870.72 192.555   2
   4   0 -10 1968.70 201.862   5
   4   0  -9 11999.0 498.286   5
   4   0  -8 3271.43 256.204   5
   4   0  -7 7190.98 381.613   5
   4   0  -6 1506.53 172.678   5
   4   0  -5 13148.5 527.518   5
   4   0  -4 27220.0 795.978   5
   4   0  -4 27601.2 525.396   4
  -4   0   4 26837.6 498.686   6
   4   0  -3 81443.1 1589.74   5
   4   0  -2 78367.6 1569.04   5
   4   0  -1 11130.9 506.925   5
   4   0   0 632.646 118.797   1
   4   0   0 551.761 107.293   5
  -4   0   0 853.073 117.780   7
   4   0   1 2683.45 250.429   1
  -4   0  -1 2820.58 212.267   7
   4   0   2 19099.5 714.543   1
  -4   0  -2 19977.2 610.783   7
   4   0   3 6505.97 416.791   1
   4   0   4 10465.6 549.285   1
   4   0   5 32.6447 21.4225   1
   4   0   6 55.0068 46.6625   1
   4   0   7 1130.78 193.153   1
   4   0   8 962.066 190.547   1
   4   0   9 5145.10 462.834   1
   4   0  10 4558.82 451.148   1
   4   0  11 822.156 195.935   1
   4   1 -15 283.298 92.4611   2
   4   1 -14 4925.09 372.440   2
   4   1 -13 980.928 160.689   5
   4   1 -13 880.848 149.117   2
   4   1 -12 2979.29 265.381   2
   4   1 -12 3287.12 284.356   5
   4   1 -11 120.180 61.1550   2
   4   1 -11 195.852 65.1844   5
   4   1 -10-3.54350 37.7475   2
   4   1 -10-17.0385 23.8128   5
   4   1  -9 10704.0 489.666   5
   4   1  -8 6779.76 386.198   5
   4   1  -7 15004.2 583.397   5
   4   1  -6 8036.97 421.504   5
   4   1  -5 25336.9 792.253   5
   4   1  -5 25576.2 629.646   4
   4   1  -4 21685.7 724.946   5
   4   1  -4 22831.6 552.757   4
   4   1  -3 153551. 2557.64   5
   4   1  -2 3678.86 288.234   5
  -4  -1   2 4416.76 194.265   4
   4   1  -1 36666.2 1021.91   5
  -4  -1   1 38476.0 864.299   7
   4   1   0 23118.0 787.158   5
  -4  -1   0 22120.5 618.455   7
   4   1   1 6821.11 407.635   1
  -4  -1  -1 7588.30 340.611   7
   4   1   2 2775.39 264.437   1
   4   1   3 187.077 72.0578   1
   4   1   4 10431.3 554.428   1
   4   1   5 1808.00 236.308   1
   4   1   6 1303.19 206.400   1
   4   1   7 1325.15 219.440   1
   4   1   8 4762.08 429.423   1
   4   1   9 2918.31 349.318   1
   4   1  10 467.973 139.065   1
   4   1  11 1150.17 242.514   1
   4   2 -15 67.2783 24.0614   2
   4   2 -14 2883.46 283.513   2
   4   2 -13 1628.58 203.740   2
   4   2 -13 1380.43 191.628   5
   4   2 -12 1253.15 181.447   5
   4   2 -12 920.008 146.838   2
   4   2 -11 1418.32 174.995   2
   4   2 -11 1524.78 190.554   5
   4   2 -10 467.471 98.7400   2
   4   2 -10 422.275 100.964   5
   4   2  -9 4490.72 323.465   5
   4   2  -8 1922.74 208.716   5
   4   2  -7 8647.82 426.867   4
   4   2  -7 8490.36 445.861   5
   4   2  -6 249.607 76.4586   5
   4   2  -6 192.233 62.1527   4
   4   2  -5 723.641 127.307   5
   4   2  -5 834.816 116.556   4
   4   2  -4 14729.7 599.625   5
   4   2  -3 2791.53 258.461   5
   4   2  -2 4777.54 336.069   5
   4   2  -1 1981.12 221.054   5
  -4  -2   1 1616.72 142.122   7
   4   2   0 1845.48 217.849   5
  -4  -2   0 2034.96 158.324   7
   4   2   0 1934.72 141.840   6
   4   2   1 113.614 58.2359   5
   4   2   1 126.734 44.1189   6
   4   2   2 1605.58 200.294   1
   4   2   3 6213.57 415.228   1
   4   2   4 428.947 118.031   1
   4   2   5 8462.28 521.325   1
   4   2   6 67.5304 46.1528   1
   4   2   7 32.7717 29.5502   1
   4   2   8 12.9451 29.5157   1
   4   2   9 573.897 152.137   1
   4   2  10 727.161 182.267   1
   4   2  11-48.2401 55.3906   1
   4   3 -14-56.3977 45.4693   5
   4   3 -14-31.1439 42.9685   2
   4   3 -13 716.619 144.653   5
   4   3 -13 612.778 126.290   2
   4   3 -12 482.929 114.462   5
   4   3 -12 506.367 111.726   2
   4   3 -11 160.849 60.2696   2
   4   3 -11 129.035 54.5722   5
   4   3 -10-18.6430 35.2469   2
   4   3 -10-41.9491 43.3511   5
   4   3  -9 621.249 121.792   5
   4   3  -9 449.452 111.504   4
   4   3  -8 7894.25 462.185   4
   4   3  -8 8003.18 443.293   5
   4   3  -7 3301.09 287.139   4
   4   3  -7 3477.16 287.516   5
   4   3  -6 6059.34 377.522   4
   4   3  -6 6464.66 397.513   5
   4   3  -5 787.252 136.145   5
   4   3  -5 751.253 126.538   4
   4   3  -4 14.5910 17.2795   5
  -4  -3   4 30.6195 20.3620   6
   4   3  -3 1591.82 196.647   5
  -4  -3   3 1451.19 125.795   6
   4   3  -2 8495.80 463.064   5
  -4  -3   2 7267.42 284.923   7
   4   3  -1 20.4863 19.7113   5
  -4  -3   1 31.7475 18.2934   7
   4   3   0 9171.53 510.163   5
   4   3   0 8875.45 364.407   6
   4   3   1 95.0147 52.9300   5
   4   3   1 54.5309 29.7652   6
   4   3   2 1762.33 232.154   5
   4   3   2 1937.21 202.502   6
   4   3   3 7616.24 469.015   1
   4   3   3 7617.11 440.593   6
   4   3   4 7827.92 490.592   1
   4   3   5 16705.4 758.592   1
   4   3   6 798.226 168.954   1
   4   3   7 7373.96 532.516   1
   4   3   8-29.2858 34.2541   1
   4   3   9 342.409 125.395   1
   4   3  10 2463.56 345.304   1
   4   3  11 376.599 127.941   1
   4   4 -14 966.812 179.513   5
   4   4 -14 980.414 164.122   2
   4   4 -13 2290.41 241.090   2
   4   4 -13 1855.85 284.961   4
   4   4 -13 2196.22 261.052   5
   4   4 -12 3231.31 364.436   4
   4   4 -12 3535.79 291.515   2
   4   4 -12 3563.15 320.730   5
   4   4 -11 4483.80 414.021   4
   4   4 -11 5160.96 343.172   2
   4   4 -11 5020.20 369.092   5
   4   4 -10 23.7314 39.2851   2
   4   4 -10 5.28370 27.4192   5
   4   4 -10 11.2876 29.7667   4
   4   4  -9 77.1537 46.8511   5
   4   4  -9 53.8799 39.2300   4
   4   4  -8 16531.6 740.350   4
   4   4  -8 16217.2 662.196   5
   4   4  -7 6373.67 444.257   4
   4   4  -7 6850.75 415.857   5
   4   4  -6 24872.1 879.836   4
   4   4  -6 24775.7 829.123   5
   4   4  -5 3074.11 277.367   5
   4   4  -4 428.249 105.753   5
   4   4  -3 755.123 138.041   5
  -4  -4   3 1065.96 86.5415   7
   4   4  -2 259.917 82.1354   5
   4   4  -1 29908.3 953.420   5
   4   4   0 2119.78 251.151   5
   4   4   1 1633.37 222.559   5
   4   4   1 1609.65 185.320   6
   4   4   2 237.677 88.3140   5
   4   4   2 92.8488 55.0909   6
   4   4   3 18946.0 834.029   5
   4   4   3 17975.4 749.573   6
   4   4   4 4051.71 353.658   1
   4   4   4 4297.24 377.122   6
   4   4   5 25558.4 956.830   1
   4   4   5 26227.5 1027.16   6
   4   4   6 1694.63 244.630   1
   4   4   6 1221.52 227.577   6
   4   4   7 1034.26 199.263   1
   4   4   8 1237.39 231.105   1
   4   4   9 315.483 114.441   1
   4   4  10 146.066 95.4872   1
   4   4  11 363.009 139.305   1
   4   5 -14 194.771 121.509   4
   4   5 -14 471.255 121.415   2
   4   5 -13 988.019 174.733   5
   4   5 -13 718.832 185.561   4
   4   5 -13 922.911 159.557   2
   4   5 -12 261.128 87.8746   5
   4   5 -12 235.668 87.7971   4
   4   5 -12 453.217 106.484   2
   4   5 -11-11.9552 25.2548   5
   4   5 -11 55.8562 52.5728   4
   4   5 -11-19.7917 42.1818   2
   4   5 -10 2716.73 336.803   4
   4   5 -10 2801.69 246.525   2
   4   5 -10 2802.57 273.800   5
   4   5  -9 65.3109 41.9690   5
   4   5  -9 57.3537 38.7833   4
   4   5  -8 5960.49 472.219   4
   4   5  -8 5685.53 390.380   5
   4   5  -7 350.765 93.9451   5
   4   5  -7 390.387 117.389   4
   4   5  -6 582.866 122.638   5
   4   5  -5 307.542 90.0987   5
   4   5  -4 63.1419 43.0781   5
   4   5  -3 3085.59 286.790   5
   4   5  -2 408.676 107.593   5
   4   5  -1 5317.56 390.466   5
   4   5   0 451.746 119.234   5
   4   5   1 4401.76 378.733   5
   4   5   2 97.7147 47.0960   5
   4   5   2 73.8123 38.4896   6
   4   5   3 1763.47 250.872   5
   4   5   3 1339.00 209.391   6
   4   5   4 426.141 130.858   5
   4   5   4 403.706 123.698   6
   4   5   5 317.130 104.377   1
   4   5   5 433.831 130.111   6
   4   5   6 293.980 102.271   1
   4   5   6 292.895 109.513   6
   4   5   7-106.348 66.4256   1
   4   5   7-25.8001 44.4218   6
   4   5   8 362.514 120.066   1
   4   5   8 309.118 132.567   6
   4   5   9-115.867 91.1873   6
   4   5  10 215.288 124.260   6
   4   6 -13 103.557 76.5069   4
   4   6 -13 9.99140 51.9468   2
   4   6 -12 2846.95 388.963   4
   4   6 -12 2537.85 255.719   2
   4   6 -12 3335.38 318.781   5
   4   6 -11 45.1083 40.1371   5
   4   6 -11 42.1617 62.4904   4
   4   6 -11-31.5103 29.1901   8
   4   6 -11-4.30633 36.3609   2
   4   6 -10 436.776 99.5266   2
   4   6 -10 504.989 122.832   5
   4   6 -10 482.609 151.617   4
   4   6  -9 299.887 81.7794   2
   4   6  -9 375.604 99.3891   5
   4   6  -9 141.589 89.6439   4
   4   6  -8 2402.21 324.527   4
   4   6  -8 2518.49 262.685   5
   4   6  -7 3826.95 322.386   5
   4   6  -6 736.018 139.895   5
   4   6  -5 5017.41 368.340   5
   4   6  -4 12.0053 38.3141   5
   4   6  -3-85.5462 51.2472   5
   4   6  -2 1694.64 219.916   5
   4   6  -1 7175.68 468.077   5
   4   6   0 1681.30 227.214   5
   4   6   1 3398.24 334.515   5
   4   6   2 54.0902 49.8171   5
   4   6   2 138.950 75.5347   6
   4   6   3 43.1512 40.8991   5
   4   6   3 27.5716 34.3422   6
   4   6   4 4765.36 438.080   5
   4   6   4 4380.55 429.999   6
   4   6   5 46.8383 51.3152   5
   4   6   5 56.8904 56.6663   6
   4   6   6 417.483 138.698   5
   4   6   6 382.679 138.981   6
   4   6   7 2228.87 345.619   6
   4   6   8 230.734 132.759   6
   4   6   9 549.603 194.766   6
   4   7 -11 15.0355 22.8205   5
   4   7 -11 104.987 100.934   4
   4   7 -11 20.3626 32.1178   8
   4   7 -10 56.3135 42.4695   5
   4   7 -10-13.2536 39.0067   4
   4   7 -10-15.5644 40.1021   8
   4   7  -9 1552.83 174.672   8
   4   7  -9 1292.83 257.517   4
   4   7  -9 1335.28 162.333   2
   4   7  -9 1491.86 202.310   5
   4   7  -8 850.966 129.463   2
   4   7  -8 828.740 149.306   5
   4   7  -7 5681.34 398.781   5
   4   7  -6 987.690 168.172   5
   4   7  -5 335.229 89.5569   5
   4   7  -4 3678.23 325.074   5
   4   7  -3 2040.41 238.736   5
   4   7  -2 4722.78 375.073   5
   4   7  -1 3020.79 303.999   5
   4   7   0 13099.4 668.413   5
   4   7   1 2622.49 293.940   5
   4   7   2-18.8292 33.8994   5
   4   7   3 1843.57 266.192   5
   4   7   4 1860.96 282.121   5
   4   7   4 2027.73 305.866   6
   4   7   5 1429.00 251.311   5
   4   7   5 1509.90 185.102   8
   4   7   5 1343.75 258.584   6
   4   7   6 430.472 139.457   5
   4   7   6 518.847 108.030   8
   4   7   6 449.105 163.882   6
   4   8 -10-4.64960 25.0537   5
   4   8 -10-13.6154 27.2042   8
   4   8  -9 759.385 148.282   5
   4   8  -9 883.754 142.118   8
   4   8  -8 221.490 78.8174   5
   4   8  -8 253.483 73.1384   8
   4   8  -7 15.4781 28.9718   5
   4   8  -7-18.7470 33.6639   8
   4   8  -6 1396.66 180.904   8
   4   8  -6 1516.97 205.538   5
   4   8  -5 8040.79 436.596   8
   4   8  -5 7232.02 459.826   5
   4   8  -4 4267.95 313.282   8
   4   8  -4 4176.99 347.180   5
   4   8  -3 2436.84 265.220   5
   4   8  -2 94.9355 39.1268   5
   4   8  -1 2319.57 268.110   5
   4   8   0 9090.17 551.445   5
   4   8   0 9741.36 487.448   8
   4   8   1 1826.36 211.050   8
   4   8   2 705.685 133.080   8
   4   8   3-0.78889 35.8674   8
   4   8   4 2543.37 249.017   8
   4   8   5 1182.17 170.312   8
   4   9  -7 20.6126 30.6982   8
   4   9  -6 838.466 147.038   8
   4   9  -5 224.214 81.1759   8
   4   9  -4 676.148 132.531   8
   4   9  -3 450.158 107.313   8
   4   9  -2 701.668 135.403   8
   4   9  -1 2546.23 257.279   8
   4   9   0 1720.14 212.187   8
   4   9   1 2121.66 239.455   8
   4   9   2 355.355 102.498   8
  -5   9   9 1350.56 198.856   3
  -5   9   8 2210.39 251.092   3
  -5   9   7 1617.46 214.696   3
  -5   9   6-5.08533 27.8281   3
  -5   9   5 134.139 74.1557   3
  -5   9   4 762.250 145.396   3
  -5   9   3 1423.22 195.264   3
  -5   9   2 173.645 81.8779   3
  -5   9   1 1979.75 262.929   7
  -5   9   1 2197.43 247.095   3
  -5   9   0 205.475 82.5052   3
  -5   9   0 10.9524 38.0788   7
  -5   9  -1 366.215 105.665   3
  -5   9  -1 324.557 99.3193   7
  -5   9  -2 2203.28 272.055   7
  -5   9  -2 2627.73 261.216   3
  -5   9  -3 159.280 70.8010   3
  -5   9  -3 123.100 69.0283   7
  -5   9  -4 1845.27 220.988   3
  -5   8   9 2467.13 252.214   3
  -5   8   8 1290.34 182.867   3
  -5   8   7 410.618 107.448   3
  -5   8   6 237.727 72.1588   3
  -5   8   5 1029.75 159.707   3
  -5   8   4 22.7030 20.4398   3
  -5   8   3 2568.61 251.344   3
  -5   8   2 1945.94 216.069   3
  -5   8   1 674.526 129.005   3
  -5   8   1 396.989 114.490   7
  -5   8   0 807.699 141.491   3
  -5   8   0 606.407 142.540   7
  -5   8  -1 1772.25 237.870   7
  -5   8  -1 1532.55 191.053   3
  -5   8  -2 1393.26 210.048   7
  -5   8  -2 1830.82 210.228   3
  -5   8  -3 507.537 113.142   3
  -5   8  -3 499.366 128.313   7
  -5   8  -4 3591.92 289.503   3
  -5   8  -5 97.3238 49.2708   3
  -5   8  -6 1437.96 181.366   3
  -5   7  12 793.376 229.646   6
  -5   7  11 82.3973 75.8501   6
  -5   7  10-16.2730 38.5556   3
  -5   7  10 128.608 87.0045   6
  -5   7   9 659.280 126.465   3
  -5   7   9 710.960 190.332   6
  -5   7   8 442.441 103.963   3
  -5   7   7 517.186 112.990   3
  -5   7   6 72.3421 44.7960   3
  -5   7   5 685.722 128.712   3
  -5   7   4 3856.28 299.952   3
  -5   7   3 3915.84 301.469   3
  -5   7   2 1657.52 194.949   3
  -5   7   1 1193.50 164.768   3
  -5   7   0 5916.55 435.610   7
  -5   7   0 6871.91 398.801   3
  -5   7  -1 7.97102 28.5555   3
  -5   7  -1 82.7853 53.8678   7
  -5   7  -2-1.31755 17.8657   3
  -5   7  -2-134.798 65.0633   7
  -5   7  -3 3122.53 308.096   7
  -5   7  -3 3045.00 258.270   3
  -5   7  -4 4026.19 352.227   7
  -5   7  -4 3926.79 292.603   3
  -5   7  -5 964.064 143.436   3
   5  -7   5 688.782 169.710   1
  -5   7  -6 2306.94 221.770   3
   5  -7   6 1932.98 295.316   1
   5  -7   7-120.009 79.5315   1
   5  -7   8 1865.58 317.989   1
  -5   6  13 2296.34 391.050   6
  -5   6  12 41.8388 82.4080   6
  -5   6  11 277.674 122.712   6
  -5   6  10 1062.42 228.064   6
  -5   6  10 1337.22 173.390   3
  -5   6   9 2973.35 373.269   6
  -5   6   9 3382.98 276.841   3
  -5   6   8 4742.56 449.516   6
  -5   6   8 4671.01 324.531   3
  -5   6   7 4316.98 310.141   3
  -5   6   6 118.500 50.6058   3
  -5   6   5 3978.80 294.063   3
  -5   6   4 16658.9 618.032   3
  -5   6   3 1959.12 202.880   3
  -5   6   2 8595.06 428.656   3
  -5   6   1 1879.53 196.938   3
  -5   6   0 650.486 111.927   3
  -5   6   0 542.537 124.737   7
  -5   6  -1 106.512 55.7159   3
   5  -6   1 130.063 66.7941   1
  -5   6  -1 30.7017 32.8410   7
  -5   6  -2 430.934 94.1793   3
   5  -6   2 331.967 99.5117   1
  -5   6  -2 455.166 120.068   7
  -5   6  -3 580.403 112.273   3
   5  -6   3 506.939 132.209   1
  -5   6  -3 470.971 122.119   7
  -5   6  -4 461.927 99.3690   3
  -5   6  -4 344.597 106.036   7
   5  -6   4 389.389 116.210   1
   5  -6   5 3878.39 395.488   1
  -5   6  -5 3883.19 278.224   3
  -5   6  -6 1598.20 175.703   3
   5  -6   6 1833.16 282.043   1
   5  -6   7 111.976 68.6370   1
   5  -6   8 2091.54 334.089   1
  -5   5  14 1040.72 275.108   6
   5  -5 -14 502.020 117.381   2
   5  -5 -13 2363.24 245.049   2
  -5   5  13 1902.27 350.096   6
  -5   5  12 428.140 148.907   6
   5  -5 -12 526.631 111.185   2
  -5   5  11 173.866 93.6915   6
   5  -5 -11 189.998 63.3365   2
  -5   5  10 831.874 130.038   3
  -5   5  10 723.232 179.745   6
   5  -5 -10 804.255 126.344   2
   5  -5  -9 1535.96 169.037   2
  -5   5   9 1548.13 252.548   6
  -5   5   9 1137.03 152.941   3
   5  -5  -8 6254.54 336.312   2
  -5   5   8 6284.70 491.718   6
  -5   5   8 6483.88 362.711   3
  -5   5   7 1942.91 260.643   6
  -5   5   7 2482.34 219.710   3
  -5   5   6 3123.55 246.230   3
  -5   5   5 570.623 104.581   3
   5  -5  -4 408.444 75.1130   5
  -5   5   4 418.235 91.3209   3
   5  -5  -3 1212.70 137.815   5
  -5   5   3 1274.62 155.137   3
   5  -5  -2 4743.35 292.782   5
  -5   5   2 4791.18 302.798   3
  -5   5   1 148.875 57.7716   3
   5  -5  -1 213.846 64.5448   5
   5  -5   0 696.796 136.836   1
   5  -5   0 969.649 144.470   5
  -5   5   0 1126.10 178.221   7
  -5   5   0 1121.79 144.522   3
  -5   5  -1 39.7142 31.7828   3
   5  -5   1 103.542 51.5286   1
  -5   5  -1 92.5840 47.3013   7
  -5   5  -2 481.823 91.7274   3
   5  -5   2 435.570 115.967   1
  -5   5  -2 585.332 117.785   4
  -5   5  -2 609.513 127.477   7
  -5   5  -3 1055.21 162.733   4
   5  -5   3 869.818 174.040   1
  -5   5  -3 1191.56 180.437   7
  -5   5  -3 1087.56 138.408   3
  -5   5  -4 71.9127 38.1706   3
  -5   5  -4 156.971 60.4228   4
   5  -5   4 155.533 79.7331   1
   5  -5   5 1962.26 275.856   1
  -5   5  -5 1677.34 225.684   4
  -5   5  -5 1783.70 181.792   3
  -5   5  -6 6.65649 28.8301   3
  -5   5  -6-13.0628 29.8022   4
   5  -5   6 52.2924 52.0520   1
   5  -5   7 673.376 171.944   1
   5  -5   8 59.8169 58.2266   1
   5  -5   9 235.657 113.722   1
  -5   4  15 292.824 162.723   6
  -5   4  14 447.253 185.061   6
   5  -4 -14 425.600 114.069   2
   5  -4 -13 1306.94 184.458   2
  -5   4  13 1197.73 258.683   6
  -5   4  12 44.5430 53.9938   6
   5  -4 -12 64.4045 41.6106   2
  -5   4  11 148.406 94.1236   6
   5  -4 -11 111.868 46.4235   2
   5  -4 -10 695.840 117.850   2
  -5   4  10 674.281 114.550   3
  -5   4  10 888.439 189.513   6
   5  -4 -10 981.131 127.591   5
   5  -4  -9-47.5110 46.0251   2
   5  -4  -9 26.4376 27.2108   5
  -5   4   9-24.9002 27.6110   3
  -5   4   9-43.1085 73.8916   6
  -5   4   8 5793.02 444.180   6
   5  -4  -8 6315.06 310.902   5
  -5   4   8 6207.43 345.988   3
   5  -4  -7 17.6368 29.5145   5
  -5   4   7 51.7415 34.3256   3
  -5   4   7 36.5531 33.0343   6
   5  -4  -6 3039.06 215.698   5
  -5   4   6 2821.47 226.299   3
   5  -4  -5 200.398 55.9711   5
  -5   4   5 223.056 65.0445   3
   5  -4  -4 59.2126 32.9003   5
  -5   4   4 61.3302 43.1214   3
   5  -4  -3 2695.55 229.309   5
  -5   4   3 2622.87 216.522   3
  -5   4   2 99.1203 49.9646   3
   5  -4  -2 32.8092 39.3685   5
   5  -4  -1 10872.8 507.301   5
  -5   4   1 11590.5 459.415   3
   5  -4   0 100.898 48.7702   1
  -5   4   0 237.324 65.5510   3
   5  -4   0 146.426 59.2658   5
  -5   4   0 99.2508 43.5014   7
  -5   4  -1 659.887 105.700   3
   5  -4   1 665.839 140.791   1
  -5   4  -1 670.783 104.855   4
  -5   4  -1 547.236 121.929   7
   5  -4   2 3062.70 307.432   1
  -5   4  -2 3200.00 250.245   4
  -5   4  -2 3114.35 286.899   7
  -5   4  -2 2996.27 230.728   3
  -5   4  -3 61.4323 37.9748   3
  -5   4  -3 93.9809 46.5701   4
   5  -4   3 77.1997 60.4955   1
  -5   4  -3 91.5680 56.7197   7
   5  -4   4 10163.0 607.770   1
  -5   4  -4 10149.0 532.220   7
  -5   4  -4 9643.79 413.323   3
  -5   4  -5 171.189 55.7255   3
   5  -4   5 183.842 83.0111   1
   5  -4   6 131.253 79.2020   1
  -5   4  -6 32.3183 25.1086   3
   5  -4   7 62.9186 57.2510   1
   5  -4   8-60.6329 58.7287   1
   5  -4   9 561.806 172.872   1
  -5   3  15 331.403 122.500   6
  -5   3  14 795.534 207.084   6
   5  -3 -14 1073.82 174.419   2
   5  -3 -13 1873.49 224.838   2
  -5   3  13 1794.30 302.653   6
   5  -3 -12 3724.64 301.015   2
  -5   3  12 3419.20 394.694   6
   5  -3 -12 3795.45 288.484   5
   5  -3 -11 6432.10 387.815   2
  -5   3  11 5495.50 477.168   6
   5  -3 -11 6619.60 367.100   5
   5  -3 -10 24.2742 27.6808   2
   5  -3 -10 120.378 52.5337   5
  -5   3  10 149.853 54.3066   3
  -5   3  10 168.146 85.3640   6
  -5   3   9 2175.30 269.949   6
   5  -3  -9 2340.46 204.491   5
  -5   3   9 2498.18 210.727   3
  -5   3   8 1748.50 176.379   3
  -5   3   8 1235.14 193.598   6
   5  -3  -8 1220.75 146.003   5
  -5   3   7 31251.7 805.915   3
  -5   3   7 30760.6 943.264   6
  -5   3   6 1662.54 192.281   6
   5  -3  -6 1925.43 187.567   5
   5  -3  -5 4120.17 282.196   5
   5  -3  -4 113.596 47.3550   5
   5  -3  -4 104.799 23.9046   4
   5  -3  -3 987.716 144.210   5
   5  -3  -2 545.269 108.871   5
   5  -3  -1 1014.34 154.802   5
   5  -3   0 3508.46 308.206   1
   5  -3   0 3981.60 317.592   5
  -5   3   0 3789.41 310.411   7
   5  -3   1 3751.41 329.680   1
  -5   3  -1 3969.99 226.821   4
  -5   3  -1 4038.38 321.173   7
  -5   3  -2 51.2372 40.4088   3
   5  -3   2 1.49402 27.7534   1
  -5   3  -2 49.2323 33.7585   4
  -5   3  -2 77.1278 54.4309   7
  -5   3  -3 3653.10 239.259   3
   5  -3   3 3524.87 341.255   1
  -5   3  -3 3846.33 313.452   7
   5  -3   4 28634.8 1046.95   1
  -5   3  -4 27348.0 726.710   3
   5  -3   5 3629.74 372.385   1
  -5   3  -5 3170.04 224.491   3
   5  -3   6 30392.4 1160.22   1
  -5   3  -6 30135.6 757.116   3
   5  -3   7 264.529 113.905   1
   5  -3   8 28.8727 31.9649   1
   5  -3   9 1258.32 254.602   1
   5  -2 -14 2687.85 279.283   2
   5  -2 -13-10.3026 28.3760   5
   5  -2 -13 54.2778 45.1877   2
   5  -2 -12 14756.9 621.943   2
   5  -2 -12 14399.3 596.966   5
   5  -2 -11 273.513 85.7455   2
   5  -2 -11 346.543 90.9408   5
  -5   2  11 212.361 68.3984   3
   5  -2 -10 6752.77 391.351   2
  -5   2  10 6683.60 475.369   6
   5  -2 -10 6951.74 384.247   5
  -5   2   9 1156.52 186.533   6
   5  -2  -9 1541.60 174.370   5
  -5   2   8 3407.12 292.926   6
   5  -2  -8 3171.73 256.205   5
  -5   2   7 13993.8 569.347   6
   5  -2  -7 14303.0 565.512   5
  -5   2   6 3161.46 239.259   6
   5  -2  -6 3457.48 270.074   5
   5  -2  -5 10420.0 484.841   5
   5  -2  -4-42.4372 33.5872   5
   5  -2  -3 3417.01 278.960   5
   5  -2  -2 411.016 97.8570   5
   5  -2  -2 444.555 81.6111   6
   5  -2  -1 8736.70 474.690   5
   5  -2   0 7632.21 460.616   1
   5  -2   0 8078.05 469.732   5
  -5   2   0 7642.45 243.196   4
  -5   2   0 8463.50 457.728   7
   5  -2   1 3918.13 337.809   1
  -5   2  -1 4093.91 313.218   7
   5  -2   2 280.695 95.5100   1
  -5   2  -2 259.021 80.2310   7
   5  -2   3 32.4937 42.0627   1
  -5   2  -3 66.9635 43.1831   7
   5  -2   4 5566.80 444.326   1
   5  -2   5 978.396 191.848   1
  -5   2  -6 3363.25 223.552   3
   5  -2   6 3612.82 382.403   1
   5  -2   7-13.5141 33.8807   1
   5  -2   8 79.7660 63.4012   1
   5  -2   9-10.8607 42.2248   1
   5  -1 -14 289.525 91.1159   2
   5  -1 -13 1392.33 193.564   2
   5  -1 -13 1275.84 184.298   5
   5  -1 -12 1242.34 177.275   2
   5  -1 -12 1542.45 193.956   5
   5  -1 -11 2879.71 265.194   2
   5  -1 -11 2527.84 242.086   5
   5  -1 -10 2235.85 222.370   5
   5  -1  -9 212.417 72.8527   5
  -5   1   8 2760.49 242.490   6
   5  -1  -8 2631.63 243.157   5
  -5   1   7 12153.9 482.892   6
   5  -1  -7 12109.4 545.069   5
   5  -1  -6 326.597 83.5946   5
  -5   1   6 324.016 65.9410   6
   5  -1  -5 952.817 148.005   5
   5  -1  -5 989.277 65.1345   4
   5  -1  -4 194.014 63.5557   5
   5  -1  -3 1495.79 189.881   5
   5  -1  -2 6411.16 407.481   5
   5  -1  -2 6215.52 231.414   6
   5  -1  -1 979.088 160.404   5
   5  -1   0 9669.81 522.558   1
   5  -1   0 9282.34 520.148   5
  -5   1   0 9922.63 480.859   7
   5  -1   1 27.3117 39.8702   1
  -5   1  -1 25.1186 30.5415   7
   5  -1   2 1163.05 189.147   1
  -5   1  -2 1362.44 173.011   7
   5  -1   3 1045.96 185.213   1
  -5   1  -3 1073.50 154.217   7
   5  -1   4 2065.90 268.824   1
   5  -1   5 841.246 180.172   1
   5  -1   6 1182.39 217.379   1
   5  -1   7 962.313 205.169   1
   5  -1   8 127.728 94.5242   1
   5  -1   9 532.460 159.654   1
   5  -1  10 450.599 159.945   1
   5   0 -14 564.112 131.654   5
   5   0 -14 331.620 92.0090   2
   5   0 -13 1345.45 190.215   2
   5   0 -13 1722.14 219.705   5
   5   0 -12 26.0384 21.7698   2
   5   0 -12-36.3802 34.9198   5
   5   0 -11 6667.17 408.649   2
   5   0 -11 6538.39 408.350   5
   5   0 -10 2753.12 258.715   5
   5   0  -9 1292.40 177.057   5
   5   0  -8 7332.40 427.089   5
   5   0  -7 1431.83 190.162   5
   5   0  -6 2736.75 170.085   4
  -5   0   6 2899.86 173.542   6
   5   0  -6 2952.98 269.878   5
   5   0  -5 12667.2 577.612   5
   5   0  -5 11414.7 321.886   4
   5   0  -4-27.9634 43.8937   5
   5   0  -3 371.083 96.6138   5
   5   0  -2 141.988 53.4726   5
   5   0  -1 3137.82 300.310   5
  -5   0   1 2583.85 122.405   4
  -5   0   1 3023.73 247.098   7
   5   0   0 19812.4 793.645   5
  -5   0   0 19435.3 665.464   7
   5   0   1 9718.74 542.535   1
   5   0   1 9640.71 559.868   5
  -5   0  -1 9504.67 449.433   7
   5   0   2 3055.75 311.588   1
  -5   0  -2 2956.37 246.432   7
   5   0   3 2824.68 306.467   1
   5   0   4 521.855 134.449   1
   5   0   5 1653.16 252.389   1
   5   0   6 773.200 176.329   1
   5   0   7-18.9822 57.8992   1
   5   0   8 672.127 183.251   1
   5   0   9 14.5520 51.4778   1
   5   0  10 1033.69 239.160   1
   5   1 -14 396.502 110.760   5
   5   1 -14 474.077 124.601   2
   5   1 -13 1177.24 186.242   5
   5   1 -13 1125.20 177.050   2
   5   1 -12 948.022 158.534   2
   5   1 -12 983.944 167.618   5
   5   1 -11 971.036 155.706   2
   5   1 -11 1073.82 167.327   5
   5   1 -10 1380.52 191.976   5
   5   1  -9 3157.72 290.084   5
   5   1  -8 1079.73 169.772   5
   5   1  -7 657.419 131.174   5
   5   1  -7 674.752 105.492   4
   5   1  -6 8301.66 473.130   5
   5   1  -6 8731.94 364.334   4
   5   1  -5 9325.10 504.558   5
   5   1  -4 16683.9 696.052   5
   5   1  -3 2744.09 273.394   5
   5   1  -2 1330.73 194.519   5
  -5  -1   2 1263.05 103.088   4
   5   1  -1 30231.2 1017.64   5
  -5  -1   1 31018.0 685.743   4
   5   1   0 8052.20 509.407   5
  -5  -1   0 7983.91 388.606   7
   5   1   1 13823.0 657.095   1
   5   1   1 13801.4 682.387   5
  -5  -1  -1 13545.7 521.607   7
   5   1   2 16814.1 756.055   1
   5   1   3 379.061 120.126   1
   5   1   4 114.049 65.6725   1
   5   1   5 1357.35 230.491   1
   5   1   6 747.415 176.929   1
   5   1   7 1693.28 275.344   1
   5   1   8 3685.41 422.391   1
   5   1   9 523.123 159.492   1
   5   1  10 25.5004 49.3192   1
   5   2 -14 1220.72 198.036   5
   5   2 -14 1307.51 198.235   2
   5   2 -13 345.840 101.195   2
   5   2 -13 392.897 108.016   5
   5   2 -12 5436.12 379.411   2
   5   2 -12 5405.91 398.650   5
   5   2 -11 517.764 120.595   5
   5   2 -10 3197.18 296.062   5
   5   2  -9 93.1232 59.2441   5
   5   2  -9 171.082 69.3285   4
   5   2  -8 9.71132 34.3166   5
   5   2  -8-68.2252 40.4361   4
   5   2  -7 526.889 117.872   5
   5   2  -7 410.038 92.8814   4
   5   2  -6 3860.78 271.199   4
   5   2  -6 3834.87 327.265   5
   5   2  -5 709.448 140.545   5
   5   2  -4 4948.95 379.142   5
   5   2  -3 705.737 148.231   5
   5   2  -2 5803.82 416.050   5
  -5  -2   2 5745.37 313.884   7
   5   2  -1 7870.92 503.784   5
  -5  -2   1 7911.82 367.491   7
   5   2   0 204.079 89.2149   5
  -5  -2   0 136.252 49.0498   7
   5   2   0 86.5556 31.1962   6
   5   2   1 3742.18 357.361   5
   5   2   1 3921.27 244.294   6
   5   2   2 63.4652 49.2271   1
   5   2   2-81.8026 57.3053   5
   5   2   3 49.2493 45.2672   1
   5   2   4 534.443 144.300   1
   5   2   5 1522.41 246.223   1
   5   2   6 189.002 79.8133   1
   5   2   7 43.6310 57.6155   1
   5   2   8 2208.38 327.475   1
   5   2   9 215.888 119.226   1
   5   2  10 372.175 138.150   1
   5   3 -14 225.252 89.3357   5
   5   3 -14 294.958 99.5669   2
   5   3 -13 391.791 118.545   5
   5   3 -13 380.198 96.0021   2
   5   3 -12 4620.87 414.612   4
   5   3 -12 5059.67 367.202   2
   5   3 -12 5483.45 407.418   5
   5   3 -11 83.1046 39.8706   2
   5   3 -11 113.180 66.3969   5
   5   3 -11 50.9204 37.8813   4
   5   3 -10 2012.28 251.772   4
   5   3 -10 2514.68 270.033   5
   5   3  -9 126.206 66.1340   5
   5   3  -9 143.601 60.4618   4
   5   3  -8 2.03857 32.9314   5
   5   3  -8 5.26120 29.8074   4
   5   3  -7 1133.14 181.543   5
   5   3  -7 1081.60 167.736   4
   5   3  -6 1521.05 209.138   5
   5   3  -5 11881.2 602.999   5
   5   3  -4 1604.83 218.301   5
   5   3  -3 3835.84 343.904   5
  -5  -3   3 2704.34 199.567   7
   5   3  -2 2968.78 301.715   5
  -5  -3   2 2201.32 175.556   7
   5   3  -1 7298.38 490.782   5
  -5  -3   1 6628.95 309.487   7
   5   3   0 5694.10 448.968   5
   5   3   1 7478.52 524.075   5
   5   3   1 7682.23 381.021   6
   5   3   2 49.6503 60.5178   5
   5   3   2 1.68418 16.7842   6
   5   3   3 3.93595 48.8458   1
   5   3   3 59.8342 66.6593   5
   5   3   3-39.6767 41.2589   6
   5   3   4 3282.51 352.415   1
   5   3   5 2085.06 290.506   1
   5   3   6 5446.95 484.547   1
   5   3   7 2356.38 330.448   1
   5   3   8 996.522 224.606   1
   5   3   9 20.1286 42.2987   1
   5   3  10 1012.04 237.051   1
   5   4 -14 1264.97 243.165   4
   5   4 -13 145.741 84.4366   5
   5   4 -13 139.955 81.7308   4
   5   4 -13 81.1104 73.0050   2
   5   4 -12 12441.1 586.492   2
   5   4 -12 13063.7 650.582   5
   5   4 -11 46.9805 29.4276   2
   5   4 -11 117.666 67.0991   5
   5   4 -11 203.763 92.4183   4
   5   4 -10 1563.39 242.541   4
   5   4 -10 1783.31 239.267   5
   5   4  -9 1340.91 202.467   5
   5   4  -9 1372.70 215.745   4
   5   4  -8 843.039 162.315   5
   5   4  -8 1010.92 182.317   4
   5   4  -7 56.8031 60.5859   5
   5   4  -6 2440.37 272.450   5
   5   4  -5 11774.6 610.084   5
   5   4  -4 3350.56 320.977   5
   5   4  -3 6520.23 461.543   5
   5   4  -2 1555.74 225.442   5
   5   4  -1 8284.83 535.502   5
   5   4   0 2128.04 275.783   5
   5   4   1 14152.6 746.674   5
   5   4   2 700.251 167.985   5
   5   4   2 717.963 137.466   6
   5   4   3 2207.95 303.896   5
   5   4   3 2061.72 249.306   6
   5   4   4 1219.75 239.224   5
   5   4   5 6700.00 523.636   1
   5   4   6 3094.06 364.138   1
   5   4   7 3430.06 398.925   1
   5   4   8 1488.72 272.173   1
   5   4   9 2085.48 337.685   1
   5   5 -14 466.292 163.586   4
   5   5 -13 294.793 135.027   4
   5   5 -13 466.646 117.544   2
   5   5 -12 761.352 141.728   2
   5   5 -12 903.014 170.836   5
   5   5 -12 649.013 173.759   4
   5   5 -11 274.114 83.0597   2
   5   5 -11 296.400 90.4554   5
   5   5 -11 271.205 110.332   4
   5   5 -10 2280.82 310.258   4
   5   5 -10 2454.96 280.126   5
   5   5  -9 1080.37 185.006   5
   5   5  -9 1328.65 235.168   4
   5   5  -8 284.844 94.8480   5
   5   5  -7 125.753 63.6597   5
   5   5  -6 1041.86 179.997   5
   5   5  -5 3972.26 356.985   5
   5   5  -4 10625.6 590.785   5
   5   5  -3 4203.27 374.996   5
   5   5  -2 2469.46 296.871   5
   5   5  -1 105.428 58.7924   5
   5   5   0 1738.10 254.341   5
   5   5   1-1.73093 35.3102   5
   5   5   2 7179.97 550.048   5
   5   5   3 134.058 74.1545   5
   5   5   4 5249.50 497.815   5
   5   5   5 592.612 173.026   5
   5   5   6 115.595 95.6712   5
   5   5   7 1074.43 222.833   1
   5   6 -13 95.6277 69.7267   4
   5   6 -13 238.646 67.3248   2
   5   6 -12 55.9075 61.7826   4
   5   6 -12 19.6877 37.5712   2
   5   6 -11 232.941 82.6223   2
   5   6 -11 231.587 94.4764   5
   5   6 -11 290.003 120.762   4
   5   6 -10 172.874 75.7185   5
   5   6 -10 64.2803 61.3505   4
   5   6  -9 107.648 71.4420   5
   5   6  -8 329.945 102.479   5
   5   6  -7 522.801 129.229   5
   5   6  -6 1764.68 237.720   5
   5   6  -5-86.1614 57.0809   5
   5   6  -4 7867.87 518.414   5
   5   6  -3 12.9103 30.2655   5
   5   6  -2 1508.39 228.949   5
   5   6  -1 362.606 121.218   5
   5   6   0 2002.28 274.469   5
   5   6   1 1556.58 250.814   5
   5   6   2 1795.64 279.626   5
   5   6   3 1978.53 298.737   5
   5   6   4 115.853 78.5820   5
   5   6   5-78.7941 69.5459   5
   5   6   6 98.0099 77.7275   5
   5   6   7 2191.13 363.155   5
   5   7 -11 800.048 220.348   4
   5   7 -11 798.983 132.972   8
   5   7 -10 500.411 127.369   5
   5   7  -9 309.364 108.183   5
   5   7  -8 196.780 91.2381   5
   5   7  -7 327.133 100.676   5
   5   7  -6 930.297 176.286   5
   5   7  -5 14.5169 35.5477   5
   5   7  -4 10242.9 596.673   5
   5   7  -3 370.126 105.124   5
   5   7  -2 4343.62 397.355   5
   5   7  -1 410.512 129.346   5
   5   7   0 496.175 127.897   5
   5   7   1 2448.37 316.137   5
   5   7   2 1938.89 286.367   5
   5   7   3 2441.67 334.856   5
   5   7   4-102.865 75.4465   5
   5   7   5 572.524 173.850   5
   5   7   6 163.878 96.5963   5
   5   8 -10 1967.35 225.254   8
   5   8  -9 52.4490 35.1377   5
   5   8  -9 117.346 66.9171   8
   5   8  -8 353.097 100.388   5
   5   8  -8 517.437 113.824   8
   5   8  -7 731.914 161.556   5
   5   8  -6 472.845 129.233   5
   5   8  -5 786.305 165.432   5
   5   8  -4-106.982 64.5180   5
   5   8  -3 43.4681 37.5084   5
   5   8  -2 29.3168 41.9558   5
   5   8  -1 438.984 131.734   5
   5   8   0 150.753 82.8429   5
   5   8   1 385.711 129.550   5
  -6  10   2 245.212 102.773   7
  -6   9   2 671.268 162.719   7
  -6   9   1 311.887 111.834   7
  -6   9   0 1173.47 212.780   7
  -6   9  -1 769.420 170.056   7
  -6   9  -2 1341.94 230.115   7
  -6   8  10 235.834 79.9133   3
  -6   8   9 287.141 102.010   3
  -6   8   8 942.637 166.855   3
  -6   8   7 178.415 70.2325   3
  -6   8   6 1803.64 229.372   3
  -6   8   5 1420.01 196.600   3
  -6   8   4 212.286 79.5495   3
  -6   8   3 399.487 105.972   3
  -6   8   2 277.743 90.8483   3
  -6   8   1 1032.66 166.404   3
  -6   8   1 733.624 168.656   7
  -6   8   0 1018.17 163.155   3
  -6   8   0 1001.73 192.930   7
  -6   8  -1 919.118 183.927   7
  -6   8  -1 1303.69 187.169   3
  -6   8  -2 503.928 112.547   3
  -6   8  -2 766.838 165.446   7
  -6   8  -3 31.2027 46.1519   3
  -6   8  -3 19.9754 32.1515   7
  -6   8  -4 1160.87 175.125   3
  -6   8  -5 286.577 85.9010   3
  -6   7  12 1659.68 324.276   6
  -6   7  10 2508.12 262.104   3
  -6   7   9 411.243 108.468   3
  -6   7   8 259.701 85.1111   3
  -6   7   7 1707.27 215.986   3
  -6   7   6 3066.74 291.545   3
  -6   7   5 4.61895 30.1957   3
  -6   7   4 298.014 89.9588   3
  -6   7   3 3333.99 293.420   3
  -6   7   2 29.6792 28.3239   3
  -6   7   1 904.662 148.495   3
  -6   7   1 903.729 178.428   7
  -6   7   0 352.759 93.7775   3
  -6   7   0 140.564 77.3936   7
  -6   7  -1 77.9177 55.0597   3
  -6   7  -1 64.5606 35.3676   7
  -6   7  -2 323.312 95.7489   3
  -6   7  -2 357.776 114.430   7
  -6   7  -3 21.6225 29.0686   3
  -6   7  -3 3.63957 34.6921   7
  -6   7  -4 716.247 129.741   3
  -6   7  -5 521.078 112.239   3
  -6   6  13 23.4545 53.3509   6
  -6   6  12 2112.10 344.100   6
  -6   6  11 246.134 105.805   6
  -6   6  10 1401.35 259.027   6
  -6   6  10 1537.30 199.288   3
  -6   6   9 593.723 121.736   3
  -6   6   8 902.973 150.747   3
  -6   6   7 750.708 137.860   3
  -6   6   6 1652.94 198.987   3
  -6   6   5 6003.08 381.607   3
  -6   6   4 847.100 144.910   3
  -6   6   3 7069.11 410.497   3
  -6   6   2 77.1343 53.5038   3
  -6   6   1 457.082 103.746   3
  -6   6   1 328.227 97.3905   7
  -6   6   0 5534.37 442.544   7
  -6   6   0 5658.44 362.527   3
   6  -6   1 5784.72 456.226   1
  -6   6  -1 5792.79 449.148   7
  -6   6  -1 5938.23 370.460   3
   6  -6   2 3167.82 350.864   1
  -6   6  -2 3873.93 365.495   7
  -6   6  -2 3697.98 290.142   3
  -6   6  -3 1047.09 156.266   3
   6  -6   3 797.891 180.859   1
  -6   6  -3 923.351 178.736   7
  -6   6  -4 857.640 140.282   3
   6  -6   4 643.452 169.959   1
  -6   6  -4 590.824 144.999   7
  -6   6  -5 4.55885 31.3029   3
   6  -6   5 12.7982 31.5346   1
   6  -6   6 1232.00 255.085   1
   6  -6   7 472.003 160.020   1
  -6   5  13 167.346 98.8014   6
   6  -5 -13 115.342 58.9087   2
  -6   5  12 767.895 210.192   6
   6  -5 -12 924.146 152.570   2
  -6   5  11 340.049 124.238   6
   6  -5 -11 255.470 78.8421   2
   6  -5 -10 1502.61 186.876   2
  -6   5  10 908.210 195.908   6
  -6   5  10 1430.56 183.886   3
   6  -5  -9-4.17954 27.5997   2
  -6   5   9 45.2439 43.6406   3
  -6   5   9 69.9577 65.2653   6
  -6   5   8-37.7355 20.8568   3
  -6   5   7 3706.10 296.382   3
  -6   5   6 1071.55 155.919   3
  -6   5   5 5168.61 344.536   3
  -6   5   4 60.0733 49.7346   3
  -6   5   3 3538.53 283.713   3
  -6   5   2 92.0722 40.5759   3
  -6   5   1 53.1512 32.8114   3
   6  -5  -1 58.4590 41.7424   5
   6  -5   0 1252.49 191.232   5
  -6   5   0 1022.85 178.343   7
  -6   5   0 1155.65 156.306   3
   6  -5   1 857.436 173.906   1
   6  -5   1 1029.37 176.324   5
  -6   5  -1 945.535 176.608   7
  -6   5  -1 1242.16 162.206   3
  -6   5  -2 80.1059 42.4738   3
  -6   5  -2-4.41070 33.0638   7
   6  -5   3 1357.85 231.256   1
  -6   5  -3 1249.61 202.066   7
  -6   5  -3 1435.27 173.240   3
  -6   5  -4 849.715 131.198   3
   6  -5   4 587.564 164.541   1
  -6   5  -4 896.149 172.265   7
  -6   5  -5 1042.36 147.816   3
   6  -5   5 1068.36 227.065   1
  -6   5  -6 842.205 134.464   3
   6  -5   6 1059.94 240.282   1
   6  -5   7 681.406 193.556   1
   6  -4 -14 817.933 159.953   2
   6  -4 -13 75.9924 56.4637   2
  -6   4  12-11.9374 36.4638   6
   6  -4 -12-6.18059 39.1718   2
   6  -4 -11 2299.77 239.362   2
  -6   4  11 1855.75 281.233   6
  -6   4  11 2043.88 213.724   3
   6  -4 -10 715.239 127.141   2
  -6   4  10 859.511 139.013   3
  -6   4  10 659.227 148.261   6
  -6   4   9 497.404 109.517   3
  -6   4   9 538.148 127.199   6
   6  -4  -8 424.401 91.2864   5
  -6   4   8 305.398 88.0329   3
  -6   4   8 353.988 103.816   6
  -6   4   7 933.305 145.239   3
   6  -4  -7 1022.97 145.940   5
   6  -4  -6 2115.46 214.192   5
  -6   4   6 1805.44 200.469   3
   6  -4  -5 6726.70 393.109   5
  -6   4   5 6970.41 391.900   3
  -6   4   4 1979.18 205.165   3
   6  -4  -4 2010.73 214.239   5
  -6   4   3 5291.08 335.216   3
   6  -4  -3 6005.69 393.653   5
  -6   4   2 780.674 127.775   3
   6  -4  -2 883.080 153.135   5
  -6   4   1 301.113 80.4534   3
   6  -4  -1 355.834 103.684   5
  -6   4   0 2669.22 235.018   3
   6  -4   0 2543.98 280.963   5
  -6   4   0 2676.55 291.855   7
   6  -4   1 1605.09 238.131   1
   6  -4   1 1340.81 214.007   5
  -6   4  -1 1265.41 197.947   7
  -6   4  -1 1654.58 183.202   3
   6  -4   2 7762.59 550.964   1
  -6   4  -2 7761.33 496.522   7
  -6   4  -2 7932.46 401.444   3
  -6   4  -3 414.685 90.4722   3
   6  -4   3 597.958 155.030   1
  -6   4  -3 653.282 147.181   7
   6  -4   4 1226.80 232.663   1
  -6   4  -4 1057.96 147.165   3
  -6   4  -5 887.401 131.409   3
   6  -4   5 739.647 182.426   1
  -6   4  -6 9.69356 23.6299   3
   6  -4   6 79.2401 89.5698   1
   6  -4   7 1727.44 302.752   1
   6  -3 -14 2180.63 258.490   2
   6  -3 -13 2601.69 275.110   2
   6  -3 -13 2212.57 239.365   5
   6  -3 -12-39.2337 51.8066   2
   6  -3 -12 25.0061 40.1683   5
  -6   3  12 101.509 68.7887   6
   6  -3 -11 5814.09 394.918   2
  -6   3  11 5229.85 453.673   6
   6  -3 -11 5208.10 346.986   5
  -6   3  11 5984.42 365.638   3
   6  -3 -10 318.752 79.8844   5
  -6   3  10 261.255 78.6977   3
  -6   3  10 373.554 108.234   6
  -6   3   9 1637.43 187.751   3
  -6   3   9 1548.14 218.718   6
   6  -3  -9 1277.27 170.001   5
   6  -3  -8 166.383 60.3489   5
  -6   3   8 223.179 90.5463   6
   6  -3  -7 378.412 94.6295   5
   6  -3  -6 130.472 53.4603   5
   6  -3  -5 107.214 49.3740   5
   6  -3  -4 5745.85 395.391   5
   6  -3  -3 4953.22 368.220   5
   6  -3  -2 705.365 146.301   5
   6  -3  -1 15407.6 706.207   5
   6  -3   0 14349.1 695.577   5
  -6   3   0 14390.2 678.430   7
   6  -3   1 1025.67 193.250   1
   6  -3   1 1048.27 188.013   5
  -6   3  -1 1053.36 180.357   7
   6  -3   2 5023.98 438.746   1
  -6   3  -2 4955.53 384.181   7
  -6   3  -3 6248.88 346.482   3
   6  -3   3 7148.74 539.912   1
  -6   3  -3 6318.79 441.740   7
  -6   3  -4 40.2966 43.4816   3
   6  -3   4 25.4318 73.6715   1
  -6   3  -5 894.559 131.649   3
   6  -3   5 805.645 194.365   1
  -6   3  -6 151.158 56.5402   3
   6  -3   6 394.296 149.812   1
   6  -3   7 34.7277 49.2003   1
   6  -3   8 863.751 215.027   1
   6  -2 -14-5.23599 33.6801   5
   6  -2 -14 11.2068 51.3225   2
   6  -2 -13 1781.89 229.472   2
   6  -2 -13 1940.07 230.953   5
   6  -2 -12 114.911 75.4585   2
   6  -2 -12 174.478 73.5090   5
   6  -2 -11 4582.08 339.628   5
   6  -2 -10 992.394 155.150   5
  -6   2  10 1216.39 194.473   6
  -6   2   9 1876.32 222.088   6
   6  -2  -9 2070.99 227.858   5
  -6   2   8 1828.05 201.028   6
   6  -2  -8 2192.21 236.483   5
   6  -2  -7 4322.14 339.514   5
   6  -2  -6 19.7543 21.2825   5
   6  -2  -5 2804.80 276.278   5
   6  -2  -4 5169.83 387.246   5
   6  -2  -3 250.116 86.3433   5
   6  -2  -2 1457.48 207.991   5
   6  -2  -1 2427.92 279.680   5
  -6   2   1 2143.11 245.962   7
   6  -2   0 7357.67 500.672   5
  -6   2   0 6927.02 449.660   7
   6  -2   1 2828.70 321.644   1
   6  -2   1 3539.51 354.040   5
  -6   2  -1 3816.77 325.583   7
   6  -2   2 1541.21 251.979   1
  -6   2  -2 2112.68 242.823   7
   6  -2   3 8746.23 601.790   1
  -6   2  -3 8416.32 493.010   7
   6  -2   4 129.303 87.6312   1
   6  -2   5 2776.32 358.807   1
  -6   2  -6 6.91094 26.9484   3
   6  -2   6 59.7826 62.6736   1
   6  -2   7 202.491 105.899   1
   6  -2   8 677.457 212.879   1
   6  -1 -15 1355.69 208.678   5
   6  -1 -14 21.6062 30.8828   5
   6  -1 -14-5.84995 44.2000   2
   6  -1 -13 535.519 130.812   2
   6  -1 -13 524.188 118.586   5
   6  -1 -12 37.6314 54.2504   2
   6  -1 -12 183.080 72.9254   5
   6  -1 -11 3547.51 309.458   5
   6  -1 -10 1116.93 176.929   5
   6  -1  -9 18.2805 24.7138   5
  -6   1   8 2536.22 213.767   6
   6  -1  -8 2974.90 288.809   5
   6  -1  -7 162.629 63.6623   5
  -6   1   7 200.535 49.6102   6
   6  -1  -6 750.543 146.557   5
   6  -1  -5 5378.34 398.306   5
   6  -1  -4 3869.08 345.119   5
   6  -1  -3 2575.29 279.703   5
   6  -1  -2 4879.18 396.305   5
   6  -1  -1 1235.38 203.469   5
  -6   1   1 1126.78 174.697   7
   6  -1   0 35.5796 50.5181   5
  -6   1   0 41.9351 25.1917   7
   6  -1   1 5430.23 445.172   1
   6  -1   1 6095.65 473.797   5
  -6   1  -1 5453.72 379.959   7
   6  -1   2 379.917 121.821   1
  -6   1  -2 255.975 79.7660   7
   6  -1   3 400.932 129.129   1
   6  -1   4-23.5745 42.2394   1
   6  -1   5 509.123 152.498   1
   6  -1   6 2751.74 371.303   1
   6  -1   7 991.592 237.050   1
   6  -1   8 1761.79 316.525   1
   6   0 -14 357.149 103.095   5
   6   0 -14 200.783 95.7425   2
   6   0 -13 30.4124 36.1010   2
   6   0 -13 64.6418 63.4471   5
   6   0 -12 709.171 143.738   2
   6   0 -12 590.048 134.546   5
   6   0 -11 134.880 68.0252   5
   6   0 -10 1540.20 213.904   5
   6   0  -9 2618.33 280.064   5
   6   0  -8 1084.67 179.572   5
   6   0  -7 334.428 99.9447   5
   6   0  -6 13195.1 658.675   5
   6   0  -5 22795.2 870.745   5
   6   0  -4 3417.70 334.839   5
   6   0  -3 26341.5 959.737   5
   6   0  -2 3473.21 342.059   5
   6   0  -1-89.2566 59.5813   5
  -6   0   1 8.54639 26.3373   7
   6   0   0 11211.6 657.861   5
  -6   0   0 11122.4 537.411   7
   6   0   1 1893.28 270.321   5
  -6   0  -1 1809.34 211.519   7
   6   0   2 1049.26 199.110   1
   6   0   2 1347.24 233.425   5
  -6   0  -2 1226.90 172.211   7
   6   0   3 477.099 140.153   1
   6   0   4 92.2029 53.5051   1
   6   0   5 114.452 85.8997   1
   6   0   6 61.3485 68.7219   1
   6   0   7 209.694 115.388   1
   6   0   8 4300.07 502.238   1
   6   1 -14 543.511 136.961   2
   6   1 -14 717.694 156.992   5
   6   1 -13 242.808 91.9097   2
   6   1 -13 115.843 63.9352   5
   6   1 -12 134.259 73.7571   5
   6   1 -11 107.311 50.3667   5
   6   1 -10 2718.94 291.033   5
   6   1  -9 2816.94 242.723   4
   6   1  -9 3008.68 307.043   5
   6   1  -8 2518.79 216.467   4
   6   1  -8 2588.91 284.378   5
   6   1  -7 509.738 126.563   5
   6   1  -7 388.223 79.9543   4
   6   1  -6 1355.73 211.067   5
   6   1  -5 23318.9 904.930   5
   6   1  -4 9890.61 584.186   5
   6   1  -3 45210.8 1330.64   5
   6   1  -2 349.247 123.756   5
  -6  -1   2 375.178 95.1301   7
   6   1  -1 1468.02 234.683   5
  -6  -1   1 1708.87 197.246   7
   6   1   0-15.0806 33.5960   5
  -6  -1   0-20.6173 39.9040   7
   6   1   1 4510.08 427.683   5
  -6  -1  -1 3470.83 279.874   7
   6   1   2 1952.85 279.178   1
   6   1   2 1908.38 285.230   5
   6   1   3 1.82491 51.5634   1
   6   1   4 1053.37 223.858   1
   6   1   5 46.2329 75.3287   1
   6   1   6 1701.66 293.878   1
   6   1   7 245.498 116.050   1
   6   1   8 1787.43 320.618   1
   6   2 -13 14.6161 26.9244   2
   6   2 -13 8.51488 39.2602   5
   6   2 -12 27.6040 48.6798   5
   6   2 -11 13.1939 38.0975   5
   6   2 -10 203.020 86.7444   5
   6   2 -10 186.585 72.0888   4
   6   2  -9 548.105 132.100   5
   6   2  -9 485.508 112.309   4
   6   2  -8 458.739 126.016   5
   6   2  -8 580.780 115.403   4
   6   2  -7 3110.31 323.993   5
   6   2  -6 166.679 76.6880   5
   6   2  -5 349.879 110.226   5
   6   2  -4 2076.26 270.258   5
   6   2  -3 3006.83 327.386   5
  -6  -2   3 3389.04 266.547   7
   6   2  -2 667.799 158.385   5
  -6  -2   2 952.484 141.076   7
   6   2  -1 5860.24 478.445   5
  -6  -2   1 5606.09 338.490   7
   6   2   0 424.393 139.103   5
  -6  -2   0 478.662 98.4662   7
   6   2   1 944.395 199.532   5
   6   2   2 1580.40 264.908   5
   6   2   3 556.832 150.933   1
   6   2   3 506.038 154.559   5
   6   2   4 236.754 108.049   1
   6   2   5 754.836 186.301   1
   6   2   6-36.4732 86.2199   1
   6   2   7 54.2258 60.6639   1
   6   2   8-76.3912 72.6185   1
   6   3 -13-0.50752 31.8541   2
   6   3 -13-23.9782 35.3668   5
   6   3 -12 38.2743 44.8826   5
   6   3 -11 288.891 102.884   5
   6   3 -11 159.026 75.9165   4
   6   3 -10-3.17553 24.0176   5
   6   3 -10-34.6242 38.4661   4
   6   3  -9 1908.08 244.568   4
   6   3  -9 1829.64 251.959   5
   6   3  -8 1118.24 193.172   5
   6   3  -7 661.817 154.496   5
   6   3  -6 1050.26 193.987   5
   6   3  -5 309.223 108.247   5
   6   3  -4 3550.43 358.700   5
   6   3  -3 2343.09 307.370   5
  -6  -3   3 1809.36 187.366   7
   6   3  -2 8959.52 586.779   5
  -6  -3   2 9897.32 429.737   7
   6   3  -1 1174.69 217.001   5
  -6  -3   1 1058.71 135.974   7
   6   3   0 1811.56 280.449   5
   6   3   1 674.793 173.363   5
   6   3   2 4158.93 441.176   5
   6   3   3 1879.70 304.648   5
   6   3   4 5011.92 511.955   5
   6   3   5 4851.51 488.083   1
   6   3   6 632.295 173.367   1
   6   3   7-136.153 89.2342   1
   6   3   8 124.887 90.3524   1
   6   4 -13 2081.81 255.411   2
   6   4 -12 30.7168 25.3252   2
   6   4 -12 141.199 67.1394   5
   6   4 -11 28.1887 40.3117   5
   6   4 -11 110.252 70.4610   4
   6   4 -10 709.685 158.622   5
   6   4 -10 578.815 152.872   4
   6   4  -9 3514.83 355.670   4
   6   4  -9 3217.84 339.531   5
   6   4  -8 2655.61 305.757   5
   6   4  -7 4322.20 395.695   5
   6   4  -6 910.818 179.593   5
   6   4  -5 1228.16 211.996   5
   6   4  -4 136.540 65.1201   5
   6   4  -3 4888.24 440.156   5
   6   4  -2 1127.35 211.279   5
   6   4  -1 1252.18 224.853   5
   6   4   0 13.1090 43.5250   5
   6   4   1 3115.80 379.241   5
   6   4   2 22.5483 73.3803   5
   6   4   3 6593.77 583.564   5
   6   4   4 2314.90 356.476   5
   6   4   5 1541.88 297.097   5
   6   4   6 2745.80 373.664   1
   6   4   6 2605.08 401.518   5
   6   4   7 80.9438 72.9433   1
   6   5 -12 684.570 151.854   2
   6   5 -11 456.446 127.947   5
   6   5 -11 384.643 135.795   4
   6   5 -10 1223.95 210.246   5
   6   5  -9 1008.44 192.710   5
   6   5  -8 91.6605 26.9447   5
   6   5  -7 442.375 124.938   5
   6   5  -6 259.969 117.888   5
   6   5  -5 1171.11 211.379   5
   6   5  -4 179.072 78.4786   5
   6   5  -3 2890.06 340.053   5
   6   5  -2 4374.48 428.979   5
   6   5  -1 1864.69 281.547   5
   6   5   0 317.005 120.163   5
   6   5   1 119.790 81.4017   5
   6   5   2 2861.45 383.991   5
   6   5   3 729.499 199.239   5
   6   5   4 406.855 148.257   5
   6   5   5 47.6185 63.1372   5
   6   5   6 441.531 174.270   5
   6   6 -12 88.6108 53.8322   2
   6   6 -10 775.240 174.560   5
   6   6  -9 52.5399 53.8410   5
   6   6  -8 1785.47 257.373   5
   6   6  -7 784.879 170.882   5
   6   6  -6 625.563 160.909   5
   6   6  -5 184.411 85.5860   5
   6   6  -4 282.314 106.059   5
   6   6  -3 1988.79 285.374   5
   6   6  -2-170.600 88.7398   5
   6   6  -1 1934.93 294.182   5
   6   6   0 273.340 117.952   5
   6   6   1 96.8548 73.3157   5
   6   6   2 1245.97 253.432   5
   6   6   3 646.809 181.559   5
   6   6   4 647.460 195.069   5
   6   6   5 75.2640 73.8506   5
   6   7  -9 185.903 98.4795   5
   6   7  -8 320.522 106.563   5
   6   7  -7 850.951 183.773   5
   6   7  -6 149.290 85.8482   5
   6   7  -5 5.74421 49.9524   5
   6   7  -4-14.6100 33.7127   5
   6   7  -3 2072.16 295.251   5
   6   7  -2 1689.16 273.250   5
   6   7  -1 3259.76 389.949   5
   6   7   0-241.801 109.956   5
   6   7   1 675.001 180.415   5
   6   7   2 410.593 144.943   5
   6   7   3 302.797 139.035   5
   6   7   4 1025.37 248.547   5
   6   8  -7 2619.04 324.773   5
   6   8  -6 177.612 87.7007   5
   6   8  -5 2944.34 351.529   5
   6   8  -4-47.2340 51.7071   5
   6   8  -3 1207.59 225.632   5
   6   8  -2 126.660 74.2125   5
   6   8  -1 3725.92 420.931   5
   6   8   0 231.622 109.158   5
  -7   8   2 304.313 107.747   7
  -7   8   1 166.750 95.1796   7
  -7   7  10 118.051 48.5768   3
  -7   7   9 126.430 56.1114   3
  -7   7   8-85.3255 54.8620   3
  -7   7   7 1674.56 225.934   3
  -7   7   6 129.418 70.4476   3
  -7   7   5 756.471 146.835   3
  -7   7   4 776.918 152.269   3
  -7   7   3 1295.03 190.989   3
  -7   7   2 844.209 157.221   3
  -7   7   2 788.465 185.298   7
  -7   7   1 1060.00 175.198   3
  -7   7   1 647.632 161.394   7
  -7   7   0 107.947 36.9784   3
  -7   7   0 390.909 117.644   7
  -7   7  -1 2.29696 40.6053   3
  -7   7  -1 77.0292 43.7688   7
  -7   7  -2 785.114 146.721   3
  -7   7  -2 952.570 192.523   7
  -7   7  -3 34.2373 41.3636   3
  -7   6  10 601.801 136.489   3
  -7   6   9 989.751 169.445   3
  -7   6   8 292.201 95.2347   3
  -7   6   7 3918.48 331.292   3
  -7   6   6 6765.09 436.330   3
  -7   6   5 1286.52 196.554   3
  -7   6   4 14010.7 634.512   3
  -7   6   3 939.791 164.165   3
  -7   6   2 1757.29 217.825   3
  -7   6   1 1926.64 276.321   7
  -7   6   1 1803.00 221.258   3
  -7   6   0 782.727 176.537   7
  -7   6   0 1351.46 188.664   3
  -7   6  -1 72.9483 50.2233   3
  -7   6  -1 195.829 85.3566   7
   7  -6   2 812.044 196.956   1
  -7   6  -2 676.804 129.281   3
  -7   6  -2 749.557 170.163   7
  -7   6  -3-26.1165 52.2411   3
   7  -6   3 128.202 82.2901   1
  -7   6  -3 22.7067 34.5508   7
  -7   6  -4 526.528 116.493   3
   7  -6   4 440.574 148.067   1
  -7   6  -5-137.571 60.5174   3
   7  -6   5 21.0945 44.4475   1
  -7   5  11 422.373 109.823   3
  -7   5  10 40.6572 22.8890   3
  -7   5   9 1055.94 174.254   3
  -7   5   8 1348.69 194.511   3
  -7   5   7 560.549 122.637   3
  -7   5   6 210.148 80.2942   3
  -7   5   5 1042.10 167.074   3
  -7   5   4 4906.51 362.578   3
  -7   5   3 25.0225 53.8354   3
  -7   5   2 5499.60 376.490   3
  -7   5   1 519.555 114.977   3
  -7   5   1 614.586 155.174   7
  -7   5   0 195.975 71.5593   3
  -7   5   0 236.758 103.672   7
  -7   5  -1 166.318 68.8389   3
  -7   5  -1 137.858 72.5663   7
   7  -5   2 591.901 162.491   1
  -7   5  -2 635.610 124.374   3
  -7   5  -2 718.024 165.039   7
  -7   5  -3-16.4565 30.2558   3
   7  -5   3 42.5350 70.3852   1
  -7   5  -3 74.9064 56.5282   7
  -7   5  -4 132.699 56.4940   3
   7  -5   4 370.105 139.874   1
  -7   5  -5 307.910 81.9405   3
   7  -5   5 453.093 162.002   1
   7  -4 -13 130.813 44.5362   2
   7  -4 -12 61.8291 40.2353   2
   7  -4 -11 147.208 56.1722   2
  -7   4  11 221.193 80.3919   3
  -7   4  10 4.95398 27.5910   3
  -7   4   9 99.6103 43.3231   3
  -7   4   8 1400.70 194.331   3
  -7   4   7 83.8501 46.6616   3
   7  -4  -6 1049.50 171.025   5
  -7   4   6 1160.97 172.552   3
   7  -4  -5 1965.25 235.860   5
  -7   4   5 1764.21 209.837   3
   7  -4  -4 222.018 78.7998   5
  -7   4   4 317.947 87.4100   3
  -7   4   3 4674.83 338.780   3
   7  -4  -3 3302.20 327.700   5
  -7   4   2 2012.43 219.238   3
   7  -4  -2 1750.95 238.572   5
  -7   4   1 17.0708 41.9348   3
   7  -4  -1 50.3953 47.4404   5
  -7   4   1 107.830 60.4010   7
  -7   4   0 307.410 89.0051   3
   7  -4   0 463.734 134.694   5
  -7   4   0 383.589 121.915   7
  -7   4  -1 439.169 100.264   3
   7  -4   1 380.788 126.814   5
  -7   4  -1 423.748 119.165   7
   7  -4   2 930.682 210.936   1
   7  -4   2 694.735 167.859   5
  -7   4  -2 1356.48 219.311   7
  -7   4  -2 1290.52 171.496   3
  -7   4  -3 50.2752 39.2175   3
   7  -4   3 84.7505 83.4109   1
  -7   4  -3-0.39245 38.0441   7
  -7   4  -4 369.203 99.1999   3
   7  -4   4 296.844 125.576   1
  -7   4  -5 31.5180 36.7995   3
   7  -4   5-0.31206 30.4087   1
   7  -3 -13 589.356 136.732   2
   7  -3 -12 492.644 122.799   2
   7  -3 -11 159.557 67.6820   5
  -7   3  11 248.589 84.7880   3
   7  -3 -10 219.527 78.0427   5
  -7   3  10 51.2765 49.3102   3
   7  -3  -9 2900.16 288.640   5
   7  -3  -8 2963.91 293.937   5
   7  -3  -7 3178.37 312.187   5
   7  -3  -6 2542.92 279.682   5
   7  -3  -5 127.193 67.2984   5
   7  -3  -4 40.9591 56.6691   5
   7  -3  -3 2272.12 277.968   5
   7  -3  -2 1099.22 197.116   5
   7  -3  -1 1533.22 240.916   5
  -7   3   1 1537.90 230.693   7
   7  -3   0 315.627 117.228   5
  -7   3   0 224.577 94.6545   7
   7  -3   1 26.6890 28.6235   5
  -7   3  -1-46.7767 43.9808   7
   7  -3   2 3639.22 406.556   1
   7  -3   2 3072.51 377.000   5
  -7   3  -2 3846.48 362.951   7
   7  -3   3 90.4152 72.2947   1
  -7   3  -3 55.0057 44.3498   3
  -7   3  -3 138.148 90.5025   7
  -7   3  -4 12175.0 541.576   3
   7  -3   4 13750.8 859.740   1
  -7   3  -5 198.910 71.0651   3
   7  -3   5 282.027 125.692   1
   7  -3   6 1385.88 286.059   1
   7  -2 -14 3037.58 314.495   5
   7  -2 -13 1220.22 201.825   2
   7  -2 -13 1115.33 184.628   5
   7  -2 -12 2979.61 300.104   5
   7  -2 -11-23.7543 34.5216   5
   7  -2 -10 588.885 135.231   5
   7  -2  -9 702.421 148.626   5
   7  -2  -8 4050.00 361.287   5
   7  -2  -7 5257.37 417.019   5
   7  -2  -6 2400.51 281.337   5
   7  -2  -5 485.711 129.383   5
   7  -2  -4 1620.18 242.568   5
   7  -2  -3 6239.88 471.599   5
   7  -2  -2 44.0195 40.5020   5
   7  -2  -1 6846.84 525.995   5
  -7   2   1 7072.96 497.996   7
   7  -2   0 666.669 163.670   5
  -7   2   0 1353.20 211.839   7
   7  -2   1 160.602 106.072   5
  -7   2  -1 69.0847 70.7506   7
   7  -2   2 2664.48 349.933   1
   7  -2   2 2778.19 358.040   5
  -7   2  -2 2647.94 295.460   7
   7  -2   3 4777.00 489.813   1
  -7   2  -3 4664.26 392.377   7
   7  -2   4 1458.24 275.847   1
   7  -2   5 1119.23 247.229   1
   7  -2   6 631.000 199.575   1
   7  -1 -14 758.654 160.265   5
   7  -1 -13 202.410 93.2477   2
   7  -1 -13 59.1295 47.3277   5
   7  -1 -12 643.766 142.357   5
   7  -1 -11 116.663 85.0024   5
   7  -1 -10 107.660 44.9260   5
   7  -1  -9 945.594 177.514   5
   7  -1  -8 22.0959 45.2180   5
   7  -1  -7 2460.03 292.972   5
   7  -1  -6 15.3808 38.9912   5
   7  -1  -5 897.807 181.447   5
   7  -1  -4 1012.34 193.217   5
   7  -1  -3 1173.93 209.333   5
   7  -1  -2 2278.58 297.806   5
  -7   1   2 2055.87 253.468   7
   7  -1  -1 3863.56 398.168   5
  -7   1   1 4530.46 378.380   7
   7  -1   0 267.361 120.962   5
  -7   1   0 258.713 90.4609   7
   7  -1   1 1181.25 228.842   5
  -7   1  -1 1063.92 183.157   7
   7  -1   2 210.606 110.507   1
   7  -1   2 168.839 60.2846   5
  -7   1  -2 442.428 116.075   7
   7  -1   3-27.3916 43.9394   1
   7  -1   3-41.5685 53.9428   5
   7  -1   4 485.267 159.285   1
   7  -1   5 127.902 85.3789   1
   7  -1   6 689.702 202.207   1
   7   0 -13 289.751 102.611   2
   7   0 -13 402.109 119.958   5
   7   0 -12 1616.23 237.493   5
   7   0 -11-62.1410 49.9804   5
   7   0 -10 570.732 139.390   5
   7   0  -9 229.048 88.0780   5
   7   0  -8 87.1293 26.4567   5
   7   0  -7 9732.94 606.344   5
   7   0  -6 201.129 85.2689   5
   7   0  -5 2289.13 296.364   5
   7   0  -4-42.2022 38.4619   5
   7   0  -3 31.3884 49.7926   5
   7   0  -2 5431.96 475.952   5
  -7   0   2 3478.68 324.698   7
   7   0  -1 92.5572 44.0553   5
  -7   0   1 31.0525 22.4969   7
   7   0   0 8350.86 618.974   5
  -7   0   0 6340.11 431.744   7
   7   0   1 111.292 70.1676   5
  -7   0  -1 221.967 83.1667   7
   7   0   2 107.534 80.1986   5
   7   0   3-32.2968 48.2246   1
   7   0   3 74.3032 79.6606   5
   7   0   4 146.569 92.0540   1
   7   0   5 369.881 151.689   1
   7   0   6 926.563 236.019   1
   7   1 -13 823.973 172.979   5
   7   1 -12 154.765 81.5313   5
   7   1 -11 460.995 129.000   5
   7   1 -10 43.3549 22.7174   5
   7   1  -9 904.445 183.539   5
   7   1  -8 610.240 152.574   5
   7   1  -7 292.285 97.0001   5
   7   1  -6 5223.92 447.548   5
   7   1  -5 226.687 101.716   5
   7   1  -4 568.105 151.266   5
   7   1  -3 7000.10 539.872   5
  -7  -1   3 4993.48 374.129   7
   7   1  -2 4845.04 455.657   5
  -7  -1   2 3793.87 322.069   7
   7   1  -1 1678.70 274.785   5
  -7  -1   1 1362.99 188.181   7
   7   1   0 10590.9 705.105   5
  -7  -1   0 8059.21 468.516   7
   7   1   1-5.07899 52.5160   5
  -7  -1  -1 101.114 50.8317   7
   7   1   2 1292.05 267.437   5
   7   1   3 198.077 104.607   5
   7   1   4 82.0231 59.4104   1
   7   1   4 76.7805 50.9289   5
   7   1   5 1100.01 248.351   1
   7   1   6 701.921 205.229   1
   7   2 -12 320.170 117.726   5
   7   2 -11 519.333 141.314   5
   7   2 -10 102.930 58.0614   5
   7   2  -9 186.871 71.1478   5
   7   2  -8 450.390 131.620   5
   7   2  -7 875.964 188.292   5
   7   2  -6 3446.94 369.861   5
   7   2  -5 728.312 175.440   5
   7   2  -4 788.671 181.956   5
   7   2  -3 2442.11 321.761   5
  -7  -2   3 1985.05 224.338   7
   7   2  -2 771.562 179.109   5
  -7  -2   2 1044.28 160.327   7
   7   2  -1 611.380 173.343   5
  -7  -2   1 983.378 155.882   7
   7   2   0 853.078 196.303   5
  -7  -2   0 770.844 136.799   7
   7   2   1-46.7885 55.0944   5
   7   2   2 94.2526 74.8926   5
   7   2   3 180.360 103.399   5
   7   2   4 42.2018 59.7592   5
   7   2   5 1062.63 253.281   1
   7   2   5 904.266 243.448   5
   7   2   6-93.4554 80.5321   1
   7   3 -11 217.881 93.5740   5
   7   3 -10 4.57226 30.3511   5
   7   3  -9 16.0870 30.9089   5
   7   3  -8 47.5735 51.5874   5
   7   3  -7 647.244 163.527   5
   7   3  -6 2294.49 307.375   5
   7   3  -5 221.099 97.3285   5
   7   3  -4 1489.35 256.921   5
   7   3  -3 2136.61 307.926   5
   7   3  -2 165.418 79.4695   5
   7   3  -1 3873.26 429.447   5
   7   3   0 31.0134 74.7073   5
   7   3   1 147.332 114.537   5
   7   3   2 404.167 159.844   5
   7   3   3 69.5986 69.9253   5
   7   3   4 2657.43 404.354   5
   7   4 -10-52.5589 52.6013   5
   7   4  -9 226.611 104.438   5
   7   4  -8-41.1022 52.8836   5
   7   4  -7 1093.33 217.353   5
   7   4  -6 81.7604 42.3882   5
   7   4  -5 2268.21 312.433   5
   7   4  -4 521.089 145.639   5
   7   4  -3 739.637 193.727   5
   7   4  -2 76.5518 50.5781   5
   7   4  -1 4122.44 450.343   5
   7   4   0 9.05723 60.2847   5
   7   4   1 43.2871 56.4068   5
   7   4   2 29.3943 51.8152   5
   7   4   3 2250.59 372.210   5
   7   4   4 821.552 230.993   5
   7   5  -9-56.8885 54.4763   5
   7   5  -8 27.1559 51.9270   5
   7   5  -7 1804.47 282.161   5
   7   5  -6 99.5674 72.3664   5
   7   5  -5 3222.04 382.890   5
   7   5  -4 689.350 180.104   5
   7   5  -3 230.787 107.510   5
   7   5  -2 237.185 126.654   5
   7   5  -1-57.4129 60.1098   5
   7   5   0 772.681 201.757   5
   7   5   1 120.800 95.2611   5
   7   5   2 4818.13 541.811   5
   7   5   3 1489.76 310.173   5
   7   6  -8 682.030 173.819   5
   7   6  -7 762.427 183.953   5
   7   6  -6 439.053 144.971   5
   7   6  -5 1796.66 288.162   5
   7   6  -4 113.307 72.2046   5
   7   6  -3 74.2395 51.7282   5
   7   6  -2 205.093 104.876   5
   7   6  -1-176.037 99.3643   5
   7   6   0 356.500 139.513   5
   7   6   1 44.5024 77.1501   5
   7   7  -5 2092.41 314.261   5
   7   7  -4 962.831 217.849   5
   7   7  -3 202.074 94.2503   5
   7   7  -2-13.4208 97.8293   5
   7   7  -1-6.56678 31.9213   5
  -8   6   7 559.157 142.523   3
  -8   6   6 262.674 94.2669   3
  -8   6   5 2280.69 270.677   3
  -8   6   4 124.121 77.8923   3
  -8   6   3 60.7050 57.0508   3
  -8   6   2 523.707 128.293   3
  -8   6   2 431.477 131.055   7
  -8   6   1 2863.01 297.816   3
  -8   5  11 43.0586 46.0578   3
  -8   5  10 127.797 81.9354   3
  -8   5   9 244.595 95.8721   3
  -8   5   8 125.817 65.9285   3
  -8   5   7 2191.04 265.580   3
  -8   5   6 2371.27 271.563   3
  -8   5   5 2598.04 284.114   3
  -8   5   4 2597.09 279.976   3
  -8   5   3 18.9997 43.8916   3
  -8   5   2 439.796 116.038   3
  -8   5   2 281.715 129.672   7
  -8   5   1 1486.00 254.301   7
  -8   5   1 1788.66 233.354   3
  -8   5   0 239.126 98.3286   3
  -8   5   0 71.3129 60.5860   7
  -8   5  -1 729.902 146.670   3
  -8   5  -1 1188.49 224.044   7
  -8   5  -2 372.475 105.409   3
   8  -5   3-17.5434 40.9633   1
  -8   5  -3 181.219 80.0026   3
  -8   5  -4 519.075 119.233   3
   8  -4 -12 196.772 109.028   2
  -8   4  11 106.442 61.1882   3
  -8   4  10 78.2326 31.7440   3
  -8   4   9 58.1145 49.4773   3
  -8   4   8 73.2103 54.5463   3
  -8   4   7 1566.48 216.749   3
  -8   4   6 7.31069 42.1136   3
  -8   4   5 4300.00 353.833   3
  -8   4   4 330.633 99.1835   3
  -8   4   3 1139.47 184.051   3
  -8   4   2 1126.18 180.445   3
   8  -4  -2 1120.44 210.922   5
  -8   4   2 1045.93 214.551   7
  -8   4   1 837.518 158.485   3
   8  -4  -1 632.208 165.305   5
  -8   4   1 1017.47 204.841   7
  -8   4   0 1247.06 189.093   3
   8  -4   0 1237.53 243.373   5
  -8   4   0 1461.54 245.790   7
  -8   4  -1 508.020 127.280   3
   8  -4   1 347.180 147.588   5
  -8   4  -1 415.801 132.997   7
  -8   4  -2 378.407 101.048   3
   8  -4   2 674.653 194.418   5
  -8   4  -2 513.612 142.322   7
   8  -4   3 75.8609 72.4505   1
  -8   4  -3 81.1332 55.4705   3
   8  -4   3 72.8916 69.9628   5
  -8   4  -4-10.5976 26.0139   3
   8  -4   4 37.7821 54.3696   5
  -8   3  11-0.16517 31.4685   3
  -8   3  10 149.115 66.8036   3
   8  -3  -9 112.871 64.3137   5
   8  -3  -8-14.4711 31.5229   5
   8  -3  -7 203.264 96.0558   5
   8  -3  -6 358.987 116.268   5
   8  -3  -5 2735.45 324.317   5
   8  -3  -4-114.182 72.0739   5
   8  -3  -3 2955.46 347.688   5
   8  -3  -2 4022.03 411.678   5
  -8   3   2 3611.11 383.680   7
   8  -3  -1 97.0878 74.2188   5
  -8   3   1 184.574 90.1819   7
   8  -3   0 1704.33 285.615   5
  -8   3   0 1897.48 273.376   7
   8  -3   1 2459.03 358.526   5
  -8   3  -1 2504.98 312.594   7
   8  -3   2 324.141 132.412   5
  -8   3  -2 211.944 91.5196   7
  -8   3  -3 1605.58 207.842   3
   8  -3   3 1500.25 293.587   1
   8  -3   3 1423.23 284.568   5
  -8   3  -4 273.980 89.0917   3
   8  -3   4 209.074 114.541   5
   8  -2 -13 1075.20 194.971   5
   8  -2 -12 58.0828 42.1681   5
   8  -2 -11 633.866 153.582   5
   8  -2 -10 33.4200 30.4850   5
   8  -2  -9 1175.49 206.237   5
   8  -2  -8 38.0923 43.6911   5
   8  -2  -7 317.148 116.344   5
   8  -2  -6 1121.30 208.067   5
   8  -2  -5 20.1860 35.4209   5
   8  -2  -4 383.620 129.048   5
   8  -2  -3-18.5208 49.2098   5
   8  -2  -2 1185.04 230.630   5
  -8   2   2 1169.95 216.957   7
   8  -2  -1-11.6947 63.7576   5
  -8   2   1 25.8310 41.2890   7
   8  -2   0 1225.74 260.832   5
  -8   2   0 1438.93 231.626   7
   8  -2   1 1990.27 328.725   5
  -8   2  -1 2419.99 299.983   7
   8  -2   2 175.762 82.8629   5
  -8   2  -2 301.164 103.434   7
   8  -2   3 2076.94 353.669   1
   8  -2   3 2185.33 362.298   5
   8  -2   4 776.562 231.736   5
   8  -1 -12 226.202 107.697   5
   8  -1 -11 1354.97 226.437   5
   8  -1 -10 10.5444 31.3246   5
   8  -1  -9 344.207 122.028   5
   8  -1  -8 69.9910 50.7234   5
   8  -1  -7 749.402 174.214   5
   8  -1  -6 1506.67 251.961   5
   8  -1  -5 11.9411 36.0787   5
   8  -1  -4 1703.25 279.087   5
   8  -1  -3 116.128 72.9505   5
  -8   1   3 198.778 91.4132   7
   8  -1  -2-9.69831 60.8427   5
  -8   1   2 69.9097 48.6783   7
   8  -1  -1 360.306 122.835   5
  -8   1   1 349.713 117.798   7
   8  -1   0 567.253 180.726   5
  -8   1   0 574.214 146.787   7
   8  -1   1 507.156 164.998   5
  -8   1  -1 231.980 97.4885   7
   8  -1   2 832.914 221.515   5
  -8   1  -2 1284.58 213.495   7
   8  -1   3 716.538 206.366   5
   8  -1   4 2666.70 412.188   5
   8   0 -12 417.063 132.179   5
   8   0 -11 98.9332 71.5665   5
   8   0 -10 926.726 193.651   5
   8   0  -9 283.295 113.150   5
   8   0  -8 2632.35 336.116   5
   8   0  -7 2902.69 351.800   5
   8   0  -6 252.902 104.948   5
   8   0  -5 3441.63 389.856   5
   8   0  -4 1235.14 241.726   5
   8   0  -3-126.850 81.0765   5
  -8   0   3 3.96855 39.5959   7
   8   0  -2 714.136 186.456   5
  -8   0   2 401.904 121.947   7
   8   0  -1 372.850 129.738   5
  -8   0   1 285.573 95.0519   7
   8   0   0 1725.72 311.156   5
  -8   0   0 1059.75 192.143   7
   8   0   1 1148.01 254.182   5
  -8   0  -1 1077.62 188.692   7
   8   0   2 164.111 101.589   5
   8   0   3 179.829 131.773   5
   8   1 -11 51.6279 52.9568   5
   8   1 -10 3129.32 364.035   5
   8   1  -9 193.687 84.8038   5
   8   1  -8-7.71607 38.2629   5
   8   1  -7 2620.40 342.079   5
   8   1  -6 8954.15 642.369   5
   8   1  -5 4284.99 450.143   5
   8   1  -4 3449.74 411.130   5
  -8  -1   4 3353.52 334.767   7
   8   1  -3 674.167 179.368   5
  -8  -1   3 920.094 172.038   7
   8   1  -2-27.5623 74.1838   5
  -8  -1   2 32.9488 30.4160   7
   8   1  -1 18.5301 59.8329   5
  -8  -1   1 75.6218 33.3584   7
   8   1   0 145.148 79.5045   5
  -8  -1   0 233.697 84.6616   7
   8   1   1 352.748 152.280   5
   8   1   2 1529.45 313.800   5
   8   1   3 469.984 178.411   5
   8   2 -10 989.271 208.130   5
   8   2  -9 263.943 108.456   5
   8   2  -8 228.437 109.219   5
   8   2  -7 114.797 67.9790   5
   8   2  -6 412.517 143.453   5
   8   2  -5-7.37298 48.3064   5
   8   2  -4 467.790 156.689   5
  -8  -2   4 663.958 140.460   7
   8   2  -3 1642.09 290.519   5
  -8  -2   3 890.982 164.307   7
   8   2  -2 0.85316 61.8791   5
  -8  -2   2 2.44575 28.4881   7
   8   2  -1 1997.95 330.242   5
  -8  -2   1 1385.27 196.728   7
   8   2   0 277.759 106.598   5
   8   2   1 160.838 100.911   5
   8   2   2 1166.71 273.528   5
   8   3  -9 782.854 189.020   5
   8   3  -8 457.982 147.373   5
   8   3  -7 111.250 72.5730   5
   8   3  -6 71.1699 57.9149   5
   8   3  -5 824.221 206.532   5
   8   3  -4 185.675 107.585   5
   8   3  -3 423.941 148.293   5
   8   3  -2 440.251 160.675   5
   8   3  -1 342.153 138.634   5
   8   3   0-91.5297 80.0259   5
   8   3   1 345.276 168.364   5
   8   4  -7 347.708 133.838   5
   8   4  -6 103.392 74.8774   5
   8   4  -5 38.4933 59.2969   5
   8   4  -4 605.017 184.122   5
   8   4  -3 31.4361 50.9622   5
   8   4  -2 323.303 148.893   5
   8   4  -1 179.546 73.6831   5
   9  -3  -6 272.796 108.338   5
   9  -3  -5 69.8994 58.8017   5
   9  -3  -4 239.709 106.721   5
   9  -3  -3 261.596 122.539   5
  -9   3   3 299.433 120.368   7
   9  -3  -2 57.0001 58.7673   5
  -9   3   2-11.9948 33.6186   7
   9  -3  -1 533.727 167.052   5
   9  -3   0 1176.65 258.290   5
   9  -3   1 507.728 161.653   5
   9  -2 -11 119.386 73.7209   5
   9  -2 -10 3271.91 371.359   5
   9  -2  -9 61.8535 56.7867   5
   9  -2  -8 1706.58 273.356   5
   9  -2  -7 22.4888 42.1709   5
   9  -2  -6-72.0204 63.3630   5
   9  -2  -5 172.631 92.4304   5
   9  -2  -4-31.3106 48.3946   5
  -9   2   4-108.762 72.9235   7
   9  -2  -3 842.416 207.727   5
  -9   2   3 751.636 188.414   7
   9  -2  -2 321.778 129.603   5
  -9   2   2-16.3751 63.9191   7
   9  -2  -1 296.343 134.534   5
  -9   2   1 320.164 119.797   7
   9  -2   0 1634.84 308.950   5
  -9   2   0 1500.67 251.507   7
   9  -2   1 1640.31 332.269   5
   9  -1 -10 452.623 137.865   5
   9  -1  -9 63.7668 60.4583   5
   9  -1  -8 991.940 217.581   5
   9  -1  -7 16.7947 36.4512   5
   9  -1  -6 71.5909 61.4817   5
   9  -1  -5 110.706 78.0546   5
   9  -1  -4 97.1267 73.5115   5
  -9   1   4-26.6861 35.5648   7
   9  -1  -3 219.768 109.960   5
  -9   1   3 129.842 87.1742   7
   9  -1  -2 167.639 99.1690   5
  -9   1   2 149.774 79.4498   7
   9  -1  -1 445.944 153.523   5
  -9   1   1 913.808 192.798   7
   9  -1   0-3.70049 33.5758   5
  -9   1   0 122.424 92.8743   7
  -9   1  -1 613.062 155.467   7
   9   0  -9 1510.75 271.550   5
   9   0  -8 826.774 199.490   5
   9   0  -7 254.474 114.788   5
   9   0  -6 154.624 89.2490   5
   9   0  -5 55.3051 56.5576   5
  -9   0   5 11.7404 51.9052   7
   9   0  -4-74.1468 67.2420   5
  -9   0   4-73.2571 58.3951   7
   9   0  -3 74.7041 67.5729   5
  -9   0   3 56.7341 52.7527   7
   9   0  -2 1113.52 251.703   5
  -9   0   2 1185.46 212.674   7
   9   0  -1-171.422 103.678   5
  -9   0   1 41.9954 57.8750   7
   9   0   0 748.958 227.392   5
  -9   0   0 766.784 172.152   7
   9   1  -8 163.185 93.4954   5
   9   1  -7 203.873 97.7735   5
   9   1  -6-33.8711 47.4963   5
   9   1  -5 835.375 218.067   5
  -9  -1   5 391.236 122.920   7
   9   1  -4 362.108 140.699   5
  -9  -1   4 378.636 124.522   7
   9   1  -3 75.4351 73.4280   5
  -9  -1   3 71.0433 50.0611   7
   9   1  -2 2174.80 364.164   5
  -9  -1   2 2456.09 291.436   7
  -9  -1   1 500.718 137.036   7
 -10   0   6 166.852 114.879   7
 -10   0   5 158.106 86.2446   7
 -10   0   4 54.0946 53.3521   7
   0   0   0    0.00    0.00   0

TITL 56-3 in P-1
REM P-1 (#2 in standard setting)
CELL 0.71073   7.438772   8.519048  12.296856  90.4082 107.0293  94.7692
ZERR    3.00   0.000472   0.000439   0.000944   0.0051   0.0062   0.0047
LATT  1
SFAC C H N O S
UNIT 36.00 72.00 3.00 3.00 3.00
TREF
HKLF 4
END
;
_shelx_hkl_checksum              36136
loop_
_space_group_symop_operation_xyz
'x, y, z'
'-x, -y, -z'
loop_
_atom_site_label
_atom_site_type_symbol
_atom_site_fract_x
_atom_site_fract_y
_atom_site_fract_z
_atom_site_U_iso_or_equiv
_atom_site_adp_type
_atom_site_occupancy
_atom_site_site_symmetry_order
_atom_site_calc_flag
_atom_site_refinement_flags_posn
_atom_site_refinement_flags_adp
C1 C 0.9442(3) 0.8713(3) -0.3464(2) 0.0345(5) Uani 1 1 d . .
C2 C 1.0223(4) 0.8584(3) -0.2303(2) 0.0390(6) Uani 1 1 d . .
H2 H 1.045488 0.947496 -0.182351 0.047 Uiso 1 1 calc R U
C3 C 1.0653(4) 0.7143(3) -0.1860(2) 0.0382(6) Uani 1 1 d . .
H3 H 1.118128 0.706565 -0.107894 0.046 Uiso 1 1 calc R U
C4 C 1.0314(3) 0.5805(3) -0.25553(19) 0.0297(5) Uani 1 1 d . .
C5 C 0.9539(4) 0.5933(3) -0.3716(2) 0.0372(6) Uani 1 1 d . .
H5 H 0.929745 0.503852 -0.419244 0.045 Uiso 1 1 calc R U
C6 C 0.9121(4) 0.7383(3) -0.4170(2) 0.0428(6) Uani 1 1 d . .
H6 H 0.862136 0.746608 -0.495242 0.051 Uiso 1 1 calc R U
C7 C 0.5946(3) 0.6394(2) -0.17616(19) 0.0281(5) Uani 1 1 d . .
C8 C 0.5086(3) 0.6258(3) -0.29376(19) 0.0315(5) Uani 1 1 d . .
C9 C 0.4415(4) 0.7535(3) -0.3544(2) 0.0382(6) Uani 1 1 d . .
H9 H 0.384459 0.740823 -0.432480 0.046 Uiso 1 1 calc R U
C10 C 0.4564(4) 0.9034(3) -0.3021(2) 0.0374(6) Uani 1 1 d . .
C11 C 0.5527(3) 0.9138(3) -0.1845(2) 0.0328(5) Uani 1 1 d . .
C12 C 0.6180(3) 0.7829(3) -0.12315(19) 0.0308(5) Uani 1 1 d . .
H12 H 0.677991 0.793941 -0.045351 0.037 Uiso 1 1 calc R U
N1 N 0.6533(3) 0.5009(2) -0.11106(18) 0.0306(4) Uani 1 1 d . .
N2 N 0.3838(4) 1.0240(3) -0.3654(2) 0.0569(7) Uani 1 1 d D .
N3 N 0.5846(3) 1.0606(2) -0.12054(19) 0.0428(5) Uani 1 1 d . .
O1 O 0.8937(3) 1.0106(2) -0.39558(16) 0.0513(5) Uani 1 1 d . .
O2 O 0.9504(3) 0.3542(2) -0.13319(18) 0.0552(6) Uani 1 1 d . .
O3 O 1.2753(2) 0.42050(19) -0.11836(13) 0.0381(4) Uani 1 1 d . .
O4 O 1.0705(3) 0.28579(19) -0.28812(15) 0.0486(5) Uani 1 1 d . .
O5 O 0.5062(3) 1.1744(2) -0.16655(19) 0.0669(7) Uani 1 1 d . .
O6 O 0.6863(4) 1.0688(2) -0.02330(18) 0.0708(7) Uani 1 1 d . .
S1 S 1.08393(8) 0.39564(6) -0.19589(5) 0.03034(19) Uani 1 1 d . .
Cl1 Cl 0.48421(11) 0.44485(7) -0.36148(5) 0.0496(2) Uani 1 1 d . .
H1A H 0.755(4) 0.455(3) -0.126(2) 0.045(7) Uiso 1 1 d . .
H1B H 0.692(3) 0.531(3) -0.037(2) 0.028(6) Uiso 1 1 d . .
H1C H 0.554(5) 0.426(4) -0.123(3) 0.063(10) Uiso 1 1 d . .
H1D H 0.946(5) 1.098(4) -0.344(3) 0.080(11) Uiso 1 1 d . .
H2A H 0.373(5) 1.109(3) -0.329(3) 0.079(12) Uiso 1 1 d D .
H2B H 0.310(4) 0.994(3) -0.427(3) 0.044(8) Uiso 1 1 d . .
loop_
_atom_site_aniso_label
_atom_site_aniso_U_11
_atom_site_aniso_U_22
_atom_site_aniso_U_33
_atom_site_aniso_U_23
_atom_site_aniso_U_13
_atom_site_aniso_U_12
C1 0.0357(14) 0.0289(12) 0.0331(13) 0.0039(9) 0.0016(11) 0.0005(10)
C2 0.0492(16) 0.0275(12) 0.0338(13) -0.0035(10) 0.0029(12) 0.0008(11)
C3 0.0493(16) 0.0342(13) 0.0250(12) -0.0001(9) 0.0017(11) 0.0033(11)
C4 0.0290(13) 0.0300(11) 0.0286(12) 0.0033(9) 0.0063(10) 0.0016(9)
C5 0.0492(16) 0.0300(12) 0.0272(12) -0.0036(9) 0.0039(11) 0.0013(11)
C6 0.0553(18) 0.0365(13) 0.0272(13) 0.0027(10) -0.0016(12) -0.0001(12)
C7 0.0268(12) 0.0278(11) 0.0292(12) 0.0027(9) 0.0067(10) 0.0045(9)
C8 0.0365(14) 0.0286(12) 0.0286(12) -0.0031(9) 0.0097(10) -0.0022(10)
C9 0.0440(16) 0.0389(13) 0.0255(12) 0.0030(10) 0.0018(11) -0.0016(11)
C10 0.0375(14) 0.0324(12) 0.0390(14) 0.0087(10) 0.0060(11) 0.0033(10)
C11 0.0342(13) 0.0255(11) 0.0372(13) -0.0006(9) 0.0076(11) 0.0043(10)
C12 0.0346(13) 0.0307(12) 0.0242(12) 0.0005(9) 0.0035(10) 0.0047(10)
N1 0.0357(12) 0.0261(10) 0.0294(12) 0.0015(8) 0.0077(9) 0.0057(9)
N2 0.0722(19) 0.0379(14) 0.0430(15) 0.0094(11) -0.0113(14) 0.0075(13)
N3 0.0505(14) 0.0275(11) 0.0471(14) -0.0020(9) 0.0096(11) 0.0035(9)
O1 0.0673(14) 0.0290(9) 0.0433(11) 0.0061(8) -0.0060(10) 0.0036(9)
O2 0.0524(12) 0.0494(11) 0.0799(14) 0.0326(10) 0.0391(11) 0.0215(9)
O3 0.0382(10) 0.0409(9) 0.0323(9) 0.0029(7) 0.0040(8) 0.0105(8)
O4 0.0695(14) 0.0305(9) 0.0385(10) -0.0048(7) 0.0042(9) 0.0062(9)
O5 0.0852(17) 0.0283(10) 0.0764(15) 0.0000(9) 0.0032(13) 0.0190(10)
O6 0.104(2) 0.0425(11) 0.0462(13) -0.0140(9) -0.0078(13) 0.0072(12)
S1 0.0336(4) 0.0272(3) 0.0301(3) 0.0036(2) 0.0083(3) 0.0057(2)
Cl1 0.0793(6) 0.0336(4) 0.0343(4) -0.0080(3) 0.0172(3) -0.0050(3)
loop_
_atom_type_symbol
_atom_type_description
_atom_type_scat_dispersion_real
_atom_type_scat_dispersion_imag
_atom_type_scat_source
C C 0.0033 0.0016 'International Tables Vol C Tables 4.2.6.8 and 6.1.1.4'
H H 0.0000 0.0000 'International Tables Vol C Tables 4.2.6.8 and 6.1.1.4'
N N 0.0061 0.0033 'International Tables Vol C Tables 4.2.6.8 and 6.1.1.4'
O O 0.0106 0.0060 'International Tables Vol C Tables 4.2.6.8 and 6.1.1.4'
S S 0.1246 0.1234 'International Tables Vol C Tables 4.2.6.8 and 6.1.1.4'
Cl Cl 0.1484 0.1585 'International Tables Vol C Tables 4.2.6.8 and 6.1.1.4'
loop_
_geom_angle_atom_site_label_1
_geom_angle_atom_site_label_2
_geom_angle_atom_site_label_3
_geom_angle
O1 C1 C6 117.6(2)
O1 C1 C2 122.8(2)
C6 C1 C2 119.5(2)
C3 C2 C1 119.9(2)
C3 C2 H2 120.0
C1 C2 H2 120.0
C2 C3 C4 121.0(2)
C2 C3 H3 119.5
C4 C3 H3 119.5
C3 C4 C5 119.1(2)
C3 C4 S1 120.05(17)
C5 C4 S1 120.80(17)
C6 C5 C4 120.2(2)
C6 C5 H5 119.9
C4 C5 H5 119.9
C5 C6 C1 120.2(2)
C5 C6 H6 119.9
C1 C6 H6 119.9
C12 C7 C8 119.01(19)
C12 C7 N1 120.4(2)
C8 C7 N1 120.59(19)
C9 C8 C7 121.0(2)
C9 C8 Cl1 120.01(18)
C7 C8 Cl1 119.00(17)
C8 C9 C10 121.8(2)
C8 C9 H9 119.1
C10 C9 H9 119.1
N2 C10 C9 119.3(2)
N2 C10 C11 125.3(2)
C9 C10 C11 115.4(2)
C12 C11 C10 122.3(2)
C12 C11 N3 116.0(2)
C10 C11 N3 121.6(2)
C7 C12 C11 120.3(2)
C7 C12 H12 119.8
C11 C12 H12 119.8
C7 N1 H1A 115.0(16)
C7 N1 H1B 107.4(15)
H1A N1 H1B 107(2)
C7 N1 H1C 110(2)
H1A N1 H1C 108(3)
H1B N1 H1C 109(3)
C10 N2 H2A 117(2)
C10 N2 H2B 112.2(19)
H2A N2 H2B 123(3)
O6 N3 O5 121.9(2)
O6 N3 C11 119.6(2)
O5 N3 C11 118.5(2)
C1 O1 H1D 111(2)
O4 S1 O2 113.43(13)
O4 S1 O3 112.36(10)
O2 S1 O3 110.39(12)
O4 S1 C4 107.47(11)
O2 S1 C4 107.05(10)
O3 S1 C4 105.65(10)
loop_
_geom_bond_atom_site_label_1
_geom_bond_atom_site_label_2
_geom_bond_distance
C1 O1 1.366(3)
C1 C6 1.383(3)
C1 C2 1.384(3)
C2 C3 1.371(3)
C2 H2 0.9300
C3 C4 1.381(3)
C3 H3 0.9300
C4 C5 1.383(3)
C4 S1 1.767(2)
C5 C6 1.381(3)
C5 H5 0.9300
C6 H6 0.9300
C7 C12 1.355(3)
C7 C8 1.399(3)
C7 N1 1.455(3)
C8 C9 1.368(3)
C8 Cl1 1.718(2)
C9 C10 1.407(3)
C9 H9 0.9300
C10 N2 1.346(3)
C10 C11 1.411(3)
C11 C12 1.392(3)
C11 N3 1.438(3)
C12 H12 0.9300
N1 H1A 0.94(3)
N1 H1B 0.90(3)
N1 H1C 0.91(4)
N2 H2A 0.871(18)
N2 H2B 0.82(3)
N3 O6 1.211(3)
N3 O5 1.228(3)
O1 H1D 0.96(4)
O2 S1 1.4492(19)
O3 S1 1.4605(17)
O4 S1 1.4405(18)
loop_
_geom_torsion_atom_site_label_1
_geom_torsion_atom_site_label_2
_geom_torsion_atom_site_label_3
_geom_torsion_atom_site_label_4
_geom_torsion
O1 C1 C2 C3 178.3(2)
C6 C1 C2 C3 -0.6(4)
C1 C2 C3 C4 -0.2(4)
C2 C3 C4 C5 0.4(4)
C2 C3 C4 S1 -178.7(2)
C3 C4 C5 C6 0.4(4)
S1 C4 C5 C6 179.5(2)
C4 C5 C6 C1 -1.2(4)
O1 C1 C6 C5 -177.6(2)
C2 C1 C6 C5 1.4(4)
C12 C7 C8 C9 -2.7(4)
N1 C7 C8 C9 175.6(2)
C12 C7 C8 Cl1 178.40(18)
N1 C7 C8 Cl1 -3.3(3)
C7 C8 C9 C10 0.3(4)
Cl1 C8 C9 C10 179.2(2)
C8 C9 C10 N2 -178.4(3)
C8 C9 C10 C11 2.9(4)
N2 C10 C11 C12 177.4(3)
C9 C10 C11 C12 -3.9(4)
N2 C10 C11 N3 -0.9(4)
C9 C10 C11 N3 177.8(2)
C8 C7 C12 C11 1.7(3)
N1 C7 C12 C11 -176.6(2)
C10 C11 C12 C7 1.7(4)
N3 C11 C12 C7 -179.9(2)
C12 C11 N3 O6 10.2(4)
C10 C11 N3 O6 -171.4(3)
C12 C11 N3 O5 -169.5(2)
C10 C11 N3 O5 8.9(4)
C3 C4 S1 O4 -168.7(2)
C5 C4 S1 O4 12.2(2)
C3 C4 S1 O2 69.1(2)
C5 C4 S1 O2 -110.0(2)
C3 C4 S1 O3 -48.5(2)
C5 C4 S1 O3 132.4(2)
